data_PCOD9433864
_publ_section_title
;
Structure prediction by ZEFSAII (Michael W. Deem and Ramdas Pophale) SiO2 
 PCOD9433864
Probable space group: P C C N
;
_chemical_formula_sum "Si O2"
_cell_formula_units_Z 40
_cell_length_a 5.612134
_cell_length_b 12.009563
_cell_length_c 27.314723
_cell_angle_alpha 90.000000
_cell_angle_beta 90.000000
_cell_angle_gamma 90.000000
_cell_volume 1840.992577
_symmetry_space_group_name_H-M "P C C N"
_symmetry_group_IT_number 56
_symmetry_cell_setting 'orthorhombic'
loop_
_space_group_symop_operation_xyz
x,y,z
1/2-x,1/2-y,z
1/2+x,-y,1/2-z
-x,1/2+y,1/2-z
-x,-y,-z
1/2+x,1/2+y,-z
1/2-x,y,1/2+z
x,1/2-y,1/2+z
loop_
_atom_site_type_symbol
_atom_site_label
_atom_site_fract_x
_atom_site_fract_y
_atom_site_fract_z
Si Si1 0.253624 0.012222 0.970670
Si Si2 0.911818 0.445653 0.311011
Si Si3 0.237758 0.886128 0.367607
Si Si4 0.750000 0.750000 0.077375
Si Si5 0.872204 0.864868 0.279158
Si Si6 0.750000 0.250000 0.866473
O O1 0.258375 0.138723 0.953359
O O2 0.280986 0.931734 0.923043
O O3 0.500000 0.000000 0.000000
O O4 0.000000 0.000000 0.000000
O O5 0.803775 0.532183 0.272786
O O6 0.729069 0.369641 0.340215
O O7 0.058165 0.529966 0.345868
O O8 0.025624 0.352993 0.275262
O O9 0.250000 0.750000 0.370306
O O10 0.037192 0.897647 0.325168
O O11 0.503154 0.740146 0.106733
O O12 0.750000 0.750000 0.293262
#
# Coordination Sequence:
#
# PCOD9433864 Si02
#       6
#     8   8   8   4   8   4
#     4  12  30  51  81 114 150 200 260 329 401 466
#     4  12  27  45  73 111 156 207 263 313 388 467
#     4  12  27  50  74 111 154 203 259 328 393 471
#     4  12  26  54  78 110 154 200 266 322 394 464
#     4  12  27  44  73 109 158 208 260 319 386 469
#     4  12  28  46  82 108 156 210 256 324 380 464
#
# _framework density 21.727408
#
# number of rings (size 3 to 8) (size 9 to 14) (size 15 to 20)
#    0.000    0.000    6.000    2.400   11.200    0.000 
#    0.000    0.000    0.000    0.000    0.000    0.000 
#    0.000    0.000    0.000    0.000    0.000    0.000 
#
# Total GULP energy -222767.825532 kJ/mol
# GULP energy per Si atom -5569.195638 kJ/mol
# Density = 2.167796 g / cm^3
# Si number density = 21.727408 Si / 1000 Ang^3
#
#
#
# Elastic Constant Matrix: (Units=GPa)
#
#
# Indices 1 2 3 4 5 6 
#
# 1 89.8535 38.4642 49.9784 0.0000 0.0000 0.0000
# 2 38.4642 166.7761 43.0558 0.0000 0.0000 0.0000
# 3 49.9784 43.0558 123.4748 0.0000 0.0000 0.0000
# 4 0.0000 0.0000 0.0000 162.5126 0.0000 0.0000
# 5 0.0000 0.0000 0.0000 0.0000 55.0660 0.0000
# 6 0.0000 0.0000 0.0000 0.0000 0.0000 50.8795
#
#
#
# Elastic Compliance Matrix: (Units=1/GPa)
#
#
# Indices 1 2 3 4 5 6 
#
# 1 0.014991 -0.002078 -0.005343 0.000000 0.000000 0.000000
# 2 -0.002078 0.006877 -0.001557 0.000000 0.000000 0.000000
# 3 -0.005343 -0.001557 0.010804 0.000000 0.000000 0.000000
# 4 0.000000 0.000000 0.000000 0.006153 0.000000 0.000000
# 5 0.000000 0.000000 0.000000 0.000000 0.018160 0.000000
# 6 0.000000 0.000000 0.000000 0.000000 0.000000 0.019654
#
#
# Mechanical properties :
#
#
# Convention : Reuss Voigt Hill
#
# Bulk Modulus (GPa) = 67.95223 71.45568 69.70396
# Shear Modulus (GPa) = 50.25032 70.26534 60.25783
#
# Velocity S-wave (km/s) = 4.81434 5.69295 5.27198
# Velocity P-wave (km/s) = 7.88965 8.72764 8.31920
#
# Compressibility (1/GPa) = 0.01471622
#
# Stress axis : x y z
#
# Youngs Moduli (GPa) = 66.70791 145.40629 92.55415
#
# Poissons Ratio (x) = 0.30215 0.49453
# Poissons Ratio (y) = 0.13862 0.14411
# Poissons Ratio (z) = 0.35643 0.22640
#
# Static dielectric constant tensor:
#      x y z
#    x 1.818860 0.000000 0.000000 
#    y 0.000000 1.778450 0.000000 
#    z 0.000000 0.000000 1.817450 
# 
# From -- ./inp_files/21548.got.cif
#   From: 2010.05.17/outbox.cif.g08.bks.cpg/sg56_11_cif.got.tgz:21548.got - 2010.06.03 13:42:01.
