data_PCOD9433513
_publ_section_title
;
Structure prediction by ZEFSAII (Michael W. Deem and Ramdas Pophale) SiO2 
 PCOD9433513
Probable space group: P C C N
;
_chemical_formula_sum "Si O2"
_cell_formula_units_Z 36
_cell_length_a 13.085768
_cell_length_b 6.560082
_cell_length_c 19.939487
_cell_angle_alpha 90.000000
_cell_angle_beta 90.000000
_cell_angle_gamma 90.000000
_cell_volume 1711.679562
_symmetry_space_group_name_H-M "P C C N"
_symmetry_group_IT_number 56
_symmetry_cell_setting 'orthorhombic'
loop_
_space_group_symop_operation_xyz
x,y,z
1/2-x,1/2-y,z
1/2+x,-y,1/2-z
-x,1/2+y,1/2-z
-x,-y,-z
1/2+x,1/2+y,-z
1/2-x,y,1/2+z
x,1/2-y,1/2+z
loop_
_atom_site_type_symbol
_atom_site_label
_atom_site_fract_x
_atom_site_fract_y
_atom_site_fract_z
Si Si1 0.469430 0.369832 0.829281
Si Si2 0.750000 0.750000 0.007008
Si Si3 0.465239 0.340445 0.056002
Si Si4 0.625726 0.014935 0.098636
Si Si5 0.643669 0.215178 0.731275
O O1 0.524870 0.543027 0.873346
O O2 0.547730 0.279784 0.775760
O O3 0.376977 0.484863 0.792117
O O4 0.428047 0.193080 0.877180
O O5 0.777234 0.556447 0.054794
O O6 0.649371 0.721508 0.962521
O O7 0.544394 0.152746 0.058698
O O8 0.500000 0.500000 0.000000
O O9 0.650823 0.141925 0.165439
O O10 0.750000 0.250000 0.768952
#
# Coordination Sequence:
#
# PCOD9433513 Si02
#       5
#     8   4   8   8   8
#     4  11  23  46  66  97 138 169 222 286 328 395
#     4  12  24  44  70  96 134 186 222 272 336 406
#     4  11  26  44  65 100 137 174 222 278 332 398
#     4  11  24  45  69  98 134 176 227 278 332 400
#     4  11  24  42  69  99 129 178 222 274 341 398
#
# _framework density 21.031974999999999
#
# number of rings (size 3 to 8) (size 9 to 14) (size 15 to 20)
#    0.000    0.889    4.444    2.000    3.111    1.778 
#    0.000    0.000    0.000    0.000    0.000    0.000 
#    0.000    0.000    0.000    0.000    0.000    0.000 
#
# Total GULP energy -201366.935894 kJ/mol
# GULP energy per Si atom -5593.525997 kJ/mol
# Density = 2.098411 g / cm^3
# Si number density = 21.031975 Si / 1000 Ang^3
#
#
#
# Elastic Constant Matrix: (Units=GPa)
#
#
# Indices 1 2 3 4 5 6 
#
# 1 105.7258 33.3234 12.3920 0.0000 0.0000 0.0000
# 2 33.3234 109.5471 17.8118 0.0000 0.0000 0.0000
# 3 12.3920 17.8118 44.0370 0.0000 0.0000 0.0000
# 4 0.0000 0.0000 0.0000 47.0630 0.0000 0.0000
# 5 0.0000 0.0000 0.0000 0.0000 30.7651 0.0000
# 6 0.0000 0.0000 0.0000 0.0000 0.0000 29.8739
#
#
#
# Elastic Compliance Matrix: (Units=1/GPa)
#
#
# Indices 1 2 3 4 5 6 
#
# 1 0.010592 -0.002930 -0.001796 0.000000 0.000000 0.000000
# 2 -0.002930 0.010582 -0.003455 0.000000 0.000000 0.000000
# 3 -0.001796 -0.003455 0.024611 0.000000 0.000000 0.000000
# 4 0.000000 0.000000 0.000000 0.021248 0.000000 0.000000
# 5 0.000000 0.000000 0.000000 0.000000 0.032504 0.000000
# 6 0.000000 0.000000 0.000000 0.000000 0.000000 0.033474
#
#
# Mechanical properties :
#
#
# Convention : Reuss Voigt Hill
#
# Bulk Modulus (GPa) = 33.98721 42.92936 38.45829
# Shear Modulus (GPa) = 31.41067 34.59259 33.00163
#
# Velocity S-wave (km/s) = 3.86874 4.05997 3.96551
# Velocity P-wave (km/s) = 6.01257 6.51410 6.26836
#
# Compressibility (1/GPa) = 0.02942284
#
# Stress axis : x y z
#
# Youngs Moduli (GPa) = 94.40696 94.50302 40.63216
#
# Poissons Ratio (x) = 0.27691 0.07296
# Poissons Ratio (y) = 0.27663 0.14040
# Poissons Ratio (z) = 0.16951 0.32655
#
# Static dielectric constant tensor:
#      x y z
#    x 1.766180 0.000000 0.000000 
#    y 0.000000 1.761130 0.000000 
#    z 0.000000 0.000000 1.763060 
# 
# From -- ./inp_files/19852.got.cif
#   From: 2010.05.17/outbox.cif.g08.bks.cpg/sg56_10_cif.got.tgz:19852.got - 2010.06.03 13:42:01.
