data_PCOD9433988
_publ_section_title
;
Structure prediction by ZEFSAII (Michael W. Deem and Ramdas Pophale) SiO2 
 PCOD9433988
Probable space group: P B C M
;
_chemical_formula_sum "Si O2"
_cell_formula_units_Z 52
_cell_length_a 6.960351
_cell_length_b 33.080918
_cell_length_c 9.731573
_cell_angle_alpha 90.000000
_cell_angle_beta 90.000000
_cell_angle_gamma 90.000000
_cell_volume 2240.741401
_symmetry_space_group_name_H-M "P B C M"
_symmetry_group_IT_number 57
_symmetry_cell_setting 'orthorhombic'
loop_
_space_group_symop_operation_xyz
x,y,z
-x,-y,1/2+z
x,1/2-y,-z
-x,1/2+y,1/2-z
-x,-y,-z
x,y,1/2-z
-x,1/2+y,z
x,1/2-y,1/2+z
loop_
_atom_site_type_symbol
_atom_site_label
_atom_site_fract_x
_atom_site_fract_y
_atom_site_fract_z
Si Si1 0.728400 0.977998 0.094328
Si Si2 0.847710 0.748182 0.750000
Si Si3 0.692336 0.289977 0.912710
Si Si4 0.758620 0.694063 0.483081
Si Si5 0.227750 0.636182 0.906750
Si Si6 0.673645 0.612122 0.592828
Si Si7 0.171349 0.953600 0.404611
O O1 0.658271 0.984900 0.250000
O O2 0.665410 0.933857 0.041079
O O3 0.959461 0.972120 0.104111
O O4 0.702870 0.016605 0.997147
O O5 0.791338 0.715173 0.629193
O O6 0.880331 0.782873 0.630414
O O7 0.722524 0.284112 0.750000
O O8 0.736533 0.250000 0.000000
O O9 0.461673 0.297526 0.932273
O O10 0.794524 0.327510 0.987299
O O11 0.781824 0.646009 0.504754
O O12 0.165430 0.646585 0.750000
O O13 0.456860 0.628349 0.899330
O O14 0.149267 0.592598 0.952596
O O15 0.749754 0.609744 0.750000
O O16 0.250653 0.950518 0.250000
#
# Coordination Sequence:
#
# PCOD9433988 Si02
#       7
#     8   4   8   8   8   8   8
#     4   9  18  33  54  70  92 124 160 193 234 289
#     4  10  16  24  42  62  92 134 156 198 228 274
#     4  11  18  27  43  69  97 130 162 195 231 276
#     4  10  16  26  40  65  96 126 159 192 234 276
#     4   9  19  31  48  70  99 126 156 194 239 281
#     4   9  17  29  45  71  97 125 154 192 238 282
#     4   9  18  35  52  72  91 123 161 195 235 283
#
# _framework density 23.206605
#
# number of rings (size 3 to 8) (size 9 to 14) (size 15 to 20)
#    0.000    2.462    3.077    0.462    1.077    1.231 
#    1.385    0.000    0.000    0.000    4.000    0.000 
#    0.000    0.000    0.000    0.000    0.000    0.000 
#
# Total GULP energy -289731.275138 kJ/mol
# GULP energy per Si atom -5571.755291 kJ/mol
# Density = 2.315379 g / cm^3
# Si number density = 23.206605 Si / 1000 Ang^3
#
#
#
# Elastic Constant Matrix: (Units=GPa)
#
#
# Indices 1 2 3 4 5 6 
#
# 1 64.7299 17.9669 17.7435 0.0000 0.0000 0.0000
# 2 17.9669 224.8222 114.9964 0.0000 0.0000 0.0000
# 3 17.7435 114.9964 181.4908 0.0000 0.0000 0.0000
# 4 0.0000 0.0000 0.0000 37.5692 0.0000 0.0000
# 5 0.0000 0.0000 0.0000 0.0000 17.3750 0.0000
# 6 0.0000 0.0000 0.0000 0.0000 0.0000 31.5963
#
#
#
# Elastic Compliance Matrix: (Units=1/GPa)
#
#
# Indices 1 2 3 4 5 6 
#
# 1 0.015950 -0.000706 -0.001112 0.000000 0.000000 0.000000
# 2 -0.000706 0.006612 -0.004120 0.000000 0.000000 0.000000
# 3 -0.001112 -0.004120 0.008229 0.000000 0.000000 0.000000
# 4 0.000000 0.000000 0.000000 0.026618 0.000000 0.000000
# 5 0.000000 0.000000 0.000000 0.000000 0.057554 0.000000
# 6 0.000000 0.000000 0.000000 0.000000 0.000000 0.031649
#
#
# Mechanical properties :
#
#
# Convention : Reuss Voigt Hill
#
# Bulk Modulus (GPa) = 52.87019 85.82850 69.34935
# Shear Modulus (GPa) = 30.34104 38.66385 34.50244
#
# Velocity S-wave (km/s) = 3.61976 4.08618 3.86002
# Velocity P-wave (km/s) = 6.34839 7.70242 7.05795
#
# Compressibility (1/GPa) = 0.01891425
#
# Stress axis : x y z
#
# Youngs Moduli (GPa) = 62.69763 151.24031 121.51437
#
# Poissons Ratio (x) = 0.10674 0.13514
# Poissons Ratio (y) = 0.04425 0.50070
# Poissons Ratio (z) = 0.06973 0.62319
#
# Static dielectric constant tensor:
#      x y z
#    x 2.066670 0.000000 0.000000 
#    y 0.000000 1.871630 0.000000 
#    z 0.000000 0.000000 1.790140 
# 
# From -- ./inp_files/3564.got.cif
#   From: 2010.05.17/outbox.cif.g08.bks.cpg/sg57_2_cif.got.tgz:3564.got - 2010.06.03 13:58:18.
