data_PCOD9433444
_publ_section_title
;
Structure prediction by ZEFSAII (Michael W. Deem and Ramdas Pophale) SiO2 
 PCOD9433444
Probable space group: P C C N
;
_chemical_formula_sum "Si O2"
_cell_formula_units_Z 32
_cell_length_a 4.749096
_cell_length_b 11.815911
_cell_length_c 25.229545
_cell_angle_alpha 90.000000
_cell_angle_beta 90.000000
_cell_angle_gamma 90.000000
_cell_volume 1415.753285
_symmetry_space_group_name_H-M "P C C N"
_symmetry_group_IT_number 56
_symmetry_cell_setting 'orthorhombic'
loop_
_space_group_symop_operation_xyz
x,y,z
1/2-x,1/2-y,z
1/2+x,-y,1/2-z
-x,1/2+y,1/2-z
-x,-y,-z
1/2+x,1/2+y,-z
1/2-x,y,1/2+z
x,1/2-y,1/2+z
loop_
_atom_site_type_symbol
_atom_site_label
_atom_site_fract_x
_atom_site_fract_y
_atom_site_fract_z
Si Si1 0.325153 0.501075 0.213928
Si Si2 0.935783 0.864174 0.886243
Si Si3 0.499695 0.326472 0.362706
Si Si4 0.564066 0.017940 0.061453
O O1 0.581841 0.548918 0.248424
O O2 0.459676 0.408678 0.173977
O O3 0.156819 0.595764 0.180565
O O4 0.750000 0.750000 0.887384
O O5 0.736734 0.954025 0.914442
O O6 0.225023 0.882429 0.918785
O O7 0.750000 0.250000 0.386281
O O8 0.352801 0.403966 0.407565
O O9 0.250000 0.250000 0.339777
O O10 0.500000 0.000000 0.000000
#
# Coordination Sequence:
#
# PCOD9433444 Si02
#       4
#     8   8   8   8
#     4  11  23  41  64  94 130 170 217 266 319 383
#     4  11  24  43  65  94 130 168 214 270 324 387
#     4  11  23  41  63  92 129 170 217 272 326 390
#     4  11  24  43  65  94 128 166 214 270 327 392
#
# _framework density 22.602810000000002
#
# number of rings (size 3 to 8) (size 9 to 14) (size 15 to 20)
#    0.000    1.000    0.000    9.000    0.000    6.000 
#    0.000    2.500    0.000    0.000    0.000    0.000 
#    0.000    0.000    0.000    0.000    0.000    0.000 
#
# Total GULP energy -178569.296032 kJ/mol
# GULP energy per Si atom -5580.290501 kJ/mol
# Density = 2.255136 g / cm^3
# Si number density = 22.602810 Si / 1000 Ang^3
#
#
#
# Elastic Constant Matrix: (Units=GPa)
#
#
# Indices 1 2 3 4 5 6 
#
# 1 128.1125 22.3224 40.4766 0.0000 0.0000 0.0000
# 2 22.3224 92.8619 40.2983 0.0000 0.0000 0.0000
# 3 40.4766 40.2983 139.6392 0.0000 0.0000 0.0000
# 4 0.0000 0.0000 0.0000 9.1157 0.0000 0.0000
# 5 0.0000 0.0000 0.0000 0.0000 24.0596 0.0000
# 6 0.0000 0.0000 0.0000 0.0000 0.0000 40.6827
#
#
#
# Elastic Compliance Matrix: (Units=1/GPa)
#
#
# Indices 1 2 3 4 5 6 
#
# 1 0.008697 -0.001139 -0.002192 0.000000 0.000000 0.000000
# 2 -0.001139 0.012460 -0.003265 0.000000 0.000000 0.000000
# 3 -0.002192 -0.003265 0.008739 0.000000 0.000000 0.000000
# 4 0.000000 0.000000 0.000000 0.109701 0.000000 0.000000
# 5 0.000000 0.000000 0.000000 0.000000 0.041563 0.000000
# 6 0.000000 0.000000 0.000000 0.000000 0.000000 0.024581
#
#
# Mechanical properties :
#
#
# Convention : Reuss Voigt Hill
#
# Bulk Modulus (GPa) = 59.87385 62.97869 61.42627
# Shear Modulus (GPa) = 22.27159 31.93934 27.10547
#
# Velocity S-wave (km/s) = 3.14243 3.76316 3.46671
# Velocity P-wave (km/s) = 6.30187 6.84146 6.57720
#
# Compressibility (1/GPa) = 0.01670178
#
# Stress axis : x y z
#
# Youngs Moduli (GPa) = 114.98572 80.25926 114.42819
#
# Poissons Ratio (x) = 0.09144 0.25084
# Poissons Ratio (y) = 0.13100 0.37366
# Poissons Ratio (z) = 0.25206 0.26208
#
# Static dielectric constant tensor:
#      x y z
#    x 1.852320 0.000000 0.000000 
#    y 0.000000 2.019420 0.000000 
#    z 0.000000 0.000000 1.926440 
# 
# From -- ./inp_files/19821.got.cif
#   From: 2010.05.17/outbox.cif.g08.bks.cpg/sg56_10_cif.got.tgz:19821.got - 2010.06.03 13:42:01.
