data_PCOD9433367
_publ_section_title
;
Structure prediction by ZEFSAII (Michael W. Deem and Ramdas Pophale) SiO2 
 PCOD9433367
Probable space group: P C C N
;
_chemical_formula_sum "Si O2"
_cell_formula_units_Z 48
_cell_length_a 24.041710
_cell_length_b 5.831023
_cell_length_c 12.607809
_cell_angle_alpha 90.000000
_cell_angle_beta 90.000000
_cell_angle_gamma 90.000000
_cell_volume 1767.460552
_symmetry_space_group_name_H-M "P C C N"
_symmetry_group_IT_number 56
_symmetry_cell_setting 'orthorhombic'
loop_
_space_group_symop_operation_xyz
x,y,z
1/2-x,1/2-y,z
1/2+x,-y,1/2-z
-x,1/2+y,1/2-z
-x,-y,-z
1/2+x,1/2+y,-z
1/2-x,y,1/2+z
x,1/2-y,1/2+z
loop_
_atom_site_type_symbol
_atom_site_label
_atom_site_fract_x
_atom_site_fract_y
_atom_site_fract_z
Si Si1 0.008100 0.609286 0.798993
Si Si2 0.625937 0.010138 0.271786
Si Si3 0.082742 0.492115 0.019665
Si Si4 0.698565 0.869444 0.662673
Si Si5 0.898053 0.991666 0.016395
Si Si6 0.300956 0.888905 0.128684
O O1 0.963331 0.544632 0.888790
O O2 0.000351 0.881588 0.776236
O O3 0.074521 0.595358 0.795108
O O4 0.655958 0.814813 0.208352
O O5 0.611952 0.940952 0.391955
O O6 0.665183 0.219881 0.295392
O O7 0.074538 0.253850 0.952395
O O8 0.149112 0.507703 0.055528
O O9 0.072299 0.760345 0.986085
O O10 0.750000 0.750000 0.602563
O O11 0.659680 0.013235 0.582283
O O12 0.723467 0.962923 0.774197
O O13 0.250000 0.750000 0.075170
#
# Coordination Sequence:
#
# PCOD9433367 Si02
#       6
#     8   8   8   8   8   8
#     4  12  20  40  75 102 135 184 229 286 345 416
#     4  11  24  45  70  99 138 185 229 286 349 414
#     4  11  23  45  69 104 138 179 235 279 350 413
#     4  12  26  43  69  99 140 183 240 284 349 415
#     4  11  25  42  69  99 140 177 224 286 338 413
#     4  11  22  41  69  96 136 183 230 286 345 412
#
# _framework density 27.157608
#
# number of rings (size 3 to 8) (size 9 to 14) (size 15 to 20)
#    0.000    0.667    8.333    0.000    2.333    3.333 
#    0.000    2.500    0.000    0.000    0.000    0.000 
#    0.000    0.000    0.000    0.000    0.000    0.000 
#
# Total GULP energy -267409.011477 kJ/mol
# GULP energy per Si atom -5571.021072 kJ/mol
# Density = 2.709580 g / cm^3
# Si number density = 27.157608 Si / 1000 Ang^3
#
#
#
# Elastic Constant Matrix: (Units=GPa)
#
#
# Indices 1 2 3 4 5 6 
#
# 1 96.6506 -3.9373 1.7924 0.0000 0.0000 0.0000
# 2 -3.9373 133.6971 9.7513 0.0000 0.0000 0.0000
# 3 1.7924 9.7513 45.9032 0.0000 0.0000 0.0000
# 4 0.0000 0.0000 0.0000 54.7968 0.0000 0.0000
# 5 0.0000 0.0000 0.0000 0.0000 -86.3828 0.0000
# 6 0.0000 0.0000 0.0000 0.0000 0.0000 53.1261
#
#
#
# Elastic Compliance Matrix: (Units=1/GPa)
#
#
# Indices 1 2 3 4 5 6 
#
# 1 0.010369 0.000340 -0.000477 0.000000 0.000000 0.000000
# 2 0.000340 0.007608 -0.001630 0.000000 0.000000 0.000000
# 3 -0.000477 -0.001630 0.022150 0.000000 0.000000 0.000000
# 4 0.000000 0.000000 0.000000 0.018249 0.000000 0.000000
# 5 0.000000 0.000000 0.000000 0.000000 -0.011576 0.000000
# 6 0.000000 0.000000 0.000000 0.000000 0.000000 0.018823
#
#
# Mechanical properties :
#
#
# Convention : Reuss Voigt Hill
#
# Bulk Modulus (GPa) = 27.32660 32.38486 29.85573
# Shear Modulus (GPa) = 61.45922 22.21763 41.83842
#
# Velocity S-wave (km/s) = 4.76232 2.86335 3.92928
# Velocity P-wave (km/s) = 6.35009 4.78355 5.62166
#
# Compressibility (1/GPa) = 0.03659438
#
# Stress axis : x y z
#
# Youngs Moduli (GPa) = 96.43893 131.43254 45.14719
#
# Poissons Ratio (x) = -0.04471 0.02154
# Poissons Ratio (y) = -0.03281 0.07357
# Poissons Ratio (z) = 0.04602 0.21418
#
# Static dielectric constant tensor:
#      x y z
#    x 2.122870 0.000000 0.000000 
#    y 0.000000 3.636720 0.000000 
#    z 0.000000 0.000000 2.347200 
# 
# From -- ./inp_files/13375.got.cif
#   From: 2010.05.17/outbox.cif.g08.bks.cpg/sg56_7_cif.got.tgz:13375.got - 2010.06.03 13:42:01.
