data_PCOD9433676
_publ_section_title
;
Structure prediction by ZEFSAII (Michael W. Deem and Ramdas Pophale) SiO2 
 PCOD9433676
Probable space group: P C C N
;
_chemical_formula_sum "Si O2"
_cell_formula_units_Z 32
_cell_length_a 7.288254
_cell_length_b 9.415774
_cell_length_c 18.102286
_cell_angle_alpha 90.000000
_cell_angle_beta 90.000000
_cell_angle_gamma 90.000000
_cell_volume 1242.261276
_symmetry_space_group_name_H-M "P C C N"
_symmetry_group_IT_number 56
_symmetry_cell_setting 'orthorhombic'
loop_
_space_group_symop_operation_xyz
x,y,z
1/2-x,1/2-y,z
1/2+x,-y,1/2-z
-x,1/2+y,1/2-z
-x,-y,-z
1/2+x,1/2+y,-z
1/2-x,y,1/2+z
x,1/2-y,1/2+z
loop_
_atom_site_type_symbol
_atom_site_label
_atom_site_fract_x
_atom_site_fract_y
_atom_site_fract_z
Si Si1 0.086111 0.100072 0.405311
Si Si2 0.684143 0.393709 0.286845
Si Si3 0.465325 0.214700 0.062718
Si Si4 0.951663 0.993134 0.139540
O O1 0.999698 0.173428 0.477085
O O2 0.994855 0.155872 0.331296
O O3 0.306523 0.100974 0.406000
O O4 0.026251 0.933011 0.400206
O O5 0.750000 0.250000 0.248578
O O6 0.632885 0.499328 0.221940
O O7 0.838728 0.447311 0.344539
O O8 0.250000 0.250000 0.070429
O O9 0.553427 0.355562 0.097139
#
# Coordination Sequence:
#
# PCOD9433676 Si02
#       4
#     8   8   8   8
#     4  11  26  48  73 116 150 201 254 316 389 462
#     4  12  27  46  79 115 148 201 262 317 391 462
#     4  11  25  47  77 109 156 201 251 313 393 462
#     4  12  26  51  79 108 157 204 255 328 386 463
#
# _framework density 25.759473
#
# number of rings (size 3 to 8) (size 9 to 14) (size 15 to 20)
#    0.000    0.500    5.000    2.250    3.500    5.000 
#    0.000    0.000    0.000    0.000    0.000    0.000 
#    0.000    0.000    0.000    0.000    0.000    0.000 
#
# Total GULP energy -179048.710147 kJ/mol
# GULP energy per Si atom -5595.272192 kJ/mol
# Density = 2.570084 g / cm^3
# Si number density = 25.759473 Si / 1000 Ang^3
#
#
#
# Elastic Constant Matrix: (Units=GPa)
#
#
# Indices 1 2 3 4 5 6 
#
# 1 118.1156 30.5069 20.6714 0.0000 0.0000 0.0000
# 2 30.5069 97.1113 25.9258 0.0000 0.0000 0.0000
# 3 20.6714 25.9258 72.9117 0.0000 0.0000 0.0000
# 4 0.0000 0.0000 0.0000 53.4748 0.0000 0.0000
# 5 0.0000 0.0000 0.0000 0.0000 27.3491 0.0000
# 6 0.0000 0.0000 0.0000 0.0000 0.0000 22.4319
#
#
#
# Elastic Compliance Matrix: (Units=1/GPa)
#
#
# Indices 1 2 3 4 5 6 
#
# 1 0.009420 -0.002482 -0.001788 0.000000 0.000000 0.000000
# 2 -0.002482 0.012031 -0.003574 0.000000 0.000000 0.000000
# 3 -0.001788 -0.003574 0.015493 0.000000 0.000000 0.000000
# 4 0.000000 0.000000 0.000000 0.018700 0.000000 0.000000
# 5 0.000000 0.000000 0.000000 0.000000 0.036564 0.000000
# 6 0.000000 0.000000 0.000000 0.000000 0.000000 0.044579
#
#
# Mechanical properties :
#
#
# Convention : Reuss Voigt Hill
#
# Bulk Modulus (GPa) = 47.04627 49.14963 48.09795
# Shear Modulus (GPa) = 31.33552 34.72014 33.02783
#
# Velocity S-wave (km/s) = 3.49157 3.67530 3.58461
# Velocity P-wave (km/s) = 5.87861 6.09361 5.98708
#
# Compressibility (1/GPa) = 0.02125567
#
# Stress axis : x y z
#
# Youngs Moduli (GPa) = 106.15408 83.11578 64.54439
#
# Poissons Ratio (x) = 0.20629 0.11542
# Poissons Ratio (y) = 0.26346 0.23071
# Poissons Ratio (z) = 0.18983 0.29709
#
# Static dielectric constant tensor:
#      x y z
#    x 2.073210 0.000000 0.000000 
#    y 0.000000 2.118020 0.000000 
#    z 0.000000 0.000000 1.943400 
# 
# From -- ./inp_files/17807.got.cif
#   From: 2010.05.17/outbox.cif.g08.bks.cpg/sg56_9_cif.got.tgz:17807.got - 2010.06.03 13:42:01.
