data_PCOD9433138
_publ_section_title
;
Structure prediction by ZEFSAII (Michael W. Deem and Ramdas Pophale) SiO2 
 PCOD9433138
Probable space group: P C C N
;
_chemical_formula_sum "Si O2"
_cell_formula_units_Z 32
_cell_length_a 4.888552
_cell_length_b 13.395265
_cell_length_c 19.576955
_cell_angle_alpha 90.000000
_cell_angle_beta 90.000000
_cell_angle_gamma 90.000000
_cell_volume 1281.966544
_symmetry_space_group_name_H-M "P C C N"
_symmetry_group_IT_number 56
_symmetry_cell_setting 'orthorhombic'
loop_
_space_group_symop_operation_xyz
x,y,z
1/2-x,1/2-y,z
1/2+x,-y,1/2-z
-x,1/2+y,1/2-z
-x,-y,-z
1/2+x,1/2+y,-z
1/2-x,y,1/2+z
x,1/2-y,1/2+z
loop_
_atom_site_type_symbol
_atom_site_label
_atom_site_fract_x
_atom_site_fract_y
_atom_site_fract_z
Si Si1 0.104430 0.856770 0.607343
Si Si2 0.490177 0.177011 0.746321
Si Si3 0.947300 0.554896 0.384604
Si Si4 0.933773 0.350255 0.046636
O O1 0.250000 0.750000 0.609753
O O2 0.977073 0.857994 0.532133
O O3 0.932475 0.862533 0.677063
O O4 0.321893 0.945595 0.611805
O O5 0.250000 0.250000 0.725182
O O6 0.524114 0.089434 0.691677
O O7 0.750000 0.250000 0.746291
O O8 0.705468 0.629166 0.410319
O O9 0.213072 0.566257 0.431817
O O10 0.750000 0.250000 0.057853
#
# Coordination Sequence:
#
# PCOD9433138 Si02
#       4
#     8   8   8   8
#     4  10  26  45  67  98 137 176 219 271 329 391
#     4  11  25  45  67  97 134 174 220 273 329 391
#     4  12  24  44  71  99 131 175 222 271 327 391
#     4  11  24  44  70 100 132 171 220 275 330 389
#
# _framework density 24.961649999999999
#
# number of rings (size 3 to 8) (size 9 to 14) (size 15 to 20)
#    0.000    1.000    0.000    6.000    0.000   16.000 
#    0.000    0.000    0.000    0.000    0.000    0.000 
#    0.000    0.000    0.000    0.000    0.000    0.000 
#
# Total GULP energy -179334.476281 kJ/mol
# GULP energy per Si atom -5604.202384 kJ/mol
# Density = 2.490484 g / cm^3
# Si number density = 24.961650 Si / 1000 Ang^3
#
#
#
# Elastic Constant Matrix: (Units=GPa)
#
#
# Indices 1 2 3 4 5 6 
#
# 1 101.0874 7.1745 11.9088 0.0000 0.0000 0.0000
# 2 7.1745 106.3516 35.9396 0.0000 0.0000 0.0000
# 3 11.9088 35.9396 175.7556 0.0000 0.0000 0.0000
# 4 0.0000 0.0000 0.0000 15.3453 0.0000 0.0000
# 5 0.0000 0.0000 0.0000 0.0000 -12.1636 0.0000
# 6 0.0000 0.0000 0.0000 0.0000 0.0000 32.8753
#
#
#
# Elastic Compliance Matrix: (Units=1/GPa)
#
#
# Indices 1 2 3 4 5 6 
#
# 1 0.009995 -0.000478 -0.000579 0.000000 0.000000 0.000000
# 2 -0.000478 0.010124 -0.002038 0.000000 0.000000 0.000000
# 3 -0.000579 -0.002038 0.006146 0.000000 0.000000 0.000000
# 4 0.000000 0.000000 0.000000 0.065166 0.000000 0.000000
# 5 0.000000 0.000000 0.000000 0.000000 -0.082213 0.000000
# 6 0.000000 0.000000 0.000000 0.000000 0.000000 0.030418
#
#
# Mechanical properties :
#
#
# Convention : Reuss Voigt Hill
#
# Bulk Modulus (GPa) = 49.81852 54.80448 52.31150
# Shear Modulus (GPa) = 95.20616 29.08952 62.14784
#
# Velocity S-wave (km/s) = 6.18254 3.41745 4.99514
# Velocity P-wave (km/s) = 8.42415 6.12985 7.36687
#
# Compressibility (1/GPa) = 0.02007286
#
# Stress axis : x y z
#
# Youngs Moduli (GPa) = 100.05363 98.77841 162.71631
#
# Poissons Ratio (x) = 0.04726 0.09427
# Poissons Ratio (y) = 0.04787 0.33157
# Poissons Ratio (z) = 0.05797 0.20128
#
# Static dielectric constant tensor:
#      x y z
#    x 1.918750 0.000000 0.000000 
#    y 0.000000 1.976250 0.000000 
#    z 0.000000 0.000000 1.976000 
# 
# From -- ./inp_files/13755.got.cif
#   From: 2010.05.17/outbox.cif.g08.bks.cpg/sg56_7_cif.got.tgz:13755.got - 2010.06.03 13:42:01.
