data_PCOD9433450
_publ_section_title
;
Structure prediction by ZEFSAII (Michael W. Deem and Ramdas Pophale) SiO2 
 PCOD9433450
Probable space group: P C C N
;
_chemical_formula_sum "Si O2"
_cell_formula_units_Z 32
_cell_length_a 17.495980
_cell_length_b 7.355122
_cell_length_c 8.309819
_cell_angle_alpha 90.000000
_cell_angle_beta 90.000000
_cell_angle_gamma 90.000000
_cell_volume 1069.349618
_symmetry_space_group_name_H-M "P C C N"
_symmetry_group_IT_number 56
_symmetry_cell_setting 'orthorhombic'
loop_
_space_group_symop_operation_xyz
x,y,z
1/2-x,1/2-y,z
1/2+x,-y,1/2-z
-x,1/2+y,1/2-z
-x,-y,-z
1/2+x,1/2+y,-z
1/2-x,y,1/2+z
x,1/2-y,1/2+z
loop_
_atom_site_type_symbol
_atom_site_label
_atom_site_fract_x
_atom_site_fract_y
_atom_site_fract_z
Si Si1 0.844475 0.679293 0.280380
Si Si2 0.500711 0.431170 0.244584
Si Si3 0.720899 0.004048 0.958640
Si Si4 0.404673 0.794170 0.553597
O O1 0.933977 0.723610 0.270025
O O2 0.810731 0.877772 0.315654
O O3 0.811096 0.547825 0.426023
O O4 0.813030 0.588628 0.118161
O O5 0.544942 0.387741 0.407457
O O6 0.436775 0.586756 0.205105
O O7 0.560535 0.399118 0.099329
O O8 0.678883 0.199484 0.953268
#
# Coordination Sequence:
#
# PCOD9433450 Si02
#       4
#     8   8   8   8
#     4  11  23  41  69  99 142 186 236 294 370 438
#     4  11  24  44  71 104 138 190 242 309 367 437
#     4  11  24  44  69 106 146 194 242 303 372 455
#     4  11  25  44  71 102 142 185 248 305 369 435
#
# _framework density 29.92473
#
# number of rings (size 3 to 8) (size 9 to 14) (size 15 to 20)
#    0.000    1.000    0.000    7.500    0.000   10.000 
#    0.000    2.500    0.000    0.000    0.000    0.000 
#    0.000    0.000    0.000    0.000    0.000    0.000 
#
# Total GULP energy -178574.919641 kJ/mol
# GULP energy per Si atom -5580.466239 kJ/mol
# Density = 2.985662 g / cm^3
# Si number density = 29.924730 Si / 1000 Ang^3
#
#
#
# Elastic Constant Matrix: (Units=GPa)
#
#
# Indices 1 2 3 4 5 6 
#
# 1 269.5648 -8.6404 54.9951 0.0000 0.0000 0.0000
# 2 -8.6404 64.2283 10.0604 0.0000 0.0000 0.0000
# 3 54.9951 10.0604 118.7835 0.0000 0.0000 0.0000
# 4 0.0000 0.0000 0.0000 40.8909 0.0000 0.0000
# 5 0.0000 0.0000 0.0000 0.0000 44.2852 0.0000
# 6 0.0000 0.0000 0.0000 0.0000 0.0000 28.3314
#
#
#
# Elastic Compliance Matrix: (Units=1/GPa)
#
#
# Indices 1 2 3 4 5 6 
#
# 1 0.004144 0.000870 -0.001992 0.000000 0.000000 0.000000
# 2 0.000870 0.015961 -0.001754 0.000000 0.000000 0.000000
# 3 -0.001992 -0.001754 0.009490 0.000000 0.000000 0.000000
# 4 0.000000 0.000000 0.000000 0.024455 0.000000 0.000000
# 5 0.000000 0.000000 0.000000 0.000000 0.022581 0.000000
# 6 0.000000 0.000000 0.000000 0.000000 0.000000 0.035296
#
#
# Mechanical properties :
#
#
# Convention : Reuss Voigt Hill
#
# Bulk Modulus (GPa) = 41.94522 62.82295 52.38409
# Shear Modulus (GPa) = 39.79980 49.11228 44.45604
#
# Velocity S-wave (km/s) = 3.65087 4.05556 3.85852
# Velocity P-wave (km/s) = 5.64084 6.55510 6.11508
#
# Compressibility (1/GPa) = 0.02384062
#
# Stress axis : x y z
#
# Youngs Moduli (GPa) = 241.31248 62.65173 105.37785
#
# Poissons Ratio (x) = -0.05448 0.20994
# Poissons Ratio (y) = -0.20983 0.18488
# Poissons Ratio (z) = 0.48076 0.10992
#
# Static dielectric constant tensor:
#      x y z
#    x 2.637770 0.000000 0.000000 
#    y 0.000000 3.354370 0.000000 
#    z 0.000000 0.000000 2.189800 
# 
# From -- ./inp_files/4317.got.cif
#   From: 2010.05.17/outbox.cif.g08.bks.cpg/sg56_3_cif.got.tgz:4317.got - 2010.06.03 13:42:01.
