data_PCOD9433031
_publ_section_title
;
Structure prediction by ZEFSAII (Michael W. Deem and Ramdas Pophale) SiO2 
 PCOD9433031
Probable space group: P C C N
;
_chemical_formula_sum "Si O2"
_cell_formula_units_Z 40
_cell_length_a 17.906757
_cell_length_b 4.915011
_cell_length_c 18.671040
_cell_angle_alpha 90.000000
_cell_angle_beta 90.000000
_cell_angle_gamma 90.000000
_cell_volume 1643.273848
_symmetry_space_group_name_H-M "P C C N"
_symmetry_group_IT_number 56
_symmetry_cell_setting 'orthorhombic'
loop_
_space_group_symop_operation_xyz
x,y,z
1/2-x,1/2-y,z
1/2+x,-y,1/2-z
-x,1/2+y,1/2-z
-x,-y,-z
1/2+x,1/2+y,-z
1/2-x,y,1/2+z
x,1/2-y,1/2+z
loop_
_atom_site_type_symbol
_atom_site_label
_atom_site_fract_x
_atom_site_fract_y
_atom_site_fract_z
Si Si1 0.562427 0.471889 0.083340
Si Si2 0.538787 0.013627 0.902005
Si Si3 0.831555 0.186183 0.212515
Si Si4 0.165421 0.279269 0.538699
Si Si5 0.634877 0.799775 0.304785
O O1 0.518535 0.198998 0.062423
O O2 0.613322 0.416594 0.151772
O O3 0.500687 0.699586 0.102528
O O4 0.615781 0.572623 0.020102
O O5 0.618384 0.995036 0.942423
O O6 0.558718 0.860364 0.826892
O O7 0.750000 0.250000 0.181478
O O8 0.866463 0.450478 0.250745
O O9 0.818840 0.946034 0.269907
O O10 0.250000 0.250000 0.514246
O O11 0.165497 0.405992 0.618808
#
# Coordination Sequence:
#
# PCOD9433031 Si02
#       5
#     8   8   8   8   8
#     4  12  25  46  73 107 151 189 237 303 376 437
#     4  10  25  46  73 105 147 192 242 297 367 441
#     4  12  25  45  71 108 148 190 245 308 369 430
#     4  10  24  46  77 110 145 192 251 303 368 440
#     4  10  25  45  75 100 148 190 245 299 362 439
#
# _framework density 24.341654999999999
#
# number of rings (size 3 to 8) (size 9 to 14) (size 15 to 20)
#    1.200    0.000    0.000    5.400    0.000    8.000 
#    0.000    6.000    0.000    0.000    0.000    0.000 
#    0.000    0.000    0.000    0.000    0.000    0.000 
#
# Total GULP energy -223786.248404 kJ/mol
# GULP energy per Si atom -5594.656210 kJ/mol
# Density = 2.428625 g / cm^3
# Si number density = 24.341655 Si / 1000 Ang^3
#
#
#
# Elastic Constant Matrix: (Units=GPa)
#
#
# Indices 1 2 3 4 5 6 
#
# 1 151.7487 41.6524 28.7522 0.0000 0.0000 0.0000
# 2 41.6524 146.2511 21.5773 0.0000 0.0000 0.0000
# 3 28.7522 21.5773 51.7363 0.0000 0.0000 0.0000
# 4 0.0000 0.0000 0.0000 27.7273 0.0000 0.0000
# 5 0.0000 0.0000 0.0000 0.0000 32.9729 0.0000
# 6 0.0000 0.0000 0.0000 0.0000 0.0000 35.6898
#
#
#
# Elastic Compliance Matrix: (Units=1/GPa)
#
#
# Indices 1 2 3 4 5 6 
#
# 1 0.007730 -0.001671 -0.003599 0.000000 0.000000 0.000000
# 2 -0.001671 0.007647 -0.002261 0.000000 0.000000 0.000000
# 3 -0.003599 -0.002261 0.022272 0.000000 0.000000 0.000000
# 4 0.000000 0.000000 0.000000 0.036066 0.000000 0.000000
# 5 0.000000 0.000000 0.000000 0.000000 0.030328 0.000000
# 6 0.000000 0.000000 0.000000 0.000000 0.000000 0.028019
#
#
# Mechanical properties :
#
#
# Convention : Reuss Voigt Hill
#
# Bulk Modulus (GPa) = 44.27183 59.30000 51.78591
# Shear Modulus (GPa) = 32.33048 36.46160 34.39604
#
# Velocity S-wave (km/s) = 3.64840 3.87448 3.76314
# Velocity P-wave (km/s) = 5.99791 6.66558 6.34054
#
# Compressibility (1/GPa) = 0.02258773
#
# Stress axis : x y z
#
# Youngs Moduli (GPa) = 129.35989 130.77208 44.89937
#
# Poissons Ratio (x) = 0.21846 0.16161
# Poissons Ratio (y) = 0.21611 0.10151
# Poissons Ratio (z) = 0.46561 0.29565
#
# Static dielectric constant tensor:
#      x y z
#    x 1.965080 0.000000 0.000000 
#    y 0.000000 1.931780 0.000000 
#    z 0.000000 0.000000 1.988880 
# 
# From -- ./inp_files/19243.got.cif
#   From: 2010.05.17/outbox.cif.g08.bks.cpg/sg56_10_cif.got.tgz:19243.got - 2010.06.03 13:42:01.
