data_PCOD9433508
_publ_section_title
;
Structure prediction by ZEFSAII (Michael W. Deem and Ramdas Pophale) SiO2 
 PCOD9433508
Probable space group: P C C N
;
_chemical_formula_sum "Si O2"
_cell_formula_units_Z 40
_cell_length_a 5.245823
_cell_length_b 30.512845
_cell_length_c 10.637696
_cell_angle_alpha 90.000000
_cell_angle_beta 90.000000
_cell_angle_gamma 90.000000
_cell_volume 1702.722641
_symmetry_space_group_name_H-M "P C C N"
_symmetry_group_IT_number 56
_symmetry_cell_setting 'orthorhombic'
loop_
_space_group_symop_operation_xyz
x,y,z
1/2-x,1/2-y,z
1/2+x,-y,1/2-z
-x,1/2+y,1/2-z
-x,-y,-z
1/2+x,1/2+y,-z
1/2-x,y,1/2+z
x,1/2-y,1/2+z
loop_
_atom_site_type_symbol
_atom_site_label
_atom_site_fract_x
_atom_site_fract_y
_atom_site_fract_z
Si Si1 0.734583 0.419185 0.229623
Si Si2 0.871306 0.877780 0.598663
Si Si3 0.974687 0.448387 0.478794
Si Si4 0.219477 0.201535 0.220021
Si Si5 0.196440 0.832586 0.396670
O O1 0.459202 0.411332 0.292488
O O2 0.885508 0.444274 0.335420
O O3 0.719872 0.438597 0.092033
O O4 0.832401 0.370413 0.207601
O O5 0.686785 0.908487 0.512877
O O6 0.768011 0.834732 0.669453
O O7 0.119724 0.858314 0.524488
O O8 0.000000 0.500000 0.500000
O O9 0.250000 0.250000 0.275953
O O10 0.461226 0.199040 0.127733
O O11 0.967151 0.189657 0.136284
#
# Coordination Sequence:
#
# PCOD9433508 Si02
#       5
#     8   8   8   8   8
#     4  11  25  47  71 110 153 206 259 322 402 473
#     4  11  24  46  74 103 160 210 266 327 412 478
#     4  12  28  45  77 113 158 215 274 340 400 490
#     4  11  25  45  75 112 155 201 265 327 404 492
#     4  11  23  45  75 109 153 204 255 323 399 479
#
# _framework density 23.491790999999999
#
# number of rings (size 3 to 8) (size 9 to 14) (size 15 to 20)
#    0.000    0.800    4.000    3.000    2.800    1.600 
#    0.000    6.000    0.000    0.000    0.000    0.000 
#    0.000    0.000    0.000    0.000    0.000    0.000 
#
# Total GULP energy -222738.622558 kJ/mol
# GULP energy per Si atom -5568.465564 kJ/mol
# Density = 2.343832 g / cm^3
# Si number density = 23.491791 Si / 1000 Ang^3
#
#
#
# Elastic Constant Matrix: (Units=GPa)
#
#
# Indices 1 2 3 4 5 6 
#
# 1 98.3498 51.3739 31.1792 0.0000 0.0000 0.0000
# 2 51.3739 125.0632 1.8447 0.0000 0.0000 0.0000
# 3 31.1792 1.8447 78.1911 0.0000 0.0000 0.0000
# 4 0.0000 0.0000 0.0000 24.0397 0.0000 0.0000
# 5 0.0000 0.0000 0.0000 0.0000 37.2754 0.0000
# 6 0.0000 0.0000 0.0000 0.0000 0.0000 15.7376
#
#
#
# Elastic Compliance Matrix: (Units=1/GPa)
#
#
# Indices 1 2 3 4 5 6 
#
# 1 0.015289 -0.006193 -0.005951 0.000000 0.000000 0.000000
# 2 -0.006193 0.010507 0.002222 0.000000 0.000000 0.000000
# 3 -0.005951 0.002222 0.015110 0.000000 0.000000 0.000000
# 4 0.000000 0.000000 0.000000 0.041598 0.000000 0.000000
# 5 0.000000 0.000000 0.000000 0.000000 0.026827 0.000000
# 6 0.000000 0.000000 0.000000 0.000000 0.000000 0.063542
#
#
# Mechanical properties :
#
#
# Convention : Reuss Voigt Hill
#
# Bulk Modulus (GPa) = 47.47833 52.26663 49.87248
# Shear Modulus (GPa) = 25.03290 29.89096 27.46193
#
# Velocity S-wave (km/s) = 3.26790 3.57094 3.42278
# Velocity P-wave (km/s) = 5.87310 6.26892 6.07424
#
# Compressibility (1/GPa) = 0.02106224
#
# Stress axis : x y z
#
# Youngs Moduli (GPa) = 65.40618 95.17408 66.18315
#
# Poissons Ratio (x) = 0.58939 0.39382
# Poissons Ratio (y) = 0.40504 -0.14703
# Poissons Ratio (z) = 0.38920 -0.21143
#
# Static dielectric constant tensor:
#      x y z
#    x 2.144610 0.000000 0.000000 
#    y 0.000000 1.982410 0.000000 
#    z 0.000000 0.000000 1.925210 
# 
# From -- ./inp_files/5678.got.cif
#   From: 2010.05.17/outbox.cif.g08.bks.cpg/sg56_3_cif.got.tgz:5678.got - 2010.06.03 13:42:01.
