data_PCOD9433491
_publ_section_title
;
Structure prediction by ZEFSAII (Michael W. Deem and Ramdas Pophale) SiO2 
 PCOD9433491
Probable space group: P C C N
;
_chemical_formula_sum "Si O2"
_cell_formula_units_Z 24
_cell_length_a 25.323697
_cell_length_b 4.287627
_cell_length_c 6.440556
_cell_angle_alpha 90.000000
_cell_angle_beta 90.000000
_cell_angle_gamma 90.000000
_cell_volume 699.306341
_symmetry_space_group_name_H-M "P C C N"
_symmetry_group_IT_number 56
_symmetry_cell_setting 'orthorhombic'
loop_
_space_group_symop_operation_xyz
x,y,z
1/2-x,1/2-y,z
1/2+x,-y,1/2-z
-x,1/2+y,1/2-z
-x,-y,-z
1/2+x,1/2+y,-z
1/2-x,y,1/2+z
x,1/2-y,1/2+z
loop_
_atom_site_type_symbol
_atom_site_label
_atom_site_fract_x
_atom_site_fract_y
_atom_site_fract_z
Si Si1 0.208681 0.491256 0.986737
Si Si2 0.876199 0.973826 0.226277
Si Si3 0.458676 0.981033 0.755679
O O1 0.250000 0.750000 0.903519
O O2 0.166442 0.256680 0.880025
O O3 0.250000 0.250000 0.093194
O O4 0.166101 0.664867 0.133732
O O5 0.916677 0.730409 0.339205
O O6 0.917252 0.235151 0.141635
O O7 0.500422 0.235364 0.851739
#
# Coordination Sequence:
#
# PCOD9433491 Si02
#       3
#     8   8   8
#     4  12  26  44  68 100 138 184 230 280 341 408
#     4  11  23  44  67  98 137 178 227 285 340 408
#     4   9  20  42  68  98 132 176 228 285 344 404
#
# _framework density 34.319723000000003
#
# number of rings (size 3 to 8) (size 9 to 14) (size 15 to 20)
#    0.000    1.333    0.000    5.000    0.000    2.667 
#    0.000   33.333    0.000    0.000    0.000    0.000 
#    0.000    0.000    0.000    0.000    0.000    0.000 
#
# Total GULP energy -133896.642689 kJ/mol
# GULP energy per Si atom -5579.026779 kJ/mol
# Density = 3.424161 g / cm^3
# Si number density = 34.319723 Si / 1000 Ang^3
#
#
#
# Elastic Constant Matrix: (Units=GPa)
#
#
# Indices 1 2 3 4 5 6 
#
# 1 475.1549 174.0138 123.9475 0.0000 0.0000 0.0000
# 2 174.0138 351.5464 77.8648 0.0000 0.0000 0.0000
# 3 123.9475 77.8648 43.3275 0.0000 0.0000 0.0000
# 4 0.0000 0.0000 0.0000 55.3358 0.0000 0.0000
# 5 0.0000 0.0000 0.0000 0.0000 91.2573 0.0000
# 6 0.0000 0.0000 0.0000 0.0000 0.0000 127.7817
#
#
#
# Elastic Compliance Matrix: (Units=1/GPa)
#
#
# Indices 1 2 3 4 5 6 
#
# 1 0.009145 0.002106 -0.029945 0.000000 0.000000 0.000000
# 2 0.002106 0.005211 -0.015389 0.000000 0.000000 0.000000
# 3 -0.029945 -0.015389 0.136401 0.000000 0.000000 0.000000
# 4 0.000000 0.000000 0.000000 0.018071 0.000000 0.000000
# 5 0.000000 0.000000 0.000000 0.000000 0.010958 0.000000
# 6 0.000000 0.000000 0.000000 0.000000 0.000000 0.007826
#
#
# Mechanical properties :
#
#
# Convention : Reuss Voigt Hill
#
# Bulk Modulus (GPa) = 15.55216 180.18678 97.86947
# Shear Modulus (GPa) = 16.92042 87.82181 52.37112
#
# Velocity S-wave (km/s) = 2.22282 5.06408 3.91061
# Velocity P-wave (km/s) = 3.33606 9.31716 6.99782
#
# Compressibility (1/GPa) = 0.06429974
#
# Stress axis : x y z
#
# Youngs Moduli (GPa) = 109.35282 191.91556 7.33134
#
# Poissons Ratio (x) = -0.40418 0.21954
# Poissons Ratio (y) = -0.23030 0.11282
# Poissons Ratio (z) = 3.27460 2.95338
#
# Static dielectric constant tensor:
#      x y z
#    x 2.357520 0.000000 0.000000 
#    y 0.000000 2.527570 0.000000 
#    z 0.000000 0.000000 3.440660 
# 
# From -- ./inp_files/4644.got.cif
#   From: 2010.05.17/outbox.cif.g08.bks.cpg/sg56_3_cif.got.tgz:4644.got - 2010.06.03 13:42:01.
