data_PCOD9433575
_publ_section_title
;
Structure prediction by ZEFSAII (Michael W. Deem and Ramdas Pophale) SiO2 
 PCOD9433575
Probable space group: P C C N
;
_chemical_formula_sum "Si O2"
_cell_formula_units_Z 40
_cell_length_a 9.317635
_cell_length_b 8.112829
_cell_length_c 23.241513
_cell_angle_alpha 90.000000
_cell_angle_beta 90.000000
_cell_angle_gamma 90.000000
_cell_volume 1756.881269
_symmetry_space_group_name_H-M "P C C N"
_symmetry_group_IT_number 56
_symmetry_cell_setting 'orthorhombic'
loop_
_space_group_symop_operation_xyz
x,y,z
1/2-x,1/2-y,z
1/2+x,-y,1/2-z
-x,1/2+y,1/2-z
-x,-y,-z
1/2+x,1/2+y,-z
1/2-x,y,1/2+z
x,1/2-y,1/2+z
loop_
_atom_site_type_symbol
_atom_site_label
_atom_site_fract_x
_atom_site_fract_y
_atom_site_fract_z
Si Si1 0.952281 0.934241 0.818195
Si Si2 0.173231 0.060227 0.501302
Si Si3 0.203716 0.439714 0.379872
Si Si4 0.943388 0.435084 0.190645
Si Si5 0.304386 0.568801 0.626412
O O1 0.008841 0.750277 0.818509
O O2 0.786375 0.945807 0.834068
O O3 0.036814 0.034766 0.867605
O O4 0.972585 0.011768 0.755531
O O5 0.250000 0.250000 0.504638
O O6 0.242225 0.996952 0.441731
O O7 0.220366 0.976193 0.560344
O O8 0.000000 0.000000 0.500000
O O9 0.250000 0.250000 0.375667
O O10 0.280513 0.536002 0.327945
O O11 0.032738 0.546454 0.145890
O O12 0.250000 0.750000 0.639577
#
# Coordination Sequence:
#
# PCOD9433575 Si02
#       5
#     8   8   8   8   8
#     4  12  26  42  71 103 137 190 234 299 363 437
#     4  11  25  48  77 105 147 194 244 308 377 451
#     4  11  24  44  71 101 142 183 239 295 364 437
#     4  12  24  46  68 100 144 181 239 293 365 440
#     4  12  26  45  71 102 142 186 243 298 365 437
#
# _framework density 22.767617000000001
#
# number of rings (size 3 to 8) (size 9 to 14) (size 15 to 20)
#    0.000    0.400    2.000    7.200    2.800    2.400 
#    0.000    0.000    0.000    0.000    0.000    0.000 
#    0.000    0.000    0.000    0.000    0.000    0.000 
#
# Total GULP energy -223373.611213 kJ/mol
# GULP energy per Si atom -5584.340280 kJ/mol
# Density = 2.271580 g / cm^3
# Si number density = 22.767617 Si / 1000 Ang^3
#
#
#
# Elastic Constant Matrix: (Units=GPa)
#
#
# Indices 1 2 3 4 5 6 
#
# 1 83.0940 21.5496 13.1452 0.0000 0.0000 0.0000
# 2 21.5496 96.1986 8.0714 0.0000 0.0000 0.0000
# 3 13.1452 8.0714 124.9276 0.0000 0.0000 0.0000
# 4 0.0000 0.0000 0.0000 53.6711 0.0000 0.0000
# 5 0.0000 0.0000 0.0000 0.0000 104.5677 0.0000
# 6 0.0000 0.0000 0.0000 0.0000 0.0000 37.7438
#
#
#
# Elastic Compliance Matrix: (Units=1/GPa)
#
#
# Indices 1 2 3 4 5 6 
#
# 1 0.012948 -0.002801 -0.001181 0.000000 0.000000 0.000000
# 2 -0.002801 0.011058 -0.000420 0.000000 0.000000 0.000000
# 3 -0.001181 -0.000420 0.008156 0.000000 0.000000 0.000000
# 4 0.000000 0.000000 0.000000 0.018632 0.000000 0.000000
# 5 0.000000 0.000000 0.000000 0.000000 0.009563 0.000000
# 6 0.000000 0.000000 0.000000 0.000000 0.000000 0.026494
#
#
# Mechanical properties :
#
#
# Convention : Reuss Voigt Hill
#
# Bulk Modulus (GPa) = 42.81367 43.30583 43.05975
# Shear Modulus (GPa) = 48.33620 56.62680 52.48150
#
# Velocity S-wave (km/s) = 4.61263 4.99256 4.80635
# Velocity P-wave (km/s) = 6.87124 7.23162 7.05373
#
# Compressibility (1/GPa) = 0.02335702
#
# Stress axis : x y z
#
# Youngs Moduli (GPa) = 77.23223 90.43303 122.60814
#
# Poissons Ratio (x) = 0.25334 0.14485
# Poissons Ratio (y) = 0.21636 0.05146
# Poissons Ratio (z) = 0.09124 0.03795
#
# Static dielectric constant tensor:
#      x y z
#    x 1.821060 0.000000 0.000000 
#    y 0.000000 1.816250 0.000000 
#    z 0.000000 0.000000 1.784840 
# 
# From -- ./inp_files/20288.got.cif
#   From: 2010.05.17/outbox.cif.g08.bks.cpg/sg56_11_cif.got.tgz:20288.got - 2010.06.03 13:42:01.
