data_PCOD9433970
_publ_section_title
;
Structure prediction by ZEFSAII (Michael W. Deem and Ramdas Pophale) SiO2 
 PCOD9433970
Probable space group: P C C N
;
_chemical_formula_sum "Si O2"
_cell_formula_units_Z 60
_cell_length_a 9.000000
_cell_length_b 18.000000
_cell_length_c 18.000000
_cell_angle_alpha 90.000000
_cell_angle_beta 90.000000
_cell_angle_gamma 90.000000
_cell_volume 2916.000000
_symmetry_space_group_name_H-M "P C C N"
_symmetry_group_IT_number 56
_symmetry_cell_setting 'orthorhombic'
loop_
_space_group_symop_operation_xyz
x,y,z
1/2-x,1/2-y,z
1/2+x,-y,1/2-z
-x,1/2+y,1/2-z
-x,-y,-z
1/2+x,1/2+y,-z
1/2-x,y,1/2+z
x,1/2-y,1/2+z
loop_
_atom_site_type_symbol
_atom_site_label
_atom_site_fract_x
_atom_site_fract_y
_atom_site_fract_z
Si Si1 0.398629 0.150024 0.649099
Si Si2 0.032691 0.574606 0.718924
Si Si3 0.704579 0.514715 0.320595
Si Si4 0.920205 0.212470 0.442391
Si Si5 0.573241 0.251416 0.768333
Si Si6 0.647621 0.042758 0.983305
Si Si7 0.250000 0.250000 0.024261
Si Si8 0.577743 0.018814 0.578732
O O1 0.294622 0.091071 0.691714
O O2 0.476537 0.207065 0.706507
O O3 0.300230 0.185803 0.582696
O O4 0.520159 0.097043 0.610455
O O5 0.953600 0.529616 0.784866
O O6 0.960629 0.542960 0.641616
O O7 0.205233 0.551529 0.717900
O O8 0.021058 0.662650 0.727726
O O9 0.708447 0.493705 0.407106
O O10 0.750000 0.250000 0.457509
O O11 0.940884 0.220211 0.353025
O O12 0.888673 0.128496 0.467554
O O13 0.087474 0.235415 0.479477
O O14 0.750000 0.250000 0.749450
O O15 0.754051 0.029236 0.053233
O O16 0.500000 0.000000 0.000000
O O17 0.500000 0.000000 0.500000
#
# Coordination Sequence:
#
# PCOD9433970 Si02
#       8
#     8   8   8   8   8   8   4   8
#     4  11  25  45  72 108 145 192 251 310 375 453
#     4  11  26  44  73 101 145 189 241 299 373 445
#     4  11  25  44  70 103 141 187 244 302 364 443
#     4  11  27  47  76 107 154 202 256 314 391 463
#     4  11  27  46  74 107 155 197 252 306 385 465
#     4  12  26  45  72 108 143 189 258 309 373 452
#     4  12  26  46  74 106 156 198 256 324 388 454
#     4  11  25  46  75 102 148 193 245 311 381 437
#
# _framework density 20.576132000000001
#
# number of rings (size 3 to 8) (size 9 to 14) (size 15 to 20)
#    0.000    0.800    2.667    4.000   11.200    3.200 
#    0.000    0.000    0.000    0.000    0.000    0.000 
#    0.000    0.000    0.000    0.000    0.000    0.000 
#
# Total GULP energy -334765.700714 kJ/mol
# GULP energy per Si atom -5579.428345 kJ/mol
# Density = 2.052930 g / cm^3
# Si number density = 20.576132 Si / 1000 Ang^3
#
#
#
# Elastic Constant Matrix: (Units=GPa)
#
#
# Indices 1 2 3 4 5 6 
#
# 1 119.2158 45.6531 29.0921 0.0000 0.0000 0.0000
# 2 45.6531 144.7251 43.9410 0.0000 0.0000 0.0000
# 3 29.0921 43.9410 77.4552 0.0000 0.0000 0.0000
# 4 0.0000 0.0000 0.0000 35.2646 0.0000 0.0000
# 5 0.0000 0.0000 0.0000 0.0000 50.6079 0.0000
# 6 0.0000 0.0000 0.0000 0.0000 0.0000 39.3856
#
#
#
# Elastic Compliance Matrix: (Units=1/GPa)
#
#
# Indices 1 2 3 4 5 6 
#
# 1 0.009882 -0.002404 -0.002348 0.000000 0.000000 0.000000
# 2 -0.002404 0.008933 -0.004164 0.000000 0.000000 0.000000
# 3 -0.002348 -0.004164 0.016155 0.000000 0.000000 0.000000
# 4 0.000000 0.000000 0.000000 0.028357 0.000000 0.000000
# 5 0.000000 0.000000 0.000000 0.000000 0.019760 0.000000
# 6 0.000000 0.000000 0.000000 0.000000 0.000000 0.025390
#
#
# Mechanical properties :
#
#
# Convention : Reuss Voigt Hill
#
# Bulk Modulus (GPa) = 58.35496 64.30761 61.33128
# Shear Modulus (GPa) = 37.87281 39.89895 38.88588
#
# Velocity S-wave (km/s) = 4.29490 4.40829 4.35196
# Velocity P-wave (km/s) = 7.28127 7.56518 7.42459
#
# Compressibility (1/GPa) = 0.01713650
#
# Stress axis : x y z
#
# Youngs Moduli (GPa) = 101.19631 111.95067 61.90067
#
# Poissons Ratio (x) = 0.26918 0.14531
# Poissons Ratio (y) = 0.24332 0.25778
# Poissons Ratio (z) = 0.23756 0.46621
#
# Static dielectric constant tensor:
#      x y z
#    x 1.789730 0.000000 0.000000 
#    y 0.000000 1.681510 0.000000 
#    z 0.000000 0.000000 1.760940 
# 
# From -- ./inp_files/15129.got.cif
#   From: 2010.05.17/outbox.ucp.g08.bks.cvg/sg56_8_cif.got.tgz:15129.got - 2010.06.11 16:37:52.
