data_PCOD9433088
_publ_section_title
;
Structure prediction by ZEFSAII (Michael W. Deem and Ramdas Pophale) SiO2 
 PCOD9433088
Probable space group: P C C N
;
_chemical_formula_sum "Si O2"
_cell_formula_units_Z 56
_cell_length_a 11.156631
_cell_length_b 14.623576
_cell_length_c 13.652949
_cell_angle_alpha 90.000000
_cell_angle_beta 90.000000
_cell_angle_gamma 90.000000
_cell_volume 2227.476463
_symmetry_space_group_name_H-M "P C C N"
_symmetry_group_IT_number 56
_symmetry_cell_setting 'orthorhombic'
loop_
_space_group_symop_operation_xyz
x,y,z
1/2-x,1/2-y,z
1/2+x,-y,1/2-z
-x,1/2+y,1/2-z
-x,-y,-z
1/2+x,1/2+y,-z
1/2-x,y,1/2+z
x,1/2-y,1/2+z
loop_
_atom_site_type_symbol
_atom_site_label
_atom_site_fract_x
_atom_site_fract_y
_atom_site_fract_z
Si Si1 0.726720 0.645788 0.088797
Si Si2 0.159410 0.625800 0.023731
Si Si3 0.914916 0.412854 0.522321
Si Si4 0.992538 0.234083 0.614964
Si Si5 0.125128 0.488372 0.288572
Si Si6 0.174005 0.065922 0.586780
Si Si7 0.979381 0.639422 0.195662
O O1 0.750000 0.750000 0.070103
O O2 0.620898 0.609764 0.158123
O O3 0.850345 0.624963 0.147074
O O4 0.722542 0.597515 0.984566
O O5 0.120815 0.519409 0.027103
O O6 0.077926 0.663714 0.112630
O O7 0.302163 0.618950 0.043611
O O8 0.125426 0.679967 0.924829
O O9 0.991678 0.322409 0.544118
O O10 0.844343 0.443795 0.622644
O O11 0.000000 0.500000 0.500000
O O12 0.010108 0.282835 0.720322
O O13 0.091258 0.154756 0.601487
O O14 0.206622 0.471848 0.193510
O O15 0.012791 0.540612 0.242384
#
# Coordination Sequence:
#
# PCOD9433088 Si02
#       7
#     8   8   8   8   8   8   8
#     4  12  25  45  75 114 154 199 267 322 397 472
#     4  11  23  49  77 109 145 209 251 312 395 464
#     4  11  26  47  73 108 158 194 259 319 384 464
#     4  11  24  44  74 109 148 196 254 320 379 466
#     4  10  25  45  70 110 147 199 248 319 378 468
#     4  11  24  43  81 104 153 199 254 317 398 457
#     4  10  25  46  74 111 146 201 260 312 399 460
#
# _framework density 25.140557000000001
#
# number of rings (size 3 to 8) (size 9 to 14) (size 15 to 20)
#    0.000    1.143    2.857    1.714    4.000    7.429 
#    0.000   11.429    0.000    0.000    0.000    0.000 
#    0.000    0.000    0.000    0.000    0.000    0.000 
#
# Total GULP energy -312168.319748 kJ/mol
# GULP energy per Si atom -5574.434281 kJ/mol
# Density = 2.508334 g / cm^3
# Si number density = 25.140557 Si / 1000 Ang^3
#
#
#
# Elastic Constant Matrix: (Units=GPa)
#
#
# Indices 1 2 3 4 5 6 
#
# 1 115.4501 42.1951 41.9762 0.0000 0.0000 0.0000
# 2 42.1951 149.6359 62.9654 0.0000 0.0000 0.0000
# 3 41.9762 62.9654 89.8688 0.0000 0.0000 0.0000
# 4 0.0000 0.0000 0.0000 49.7892 0.0000 0.0000
# 5 0.0000 0.0000 0.0000 0.0000 19.7561 0.0000
# 6 0.0000 0.0000 0.0000 0.0000 0.0000 34.5860
#
#
#
# Elastic Compliance Matrix: (Units=1/GPa)
#
#
# Indices 1 2 3 4 5 6 
#
# 1 0.010605 -0.001285 -0.004053 0.000000 0.000000 0.000000
# 2 -0.001285 0.009633 -0.006149 0.000000 0.000000 0.000000
# 3 -0.004053 -0.006149 0.017329 0.000000 0.000000 0.000000
# 4 0.000000 0.000000 0.000000 0.020085 0.000000 0.000000
# 5 0.000000 0.000000 0.000000 0.000000 0.050617 0.000000
# 6 0.000000 0.000000 0.000000 0.000000 0.000000 0.028913
#
#
# Mechanical properties :
#
#
# Convention : Reuss Voigt Hill
#
# Bulk Modulus (GPa) = 68.52862 72.13646 70.33254
# Shear Modulus (GPa) = 30.29947 34.68079 32.49013
#
# Velocity S-wave (km/s) = 3.47537 3.71816 3.59881
# Velocity P-wave (km/s) = 6.58951 6.86939 6.73090
#
# Compressibility (1/GPa) = 0.01459244
#
# Stress axis : x y z
#
# Youngs Moduli (GPa) = 94.29465 103.81457 57.70831
#
# Poissons Ratio (x) = 0.13340 0.23390
# Poissons Ratio (y) = 0.12116 0.35483
# Poissons Ratio (z) = 0.38219 0.63833
#
# Static dielectric constant tensor:
#      x y z
#    x 2.038480 0.000000 0.000000 
#    y 0.000000 2.049270 0.000000 
#    z 0.000000 0.000000 2.026360 
# 
# From -- ./inp_files/11678.got.cif
#   From: 2010.05.17/outbox.cif.g08.bks.cpg/sg56_6_cif.got.tgz:11678.got - 2010.06.03 13:42:01.
