data_PCOD9433100
_publ_section_title
;
Structure prediction by ZEFSAII (Michael W. Deem and Ramdas Pophale) SiO2 
 PCOD9433100
Probable space group: P C C N
;
_chemical_formula_sum "Si O2"
_cell_formula_units_Z 36
_cell_length_a 5.305056
_cell_length_b 19.457122
_cell_length_c 15.227052
_cell_angle_alpha 90.000000
_cell_angle_beta 90.000000
_cell_angle_gamma 90.000000
_cell_volume 1571.753389
_symmetry_space_group_name_H-M "P C C N"
_symmetry_group_IT_number 56
_symmetry_cell_setting 'orthorhombic'
loop_
_space_group_symop_operation_xyz
x,y,z
1/2-x,1/2-y,z
1/2+x,-y,1/2-z
-x,1/2+y,1/2-z
-x,-y,-z
1/2+x,1/2+y,-z
1/2-x,y,1/2+z
x,1/2-y,1/2+z
loop_
_atom_site_type_symbol
_atom_site_label
_atom_site_fract_x
_atom_site_fract_y
_atom_site_fract_z
Si Si1 0.416914 0.318600 0.235392
Si Si2 0.250000 0.750000 0.617614
Si Si3 0.670419 0.538101 0.268925
Si Si4 0.751029 0.961472 0.472061
Si Si5 0.574590 0.684014 0.966883
O O1 0.250000 0.250000 0.230480
O O2 0.605804 0.300673 0.314465
O O3 0.247599 0.385050 0.260955
O O4 0.526310 0.327761 0.134443
O O5 0.392171 0.798885 0.547543
O O6 0.376254 0.516558 0.267869
O O7 0.746324 0.538047 0.368871
O O8 0.734163 0.881910 0.496493
O O9 0.500000 0.000000 0.500000
O O10 0.000000 0.000000 0.500000
O O11 0.750000 0.750000 0.959906
#
# Coordination Sequence:
#
# PCOD9433100 Si02
#       5
#     8   4   8   8   8
#     4  10  25  46  69 101 145 187 236 302 367 422
#     4  12  24  40  76 102 136 186 254 296 358 448
#     4  11  26  46  72 104 145 187 236 295 361 431
#     4  11  26  46  72 104 144 187 237 297 362 431
#     4  10  25  46  69 103 144 189 240 305 363 432
#
# _framework density 22.904356
#
# number of rings (size 3 to 8) (size 9 to 14) (size 15 to 20)
#    0.000    1.333    0.000    2.667    9.333    3.556 
#    0.000    0.000    0.000    0.000    0.000    0.000 
#    0.000    0.000    0.000    0.000    0.000    0.000 
#
# Total GULP energy -200896.892028 kJ/mol
# GULP energy per Si atom -5580.469223 kJ/mol
# Density = 2.285222 g / cm^3
# Si number density = 22.904356 Si / 1000 Ang^3
#
#
#
# Elastic Constant Matrix: (Units=GPa)
#
#
# Indices 1 2 3 4 5 6 
#
# 1 69.0101 20.2680 36.1764 0.0000 0.0000 0.0000
# 2 20.2680 133.6033 21.2619 0.0000 0.0000 0.0000
# 3 36.1764 21.2619 135.5537 0.0000 0.0000 0.0000
# 4 0.0000 0.0000 0.0000 41.0057 0.0000 0.0000
# 5 0.0000 0.0000 0.0000 0.0000 108.2932 0.0000
# 6 0.0000 0.0000 0.0000 0.0000 0.0000 34.9733
#
#
#
# Elastic Compliance Matrix: (Units=1/GPa)
#
#
# Indices 1 2 3 4 5 6 
#
# 1 0.017325 -0.001941 -0.004319 0.000000 0.000000 0.000000
# 2 -0.001941 0.007894 -0.000720 0.000000 0.000000 0.000000
# 3 -0.004319 -0.000720 0.008643 0.000000 0.000000 0.000000
# 4 0.000000 0.000000 0.000000 0.024387 0.000000 0.000000
# 5 0.000000 0.000000 0.000000 0.000000 0.009234 0.000000
# 6 0.000000 0.000000 0.000000 0.000000 0.000000 0.028593
#
#
# Mechanical properties :
#
#
# Convention : Reuss Voigt Hill
#
# Bulk Modulus (GPa) = 50.24863 54.84219 52.54541
# Shear Modulus (GPa) = 42.85588 54.21850 48.53719
#
# Velocity S-wave (km/s) = 4.33029 4.87064 4.60839
# Velocity P-wave (km/s) = 6.85478 7.45834 7.16292
#
# Compressibility (1/GPa) = 0.01990104
#
# Stress axis : x y z
#
# Youngs Moduli (GPa) = 57.72045 126.68020 115.70293
#
# Poissons Ratio (x) = 0.24587 0.49975
# Poissons Ratio (y) = 0.11203 0.08333
# Poissons Ratio (z) = 0.24931 0.09124
#
# Static dielectric constant tensor:
#      x y z
#    x 2.053700 0.000000 0.000000 
#    y 0.000000 1.903110 0.000000 
#    z 0.000000 0.000000 1.887000 
# 
# From -- ./inp_files/9506.got.cif
#   From: 2010.05.17/outbox.cif.g08.bks.cpg/sg56_5_cif.got.tgz:9506.got - 2010.06.03 13:42:01.
