data_PCOD9433861
_publ_section_title
;
Structure prediction by ZEFSAII (Michael W. Deem and Ramdas Pophale) SiO2 
 PCOD9433861
Probable space group: P C C N
;
_chemical_formula_sum "Si O2"
_cell_formula_units_Z 28
_cell_length_a 4.950149
_cell_length_b 15.146627
_cell_length_c 14.548815
_cell_angle_alpha 90.000000
_cell_angle_beta 90.000000
_cell_angle_gamma 90.000000
_cell_volume 1090.841931
_symmetry_space_group_name_H-M "P C C N"
_symmetry_group_IT_number 56
_symmetry_cell_setting 'orthorhombic'
loop_
_space_group_symop_operation_xyz
x,y,z
1/2-x,1/2-y,z
1/2+x,-y,1/2-z
-x,1/2+y,1/2-z
-x,-y,-z
1/2+x,1/2+y,-z
1/2-x,y,1/2+z
x,1/2-y,1/2+z
loop_
_atom_site_type_symbol
_atom_site_label
_atom_site_fract_x
_atom_site_fract_y
_atom_site_fract_z
Si Si1 0.598490 0.025108 0.899055
Si Si2 0.411619 0.355234 0.875149
Si Si3 0.054770 0.166920 0.668114
Si Si4 0.750000 0.250000 0.015709
O O1 0.895698 0.064077 0.900382
O O2 0.388106 0.102541 0.868541
O O3 0.626352 0.936312 0.839146
O O4 0.500000 0.000000 0.000000
O O5 0.500798 0.319769 0.775469
O O6 0.509282 0.283844 0.950578
O O7 0.250000 0.250000 0.644968
O O8 0.830995 0.174840 0.588552
#
# Coordination Sequence:
#
# PCOD9433861 Si02
#       4
#     8   8   8   4
#     4  12  26  52  78 112 156 209 259 325 398 483
#     4  12  29  50  78 113 161 204 265 327 401 479
#     4  12  29  47  80 112 159 203 270 329 402 474
#     4  12  28  48  78 114 156 212 260 334 398 486
#
# _framework density 25.668246
#
# number of rings (size 3 to 8) (size 9 to 14) (size 15 to 20)
#    0.000    0.000    2.857    5.143   12.000    0.000 
#    0.000    0.000    0.000    0.000    0.000    0.000 
#    0.000    0.000    0.000    0.000    0.000    0.000 
#
# Total GULP energy -156533.660322 kJ/mol
# GULP energy per Si atom -5590.487869 kJ/mol
# Density = 2.560982 g / cm^3
# Si number density = 25.668246 Si / 1000 Ang^3
#
#
#
# Elastic Constant Matrix: (Units=GPa)
#
#
# Indices 1 2 3 4 5 6 
#
# 1 66.5798 31.5711 -0.0161 0.0000 0.0000 0.0000
# 2 31.5711 126.5017 24.5479 0.0000 0.0000 0.0000
# 3 -0.0161 24.5479 194.7473 0.0000 0.0000 0.0000
# 4 0.0000 0.0000 0.0000 40.6532 0.0000 0.0000
# 5 0.0000 0.0000 0.0000 0.0000 20.4904 0.0000
# 6 0.0000 0.0000 0.0000 0.0000 0.0000 49.2110
#
#
#
# Elastic Compliance Matrix: (Units=1/GPa)
#
#
# Indices 1 2 3 4 5 6 
#
# 1 0.017093 -0.004373 0.000553 0.000000 0.000000 0.000000
# 2 -0.004373 0.009222 -0.001163 0.000000 0.000000 0.000000
# 3 0.000553 -0.001163 0.005281 0.000000 0.000000 0.000000
# 4 0.000000 0.000000 0.000000 0.024598 0.000000 0.000000
# 5 0.000000 0.000000 0.000000 0.000000 0.048803 0.000000
# 6 0.000000 0.000000 0.000000 0.000000 0.000000 0.020321
#
#
# Mechanical properties :
#
#
# Convention : Reuss Voigt Hill
#
# Bulk Modulus (GPa) = 46.23162 55.55939 50.89550
# Shear Modulus (GPa) = 35.08868 44.18601 39.63735
#
# Velocity S-wave (km/s) = 3.70132 4.15351 3.93392
# Velocity P-wave (km/s) = 6.02633 6.68538 6.36439
#
# Compressibility (1/GPa) = 0.02163022
#
# Stress axis : x y z
#
# Youngs Moduli (GPa) = 58.50199 108.43506 189.34101
#
# Poissons Ratio (x) = 0.47421 -0.10464
# Poissons Ratio (y) = 0.25584 0.22017
# Poissons Ratio (z) = -0.03233 0.12609
#
# Static dielectric constant tensor:
#      x y z
#    x 2.100590 0.000000 0.000000 
#    y 0.000000 2.221790 0.000000 
#    z 0.000000 0.000000 1.956980 
# 
# From -- ./inp_files/9322.got.cif
#   From: 2010.05.17/outbox.cif.g08.bks.cpg/sg56_5_cif.got.tgz:9322.got - 2010.06.03 13:42:01.
