data_PCOD9433565
_publ_section_title
;
Structure prediction by ZEFSAII (Michael W. Deem and Ramdas Pophale) SiO2 
 PCOD9433565
Probable space group: P C C N
;
_chemical_formula_sum "Si O2"
_cell_formula_units_Z 20
_cell_length_a 7.434784
_cell_length_b 6.083995
_cell_length_c 17.510438
_cell_angle_alpha 90.000000
_cell_angle_beta 90.000000
_cell_angle_gamma 90.000000
_cell_volume 792.052946
_symmetry_space_group_name_H-M "P C C N"
_symmetry_group_IT_number 56
_symmetry_cell_setting 'orthorhombic'
loop_
_space_group_symop_operation_xyz
x,y,z
1/2-x,1/2-y,z
1/2+x,-y,1/2-z
-x,1/2+y,1/2-z
-x,-y,-z
1/2+x,1/2+y,-z
1/2-x,y,1/2+z
x,1/2-y,1/2+z
loop_
_atom_site_type_symbol
_atom_site_label
_atom_site_fract_x
_atom_site_fract_y
_atom_site_fract_z
Si Si1 0.392736 0.560458 0.340732
Si Si2 0.250000 0.250000 0.213434
Si Si3 0.215401 0.499682 0.506254
O O1 0.250000 0.750000 0.321139
O O2 0.366270 0.390155 0.272898
O O3 0.600622 0.622933 0.334816
O O4 0.328724 0.498983 0.426129
O O5 0.250000 0.250000 0.534103
O O6 0.000000 0.500000 0.500000
O O7 0.250000 0.750000 0.539755
#
# Coordination Sequence:
#
# PCOD9433565 Si02
#       3
#     8   4   8
#     4  11  24  43  72 111 149 195 249 316 388 457
#     4  12  22  44  74 106 152 190 250 316 392 462
#     4  11  25  51  76 109 151 202 265 314 379 453
#
# _framework density 25.250837000000001
#
# number of rings (size 3 to 8) (size 9 to 14) (size 15 to 20)
#    0.000    0.800    6.000    1.200    0.000    0.000 
#   28.800    2.000    0.000    0.000    0.000    0.000 
#    0.000    0.000    0.000    0.000    0.000    0.000 
#
# Total GULP energy -111535.882334 kJ/mol
# GULP energy per Si atom -5576.794117 kJ/mol
# Density = 2.519336 g / cm^3
# Si number density = 25.250837 Si / 1000 Ang^3
#
#
#
# Elastic Constant Matrix: (Units=GPa)
#
#
# Indices 1 2 3 4 5 6 
#
# 1 222.8362 73.1882 55.3013 0.0000 0.0000 0.0000
# 2 73.1882 205.0345 44.9542 0.0000 0.0000 0.0000
# 3 55.3013 44.9542 138.7239 0.0000 0.0000 0.0000
# 4 0.0000 0.0000 0.0000 2.3716 0.0000 0.0000
# 5 0.0000 0.0000 0.0000 0.0000 33.3915 0.0000
# 6 0.0000 0.0000 0.0000 0.0000 0.0000 59.9976
#
#
#
# Elastic Compliance Matrix: (Units=1/GPa)
#
#
# Indices 1 2 3 4 5 6 
#
# 1 0.005413 -0.001571 -0.001649 0.000000 0.000000 0.000000
# 2 -0.001571 0.005706 -0.001223 0.000000 0.000000 0.000000
# 3 -0.001649 -0.001223 0.008262 0.000000 0.000000 0.000000
# 4 0.000000 0.000000 0.000000 0.421656 0.000000 0.000000
# 5 0.000000 0.000000 0.000000 0.000000 0.029948 0.000000
# 6 0.000000 0.000000 0.000000 0.000000 0.000000 0.016667
#
#
# Mechanical properties :
#
#
# Convention : Reuss Voigt Hill
#
# Bulk Modulus (GPa) = 95.27281 101.49802 98.38541
# Shear Modulus (GPa) = 9.99930 45.36221 27.68076
#
# Velocity S-wave (km/s) = 1.99213 4.24307 3.31453
# Velocity P-wave (km/s) = 6.56536 8.01798 7.32775
#
# Compressibility (1/GPa) = 0.01049617
#
# Stress axis : x y z
#
# Youngs Moduli (GPa) = 184.75385 175.25453 121.03419
#
# Poissons Ratio (x) = 0.27525 0.19955
# Poissons Ratio (y) = 0.29017 0.14802
# Poissons Ratio (z) = 0.30461 0.21433
#
# Static dielectric constant tensor:
#      x y z
#    x 2.010080 0.000000 0.000000 
#    y 0.000000 2.074960 0.000000 
#    z 0.000000 0.000000 2.031590 
# 
# From -- ./inp_files/17152.got.cif
#   From: 2010.05.17/outbox.cif.g08.bks.cpg/sg56_9_cif.got.tgz:17152.got - 2010.06.03 13:42:01.
