data_PCOD9433720
_publ_section_title
;
Structure prediction by ZEFSAII (Michael W. Deem and Ramdas Pophale) SiO2 
 PCOD9433720
Probable space group: P C C N
;
_chemical_formula_sum "Si O2"
_cell_formula_units_Z 32
_cell_length_a 8.299796
_cell_length_b 18.937002
_cell_length_c 8.205431
_cell_angle_alpha 90.000000
_cell_angle_beta 90.000000
_cell_angle_gamma 90.000000
_cell_volume 1289.674286
_symmetry_space_group_name_H-M "P C C N"
_symmetry_group_IT_number 56
_symmetry_cell_setting 'orthorhombic'
loop_
_space_group_symop_operation_xyz
x,y,z
1/2-x,1/2-y,z
1/2+x,-y,1/2-z
-x,1/2+y,1/2-z
-x,-y,-z
1/2+x,1/2+y,-z
1/2-x,y,1/2+z
x,1/2-y,1/2+z
loop_
_atom_site_type_symbol
_atom_site_label
_atom_site_fract_x
_atom_site_fract_y
_atom_site_fract_z
Si Si1 0.116801 0.311462 0.885751
Si Si2 0.832164 0.077657 0.896336
Si Si3 0.401826 0.712075 0.319993
Si Si4 0.502277 0.442790 0.246568
O O1 0.250000 0.250000 0.897092
O O2 0.984094 0.276250 0.772113
O O3 0.137928 0.388192 0.804484
O O4 0.034701 0.319260 0.060057
O O5 0.854536 0.151902 0.806735
O O6 0.643074 0.058044 0.882452
O O7 0.907221 0.079816 0.077567
O O8 0.926357 0.017756 0.795434
O O9 0.250000 0.750000 0.404562
#
# Coordination Sequence:
#
# PCOD9433720 Si02
#       4
#     8   8   8   8
#     4  12  27  46  73 110 151 194 249 308 368 439
#     4  11  26  48  77 108 147 194 249 304 371 448
#     4  12  25  46  75 107 146 199 246 302 371 443
#     4  11  26  49  75 110 147 194 248 305 374 440
#
# _framework density 24.812467999999999
#
# number of rings (size 3 to 8) (size 9 to 14) (size 15 to 20)
#    0.000    0.500    2.500    4.500    3.500    4.000 
#    0.000    1.250    0.000    0.000    0.000    0.000 
#    0.000    0.000    0.000    0.000    0.000    0.000 
#
# Total GULP energy -179203.713987 kJ/mol
# GULP energy per Si atom -5600.116062 kJ/mol
# Density = 2.475599 g / cm^3
# Si number density = 24.812468 Si / 1000 Ang^3
#
#
#
# Elastic Constant Matrix: (Units=GPa)
#
#
# Indices 1 2 3 4 5 6 
#
# 1 86.6688 15.8157 20.1525 0.0000 0.0000 0.0000
# 2 15.8157 102.6481 23.7877 0.0000 0.0000 0.0000
# 3 20.1525 23.7877 79.4691 0.0000 0.0000 0.0000
# 4 0.0000 0.0000 0.0000 20.2175 0.0000 0.0000
# 5 0.0000 0.0000 0.0000 0.0000 12.4114 0.0000
# 6 0.0000 0.0000 0.0000 0.0000 0.0000 47.9356
#
#
#
# Elastic Compliance Matrix: (Units=1/GPa)
#
#
# Indices 1 2 3 4 5 6 
#
# 1 0.012414 -0.001271 -0.002767 0.000000 0.000000 0.000000
# 2 -0.001271 0.010598 -0.002850 0.000000 0.000000 0.000000
# 3 -0.002767 -0.002850 0.014138 0.000000 0.000000 0.000000
# 4 0.000000 0.000000 0.000000 0.049462 0.000000 0.000000
# 5 0.000000 0.000000 0.000000 0.000000 0.080571 0.000000
# 6 0.000000 0.000000 0.000000 0.000000 0.000000 0.020861
#
#
# Mechanical properties :
#
#
# Convention : Reuss Voigt Hill
#
# Bulk Modulus (GPa) = 42.78470 43.14421 42.96445
# Shear Modulus (GPa) = 23.85344 30.04826 26.95085
#
# Velocity S-wave (km/s) = 3.10393 3.48374 3.29930
# Velocity P-wave (km/s) = 5.48876 5.79722 5.64510
#
# Compressibility (1/GPa) = 0.02337284
#
# Stress axis : x y z
#
# Youngs Moduli (GPa) = 80.55641 94.35415 70.72939
#
# Poissons Ratio (x) = 0.11996 0.19574
# Poissons Ratio (y) = 0.10241 0.20158
# Poissons Ratio (z) = 0.22293 0.26891
#
# Static dielectric constant tensor:
#      x y z
#    x 2.116500 0.000000 0.000000 
#    y 0.000000 1.931960 0.000000 
#    z 0.000000 0.000000 1.965410 
# 
# From -- ./inp_files/1923.got.cif
#   From: 2010.05.17/outbox.cif.g08.bks.cpg/sg56_1_cif.got.tgz:1923.got - 2010.06.03 13:42:01.
