data_PCOD9433540
_publ_section_title
;
Structure prediction by ZEFSAII (Michael W. Deem and Ramdas Pophale) SiO2 
 PCOD9433540
Probable space group: P C C N
;
_chemical_formula_sum "Si O2"
_cell_formula_units_Z 24
_cell_length_a 8.766088
_cell_length_b 13.237888
_cell_length_c 7.425002
_cell_angle_alpha 90.000000
_cell_angle_beta 90.000000
_cell_angle_gamma 90.000000
_cell_volume 861.630579
_symmetry_space_group_name_H-M "P C C N"
_symmetry_group_IT_number 56
_symmetry_cell_setting 'orthorhombic'
loop_
_space_group_symop_operation_xyz
x,y,z
1/2-x,1/2-y,z
1/2+x,-y,1/2-z
-x,1/2+y,1/2-z
-x,-y,-z
1/2+x,1/2+y,-z
1/2-x,y,1/2+z
x,1/2-y,1/2+z
loop_
_atom_site_type_symbol
_atom_site_label
_atom_site_fract_x
_atom_site_fract_y
_atom_site_fract_z
Si Si1 0.517484 0.336103 0.075535
Si Si2 0.324498 0.921618 0.071593
Si Si3 0.577848 0.617090 0.302135
O O1 0.682715 0.349376 0.973505
O O2 0.421673 0.382981 0.912243
O O3 0.565718 0.378801 0.270429
O O4 0.433696 0.230944 0.123313
O O5 0.297481 0.036712 0.133317
O O6 0.420823 0.925420 0.887562
#
# Coordination Sequence:
#
# PCOD9433540 Si02
#       3
#     8   8   8
#     4  12  22  42  70  96 142 184 221 289 344 404
#     4  11  24  39  66 104 135 178 233 279 342 415
#     4  11  24  39  66 104 135 178 233 279 342 415
#
# _framework density 27.854161000000001
#
# number of rings (size 3 to 8) (size 9 to 14) (size 15 to 20)
#    0.000    0.667    6.667    2.000    0.000    0.000 
#    0.000    0.000    0.000   16.000    0.000    0.000 
#    0.000    0.000    0.000    0.000    0.000    0.000 
#
# Total GULP energy -134029.566986 kJ/mol
# GULP energy per Si atom -5584.565291 kJ/mol
# Density = 2.779076 g / cm^3
# Si number density = 27.854161 Si / 1000 Ang^3
#
#
#
# Elastic Constant Matrix: (Units=GPa)
#
#
# Indices 1 2 3 4 5 6 
#
# 1 75.6978 72.0637 67.4218 0.0000 0.0000 0.0000
# 2 72.0637 161.2947 86.1993 0.0000 0.0000 0.0000
# 3 67.4218 86.1993 210.4982 0.0000 0.0000 0.0000
# 4 0.0000 0.0000 0.0000 23.8919 0.0000 0.0000
# 5 0.0000 0.0000 0.0000 0.0000 10.9376 0.0000
# 6 0.0000 0.0000 0.0000 0.0000 0.0000 23.2832
#
#
#
# Elastic Compliance Matrix: (Units=1/GPa)
#
#
# Indices 1 2 3 4 5 6 
#
# 1 0.026029 -0.009184 -0.004576 0.000000 0.000000 0.000000
# 2 -0.009184 0.011177 -0.001635 0.000000 0.000000 0.000000
# 3 -0.004576 -0.001635 0.006886 0.000000 0.000000 0.000000
# 4 0.000000 0.000000 0.000000 0.041855 0.000000 0.000000
# 5 0.000000 0.000000 0.000000 0.000000 0.091427 0.000000
# 6 0.000000 0.000000 0.000000 0.000000 0.000000 0.042949
#
#
# Mechanical properties :
#
#
# Convention : Reuss Voigt Hill
#
# Bulk Modulus (GPa) = 75.18045 99.87336 87.52691
# Shear Modulus (GPa) = 19.56569 26.40961 22.98765
#
# Velocity S-wave (km/s) = 2.65322 3.08253 2.87590
# Velocity P-wave (km/s) = 6.03618 6.97158 6.52067
#
# Compressibility (1/GPa) = 0.01330133
#
# Stress axis : x y z
#
# Youngs Moduli (GPa) = 38.41827 89.46938 145.21914
#
# Poissons Ratio (x) = 0.82166 0.66457
# Poissons Ratio (y) = 0.35282 0.23750
# Poissons Ratio (z) = 0.17581 0.14633
#
# Static dielectric constant tensor:
#      x y z
#    x 2.294210 0.000000 0.000000 
#    y 0.000000 2.278200 0.000000 
#    z 0.000000 0.000000 2.052290 
# 
# From -- ./inp_files/2357.got.cif
#   From: 2010.05.17/outbox.cif.g08.bks.cpg/sg56_2_cif.got.tgz:2357.got - 2010.06.03 13:42:01.
