data_PCOD9433157
_publ_section_title
;
Structure prediction by ZEFSAII (Michael W. Deem and Ramdas Pophale) SiO2 
 PCOD9433157
Probable space group: P C C N
;
_chemical_formula_sum "Si O2"
_cell_formula_units_Z 36
_cell_length_a 18.096904
_cell_length_b 8.880101
_cell_length_c 8.358829
_cell_angle_alpha 90.000000
_cell_angle_beta 90.000000
_cell_angle_gamma 90.000000
_cell_volume 1343.283341
_symmetry_space_group_name_H-M "P C C N"
_symmetry_group_IT_number 56
_symmetry_cell_setting 'orthorhombic'
loop_
_space_group_symop_operation_xyz
x,y,z
1/2-x,1/2-y,z
1/2+x,-y,1/2-z
-x,1/2+y,1/2-z
-x,-y,-z
1/2+x,1/2+y,-z
1/2-x,y,1/2+z
x,1/2-y,1/2+z
loop_
_atom_site_type_symbol
_atom_site_label
_atom_site_fract_x
_atom_site_fract_y
_atom_site_fract_z
Si Si1 0.137683 0.167390 0.235650
Si Si2 0.393092 0.589826 0.468639
Si Si3 0.534005 0.344221 0.210573
Si Si4 0.163176 0.468676 0.407269
Si Si5 0.250000 0.750000 0.451614
O O1 0.166999 0.329796 0.286627
O O2 0.051941 0.178177 0.182019
O O3 0.133995 0.066600 0.396467
O O4 0.177514 0.088551 0.086890
O O5 0.427193 0.683842 0.321168
O O6 0.451532 0.595593 0.611022
O O7 0.323158 0.685161 0.533582
O O8 0.580615 0.460268 0.102531
O O9 0.218535 0.603038 0.363518
#
# Coordination Sequence:
#
# PCOD9433157 Si02
#       5
#     8   8   8   8   4
#     4  12  23  42  69 105 136 181 241 302 358 415
#     4  11  23  40  68  95 139 186 232 295 348 431
#     4  11  22  41  67 104 141 184 231 291 367 425
#     4  11  25  43  69 100 145 188 235 298 351 432
#     4  10  26  48  66  98 138 194 242 276 368 434
#
# _framework density 26.800006
#
# number of rings (size 3 to 8) (size 9 to 14) (size 15 to 20)
#    0.000    0.889    0.000    8.000    0.000    8.889 
#    0.000    2.222    0.000    1.333    0.000    0.000 
#    0.000    0.000    0.000    0.000    0.000    0.000 
#
# Total GULP energy -201838.542208 kJ/mol
# GULP energy per Si atom -5606.626172 kJ/mol
# Density = 2.673901 g / cm^3
# Si number density = 26.800006 Si / 1000 Ang^3
#
#
#
# Elastic Constant Matrix: (Units=GPa)
#
#
# Indices 1 2 3 4 5 6 
#
# 1 107.1169 41.2206 25.6105 0.0000 0.0000 0.0000
# 2 41.2206 191.9222 68.6267 0.0000 0.0000 0.0000
# 3 25.6105 68.6267 132.6248 0.0000 0.0000 0.0000
# 4 0.0000 0.0000 0.0000 42.1158 0.0000 0.0000
# 5 0.0000 0.0000 0.0000 0.0000 16.3627 0.0000
# 6 0.0000 0.0000 0.0000 0.0000 0.0000 45.6821
#
#
#
# Elastic Compliance Matrix: (Units=1/GPa)
#
#
# Indices 1 2 3 4 5 6 
#
# 1 0.010291 -0.001840 -0.001035 0.000000 0.000000 0.000000
# 2 -0.001840 0.006722 -0.003123 0.000000 0.000000 0.000000
# 3 -0.001035 -0.003123 0.009356 0.000000 0.000000 0.000000
# 4 0.000000 0.000000 0.000000 0.023744 0.000000 0.000000
# 5 0.000000 0.000000 0.000000 0.000000 0.061115 0.000000
# 6 0.000000 0.000000 0.000000 0.000000 0.000000 0.021890
#
#
# Mechanical properties :
#
#
# Convention : Reuss Voigt Hill
#
# Bulk Modulus (GPa) = 69.57592 78.06439 73.82016
# Shear Modulus (GPa) = 33.35410 40.57921 36.96665
#
# Velocity S-wave (km/s) = 3.53165 3.89543 3.71799
# Velocity P-wave (km/s) = 6.53051 7.03024 6.78498
#
# Compressibility (1/GPa) = 0.01437279
#
# Stress axis : x y z
#
# Youngs Moduli (GPa) = 97.17030 148.75521 106.88292
#
# Poissons Ratio (x) = 0.27374 0.11063
# Poissons Ratio (y) = 0.17881 0.33381
# Poissons Ratio (z) = 0.10058 0.46459
#
# Static dielectric constant tensor:
#      x y z
#    x 2.125450 0.000000 0.000000 
#    y 0.000000 2.064210 0.000000 
#    z 0.000000 0.000000 2.006010 
# 
# From -- ./inp_files/1959.got.cif
#   From: 2010.05.17/outbox.cif.g08.bks.cpg/sg56_1_cif.got.tgz:1959.got - 2010.06.03 13:42:01.
