data_PCOD9433258
_publ_section_title
;
Structure prediction by ZEFSAII (Michael W. Deem and Ramdas Pophale) SiO2 
 PCOD9433258
Probable space group: P C C N
;
_chemical_formula_sum "Si O2"
_cell_formula_units_Z 64
_cell_length_a 32.713821
_cell_length_b 11.613206
_cell_length_c 8.493362
_cell_angle_alpha 90.000000
_cell_angle_beta 90.000000
_cell_angle_gamma 90.000000
_cell_volume 3226.733052
_symmetry_space_group_name_H-M "P C C N"
_symmetry_group_IT_number 56
_symmetry_cell_setting 'orthorhombic'
loop_
_space_group_symop_operation_xyz
x,y,z
1/2-x,1/2-y,z
1/2+x,-y,1/2-z
-x,1/2+y,1/2-z
-x,-y,-z
1/2+x,1/2+y,-z
1/2-x,y,1/2+z
x,1/2-y,1/2+z
loop_
_atom_site_type_symbol
_atom_site_label
_atom_site_fract_x
_atom_site_fract_y
_atom_site_fract_z
Si Si1 0.441060 0.086428 0.694305
Si Si2 0.567985 0.290633 0.460081
Si Si3 0.876363 0.436660 0.459791
Si Si4 0.378806 0.504857 0.683737
Si Si5 0.937673 0.674319 0.951204
Si Si6 0.516733 0.131452 0.253891
Si Si7 0.792236 0.373707 0.311362
Si Si8 0.794465 0.388903 0.934169
O O1 0.438844 0.188913 0.570161
O O2 0.401350 0.009167 0.667231
O O3 0.477317 0.994757 0.673507
O O4 0.443503 0.136917 0.869208
O O5 0.601172 0.187884 0.478249
O O6 0.589810 0.392752 0.365589
O O7 0.528612 0.230670 0.377938
O O8 0.551407 0.345105 0.620797
O O9 0.878072 0.496913 0.628372
O O10 0.830799 0.427423 0.397950
O O11 0.396767 0.387801 0.611266
O O12 0.333901 0.540299 0.622157
O O13 0.974201 0.634351 0.836299
O O14 0.794539 0.381313 0.123059
O O15 0.749982 0.428460 0.373185
O O16 0.795852 0.239462 0.360663
#
# Coordination Sequence:
#
# PCOD9433258 Si02
#       8
#     8   8   8   8   8   8   8   8
#     4  11  25  42  61  90 119 168 210 273 315 384
#     4  11  22  37  61  90 122 162 209 261 326 380
#     4  11  23  39  63  91 128 162 216 254 330 385
#     4  12  23  38  62  90 124 169 206 267 314 388
#     4  12  25  42  64  85 126 164 224 266 329 379
#     4  11  24  41  63  89 126 166 214 272 326 389
#     4  11  21  36  58  93 129 172 200 266 312 406
#     4  11  22  35  59  92 134 164 212 251 332 379
#
# _framework density 19.834302999999998
#
# number of rings (size 3 to 8) (size 9 to 14) (size 15 to 20)
#    0.000    0.750    3.750    5.625    3.500    0.000 
#    0.000    3.125    0.000    0.750    0.000    5.250 
#    0.000    0.000    0.000    0.000    0.000    0.000 
#
# Total GULP energy -357921.952804 kJ/mol
# GULP energy per Si atom -5592.530513 kJ/mol
# Density = 1.978916 g / cm^3
# Si number density = 19.834303 Si / 1000 Ang^3
#
#
#
# Elastic Constant Matrix: (Units=GPa)
#
#
# Indices 1 2 3 4 5 6 
#
# 1 106.7006 34.0340 21.4794 0.0000 0.0000 0.0000
# 2 34.0340 80.6142 22.5361 0.0000 0.0000 0.0000
# 3 21.4794 22.5361 107.8164 0.0000 0.0000 0.0000
# 4 0.0000 0.0000 0.0000 27.1651 0.0000 0.0000
# 5 0.0000 0.0000 0.0000 0.0000 33.5716 0.0000
# 6 0.0000 0.0000 0.0000 0.0000 0.0000 26.2361
#
#
#
# Elastic Compliance Matrix: (Units=1/GPa)
#
#
# Indices 1 2 3 4 5 6 
#
# 1 0.010998 -0.004281 -0.001296 0.000000 0.000000 0.000000
# 2 -0.004281 0.014841 -0.002249 0.000000 0.000000 0.000000
# 3 -0.001296 -0.002249 0.010003 0.000000 0.000000 0.000000
# 4 0.000000 0.000000 0.000000 0.036812 0.000000 0.000000
# 5 0.000000 0.000000 0.000000 0.000000 0.029787 0.000000
# 6 0.000000 0.000000 0.000000 0.000000 0.000000 0.038115
#
#
# Mechanical properties :
#
#
# Convention : Reuss Voigt Hill
#
# Bulk Modulus (GPa) = 49.53006 50.13668 49.83337
# Shear Modulus (GPa) = 30.68610 31.86667 31.27638
#
# Velocity S-wave (km/s) = 3.93762 4.01265 3.97531
# Velocity P-wave (km/s) = 6.76012 6.84113 6.80075
#
# Compressibility (1/GPa) = 0.02018976
#
# Stress axis : x y z
#
# Youngs Moduli (GPa) = 90.92173 67.38132 99.96583
#
# Poissons Ratio (x) = 0.28846 0.12959
# Poissons Ratio (y) = 0.38923 0.22484
# Poissons Ratio (z) = 0.11786 0.15156
#
# Static dielectric constant tensor:
#      x y z
#    x 1.728680 0.000000 0.000000 
#    y 0.000000 1.710650 0.000000 
#    z 0.000000 0.000000 1.701630 
# 
# From -- ./inp_files/5206.got.cif
#   From: 2010.05.17/outbox.cif.g08.bks.cpg/sg56_3_cif.got.tgz:5206.got - 2010.06.03 13:42:01.
