data_PCOD9433176
_publ_section_title
;
Structure prediction by ZEFSAII (Michael W. Deem and Ramdas Pophale) SiO2 
 PCOD9433176
Probable space group: P C C N
;
_chemical_formula_sum "Si O2"
_cell_formula_units_Z 20
_cell_length_a 17.137125
_cell_length_b 5.044087
_cell_length_c 8.118905
_cell_angle_alpha 90.000000
_cell_angle_beta 90.000000
_cell_angle_gamma 90.000000
_cell_volume 701.807480
_symmetry_space_group_name_H-M "P C C N"
_symmetry_group_IT_number 56
_symmetry_cell_setting 'orthorhombic'
loop_
_space_group_symop_operation_xyz
x,y,z
1/2-x,1/2-y,z
1/2+x,-y,1/2-z
-x,1/2+y,1/2-z
-x,-y,-z
1/2+x,1/2+y,-z
1/2-x,y,1/2+z
x,1/2-y,1/2+z
loop_
_atom_site_type_symbol
_atom_site_label
_atom_site_fract_x
_atom_site_fract_y
_atom_site_fract_z
Si Si1 0.447876 0.571858 0.714038
Si Si2 0.153040 0.553727 0.906215
Si Si3 0.750000 0.750000 0.852751
O O1 0.498367 0.335217 0.788522
O O2 0.583039 0.501936 0.466537
O O3 0.374077 0.670571 0.825071
O O4 0.178481 0.367339 0.753979
O O5 0.224210 0.488072 0.028185
#
# Coordination Sequence:
#
# PCOD9433176 Si02
#       3
#     8   8   4
#     4  12  27  49  80 115 153 200 254 316 380 452
#     4  11  26  49  78 114 154 201 256 314 380 453
#     4  10  26  52  80 112 154 204 256 314 380 452
#
# _framework density 28.497848000000001
#
# number of rings (size 3 to 8) (size 9 to 14) (size 15 to 20)
#    0.000    0.800    0.000    4.800    0.000   17.600 
#    0.000    0.000    0.000    0.000    0.000    0.000 
#    0.000    0.000    0.000    0.000    0.000    0.000 
#
# Total GULP energy -111980.639405 kJ/mol
# GULP energy per Si atom -5599.031970 kJ/mol
# Density = 2.843299 g / cm^3
# Si number density = 28.497848 Si / 1000 Ang^3
#
#
#
# Elastic Constant Matrix: (Units=GPa)
#
#
# Indices 1 2 3 4 5 6 
#
# 1 154.0889 103.2552 79.8597 0.0000 0.0000 0.0000
# 2 103.2552 231.8567 83.2276 0.0000 0.0000 0.0000
# 3 79.8597 83.2276 179.8448 0.0000 0.0000 0.0000
# 4 0.0000 0.0000 0.0000 49.0749 0.0000 0.0000
# 5 0.0000 0.0000 0.0000 0.0000 33.1879 0.0000
# 6 0.0000 0.0000 0.0000 0.0000 0.0000 66.7097
#
#
#
# Elastic Compliance Matrix: (Units=1/GPa)
#
#
# Indices 1 2 3 4 5 6 
#
# 1 0.010428 -0.003576 -0.002976 0.000000 0.000000 0.000000
# 2 -0.003576 0.006398 -0.001373 0.000000 0.000000 0.000000
# 3 -0.002976 -0.001373 0.007517 0.000000 0.000000 0.000000
# 4 0.000000 0.000000 0.000000 0.020377 0.000000 0.000000
# 5 0.000000 0.000000 0.000000 0.000000 0.030131 0.000000
# 6 0.000000 0.000000 0.000000 0.000000 0.000000 0.014990
#
#
# Mechanical properties :
#
#
# Convention : Reuss Voigt Hill
#
# Bulk Modulus (GPa) = 117.72818 122.05282 119.89050
# Shear Modulus (GPa) = 46.07285 49.75771 47.91528
#
# Velocity S-wave (km/s) = 4.02520 4.18307 4.10489
# Velocity P-wave (km/s) = 7.93750 8.13957 8.03917
#
# Compressibility (1/GPa) = 0.00849414
#
# Stress axis : x y z
#
# Youngs Moduli (GPa) = 95.89327 156.28866 133.02827
#
# Poissons Ratio (x) = 0.55888 0.39587
# Poissons Ratio (y) = 0.34291 0.18267
# Poissons Ratio (z) = 0.28536 0.21461
#
# Static dielectric constant tensor:
#      x y z
#    x 2.428610 0.000000 0.000000 
#    y 0.000000 2.125700 0.000000 
#    z 0.000000 0.000000 2.142180 
# 
# From -- ./inp_files/1452.got.cif
#   From: 2010.05.17/outbox.cif.g08.bks.cpg/sg56_1_cif.got.tgz:1452.got - 2010.06.03 13:42:01.
