data_PCOD9433183
_publ_section_title
;
Structure prediction by ZEFSAII (Michael W. Deem and Ramdas Pophale) SiO2 
 PCOD9433183
Probable space group: P C C N
;
_chemical_formula_sum "Si O2"
_cell_formula_units_Z 40
_cell_length_a 19.716510
_cell_length_b 5.076737
_cell_length_c 17.349741
_cell_angle_alpha 90.000000
_cell_angle_beta 90.000000
_cell_angle_gamma 90.000000
_cell_volume 1736.631622
_symmetry_space_group_name_H-M "P C C N"
_symmetry_group_IT_number 56
_symmetry_cell_setting 'orthorhombic'
loop_
_space_group_symop_operation_xyz
x,y,z
1/2-x,1/2-y,z
1/2+x,-y,1/2-z
-x,1/2+y,1/2-z
-x,-y,-z
1/2+x,1/2+y,-z
1/2-x,y,1/2+z
x,1/2-y,1/2+z
loop_
_atom_site_type_symbol
_atom_site_label
_atom_site_fract_x
_atom_site_fract_y
_atom_site_fract_z
Si Si1 0.183159 0.903391 0.515048
Si Si2 0.750000 0.750000 0.234587
Si Si3 0.044154 0.860608 0.063855
Si Si4 0.750000 0.250000 0.635499
Si Si5 0.361047 0.254541 0.646965
Si Si6 0.976344 0.420503 0.795985
O O1 0.250000 0.750000 0.546849
O O2 0.110015 0.772550 0.526568
O O3 0.198121 0.894127 0.424055
O O4 0.175228 0.162247 0.567204
O O5 0.725302 0.497884 0.185598
O O6 0.691108 0.854424 0.291229
O O7 0.000788 0.664657 0.117847
O O8 0.077933 0.068270 0.122068
O O9 0.000000 0.000000 0.000000
O O10 0.398056 0.501846 0.687981
O O11 0.012767 0.674126 0.760277
#
# Coordination Sequence:
#
# PCOD9433183 Si02
#       6
#     8   4   8   4   8   8
#     4   9  23  46  73 104 146 191 248 300 370 437
#     4  12  28  46  76 112 146 186 252 300 392 428
#     4  11  25  46  75 108 143 202 245 307 365 452
#     4  10  28  46  72 114 146 188 242 322 352 444
#     4  11  25  46  78 102 153 196 245 300 380 450
#     4  11  24  48  69 104 149 193 239 297 369 431
#
# _framework density 23.033093000000001
#
# number of rings (size 3 to 8) (size 9 to 14) (size 15 to 20)
#    0.600    0.800    2.000    1.200    9.800    4.800 
#    7.200    0.000    0.000    0.000    0.000    0.000 
#    0.000    0.000    0.000    0.000    0.000    0.000 
#
# Total GULP energy -223144.447111 kJ/mol
# GULP energy per Si atom -5578.611178 kJ/mol
# Density = 2.298067 g / cm^3
# Si number density = 23.033093 Si / 1000 Ang^3
#
#
#
# Elastic Constant Matrix: (Units=GPa)
#
#
# Indices 1 2 3 4 5 6 
#
# 1 67.3587 16.1560 46.1214 0.0000 0.0000 0.0000
# 2 16.1560 86.6561 36.6460 0.0000 0.0000 0.0000
# 3 46.1214 36.6460 124.2599 0.0000 0.0000 0.0000
# 4 0.0000 0.0000 0.0000 -37.8018 0.0000 0.0000
# 5 0.0000 0.0000 0.0000 0.0000 31.3653 0.0000
# 6 0.0000 0.0000 0.0000 0.0000 0.0000 40.3087
#
#
#
# Elastic Compliance Matrix: (Units=1/GPa)
#
#
# Indices 1 2 3 4 5 6 
#
# 1 0.019939 -0.000671 -0.007203 0.000000 0.000000 0.000000
# 2 -0.000671 0.013207 -0.003646 0.000000 0.000000 0.000000
# 3 -0.007203 -0.003646 0.011796 0.000000 0.000000 0.000000
# 4 0.000000 0.000000 0.000000 -0.026454 0.000000 0.000000
# 5 0.000000 0.000000 0.000000 0.000000 0.031882 0.000000
# 6 0.000000 0.000000 0.000000 0.000000 0.000000 0.024809
#
#
# Mechanical properties :
#
#
# Convention : Reuss Voigt Hill
#
# Bulk Modulus (GPa) = 45.65737 52.90237 49.27987
# Shear Modulus (GPa) = 47.38492 18.73120 33.05806
#
# Velocity S-wave (km/s) = 4.54062 2.85481 3.79257
# Velocity P-wave (km/s) = 6.88151 5.82104 6.37337
#
# Compressibility (1/GPa) = 0.02190227
#
# Stress axis : x y z
#
# Youngs Moduli (GPa) = 50.15384 75.71880 84.77316
#
# Poissons Ratio (x) = 0.05084 0.61059
# Poissons Ratio (y) = 0.03367 0.30905
# Poissons Ratio (z) = 0.36124 0.27604
#
# Static dielectric constant tensor:
#      x y z
#    x 1.890670 0.000000 0.000000 
#    y 0.000000 1.909080 0.000000 
#    z 0.000000 0.000000 1.908230 
# 
# From -- ./inp_files/16779.got.cif
#   From: 2010.05.17/outbox.cif.g08.bks.cpg/sg56_9_cif.got.tgz:16779.got - 2010.06.03 13:42:01.
