data_PCOD9433800
_publ_section_title
;
Structure prediction by ZEFSAII (Michael W. Deem and Ramdas Pophale) SiO2 
 PCOD9433800
Probable space group: P C C N
;
_chemical_formula_sum "Si O2"
_cell_formula_units_Z 36
_cell_length_a 5.803078
_cell_length_b 10.442269
_cell_length_c 25.300356
_cell_angle_alpha 90.000000
_cell_angle_beta 90.000000
_cell_angle_gamma 90.000000
_cell_volume 1533.133301
_symmetry_space_group_name_H-M "P C C N"
_symmetry_group_IT_number 56
_symmetry_cell_setting 'orthorhombic'
loop_
_space_group_symop_operation_xyz
x,y,z
1/2-x,1/2-y,z
1/2+x,-y,1/2-z
-x,1/2+y,1/2-z
-x,-y,-z
1/2+x,1/2+y,-z
1/2-x,y,1/2+z
x,1/2-y,1/2+z
loop_
_atom_site_type_symbol
_atom_site_label
_atom_site_fract_x
_atom_site_fract_y
_atom_site_fract_z
Si Si1 0.245923 0.966361 0.157990
Si Si2 0.063137 0.136820 0.924989
Si Si3 0.750000 0.250000 0.259283
Si Si4 0.553352 0.041623 0.059717
Si Si5 0.750000 0.750000 0.797714
Si Si6 0.250000 0.750000 0.486152
O O1 0.314702 0.878498 0.207279
O O2 0.047157 0.877881 0.132204
O O3 0.417810 0.981251 0.107903
O O4 0.198812 0.113498 0.173441
O O5 0.250000 0.250000 0.927362
O O6 0.185538 0.002136 0.932861
O O7 0.884604 0.161895 0.971735
O O8 0.503087 0.222617 0.229875
O O9 0.557546 0.192624 0.052795
O O10 0.500000 0.000000 0.000000
#
# Coordination Sequence:
#
# PCOD9433800 Si02
#       6
#     8   8   4   8   4   4
#     4  12  29  49  81 119 152 214 264 340 418 487
#     4  12  24  44  72 107 157 211 265 313 388 478
#     4  12  29  59  84 118 156 214 277 345 426 490
#     4  12  26  43  72 110 161 206 258 315 388 491
#     4  12  32  54  88 120 160 202 280 362 416 480
#     4  12  25  43  64 110 158 218 257 311 380 474
#
# _framework density 23.481327
#
# number of rings (size 3 to 8) (size 9 to 14) (size 15 to 20)
#    0.000    0.000    4.444    4.000   10.889    0.000 
#    0.000    0.000    0.000    0.000    0.000    0.000 
#    0.000    0.000    0.000    0.000    0.000    0.000 
#
# Total GULP energy -200503.051754 kJ/mol
# GULP energy per Si atom -5569.529215 kJ/mol
# Density = 2.342788 g / cm^3
# Si number density = 23.481327 Si / 1000 Ang^3
#
#
#
# Elastic Constant Matrix: (Units=GPa)
#
#
# Indices 1 2 3 4 5 6 
#
# 1 95.4557 20.6153 48.3368 0.0000 0.0000 0.0000
# 2 20.6153 113.8268 32.2694 0.0000 0.0000 0.0000
# 3 48.3368 32.2694 54.5269 0.0000 0.0000 0.0000
# 4 0.0000 0.0000 0.0000 51.9366 0.0000 0.0000
# 5 0.0000 0.0000 0.0000 0.0000 11.4451 0.0000
# 6 0.0000 0.0000 0.0000 0.0000 0.0000 48.3512
#
#
#
# Elastic Compliance Matrix: (Units=1/GPa)
#
#
# Indices 1 2 3 4 5 6 
#
# 1 0.019256 0.001624 -0.018031 0.000000 0.000000 0.000000
# 2 0.001624 0.010693 -0.007768 0.000000 0.000000 0.000000
# 3 -0.018031 -0.007768 0.038921 0.000000 0.000000 0.000000
# 4 0.000000 0.000000 0.000000 0.019254 0.000000 0.000000
# 5 0.000000 0.000000 0.000000 0.000000 0.087374 0.000000
# 6 0.000000 0.000000 0.000000 0.000000 0.000000 0.020682
#
#
# Mechanical properties :
#
#
# Convention : Reuss Voigt Hill
#
# Bulk Modulus (GPa) = 48.73289 51.80581 50.26935
# Shear Modulus (GPa) = 19.89094 33.18577 26.53835
#
# Velocity S-wave (km/s) = 2.91365 3.76344 3.36548
# Velocity P-wave (km/s) = 5.66728 6.40274 6.04621
#
# Compressibility (1/GPa) = 0.02052002
#
# Stress axis : x y z
#
# Youngs Moduli (GPa) = 51.93214 93.51584 25.69298
#
# Poissons Ratio (x) = -0.15190 0.46327
# Poissons Ratio (y) = -0.08435 0.19959
# Poissons Ratio (z) = 0.93640 0.72646
#
# Static dielectric constant tensor:
#      x y z
#    x 2.036440 0.000000 0.000000 
#    y 0.000000 2.059820 0.000000 
#    z 0.000000 0.000000 2.214940 
# 
# From -- ./inp_files/19932.got.cif
#   From: 2010.05.17/outbox.cif.g08.bks.cpg/sg56_10_cif.got.tgz:19932.got - 2010.06.03 13:42:01.
