data_PCOD9433728
_publ_section_title
;
Structure prediction by ZEFSAII (Michael W. Deem and Ramdas Pophale) SiO2 
 PCOD9433728
Probable space group: P C C N
;
_chemical_formula_sum "Si O2"
_cell_formula_units_Z 40
_cell_length_a 7.954327
_cell_length_b 10.641803
_cell_length_c 20.517907
_cell_angle_alpha 90.000000
_cell_angle_beta 90.000000
_cell_angle_gamma 90.000000
_cell_volume 1736.807608
_symmetry_space_group_name_H-M "P C C N"
_symmetry_group_IT_number 56
_symmetry_cell_setting 'orthorhombic'
loop_
_space_group_symop_operation_xyz
x,y,z
1/2-x,1/2-y,z
1/2+x,-y,1/2-z
-x,1/2+y,1/2-z
-x,-y,-z
1/2+x,1/2+y,-z
1/2-x,y,1/2+z
x,1/2-y,1/2+z
loop_
_atom_site_type_symbol
_atom_site_label
_atom_site_fract_x
_atom_site_fract_y
_atom_site_fract_z
Si Si1 0.003202 0.656138 0.333522
Si Si2 0.500000 0.000000 0.000000
Si Si3 0.750000 0.750000 0.118915
Si Si4 0.579604 0.329035 0.313134
Si Si5 0.340982 0.990681 0.451907
Si Si6 0.623065 0.593526 0.373916
O O1 0.810739 0.616180 0.348314
O O2 0.998423 0.806975 0.339510
O O3 0.060632 0.624848 0.260959
O O4 0.109950 0.589342 0.388720
O O5 0.319702 0.931439 0.986709
O O6 0.597792 0.898102 0.950811
O O7 0.585410 0.754323 0.164515
O O8 0.726384 0.625384 0.075339
O O9 0.750000 0.250000 0.320642
O O10 0.577934 0.450441 0.358992
O O11 0.500000 0.000000 0.500000
#
# Coordination Sequence:
#
# PCOD9433728 Si02
#       6
#     8   4   4   8   8   8
#     4  11  28  49  79 110 157 201 257 325 387 469
#     4  12  26  48  74 112 146 204 262 314 382 472
#     4  12  28  52  74 116 160 202 260 332 384 468
#     4  12  29  49  79 115 152 206 256 322 396 469
#     4  12  28  49  77 110 156 207 258 324 390 462
#     4  11  26  51  77 113 151 201 264 317 387 471
#
# _framework density 23.030760999999998
#
# number of rings (size 3 to 8) (size 9 to 14) (size 15 to 20)
#    0.000    0.400    4.000    2.400   14.000    0.000 
#    0.000    0.000    0.000    0.000    0.000    0.000 
#    0.000    0.000    0.000    0.000    0.000    0.000 
#
# Total GULP energy -222852.130658 kJ/mol
# GULP energy per Si atom -5571.303266 kJ/mol
# Density = 2.297834 g / cm^3
# Si number density = 23.030761 Si / 1000 Ang^3
#
#
#
# Elastic Constant Matrix: (Units=GPa)
#
#
# Indices 1 2 3 4 5 6 
#
# 1 170.9181 29.1911 57.4367 0.0000 0.0000 0.0000
# 2 29.1911 56.9667 2.4029 0.0000 0.0000 0.0000
# 3 57.4367 2.4029 80.1693 0.0000 0.0000 0.0000
# 4 0.0000 0.0000 0.0000 40.8133 0.0000 0.0000
# 5 0.0000 0.0000 0.0000 0.0000 10.2493 0.0000
# 6 0.0000 0.0000 0.0000 0.0000 0.0000 33.8712
#
#
#
# Elastic Compliance Matrix: (Units=1/GPa)
#
#
# Indices 1 2 3 4 5 6 
#
# 1 0.008583 -0.004144 -0.006025 0.000000 0.000000 0.000000
# 2 -0.004144 0.019577 0.002382 0.000000 0.000000 0.000000
# 3 -0.006025 0.002382 0.016719 0.000000 0.000000 0.000000
# 4 0.000000 0.000000 0.000000 0.024502 0.000000 0.000000
# 5 0.000000 0.000000 0.000000 0.000000 0.097568 0.000000
# 6 0.000000 0.000000 0.000000 0.000000 0.000000 0.029524
#
#
# Mechanical properties :
#
#
# Convention : Reuss Voigt Hill
#
# Bulk Modulus (GPa) = 34.12363 54.01283 44.06823
# Shear Modulus (GPa) = 22.54127 31.58830 27.06479
#
# Velocity S-wave (km/s) = 3.13189 3.70749 3.43178
# Velocity P-wave (km/s) = 5.28460 6.46766 5.90583
#
# Compressibility (1/GPa) = 0.02930520
#
# Stress axis : x y z
#
# Youngs Moduli (GPa) = 116.50518 51.07986 59.81239
#
# Poissons Ratio (x) = 0.21168 0.36038
# Poissons Ratio (y) = 0.48281 -0.14249
# Poissons Ratio (z) = 0.70197 -0.12169
#
# Static dielectric constant tensor:
#      x y z
#    x 1.919640 0.000000 0.000000 
#    y 0.000000 1.943610 0.000000 
#    z 0.000000 0.000000 1.973140 
# 
# From -- ./inp_files/14495.got.cif
#   From: 2010.05.17/outbox.cif.g08.bks.cpg/sg56_8_cif.got.tgz:14495.got - 2010.06.03 13:42:01.
