data_PCOD9433615
_publ_section_title
;
Structure prediction by ZEFSAII (Michael W. Deem and Ramdas Pophale) SiO2 
 PCOD9433615
Probable space group: P C C N
;
_chemical_formula_sum "Si O2"
_cell_formula_units_Z 48
_cell_length_a 8.451100
_cell_length_b 17.750669
_cell_length_c 14.644467
_cell_angle_alpha 90.000000
_cell_angle_beta 90.000000
_cell_angle_gamma 90.000000
_cell_volume 2196.855724
_symmetry_space_group_name_H-M "P C C N"
_symmetry_group_IT_number 56
_symmetry_cell_setting 'orthorhombic'
loop_
_space_group_symop_operation_xyz
x,y,z
1/2-x,1/2-y,z
1/2+x,-y,1/2-z
-x,1/2+y,1/2-z
-x,-y,-z
1/2+x,1/2+y,-z
1/2-x,y,1/2+z
x,1/2-y,1/2+z
loop_
_atom_site_type_symbol
_atom_site_label
_atom_site_fract_x
_atom_site_fract_y
_atom_site_fract_z
Si Si1 0.169406 0.532811 0.298950
Si Si2 0.147661 0.316696 0.504252
Si Si3 0.581005 0.286742 0.842724
Si Si4 0.650881 0.461668 0.867971
Si Si5 0.323862 0.024545 0.969460
Si Si6 0.392061 0.800265 0.343274
O O1 0.204704 0.510752 0.195236
O O2 0.299835 0.495035 0.363822
O O3 0.178092 0.622527 0.304606
O O4 0.002616 0.507037 0.338025
O O5 0.250000 0.250000 0.545195
O O6 0.256095 0.390493 0.486068
O O7 0.062932 0.281438 0.414306
O O8 0.012129 0.327121 0.579407
O O9 0.750000 0.250000 0.871454
O O10 0.610308 0.375969 0.845263
O O11 0.545314 0.248430 0.744053
O O12 0.702728 0.473365 0.971491
O O13 0.500000 0.000000 0.000000
O O14 0.250000 0.750000 0.383578
#
# Coordination Sequence:
#
# PCOD9433615 Si02
#       6
#     8   8   8   8   8   8
#     4  12  24  46  74 103 143 188 245 305 369 441
#     4  12  28  46  70 106 147 192 241 308 366 436
#     4  11  24  47  73 106 140 187 243 300 373 444
#     4  12  24  46  74 103 143 188 245 305 369 441
#     4  12  28  47  70 106 149 197 249 302 372 444
#     4  11  24  47  73 106 140 187 243 300 373 444
#
# _framework density 21.849409000000001
#
# number of rings (size 3 to 8) (size 9 to 14) (size 15 to 20)
#    0.000    0.333    6.667    3.000    4.667    3.333 
#    0.000    0.000    0.000    0.000    0.000    0.000 
#    0.000    0.000    0.000    0.000    0.000    0.000 
#
# Total GULP energy -268001.938620 kJ/mol
# GULP energy per Si atom -5583.373721 kJ/mol
# Density = 2.179968 g / cm^3
# Si number density = 21.849409 Si / 1000 Ang^3
#
#
#
# Elastic Constant Matrix: (Units=GPa)
#
#
# Indices 1 2 3 4 5 6 
#
# 1 81.2770 15.4858 7.5727 0.0000 0.0000 0.0000
# 2 15.4858 129.2031 6.1197 0.0000 0.0000 0.0000
# 3 7.5727 6.1197 60.0637 0.0000 0.0000 0.0000
# 4 0.0000 0.0000 0.0000 30.4051 0.0000 0.0000
# 5 0.0000 0.0000 0.0000 0.0000 22.4813 0.0000
# 6 0.0000 0.0000 0.0000 0.0000 0.0000 39.1599
#
#
#
# Elastic Compliance Matrix: (Units=1/GPa)
#
#
# Indices 1 2 3 4 5 6 
#
# 1 0.012716 -0.001455 -0.001455 0.000000 0.000000 0.000000
# 2 -0.001455 0.007944 -0.000626 0.000000 0.000000 0.000000
# 3 -0.001455 -0.000626 0.016896 0.000000 0.000000 0.000000
# 4 0.000000 0.000000 0.000000 0.032889 0.000000 0.000000
# 5 0.000000 0.000000 0.000000 0.000000 0.044481 0.000000
# 6 0.000000 0.000000 0.000000 0.000000 0.000000 0.025536
#
#
# Mechanical properties :
#
#
# Convention : Reuss Voigt Hill
#
# Bulk Modulus (GPa) = 32.80386 36.54446 34.67416
# Shear Modulus (GPa) = 31.70636 34.50030 33.10333
#
# Velocity S-wave (km/s) = 3.81350 3.97798 3.89661
# Velocity P-wave (km/s) = 5.86827 6.15313 6.01239
#
# Compressibility (1/GPa) = 0.03048422
#
# Stress axis : x y z
#
# Youngs Moduli (GPa) = 78.63835 125.88408 59.18492
#
# Poissons Ratio (x) = 0.18319 0.08611
# Poissons Ratio (y) = 0.11444 0.03704
# Poissons Ratio (z) = 0.11442 0.07879
#
# Static dielectric constant tensor:
#      x y z
#    x 1.847130 0.000000 0.000000 
#    y 0.000000 1.717910 0.000000 
#    z 0.000000 0.000000 1.797640 
# 
# From -- ./inp_files/10692.got.cif
#   From: 2010.05.17/outbox.cif.g08.bks.cpg/sg56_6_cif.got.tgz:10692.got - 2010.06.03 13:42:01.
