data_PCOD9433221
_publ_section_title
;
Structure prediction by ZEFSAII (Michael W. Deem and Ramdas Pophale) SiO2 
 PCOD9433221
Probable space group: P C C N
;
_chemical_formula_sum "Si O2"
_cell_formula_units_Z 48
_cell_length_a 8.697759
_cell_length_b 22.594931
_cell_length_c 10.321860
_cell_angle_alpha 90.000000
_cell_angle_beta 90.000000
_cell_angle_gamma 90.000000
_cell_volume 2028.506266
_symmetry_space_group_name_H-M "P C C N"
_symmetry_group_IT_number 56
_symmetry_cell_setting 'orthorhombic'
loop_
_space_group_symop_operation_xyz
x,y,z
1/2-x,1/2-y,z
1/2+x,-y,1/2-z
-x,1/2+y,1/2-z
-x,-y,-z
1/2+x,1/2+y,-z
1/2-x,y,1/2+z
x,1/2-y,1/2+z
loop_
_atom_site_type_symbol
_atom_site_label
_atom_site_fract_x
_atom_site_fract_y
_atom_site_fract_z
Si Si1 0.874001 0.465600 0.082439
Si Si2 0.925634 0.748293 0.115409
Si Si3 0.655710 0.057377 0.356021
Si Si4 0.413419 0.133673 0.019796
Si Si5 0.919828 0.356005 0.770491
Si Si6 0.065598 0.123553 0.001906
O O1 0.840855 0.483210 0.229354
O O2 0.731590 0.467178 0.986193
O O3 0.000000 0.500000 0.000000
O O4 0.953969 0.400191 0.095909
O O5 0.750000 0.750000 0.169379
O O6 0.923605 0.704910 0.988513
O O7 0.047857 0.714158 0.206739
O O8 0.956556 0.814031 0.070876
O O9 0.762801 0.114744 0.320749
O O10 0.486009 0.075343 0.398386
O O11 0.450141 0.118600 0.868786
O O12 0.239858 0.117300 0.049949
O O13 0.954746 0.374808 0.625708
#
# Coordination Sequence:
#
# PCOD9433221 Si02
#       6
#     8   8   8   8   8   8
#     4  11  25  48  71  91 136 168 221 284 343 398
#     4   8  18  35  57  97 131 178 217 259 315 402
#     4  11  24  45  64 101 126 172 218 284 334 404
#     4   8  21  40  60  96 125 171 218 268 320 395
#     4   9  20  39  56  88 139 166 222 265 318 385
#     4  11  20  37  67  91 132 180 215 268 330 392
#
# _framework density 23.662731000000001
#
# number of rings (size 3 to 8) (size 9 to 14) (size 15 to 20)
#    1.000    1.333    1.667    0.000    2.333    5.333 
#    3.000    3.333    0.000    0.000    0.000    0.000 
#    0.000    0.000    0.000    0.000    0.000    0.000 
#
# Total GULP energy -267616.954869 kJ/mol
# GULP energy per Si atom -5575.353226 kJ/mol
# Density = 2.360887 g / cm^3
# Si number density = 23.662731 Si / 1000 Ang^3
#
#
#
# Elastic Constant Matrix: (Units=GPa)
#
#
# Indices 1 2 3 4 5 6 
#
# 1 46.5691 15.8401 3.5971 0.0000 0.0000 0.0000
# 2 15.8401 54.9631 4.7026 0.0000 0.0000 0.0000
# 3 3.5971 4.7026 93.9786 0.0000 0.0000 0.0000
# 4 0.0000 0.0000 0.0000 24.3586 0.0000 0.0000
# 5 0.0000 0.0000 0.0000 0.0000 29.6552 0.0000
# 6 0.0000 0.0000 0.0000 0.0000 0.0000 35.4843
#
#
#
# Elastic Compliance Matrix: (Units=1/GPa)
#
#
# Indices 1 2 3 4 5 6 
#
# 1 0.023838 -0.006821 -0.000571 0.000000 0.000000 0.000000
# 2 -0.006821 0.020224 -0.000751 0.000000 0.000000 0.000000
# 3 -0.000571 -0.000751 0.010700 0.000000 0.000000 0.000000
# 4 0.000000 0.000000 0.000000 0.041053 0.000000 0.000000
# 5 0.000000 0.000000 0.000000 0.000000 0.033721 0.000000
# 6 0.000000 0.000000 0.000000 0.000000 0.000000 0.028181
#
#
# Mechanical properties :
#
#
# Convention : Reuss Voigt Hill
#
# Bulk Modulus (GPa) = 25.99035 27.08784 26.53910
# Shear Modulus (GPa) = 26.76246 29.32436 28.04341
#
# Velocity S-wave (km/s) = 3.36668 3.52414 3.44631
# Velocity P-wave (km/s) = 5.11079 5.29450 5.20346
#
# Compressibility (1/GPa) = 0.03847581
#
# Stress axis : x y z
#
# Youngs Moduli (GPa) = 41.95035 49.44610 93.45662
#
# Poissons Ratio (x) = 0.33727 0.05337
# Poissons Ratio (y) = 0.28614 0.07018
# Poissons Ratio (z) = 0.02396 0.03713
#
# Static dielectric constant tensor:
#      x y z
#    x 1.882850 0.000000 0.000000 
#    y 0.000000 2.035940 0.000000 
#    z 0.000000 0.000000 1.866460 
# 
# From -- ./inp_files/6481.got.cif
#   From: 2010.05.17/outbox.cif.g08.bks.cpg/sg56_4_cif.got.tgz:6481.got - 2010.06.03 13:42:01.
