data_PCOD9433802
_publ_section_title
;
Structure prediction by ZEFSAII (Michael W. Deem and Ramdas Pophale) SiO2 
 PCOD9433802
Probable space group: P C C N
;
_chemical_formula_sum "Si O2"
_cell_formula_units_Z 32
_cell_length_a 4.704390
_cell_length_b 14.029718
_cell_length_c 19.966219
_cell_angle_alpha 90.000000
_cell_angle_beta 90.000000
_cell_angle_gamma 90.000000
_cell_volume 1317.795713
_symmetry_space_group_name_H-M "P C C N"
_symmetry_group_IT_number 56
_symmetry_cell_setting 'orthorhombic'
loop_
_space_group_symop_operation_xyz
x,y,z
1/2-x,1/2-y,z
1/2+x,-y,1/2-z
-x,1/2+y,1/2-z
-x,-y,-z
1/2+x,1/2+y,-z
1/2-x,y,1/2+z
x,1/2-y,1/2+z
loop_
_atom_site_type_symbol
_atom_site_label
_atom_site_fract_x
_atom_site_fract_y
_atom_site_fract_z
Si Si1 0.027295 0.505618 0.203932
Si Si2 0.479082 0.687093 0.622574
Si Si3 0.702418 0.850852 0.394577
Si Si4 0.835443 0.100843 0.512370
O O1 0.762073 0.461259 0.242534
O O2 0.916828 0.596360 0.163553
O O3 0.181031 0.433183 0.153747
O O4 0.250000 0.750000 0.662345
O O5 0.294120 0.644840 0.560611
O O6 0.750000 0.750000 0.603499
O O7 0.750000 0.750000 0.356310
O O8 0.931493 0.834247 0.452812
O O9 0.427326 0.891883 0.435426
O O10 0.000000 0.000000 0.500000
#
# Coordination Sequence:
#
# PCOD9433802 Si02
#       4
#     8   8   8   8
#     4  12  28  48  73 103 148 202 257 303 355 433
#     4  12  26  45  74 108 147 190 242 307 376 447
#     4  12  26  46  75 108 148 191 244 308 379 450
#     4  12  24  44  77 109 148 188 235 309 395 451
#
# _framework density 24.282975
#
# number of rings (size 3 to 8) (size 9 to 14) (size 15 to 20)
#    0.000    0.000    2.500    8.250    3.500    3.000 
#    0.000    0.000    0.000    0.000    0.000    0.000 
#    0.000    0.000    0.000    0.000    0.000    0.000 
#
# Total GULP energy -178690.805813 kJ/mol
# GULP energy per Si atom -5584.087682 kJ/mol
# Density = 2.422771 g / cm^3
# Si number density = 24.282975 Si / 1000 Ang^3
#
#
#
# Elastic Constant Matrix: (Units=GPa)
#
#
# Indices 1 2 3 4 5 6 
#
# 1 112.6551 12.1547 26.5138 0.0000 0.0000 0.0000
# 2 12.1547 130.8455 34.5364 0.0000 0.0000 0.0000
# 3 26.5138 34.5364 75.2344 0.0000 0.0000 0.0000
# 4 0.0000 0.0000 0.0000 10.0067 0.0000 0.0000
# 5 0.0000 0.0000 0.0000 0.0000 35.7907 0.0000
# 6 0.0000 0.0000 0.0000 0.0000 0.0000 34.7160
#
#
#
# Elastic Compliance Matrix: (Units=1/GPa)
#
#
# Indices 1 2 3 4 5 6 
#
# 1 0.009679 0.000001 -0.003412 0.000000 0.000000 0.000000
# 2 0.000001 0.008696 -0.003993 0.000000 0.000000 0.000000
# 3 -0.003412 -0.003993 0.016327 0.000000 0.000000 0.000000
# 4 0.000000 0.000000 0.000000 0.099933 0.000000 0.000000
# 5 0.000000 0.000000 0.000000 0.000000 0.027940 0.000000
# 6 0.000000 0.000000 0.000000 0.000000 0.000000 0.028805
#
#
# Mechanical properties :
#
#
# Convention : Reuss Voigt Hill
#
# Bulk Modulus (GPa) = 50.25944 51.68277 50.97111
# Shear Modulus (GPa) = 23.49415 32.47136 27.98276
#
# Velocity S-wave (km/s) = 3.11387 3.66075 3.39833
# Velocity P-wave (km/s) = 5.80263 6.26082 6.03608
#
# Compressibility (1/GPa) = 0.01989676
#
# Stress axis : x y z
#
# Youngs Moduli (GPa) = 103.31123 114.99152 61.24841
#
# Poissons Ratio (x) = -0.00016 0.20897
# Poissons Ratio (y) = -0.00014 0.24454
# Poissons Ratio (z) = 0.35248 0.45911
#
# Static dielectric constant tensor:
#      x y z
#    x 1.949590 0.000000 0.000000 
#    y 0.000000 2.171650 0.000000 
#    z 0.000000 0.000000 1.986330 
# 
# From -- ./inp_files/13696.got.cif
#   From: 2010.05.17/outbox.cif.g08.bks.cpg/sg56_7_cif.got.tgz:13696.got - 2010.06.03 13:42:01.
