data_PCOD9433606
_publ_section_title
;
Structure prediction by ZEFSAII (Michael W. Deem and Ramdas Pophale) SiO2 
 PCOD9433606
Probable space group: P C C N
;
_chemical_formula_sum "Si O2"
_cell_formula_units_Z 32
_cell_length_a 10.029655
_cell_length_b 10.374680
_cell_length_c 13.351155
_cell_angle_alpha 90.000000
_cell_angle_beta 90.000000
_cell_angle_gamma 90.000000
_cell_volume 1389.247239
_symmetry_space_group_name_H-M "P C C N"
_symmetry_group_IT_number 56
_symmetry_cell_setting 'orthorhombic'
loop_
_space_group_symop_operation_xyz
x,y,z
1/2-x,1/2-y,z
1/2+x,-y,1/2-z
-x,1/2+y,1/2-z
-x,-y,-z
1/2+x,1/2+y,-z
1/2-x,y,1/2+z
x,1/2-y,1/2+z
loop_
_atom_site_type_symbol
_atom_site_label
_atom_site_fract_x
_atom_site_fract_y
_atom_site_fract_z
Si Si1 0.973945 0.530269 0.869567
Si Si2 0.528379 0.542587 0.133893
Si Si3 0.799131 0.893027 0.525448
Si Si4 0.406817 0.787846 0.465805
O O1 0.974202 0.553454 0.752538
O O2 0.677126 0.558725 0.091291
O O3 0.027615 0.656392 0.926866
O O4 0.074281 0.415796 0.900389
O O5 0.438247 0.647019 0.074436
O O6 0.513517 0.393338 0.102762
O O7 0.750000 0.750000 0.498563
O O8 0.830998 0.976873 0.425614
O O9 0.250000 0.750000 0.456097
#
# Coordination Sequence:
#
# PCOD9433606 Si02
#       4
#     8   8   8   8
#     4  11  26  45  74 105 145 193 239 303 375 432
#     4  11  26  44  75 104 140 197 240 298 371 439
#     4  11  24  47  68 107 143 183 242 304 353 446
#     4  11  24  48  67 106 148 182 248 302 359 449
#
# _framework density 23.034057000000001
#
# number of rings (size 3 to 8) (size 9 to 14) (size 15 to 20)
#    0.000    1.000    5.000    0.000    3.500    6.000 
#    0.000    0.000    0.000    0.000    0.000    0.000 
#    0.000    0.000    0.000    0.000    0.000    0.000 
#
# Total GULP energy -178227.153181 kJ/mol
# GULP energy per Si atom -5569.598537 kJ/mol
# Density = 2.298163 g / cm^3
# Si number density = 23.034057 Si / 1000 Ang^3
#
#
#
# Elastic Constant Matrix: (Units=GPa)
#
#
# Indices 1 2 3 4 5 6 
#
# 1 103.4796 44.8371 40.9399 0.0000 0.0000 0.0000
# 2 44.8371 101.4698 28.9485 0.0000 0.0000 0.0000
# 3 40.9399 28.9485 182.8353 0.0000 0.0000 0.0000
# 4 0.0000 0.0000 0.0000 15.3015 0.0000 0.0000
# 5 0.0000 0.0000 0.0000 0.0000 27.9076 0.0000
# 6 0.0000 0.0000 0.0000 0.0000 0.0000 46.6928
#
#
#
# Elastic Compliance Matrix: (Units=1/GPa)
#
#
# Indices 1 2 3 4 5 6 
#
# 1 0.012638 -0.005003 -0.002038 0.000000 0.000000 0.000000
# 2 -0.005003 0.012302 -0.000828 0.000000 0.000000 0.000000
# 3 -0.002038 -0.000828 0.006057 0.000000 0.000000 0.000000
# 4 0.000000 0.000000 0.000000 0.065353 0.000000 0.000000
# 5 0.000000 0.000000 0.000000 0.000000 0.035833 0.000000
# 6 0.000000 0.000000 0.000000 0.000000 0.000000 0.021417
#
#
# Mechanical properties :
#
#
# Convention : Reuss Voigt Hill
#
# Bulk Modulus (GPa) = 65.53087 68.58174 67.05630
# Shear Modulus (GPa) = 28.66619 36.18432 32.42525
#
# Velocity S-wave (km/s) = 3.53159 3.96776 3.75602
# Velocity P-wave (km/s) = 6.71869 7.12949 6.92714
#
# Compressibility (1/GPa) = 0.01525998
#
# Stress axis : x y z
#
# Youngs Moduli (GPa) = 79.12856 81.28803 165.10666
#
# Poissons Ratio (x) = 0.40668 0.33643
# Poissons Ratio (y) = 0.39588 0.13663
# Poissons Ratio (z) = 0.16124 0.06727
#
# Static dielectric constant tensor:
#      x y z
#    x 2.168080 0.000000 0.000000 
#    y 0.000000 2.374410 0.000000 
#    z 0.000000 0.000000 1.842810 
# 
# From -- ./inp_files/11280.got.cif
#   From: 2010.05.17/outbox.cif.g08.bks.cpg/sg56_6_cif.got.tgz:11280.got - 2010.06.03 13:42:01.
