data_PCOD9433049
_publ_section_title
;
Structure prediction by ZEFSAII (Michael W. Deem and Ramdas Pophale) SiO2 
 PCOD9433049
Probable space group: P C C N
;
_chemical_formula_sum "Si O2"
_cell_formula_units_Z 40
_cell_length_a 17.723802
_cell_length_b 8.387106
_cell_length_c 9.876882
_cell_angle_alpha 90.000000
_cell_angle_beta 90.000000
_cell_angle_gamma 90.000000
_cell_volume 1468.212397
_symmetry_space_group_name_H-M "P C C N"
_symmetry_group_IT_number 56
_symmetry_cell_setting 'orthorhombic'
loop_
_space_group_symop_operation_xyz
x,y,z
1/2-x,1/2-y,z
1/2+x,-y,1/2-z
-x,1/2+y,1/2-z
-x,-y,-z
1/2+x,1/2+y,-z
1/2-x,y,1/2+z
x,1/2-y,1/2+z
loop_
_atom_site_type_symbol
_atom_site_label
_atom_site_fract_x
_atom_site_fract_y
_atom_site_fract_z
Si Si1 0.250000 0.250000 0.019157
Si Si2 0.045522 0.745465 0.511901
Si Si3 0.599250 0.773124 0.342283
Si Si4 0.861247 0.503559 0.124324
Si Si5 0.605308 0.407955 0.251206
Si Si6 0.250000 0.750000 0.748863
O O1 0.198660 0.369452 0.932757
O O2 0.183946 0.180151 0.111597
O O3 0.091449 0.624313 0.410878
O O4 0.058387 0.764992 0.672715
O O5 0.960339 0.721528 0.463850
O O6 0.079321 0.918115 0.472730
O O7 0.586494 0.910524 0.234043
O O8 0.595202 0.595724 0.278963
O O9 0.806584 0.363396 0.172197
O O10 0.689346 0.370765 0.312863
#
# Coordination Sequence:
#
# PCOD9433049 Si02
#       6
#     4   8   8   8   8   4
#     4  12  24  42  76 106 150 198 264 318 386 456
#     4  11  26  48  76 110 157 200 253 315 388 455
#     4  12  25  47  74 112 148 199 258 318 382 461
#     4  11  25  47  74 112 148 207 256 317 391 460
#     4  11  24  48  74 109 151 202 246 318 374 461
#     4  10  24  48  70 102 154 188 260 304 390 456
#
# _framework density 27.244014
#
# number of rings (size 3 to 8) (size 9 to 14) (size 15 to 20)
#    0.000    0.800    2.000    4.800    2.800    3.200 
#   18.000    5.000    0.000    0.000    0.000    0.000 
#    0.000    0.000    0.000    0.000    0.000    0.000 
#
# Total GULP energy -223587.576670 kJ/mol
# GULP energy per Si atom -5589.689417 kJ/mol
# Density = 2.718201 g / cm^3
# Si number density = 27.244014 Si / 1000 Ang^3
#
#
#
# Elastic Constant Matrix: (Units=GPa)
#
#
# Indices 1 2 3 4 5 6 
#
# 1 174.5851 16.9376 5.5285 0.0000 0.0000 0.0000
# 2 16.9376 129.7443 36.6699 0.0000 0.0000 0.0000
# 3 5.5285 36.6699 63.9192 0.0000 0.0000 0.0000
# 4 0.0000 0.0000 0.0000 40.6985 0.0000 0.0000
# 5 0.0000 0.0000 0.0000 0.0000 38.7422 0.0000
# 6 0.0000 0.0000 0.0000 0.0000 0.0000 44.7360
#
#
#
# Elastic Compliance Matrix: (Units=1/GPa)
#
#
# Indices 1 2 3 4 5 6 
#
# 1 0.005802 -0.000735 -0.000080 0.000000 0.000000 0.000000
# 2 -0.000735 0.009292 -0.005267 0.000000 0.000000 0.000000
# 3 -0.000080 -0.005267 0.018673 0.000000 0.000000 0.000000
# 4 0.000000 0.000000 0.000000 0.024571 0.000000 0.000000
# 5 0.000000 0.000000 0.000000 0.000000 0.025812 0.000000
# 6 0.000000 0.000000 0.000000 0.000000 0.000000 0.022353
#
#
# Mechanical properties :
#
#
# Convention : Reuss Voigt Hill
#
# Bulk Modulus (GPa) = 46.29041 54.05783 50.17412
# Shear Modulus (GPa) = 39.72397 45.44284 42.58340
#
# Velocity S-wave (km/s) = 3.82262 4.08854 3.95782
# Velocity P-wave (km/s) = 6.04245 6.49410 6.27234
#
# Compressibility (1/GPa) = 0.02160275
#
# Stress axis : x y z
#
# Youngs Moduli (GPa) = 172.36367 107.61863 53.55188
#
# Poissons Ratio (x) = 0.07907 0.00430
# Poissons Ratio (y) = 0.12663 0.28207
# Poissons Ratio (z) = 0.01384 0.56685
#
# Static dielectric constant tensor:
#      x y z
#    x 2.182460 0.000000 0.000000 
#    y 0.000000 2.154990 0.000000 
#    z 0.000000 0.000000 2.393300 
# 
# From -- ./inp_files/8213.got.cif
#   From: 2010.05.17/outbox.cif.g08.bks.cpg/sg56_5_cif.got.tgz:8213.got - 2010.06.03 13:42:01.
