data_PCOD9433795
_publ_section_title
;
Structure prediction by ZEFSAII (Michael W. Deem and Ramdas Pophale) SiO2 
 PCOD9433795
Probable space group: P C C N
;
_chemical_formula_sum "Si O2"
_cell_formula_units_Z 24
_cell_length_a 24.521359
_cell_length_b 4.759436
_cell_length_c 8.389676
_cell_angle_alpha 90.000000
_cell_angle_beta 90.000000
_cell_angle_gamma 90.000000
_cell_volume 979.140954
_symmetry_space_group_name_H-M "P C C N"
_symmetry_group_IT_number 56
_symmetry_cell_setting 'orthorhombic'
loop_
_space_group_symop_operation_xyz
x,y,z
1/2-x,1/2-y,z
1/2+x,-y,1/2-z
-x,1/2+y,1/2-z
-x,-y,-z
1/2+x,1/2+y,-z
1/2-x,y,1/2+z
x,1/2-y,1/2+z
loop_
_atom_site_type_symbol
_atom_site_label
_atom_site_fract_x
_atom_site_fract_y
_atom_site_fract_z
Si Si1 0.020689 0.159605 0.843746
Si Si2 0.687806 0.155921 0.922438
Si Si3 0.146029 0.345331 0.391325
O O1 0.013908 0.932854 0.701716
O O2 0.083566 0.238210 0.865705
O O3 0.000000 0.000000 0.000000
O O4 0.750000 0.250000 0.910219
O O5 0.668348 0.002101 0.763611
O O6 0.651653 0.426078 0.967161
O O7 0.680712 0.926074 0.061864
#
# Coordination Sequence:
#
# PCOD9433795 Si02
#       3
#     8   8   8
#     4  12  24  43  70 104 141 183 230 284 344 411
#     4  12  26  45  69  98 135 182 232 286 347 412
#     4  12  25  46  70 102 140 183 231 286 345 413
#
# _framework density 24.511279999999999
#
# number of rings (size 3 to 8) (size 9 to 14) (size 15 to 20)
#    0.000    0.000    0.000   11.000    0.000    2.667 
#    0.000    1.667    0.000    0.000    0.000    0.000 
#    0.000    0.000    0.000    0.000    0.000    0.000 
#
# Total GULP energy -134861.325689 kJ/mol
# GULP energy per Si atom -5619.221904 kJ/mol
# Density = 2.445549 g / cm^3
# Si number density = 24.511280 Si / 1000 Ang^3
#
#
#
# Elastic Constant Matrix: (Units=GPa)
#
#
# Indices 1 2 3 4 5 6 
#
# 1 120.4641 -8.9747 27.0665 0.0000 0.0000 0.0000
# 2 -8.9747 90.1465 2.8226 0.0000 0.0000 0.0000
# 3 27.0665 2.8226 79.5661 0.0000 0.0000 0.0000
# 4 0.0000 0.0000 0.0000 44.0981 0.0000 0.0000
# 5 0.0000 0.0000 0.0000 0.0000 35.9565 0.0000
# 6 0.0000 0.0000 0.0000 0.0000 0.0000 29.3473
#
#
#
# Elastic Compliance Matrix: (Units=1/GPa)
#
#
# Indices 1 2 3 4 5 6 
#
# 1 0.009078 0.001002 -0.003124 0.000000 0.000000 0.000000
# 2 0.001002 0.011216 -0.000739 0.000000 0.000000 0.000000
# 3 -0.003124 -0.000739 0.013657 0.000000 0.000000 0.000000
# 4 0.000000 0.000000 0.000000 0.022677 0.000000 0.000000
# 5 0.000000 0.000000 0.000000 0.000000 0.027811 0.000000
# 6 0.000000 0.000000 0.000000 0.000000 0.000000 0.034075
#
#
# Mechanical properties :
#
#
# Convention : Reuss Voigt Hill
#
# Bulk Modulus (GPa) = 35.42415 36.88949 36.15682
# Shear Modulus (GPa) = 37.41278 39.83119 38.62199
#
# Velocity S-wave (km/s) = 3.91109 4.03552 3.97379
# Velocity P-wave (km/s) = 5.90585 6.06602 5.98647
#
# Compressibility (1/GPa) = 0.02822933
#
# Stress axis : x y z
#
# Youngs Moduli (GPa) = 110.16054 89.15916 73.22294
#
# Poissons Ratio (x) = -0.08930 0.22871
# Poissons Ratio (y) = -0.11033 0.05408
# Poissons Ratio (z) = 0.34409 0.06585
#
# Static dielectric constant tensor:
#      x y z
#    x 1.832020 0.000000 0.000000 
#    y 0.000000 1.918170 0.000000 
#    z 0.000000 0.000000 1.994660 
# 
# From -- ./inp_files/1486.got.cif
#   From: 2010.05.17/outbox.cif.g08.bks.cpg/sg56_1_cif.got.tgz:1486.got - 2010.06.03 13:42:01.
