data_PCOD9433080
_publ_section_title
;
Structure prediction by ZEFSAII (Michael W. Deem and Ramdas Pophale) SiO2 
 PCOD9433080
Probable space group: P C C N
;
_chemical_formula_sum "Si O2"
_cell_formula_units_Z 32
_cell_length_a 8.783484
_cell_length_b 15.445398
_cell_length_c 9.652831
_cell_angle_alpha 90.000000
_cell_angle_beta 90.000000
_cell_angle_gamma 90.000000
_cell_volume 1309.545586
_symmetry_space_group_name_H-M "P C C N"
_symmetry_group_IT_number 56
_symmetry_cell_setting 'orthorhombic'
loop_
_space_group_symop_operation_xyz
x,y,z
1/2-x,1/2-y,z
1/2+x,-y,1/2-z
-x,1/2+y,1/2-z
-x,-y,-z
1/2+x,1/2+y,-z
1/2-x,y,1/2+z
x,1/2-y,1/2+z
loop_
_atom_site_type_symbol
_atom_site_label
_atom_site_fract_x
_atom_site_fract_y
_atom_site_fract_z
Si Si1 0.678434 0.450538 0.067767
Si Si2 0.079229 0.761047 0.914232
Si Si3 0.114874 0.492542 0.721177
Si Si4 0.103523 0.302205 0.844057
O O1 0.825986 0.440722 0.163959
O O2 0.557763 0.500657 0.166330
O O3 0.590636 0.361171 0.035448
O O4 0.707481 0.496957 0.922470
O O5 0.250000 0.750000 0.861191
O O6 0.028522 0.702339 0.041470
O O7 0.959395 0.754236 0.791804
O O8 0.133546 0.399695 0.794914
O O9 0.250000 0.250000 0.897057
#
# Coordination Sequence:
#
# PCOD9433080 Si02
#       4
#     8   8   8   8
#     4  10  25  45  69 102 137 182 239 286 351 420
#     4  11  26  45  70 101 140 187 235 291 357 426
#     4  10  25  44  68 100 137 182 230 290 346 418
#     4  11  26  44  70 102 139 184 231 293 357 427
#
# _framework density 24.435956000000001
#
# number of rings (size 3 to 8) (size 9 to 14) (size 15 to 20)
#    0.000    1.500    0.000    1.500   24.500    1.000 
#    0.000    0.000    0.000    0.000    0.000    0.000 
#    0.000    0.000    0.000    0.000    0.000    0.000 
#
# Total GULP energy -178950.221105 kJ/mol
# GULP energy per Si atom -5592.194410 kJ/mol
# Density = 2.438034 g / cm^3
# Si number density = 24.435956 Si / 1000 Ang^3
#
#
#
# Elastic Constant Matrix: (Units=GPa)
#
#
# Indices 1 2 3 4 5 6 
#
# 1 46.8642 21.6794 16.5165 0.0000 0.0000 0.0000
# 2 21.6794 48.0107 27.8819 0.0000 0.0000 0.0000
# 3 16.5165 27.8819 113.9638 0.0000 0.0000 0.0000
# 4 0.0000 0.0000 0.0000 32.2141 0.0000 0.0000
# 5 0.0000 0.0000 0.0000 0.0000 39.1656 0.0000
# 6 0.0000 0.0000 0.0000 0.0000 0.0000 29.2501
#
#
#
# Elastic Compliance Matrix: (Units=1/GPa)
#
#
# Indices 1 2 3 4 5 6 
#
# 1 0.027088 -0.011600 -0.001088 0.000000 0.000000 0.000000
# 2 -0.011600 0.029246 -0.005474 0.000000 0.000000 0.000000
# 3 -0.001088 -0.005474 0.010272 0.000000 0.000000 0.000000
# 4 0.000000 0.000000 0.000000 0.031042 0.000000 0.000000
# 5 0.000000 0.000000 0.000000 0.000000 0.025533 0.000000
# 6 0.000000 0.000000 0.000000 0.000000 0.000000 0.034188
#
#
# Mechanical properties :
#
#
# Convention : Reuss Voigt Hill
#
# Bulk Modulus (GPa) = 33.02320 37.88827 35.45573
# Shear Modulus (GPa) = 24.53569 29.64335 27.08952
#
# Velocity S-wave (km/s) = 3.17216 3.48674 3.33317
# Velocity P-wave (km/s) = 5.19233 5.63459 5.41798
#
# Compressibility (1/GPa) = 0.03028174
#
# Stress axis : x y z
#
# Youngs Moduli (GPa) = 36.91708 34.19321 97.35570
#
# Poissons Ratio (x) = 0.39663 0.10590
# Poissons Ratio (y) = 0.42823 0.53292
# Poissons Ratio (z) = 0.04016 0.18717
#
# Static dielectric constant tensor:
#      x y z
#    x 1.914970 0.000000 0.000000 
#    y 0.000000 2.015620 0.000000 
#    z 0.000000 0.000000 1.855030 
# 
# From -- ./inp_files/5946.got.cif
#   From: 2010.05.17/outbox.cif.g08.bks.cpg/sg56_3_cif.got.tgz:5946.got - 2010.06.03 13:42:01.
