data_PCOD9433375
_publ_section_title
;
Structure prediction by ZEFSAII (Michael W. Deem and Ramdas Pophale) SiO2 
 PCOD9433375
Probable space group: P C C N
;
_chemical_formula_sum "Si O2"
_cell_formula_units_Z 40
_cell_length_a 13.393089
_cell_length_b 14.223650
_cell_length_c 7.484262
_cell_angle_alpha 90.000000
_cell_angle_beta 90.000000
_cell_angle_gamma 90.000000
_cell_volume 1425.741511
_symmetry_space_group_name_H-M "P C C N"
_symmetry_group_IT_number 56
_symmetry_cell_setting 'orthorhombic'
loop_
_space_group_symop_operation_xyz
x,y,z
1/2-x,1/2-y,z
1/2+x,-y,1/2-z
-x,1/2+y,1/2-z
-x,-y,-z
1/2+x,1/2+y,-z
1/2-x,y,1/2+z
x,1/2-y,1/2+z
loop_
_atom_site_type_symbol
_atom_site_label
_atom_site_fract_x
_atom_site_fract_y
_atom_site_fract_z
Si Si1 0.896985 0.640440 0.282572
Si Si2 0.407795 0.692765 0.921277
Si Si3 0.514791 0.064532 0.263686
Si Si4 0.653001 0.388014 0.447000
Si Si5 0.187813 0.090777 0.588484
O O1 0.981240 0.713866 0.340939
O O2 0.789766 0.643862 0.373179
O O3 0.952088 0.540437 0.320584
O O4 0.867177 0.639019 0.076500
O O5 0.356753 0.634874 0.762208
O O6 0.429625 0.635122 0.101545
O O7 0.344474 0.784456 0.968700
O O8 0.395778 0.080614 0.244591
O O9 0.559353 0.075906 0.064265
O O10 0.719040 0.482098 0.458141
#
# Coordination Sequence:
#
# PCOD9433375 Si02
#       5
#     8   8   8   8   8
#     4  11  23  40  70 100 134 184 243 288 348 420
#     4  12  22  41  70  98 136 186 226 295 360 414
#     4  11  22  42  70  96 134 188 238 293 341 432
#     4  11  23  41  67  99 142 175 235 289 361 414
#     4  11  23  43  68 105 138 183 247 297 340 433
#
# _framework density 28.055575000000001
#
# number of rings (size 3 to 8) (size 9 to 14) (size 15 to 20)
#    0.000    0.800    6.000    3.000    2.800    0.000 
#    0.000    2.000    0.000    0.000    0.000    0.000 
#    0.000    0.000    0.000    0.000    0.000    0.000 
#
# Total GULP energy -223969.722666 kJ/mol
# GULP energy per Si atom -5599.243067 kJ/mol
# Density = 2.799172 g / cm^3
# Si number density = 28.055575 Si / 1000 Ang^3
#
#
#
# Elastic Constant Matrix: (Units=GPa)
#
#
# Indices 1 2 3 4 5 6 
#
# 1 127.6349 34.9944 17.3052 0.0000 0.0000 0.0000
# 2 34.9944 139.5563 39.2627 0.0000 0.0000 0.0000
# 3 17.3052 39.2627 129.2698 0.0000 0.0000 0.0000
# 4 0.0000 0.0000 0.0000 42.9632 0.0000 0.0000
# 5 0.0000 0.0000 0.0000 0.0000 26.5629 0.0000
# 6 0.0000 0.0000 0.0000 0.0000 0.0000 3.8063
#
#
#
# Elastic Compliance Matrix: (Units=1/GPa)
#
#
# Indices 1 2 3 4 5 6 
#
# 1 0.008447 -0.001968 -0.000533 0.000000 0.000000 0.000000
# 2 -0.001968 0.008294 -0.002256 0.000000 0.000000 0.000000
# 3 -0.000533 -0.002256 0.008492 0.000000 0.000000 0.000000
# 4 0.000000 0.000000 0.000000 0.023276 0.000000 0.000000
# 5 0.000000 0.000000 0.000000 0.000000 0.037647 0.000000
# 6 0.000000 0.000000 0.000000 0.000000 0.000000 0.262722
#
#
# Mechanical properties :
#
#
# Convention : Reuss Voigt Hill
#
# Bulk Modulus (GPa) = 63.61607 64.39838 64.00723
# Shear Modulus (GPa) = 13.75023 34.99306 24.37165
#
# Velocity S-wave (km/s) = 2.21624 3.53551 2.95056
# Velocity P-wave (km/s) = 5.41047 6.29842 5.87126
#
# Compressibility (1/GPa) = 0.01571930
#
# Stress axis : x y z
#
# Youngs Moduli (GPa) = 118.38914 120.57421 117.75542
#
# Poissons Ratio (x) = 0.23730 0.06276
# Poissons Ratio (y) = 0.23300 0.26560
# Poissons Ratio (z) = 0.06310 0.27196
#
# Static dielectric constant tensor:
#      x y z
#    x 2.208140 0.000000 0.000000 
#    y 0.000000 2.248920 0.000000 
#    z 0.000000 0.000000 2.166680 
# 
# From -- ./inp_files/3230.got.cif
#   From: 2010.05.17/outbox.cif.g08.bks.cpg/sg56_2_cif.got.tgz:3230.got - 2010.06.03 13:42:01.
