data_PCOD9433847
_publ_section_title
;
Structure prediction by ZEFSAII (Michael W. Deem and Ramdas Pophale) SiO2 
 PCOD9433847
Probable space group: P C C N
;
_chemical_formula_sum "Si O2"
_cell_formula_units_Z 32
_cell_length_a 7.517634
_cell_length_b 7.131954
_cell_length_c 22.561267
_cell_angle_alpha 90.000000
_cell_angle_beta 90.000000
_cell_angle_gamma 90.000000
_cell_volume 1209.631803
_symmetry_space_group_name_H-M "P C C N"
_symmetry_group_IT_number 56
_symmetry_cell_setting 'orthorhombic'
loop_
_space_group_symop_operation_xyz
x,y,z
1/2-x,1/2-y,z
1/2+x,-y,1/2-z
-x,1/2+y,1/2-z
-x,-y,-z
1/2+x,1/2+y,-z
1/2-x,y,1/2+z
x,1/2-y,1/2+z
loop_
_atom_site_type_symbol
_atom_site_label
_atom_site_fract_x
_atom_site_fract_y
_atom_site_fract_z
Si Si1 0.408505 0.617404 0.560453
Si Si2 0.829217 0.552012 0.542772
Si Si3 0.037403 0.017227 0.683591
Si Si4 0.250000 0.250000 0.268564
Si Si5 0.250000 0.750000 0.356809
O O1 0.250000 0.750000 0.582373
O O2 0.172206 0.966649 0.500175
O O3 0.417297 0.471999 0.613698
O O4 0.592369 0.737664 0.558302
O O5 0.814066 0.421043 0.600828
O O6 0.000000 0.500000 0.500000
O O7 0.919630 0.830458 0.695008
O O8 0.905476 0.191618 0.686529
O O9 0.192829 0.073741 0.727617
#
# Coordination Sequence:
#
# PCOD9433847 Si02
#       5
#     8   8   8   4   4
#     4  12  28  45  79 114 163 208 255 318 394 482
#     4  12  26  48  73 119 165 203 256 310 389 497
#     4  12  29  51  82 113 154 208 267 336 400 457
#     4  12  30  54  80 114 156 204 286 344 392 466
#     4  12  26  50  80 114 160 206 256 324 398 484
#
# _framework density 26.454331
#
# number of rings (size 3 to 8) (size 9 to 14) (size 15 to 20)
#    0.000    0.000    3.750    4.500    8.750    0.000 
#    0.000    0.000    0.000    0.000    0.000    0.000 
#    0.000    0.000    0.000    0.000    0.000    0.000 
#
# Total GULP energy -178615.223836 kJ/mol
# GULP energy per Si atom -5581.725745 kJ/mol
# Density = 2.639412 g / cm^3
# Si number density = 26.454331 Si / 1000 Ang^3
#
#
#
# Elastic Constant Matrix: (Units=GPa)
#
#
# Indices 1 2 3 4 5 6 
#
# 1 145.4417 3.9460 7.0133 0.0000 0.0000 0.0000
# 2 3.9460 95.2573 23.5147 0.0000 0.0000 0.0000
# 3 7.0133 23.5147 97.9650 0.0000 0.0000 0.0000
# 4 0.0000 0.0000 0.0000 -37.9082 0.0000 0.0000
# 5 0.0000 0.0000 0.0000 0.0000 33.7248 0.0000
# 6 0.0000 0.0000 0.0000 0.0000 0.0000 45.9422
#
#
#
# Elastic Compliance Matrix: (Units=1/GPa)
#
#
# Indices 1 2 3 4 5 6 
#
# 1 0.006902 -0.000174 -0.000452 0.000000 0.000000 0.000000
# 2 -0.000174 0.011163 -0.002667 0.000000 0.000000 0.000000
# 3 -0.000452 -0.002667 0.010880 0.000000 0.000000 0.000000
# 4 0.000000 0.000000 0.000000 -0.026380 0.000000 0.000000
# 5 0.000000 0.000000 0.000000 0.000000 0.029652 0.000000
# 6 0.000000 0.000000 0.000000 0.000000 0.000000 0.021766
#
#
# Mechanical properties :
#
#
# Convention : Reuss Voigt Hill
#
# Bulk Modulus (GPa) = 44.72558 45.29024 45.00791
# Shear Modulus (GPa) = 73.50252 28.63110 51.06681
#
# Velocity S-wave (km/s) = 5.27684 3.29338 4.39837
# Velocity P-wave (km/s) = 7.35324 5.62309 6.54558
#
# Compressibility (1/GPa) = 0.02235857
#
# Stress axis : x y z
#
# Youngs Moduli (GPa) = 144.88250 89.57770 91.90923
#
# Poissons Ratio (x) = 0.01561 0.04157
# Poissons Ratio (y) = 0.02525 0.24513
# Poissons Ratio (z) = 0.06553 0.23891
#
# Static dielectric constant tensor:
#      x y z
#    x 2.265250 0.000000 0.000000 
#    y 0.000000 2.288400 0.000000 
#    z 0.000000 0.000000 1.953040 
# 
# From -- ./inp_files/17762.got.cif
#   From: 2010.05.17/outbox.cif.g08.bks.cpg/sg56_9_cif.got.tgz:17762.got - 2010.06.03 13:42:01.
