data_PCOD9433142
_publ_section_title
;
Structure prediction by ZEFSAII (Michael W. Deem and Ramdas Pophale) SiO2 
 PCOD9433142
Probable space group: P C C N
;
_chemical_formula_sum "Si O2"
_cell_formula_units_Z 28
_cell_length_a 6.379229
_cell_length_b 22.657491
_cell_length_c 9.210919
_cell_angle_alpha 90.000000
_cell_angle_beta 90.000000
_cell_angle_gamma 90.000000
_cell_volume 1331.321581
_symmetry_space_group_name_H-M "P C C N"
_symmetry_group_IT_number 56
_symmetry_cell_setting 'orthorhombic'
loop_
_space_group_symop_operation_xyz
x,y,z
1/2-x,1/2-y,z
1/2+x,-y,1/2-z
-x,1/2+y,1/2-z
-x,-y,-z
1/2+x,1/2+y,-z
1/2-x,y,1/2+z
x,1/2-y,1/2+z
loop_
_atom_site_type_symbol
_atom_site_label
_atom_site_fract_x
_atom_site_fract_y
_atom_site_fract_z
Si Si1 0.947892 0.294850 0.664729
Si Si2 0.557171 0.072222 0.614761
Si Si3 0.194176 0.502533 0.107572
Si Si4 0.250000 0.250000 0.413599
O O1 0.750000 0.250000 0.668568
O O2 0.876663 0.362449 0.655582
O O3 0.092223 0.283842 0.522375
O O4 0.097476 0.286043 0.804978
O O5 0.649663 0.050459 0.463120
O O6 0.634183 0.026019 0.735728
O O7 0.308255 0.060670 0.612065
O O8 0.000000 0.500000 0.000000
#
# Coordination Sequence:
#
# PCOD9433142 Si02
#       4
#     8   8   8   4
#     4  11  26  45  70  99 137 184 230 288 344 407
#     4  11  26  42  71  96 138 174 229 275 341 412
#     4  11  24  44  64 104 133 176 221 276 344 401
#     4  10  26  46  64 102 132 176 240 274 356 404
#
# _framework density 21.031732000000002
#
# number of rings (size 3 to 8) (size 9 to 14) (size 15 to 20)
#    0.000    1.143    2.857    0.857   12.000    2.286 
#    0.000    0.000    0.000    0.000    0.000    0.000 
#    0.000    0.000    0.000    0.000    0.000    0.000 
#
# Total GULP energy -156397.747880 kJ/mol
# GULP energy per Si atom -5585.633853 kJ/mol
# Density = 2.098386 g / cm^3
# Si number density = 21.031732 Si / 1000 Ang^3
#
#
#
# Elastic Constant Matrix: (Units=GPa)
#
#
# Indices 1 2 3 4 5 6 
#
# 1 100.4225 35.6400 26.4749 0.0000 0.0000 0.0000
# 2 35.6400 90.3051 1.5039 0.0000 0.0000 0.0000
# 3 26.4749 1.5039 117.9203 0.0000 0.0000 0.0000
# 4 0.0000 0.0000 0.0000 10.5827 0.0000 0.0000
# 5 0.0000 0.0000 0.0000 0.0000 48.7058 0.0000
# 6 0.0000 0.0000 0.0000 0.0000 0.0000 29.1773
#
#
#
# Elastic Compliance Matrix: (Units=1/GPa)
#
#
# Indices 1 2 3 4 5 6 
#
# 1 0.012395 -0.004847 -0.002721 0.000000 0.000000 0.000000
# 2 -0.004847 0.012971 0.000923 0.000000 0.000000 0.000000
# 3 -0.002721 0.000923 0.009079 0.000000 0.000000 0.000000
# 4 0.000000 0.000000 0.000000 0.094494 0.000000 0.000000
# 5 0.000000 0.000000 0.000000 0.000000 0.020531 0.000000
# 6 0.000000 0.000000 0.000000 0.000000 0.000000 0.034273
#
#
# Mechanical properties :
#
#
# Convention : Reuss Voigt Hill
#
# Bulk Modulus (GPa) = 47.26859 48.43171 47.85015
# Shear Modulus (GPa) = 24.49946 34.02845 29.26396
#
# Velocity S-wave (km/s) = 3.41674 4.02675 3.73422
# Velocity P-wave (km/s) = 6.17164 6.68562 6.43376
#
# Compressibility (1/GPa) = 0.02115570
#
# Stress axis : x y z
#
# Youngs Moduli (GPa) = 80.67508 77.09500 110.13855
#
# Poissons Ratio (x) = 0.37365 0.29970
# Poissons Ratio (y) = 0.39101 -0.10163
# Poissons Ratio (z) = 0.21953 -0.07114
#
# Static dielectric constant tensor:
#      x y z
#    x 1.867740 0.000000 0.000000 
#    y 0.000000 1.720250 0.000000 
#    z 0.000000 0.000000 1.728740 
# 
# From -- ./inp_files/1517.got.cif
#   From: 2010.05.17/outbox.cif.g08.bks.cpg/sg56_1_cif.got.tgz:1517.got - 2010.06.03 13:42:01.
