data_PCOD9433848
_publ_section_title
;
Structure prediction by ZEFSAII (Michael W. Deem and Ramdas Pophale) SiO2 
 PCOD9433848
Probable space group: P C C N
;
_chemical_formula_sum "Si O2"
_cell_formula_units_Z 40
_cell_length_a 4.883678
_cell_length_b 19.377223
_cell_length_c 17.700953
_cell_angle_alpha 90.000000
_cell_angle_beta 90.000000
_cell_angle_gamma 90.000000
_cell_volume 1675.078667
_symmetry_space_group_name_H-M "P C C N"
_symmetry_group_IT_number 56
_symmetry_cell_setting 'orthorhombic'
loop_
_space_group_symop_operation_xyz
x,y,z
1/2-x,1/2-y,z
1/2+x,-y,1/2-z
-x,1/2+y,1/2-z
-x,-y,-z
1/2+x,1/2+y,-z
1/2-x,y,1/2+z
x,1/2-y,1/2+z
loop_
_atom_site_type_symbol
_atom_site_label
_atom_site_fract_x
_atom_site_fract_y
_atom_site_fract_z
Si Si1 0.335699 0.036464 0.566658
Si Si2 0.905522 0.323048 0.238958
Si Si3 0.664208 0.128758 0.075998
Si Si4 0.358931 0.964574 0.214337
Si Si5 0.750000 0.250000 0.961557
Si Si6 0.250000 0.250000 0.849855
O O1 0.570892 0.085460 0.601739
O O2 0.075222 0.081633 0.541033
O O3 0.500000 0.000000 0.500000
O O4 0.217703 0.984793 0.629023
O O5 0.750000 0.250000 0.241993
O O6 0.967000 0.337977 0.151299
O O7 0.729913 0.386966 0.268928
O O8 0.161819 0.311775 0.294182
O O9 0.771723 0.184523 0.016625
O O10 0.668005 0.985171 0.234045
O O11 0.498589 0.236805 0.906122
#
# Coordination Sequence:
#
# PCOD9433848 Si02
#       6
#     8   8   8   8   4   4
#     4  12  27  48  74 112 150 205 257 324 393 466
#     4  12  28  50  79 113 154 208 263 316 387 470
#     4  12  27  49  78 108 152 205 263 315 392 475
#     4  12  26  48  74 109 152 194 259 320 380 451
#     4  12  28  50  72 116 154 202 250 334 396 466
#     4  12  30  48  76 114 158 200 260 326 394 460
#
# _framework density 23.879474999999999
#
# number of rings (size 3 to 8) (size 9 to 14) (size 15 to 20)
#    0.000    0.000    6.000    1.800   11.200    0.800 
#    0.000    0.000    0.000    0.000    0.000    0.000 
#    0.000    0.000    0.000    0.000    0.000    0.000 
#
# Total GULP energy -224221.341062 kJ/mol
# GULP energy per Si atom -5605.533527 kJ/mol
# Density = 2.382512 g / cm^3
# Si number density = 23.879475 Si / 1000 Ang^3
#
#
#
# Elastic Constant Matrix: (Units=GPa)
#
#
# Indices 1 2 3 4 5 6 
#
# 1 86.3734 14.8517 2.3954 0.0000 0.0000 0.0000
# 2 14.8517 123.7318 23.4525 0.0000 0.0000 0.0000
# 3 2.3954 23.4525 128.2680 0.0000 0.0000 0.0000
# 4 0.0000 0.0000 0.0000 15.2422 0.0000 0.0000
# 5 0.0000 0.0000 0.0000 0.0000 44.1651 0.0000
# 6 0.0000 0.0000 0.0000 0.0000 0.0000 33.3640
#
#
#
# Elastic Compliance Matrix: (Units=1/GPa)
#
#
# Indices 1 2 3 4 5 6 
#
# 1 0.011822 -0.001427 0.000040 0.000000 0.000000 0.000000
# 2 -0.001427 0.008544 -0.001536 0.000000 0.000000 0.000000
# 3 0.000040 -0.001536 0.008076 0.000000 0.000000 0.000000
# 4 0.000000 0.000000 0.000000 0.065607 0.000000 0.000000
# 5 0.000000 0.000000 0.000000 0.000000 0.022642 0.000000
# 6 0.000000 0.000000 0.000000 0.000000 0.000000 0.029972
#
#
# Mechanical properties :
#
#
# Convention : Reuss Voigt Hill
#
# Bulk Modulus (GPa) = 44.25155 46.64138 45.44646
# Shear Modulus (GPa) = 31.24195 38.39917 34.82056
#
# Velocity S-wave (km/s) = 3.62099 4.01439 3.82275
# Velocity P-wave (km/s) = 6.00446 6.40792 6.20947
#
# Compressibility (1/GPa) = 0.02259808
#
# Stress axis : x y z
#
# Youngs Moduli (GPa) = 84.58935 117.03715 123.82064
#
# Poissons Ratio (x) = 0.16696 -0.00496
# Poissons Ratio (y) = 0.12067 0.19014
# Poissons Ratio (z) = -0.00339 0.17972
#
# Static dielectric constant tensor:
#      x y z
#    x 1.923930 0.000000 0.000000 
#    y 0.000000 1.915690 0.000000 
#    z 0.000000 0.000000 1.905000 
# 
# From -- ./inp_files/13854.got.cif
#   From: 2010.05.17/outbox.cif.g08.bks.cpg/sg56_7_cif.got.tgz:13854.got - 2010.06.03 13:42:01.
