data_PCOD9433566
_publ_section_title
;
Structure prediction by ZEFSAII (Michael W. Deem and Ramdas Pophale) SiO2 
 PCOD9433566
Probable space group: P C C N
;
_chemical_formula_sum "Si O2"
_cell_formula_units_Z 56
_cell_length_a 5.571069
_cell_length_b 27.568114
_cell_length_c 16.936364
_cell_angle_alpha 90.000000
_cell_angle_beta 90.000000
_cell_angle_gamma 90.000000
_cell_volume 2601.152247
_symmetry_space_group_name_H-M "P C C N"
_symmetry_group_IT_number 56
_symmetry_cell_setting 'orthorhombic'
loop_
_space_group_symop_operation_xyz
x,y,z
1/2-x,1/2-y,z
1/2+x,-y,1/2-z
-x,1/2+y,1/2-z
-x,-y,-z
1/2+x,1/2+y,-z
1/2-x,y,1/2+z
x,1/2-y,1/2+z
loop_
_atom_site_type_symbol
_atom_site_label
_atom_site_fract_x
_atom_site_fract_y
_atom_site_fract_z
Si Si1 0.159860 0.555436 0.920359
Si Si2 0.030844 0.129679 0.297636
Si Si3 0.159860 0.444564 0.920359
Si Si4 0.367968 0.797403 0.079271
Si Si5 0.867968 0.797403 0.420729
Si Si6 0.000000 0.628347 0.500000
Si Si7 0.469156 0.629679 0.297636
O O1 0.233366 0.500000 0.906756
O O2 0.374334 0.592285 0.938532
O O3 0.026367 0.579374 0.846665
O O4 1.000000 0.556729 1.000000
O O5 0.026367 0.079374 0.346666
O O6 0.277816 0.132701 0.248506
O O7 0.034476 0.173790 0.360500
O O8 0.777816 0.132701 0.251494
O O9 0.374334 0.407715 0.938532
O O10 0.250000 0.750000 0.116808
O O11 0.500000 0.779875 1.000000
O O12 0.180868 0.837250 0.047214
O O13 0.750000 0.750000 0.383192
O O14 0.680868 0.837250 0.452786
O O15 0.034476 0.826210 0.360500
#
# Coordination Sequence:
#
# PCOD9433566 Si02
#       7
#     8   8   8   8   8   8   8
#     4  11  24  43  73 104 134 187 249 305 361 435
#     4  12  27  47  70 103 154 193 230 298 372 448
#     4  11  24  43  73 104 134 187 249 305 361 435
#     4  12  25  43  75 105 137 195 259 310 369 440
#     4  12  25  43  75 105 137 195 259 310 369 440
#     4  12  19  44  72 104 142 178 245 322 364 420
#     4  12  27  47  70 103 154 193 230 298 372 448
#
# _framework density 21.528921
#
# number of rings (size 3 to 8) (size 9 to 14) (size 15 to 20)
#    0.000    0.286    7.143    2.143    0.000    2.286 
#    0.000    0.000    0.000    0.000    0.000    0.000 
#    0.000    0.000    0.000    0.000    0.000    0.000 
#
# Total GULP energy -313230.772852 kJ/mol
# GULP energy per Si atom -5593.406658 kJ/mol
# Density = 2.147992 g / cm^3
# Si number density = 21.528921 Si / 1000 Ang^3
#
#
#
# Elastic Constant Matrix: (Units=GPa)
#
#
# Indices 1 2 3 4 5 6 
#
# 1 94.6517 26.7131 34.6710 0.0000 0.0000 0.0000
# 2 26.7131 145.9824 19.4326 0.0000 0.0000 0.0000
# 3 34.6710 19.4326 82.3362 0.0000 0.0000 0.0000
# 4 0.0000 0.0000 0.0000 -0.7968 0.0000 0.0000
# 5 0.0000 0.0000 0.0000 0.0000 55.8249 0.0000
# 6 0.0000 0.0000 0.0000 0.0000 0.0000 7.6806
#
#
#
# Elastic Compliance Matrix: (Units=1/GPa)
#
#
# Indices 1 2 3 4 5 6 
#
# 1 0.012883 -0.001688 -0.005026 0.000000 0.000000 0.000000
# 2 -0.001688 0.007294 -0.001010 0.000000 0.000000 0.000000
# 3 -0.005026 -0.001010 0.014500 0.000000 0.000000 0.000000
# 4 0.000000 0.000000 0.000000 -1.255022 0.000000 0.000000
# 5 0.000000 0.000000 0.000000 0.000000 0.017913 0.000000
# 6 0.000000 0.000000 0.000000 0.000000 0.000000 0.130197
#
#
# Mechanical properties :
#
#
# Convention : Reuss Voigt Hill
#
# Bulk Modulus (GPa) = 52.01169 53.84487 52.92828
# Shear Modulus (GPa) = -4.76020 28.68532 11.96256
#
# Velocity S-wave (km/s) = -1.48858 3.65418 2.35978
# Velocity P-wave (km/s) = 4.61052 6.54743 5.66241
#
# Compressibility (1/GPa) = 0.01922645
#
# Stress axis : x y z
#
# Youngs Moduli (GPa) = 77.62359 137.10670 68.96384
#
# Poissons Ratio (x) = 0.23148 0.34663
# Poissons Ratio (y) = 0.13105 0.06969
# Poissons Ratio (z) = 0.39016 0.13854
#
# Static dielectric constant tensor:
#      x y z
#    x 1.837270 0.000000 0.000000 
#    y 0.000000 1.735390 0.000000 
#    z 0.000000 0.000000 1.821020 
# 
# From -- ./inp_files/9793.got.cif
#   From: 2010.05.17/outbox.cif.g08.bks.cpg/sg56_5_cif.got.tgz:9793.got - 2010.06.03 13:42:01.
