data_PCOD9433867
_publ_section_title
;
Structure prediction by ZEFSAII (Michael W. Deem and Ramdas Pophale) SiO2 
 PCOD9433867
Probable space group: P C C N
;
_chemical_formula_sum "Si O2"
_cell_formula_units_Z 32
_cell_length_a 14.006636
_cell_length_b 9.161910
_cell_length_c 10.848503
_cell_angle_alpha 90.000000
_cell_angle_beta 90.000000
_cell_angle_gamma 90.000000
_cell_volume 1392.161686
_symmetry_space_group_name_H-M "P C C N"
_symmetry_group_IT_number 56
_symmetry_cell_setting 'orthorhombic'
loop_
_space_group_symop_operation_xyz
x,y,z
1/2-x,1/2-y,z
1/2+x,-y,1/2-z
-x,1/2+y,1/2-z
-x,-y,-z
1/2+x,1/2+y,-z
1/2-x,y,1/2+z
x,1/2-y,1/2+z
loop_
_atom_site_type_symbol
_atom_site_label
_atom_site_fract_x
_atom_site_fract_y
_atom_site_fract_z
Si Si1 0.319530 0.887444 0.271838
Si Si2 0.591793 0.904457 0.532270
Si Si3 0.687720 0.884560 0.284898
Si Si4 0.516353 0.900060 0.122524
O O1 0.250000 0.750000 0.296672
O O2 0.422535 0.876837 0.206639
O O3 0.338527 0.988150 0.392203
O O4 0.260048 0.988766 0.179633
O O5 0.637221 0.837076 0.409519
O O6 0.552802 0.764394 0.602180
O O7 0.500000 0.000000 0.500000
O O8 0.750000 0.750000 0.232516
O O9 0.607027 0.958725 0.199599
O O10 0.500000 0.000000 0.000000
#
# Coordination Sequence:
#
# PCOD9433867 Si02
#       4
#     8   8   8   8
#     4  12  29  48  78 116 156 203 261 319 393 473
#     4  12  27  48  78 109 156 202 256 324 388 465
#     4  12  27  50  76 112 151 203 258 316 392 463
#     4  12  29  51  79 112 156 204 260 329 391 466
#
# _framework density 22.985835000000002
#
# number of rings (size 3 to 8) (size 9 to 14) (size 15 to 20)
#    0.000    0.000    5.000    3.000   10.500    1.000 
#    0.000    0.000    0.000    0.000    0.000    0.000 
#    0.000    0.000    0.000    0.000    0.000    0.000 
#
# Total GULP energy -178624.020044 kJ/mol
# GULP energy per Si atom -5582.000626 kJ/mol
# Density = 2.293352 g / cm^3
# Si number density = 22.985835 Si / 1000 Ang^3
#
#
#
# Elastic Constant Matrix: (Units=GPa)
#
#
# Indices 1 2 3 4 5 6 
#
# 1 158.3431 47.1338 49.5254 0.0000 0.0000 0.0000
# 2 47.1338 106.0717 13.9098 0.0000 0.0000 0.0000
# 3 49.5254 13.9098 84.1182 0.0000 0.0000 0.0000
# 4 0.0000 0.0000 0.0000 28.1014 0.0000 0.0000
# 5 0.0000 0.0000 0.0000 0.0000 29.4754 0.0000
# 6 0.0000 0.0000 0.0000 0.0000 0.0000 54.0014
#
#
#
# Elastic Compliance Matrix: (Units=1/GPa)
#
#
# Indices 1 2 3 4 5 6 
#
# 1 0.008728 -0.003276 -0.004597 0.000000 0.000000 0.000000
# 2 -0.003276 0.010866 0.000132 0.000000 0.000000 0.000000
# 3 -0.004597 0.000132 0.014573 0.000000 0.000000 0.000000
# 4 0.000000 0.000000 0.000000 0.035585 0.000000 0.000000
# 5 0.000000 0.000000 0.000000 0.000000 0.033927 0.000000
# 6 0.000000 0.000000 0.000000 0.000000 0.000000 0.018518
#
#
# Mechanical properties :
#
#
# Convention : Reuss Voigt Hill
#
# Bulk Modulus (GPa) = 53.51909 63.29678 58.40793
# Shear Modulus (GPa) = 34.74447 38.17989 36.46218
#
# Velocity S-wave (km/s) = 3.89210 4.07998 3.98715
# Velocity P-wave (km/s) = 6.59787 7.05635 6.83096
#
# Compressibility (1/GPa) = 0.01868492
#
# Stress axis : x y z
#
# Youngs Moduli (GPa) = 114.56916 92.03140 68.62048
#
# Poissons Ratio (x) = 0.30146 0.31547
# Poissons Ratio (y) = 0.37529 -0.00904
# Poissons Ratio (z) = 0.52670 -0.01213
#
# Static dielectric constant tensor:
#      x y z
#    x 1.999700 0.000000 0.000000 
#    y 0.000000 1.874920 0.000000 
#    z 0.000000 0.000000 1.984140 
# 
# From -- ./inp_files/5981.got.cif
#   From: 2010.05.17/outbox.cif.g08.bks.cpg/sg56_3_cif.got.tgz:5981.got - 2010.06.03 13:42:01.
