data_PCOD9433032
_publ_section_title
;
Structure prediction by ZEFSAII (Michael W. Deem and Ramdas Pophale) SiO2 
 PCOD9433032
Probable space group: P C C N
;
_chemical_formula_sum "Si O2"
_cell_formula_units_Z 44
_cell_length_a 7.762994
_cell_length_b 31.069165
_cell_length_c 8.454342
_cell_angle_alpha 90.000000
_cell_angle_beta 90.000000
_cell_angle_gamma 90.000000
_cell_volume 2039.100561
_symmetry_space_group_name_H-M "P C C N"
_symmetry_group_IT_number 56
_symmetry_cell_setting 'orthorhombic'
loop_
_space_group_symop_operation_xyz
x,y,z
1/2-x,1/2-y,z
1/2+x,-y,1/2-z
-x,1/2+y,1/2-z
-x,-y,-z
1/2+x,1/2+y,-z
1/2-x,y,1/2+z
x,1/2-y,1/2+z
loop_
_atom_site_type_symbol
_atom_site_label
_atom_site_fract_x
_atom_site_fract_y
_atom_site_fract_z
Si Si1 0.038074 0.952804 0.061419
Si Si2 0.844617 0.185504 0.907429
Si Si3 0.574582 0.453614 0.558034
Si Si4 0.870478 0.869669 0.956477
Si Si5 0.750000 0.250000 0.649203
Si Si6 0.980096 0.635873 0.093218
O O1 0.047020 0.950403 0.252466
O O2 0.224865 0.945498 0.983411
O O3 0.894781 0.920175 0.994854
O O4 0.000000 0.000000 0.000000
O O5 0.843871 0.214275 0.752380
O O6 0.658536 0.162055 0.927209
O O7 0.872592 0.221427 0.041436
O O8 0.991578 0.150831 0.923351
O O9 0.500000 0.500000 0.500000
O O10 0.495150 0.413562 0.463167
O O11 0.930394 0.862341 0.777513
O O12 0.684874 0.849539 0.991743
#
# Coordination Sequence:
#
# PCOD9433032 Si02
#       6
#     8   8   8   8   4   8
#     4  12  25  43  67  99 142 187 238 291 347 411
#     4  11  24  48  74 104 142 184 236 288 368 415
#     4  12  25  43  67  99 142 187 238 291 347 411
#     4  12  26  44  72 105 143 189 237 289 355 424
#     4  10  24  46  78 102 140 184 228 302 354 438
#     4  12  26  44  72 105 143 189 237 289 355 424
#
# _framework density 21.578143000000001
#
# number of rings (size 3 to 8) (size 9 to 14) (size 15 to 20)
#    0.000    0.364    3.636    5.455    5.091    0.000 
#    0.000    5.455    0.000    0.000    0.000    0.000 
#    0.000    0.000    0.000    0.000    0.000    0.000 
#
# Total GULP energy -245828.309801 kJ/mol
# GULP energy per Si atom -5587.007041 kJ/mol
# Density = 2.152903 g / cm^3
# Si number density = 21.578143 Si / 1000 Ang^3
#
#
#
# Elastic Constant Matrix: (Units=GPa)
#
#
# Indices 1 2 3 4 5 6 
#
# 1 111.9828 12.1511 -17.0627 0.0000 0.0000 0.0000
# 2 12.1511 88.5733 0.1649 0.0000 0.0000 0.0000
# 3 -17.0627 0.1649 68.8242 0.0000 0.0000 0.0000
# 4 0.0000 0.0000 0.0000 429.6699 0.0000 0.0000
# 5 0.0000 0.0000 0.0000 0.0000 22.2603 0.0000
# 6 0.0000 0.0000 0.0000 0.0000 0.0000 7.7259
#
#
#
# Elastic Compliance Matrix: (Units=1/GPa)
#
#
# Indices 1 2 3 4 5 6 
#
# 1 0.009427 -0.001298 0.002340 0.000000 0.000000 0.000000
# 2 -0.001298 0.011469 -0.000349 0.000000 0.000000 0.000000
# 3 0.002340 -0.000349 0.015111 0.000000 0.000000 0.000000
# 4 0.000000 0.000000 0.000000 0.002327 0.000000 0.000000
# 5 0.000000 0.000000 0.000000 0.000000 0.044923 0.000000
# 6 0.000000 0.000000 0.000000 0.000000 0.000000 0.129435
#
#
# Mechanical properties :
#
#
# Convention : Reuss Voigt Hill
#
# Bulk Modulus (GPa) = 26.74238 28.87631 27.80935
# Shear Modulus (GPa) = 22.34443 110.20639 66.27541
#
# Velocity S-wave (km/s) = 3.22143 7.15430 5.54805
# Velocity P-wave (km/s) = 5.12416 9.03641 7.34553
#
# Compressibility (1/GPa) = 0.03739382
#
# Stress axis : x y z
#
# Youngs Moduli (GPa) = 106.07448 87.19346 66.17781
#
# Poissons Ratio (x) = 0.11315 -0.15488
# Poissons Ratio (y) = 0.13765 0.02311
# Poissons Ratio (z) = -0.24825 0.03045
#
# Static dielectric constant tensor:
#      x y z
#    x 1.809440 0.000000 0.000000 
#    y 0.000000 1.776830 0.000000 
#    z 0.000000 0.000000 1.817350 
# 
# From -- ./inp_files/2172.got.cif
#   From: 2010.05.17/outbox.cif.g08.bks.cpg/sg56_2_cif.got.tgz:2172.got - 2010.06.03 13:42:01.
