data_PCOD9433878
_publ_section_title
;
Structure prediction by ZEFSAII (Michael W. Deem and Ramdas Pophale) SiO2 
 PCOD9433878
Probable space group: P C C N
;
_chemical_formula_sum "Si O2"
_cell_formula_units_Z 28
_cell_length_a 7.790622
_cell_length_b 8.450602
_cell_length_c 16.517850
_cell_angle_alpha 90.000000
_cell_angle_beta 90.000000
_cell_angle_gamma 90.000000
_cell_volume 1087.460019
_symmetry_space_group_name_H-M "P C C N"
_symmetry_group_IT_number 56
_symmetry_cell_setting 'orthorhombic'
loop_
_space_group_symop_operation_xyz
x,y,z
1/2-x,1/2-y,z
1/2+x,-y,1/2-z
-x,1/2+y,1/2-z
-x,-y,-z
1/2+x,1/2+y,-z
1/2-x,y,1/2+z
x,1/2-y,1/2+z
loop_
_atom_site_type_symbol
_atom_site_label
_atom_site_fract_x
_atom_site_fract_y
_atom_site_fract_z
Si Si1 0.068022 0.263750 0.159458
Si Si2 0.560789 0.878045 0.163935
Si Si3 0.837031 0.463564 0.556689
Si Si4 0.250000 0.750000 0.074722
O O1 0.250000 0.250000 0.113458
O O2 0.024263 0.447470 0.168607
O O3 0.094118 0.177549 0.245257
O O4 0.916869 0.168046 0.116224
O O5 0.770372 0.587261 0.109751
O O6 0.420529 0.753994 0.128673
O O7 0.713851 0.392173 0.487700
O O8 0.000000 0.500000 0.500000
#
# Coordination Sequence:
#
# PCOD9433878 Si02
#       4
#     8   8   8   4
#     4  12  28  49  79 114 160 210 276 337 411 493
#     4  12  29  52  78 119 158 220 267 342 414 491
#     4  12  28  49  79 115 159 211 266 336 406 485
#     4  12  28  48  80 110 164 200 266 330 404 488
#
# _framework density 25.748075
#
# number of rings (size 3 to 8) (size 9 to 14) (size 15 to 20)
#    0.000    0.000    2.857    4.286   20.000    0.000 
#    0.000    0.000    0.000    0.000    0.000    0.000 
#    0.000    0.000    0.000    0.000    0.000    0.000 
#
# Total GULP energy -156734.166214 kJ/mol
# GULP energy per Si atom -5597.648793 kJ/mol
# Density = 2.568947 g / cm^3
# Si number density = 25.748075 Si / 1000 Ang^3
#
#
#
# Elastic Constant Matrix: (Units=GPa)
#
#
# Indices 1 2 3 4 5 6 
#
# 1 172.5811 39.0779 39.6530 0.0000 0.0000 0.0000
# 2 39.0779 123.5236 28.3773 0.0000 0.0000 0.0000
# 3 39.6530 28.3773 72.0121 0.0000 0.0000 0.0000
# 4 0.0000 0.0000 0.0000 37.0326 0.0000 0.0000
# 5 0.0000 0.0000 0.0000 0.0000 46.0431 0.0000
# 6 0.0000 0.0000 0.0000 0.0000 0.0000 46.3452
#
#
#
# Elastic Compliance Matrix: (Units=1/GPa)
#
#
# Indices 1 2 3 4 5 6 
#
# 1 0.006856 -0.001431 -0.003211 0.000000 0.000000 0.000000
# 2 -0.001431 0.009200 -0.002837 0.000000 0.000000 0.000000
# 3 -0.003211 -0.002837 0.016773 0.000000 0.000000 0.000000
# 4 0.000000 0.000000 0.000000 0.027003 0.000000 0.000000
# 5 0.000000 0.000000 0.000000 0.000000 0.021719 0.000000
# 6 0.000000 0.000000 0.000000 0.000000 0.000000 0.021577
#
#
# Mechanical properties :
#
#
# Convention : Reuss Voigt Hill
#
# Bulk Modulus (GPa) = 55.96123 64.70370 60.33246
# Shear Modulus (GPa) = 40.30785 43.28475 41.79630
#
# Velocity S-wave (km/s) = 3.96090 4.10455 4.03336
# Velocity P-wave (km/s) = 6.53449 6.90270 6.72112
#
# Compressibility (1/GPa) = 0.01786951
#
# Stress axis : x y z
#
# Youngs Moduli (GPa) = 145.85058 108.69267 59.61976
#
# Poissons Ratio (x) = 0.15557 0.19146
# Poissons Ratio (y) = 0.20876 0.16916
# Poissons Ratio (z) = 0.46838 0.30840
#
# Static dielectric constant tensor:
#      x y z
#    x 2.084720 0.000000 0.000000 
#    y 0.000000 2.088880 0.000000 
#    z 0.000000 0.000000 1.943480 
# 
# From -- ./inp_files/14282.got.cif
#   From: 2010.05.17/outbox.cif.g08.bks.cpg/sg56_8_cif.got.tgz:14282.got - 2010.06.03 13:42:01.
