data_PCOD9433907
_publ_section_title
;
Structure prediction by ZEFSAII (Michael W. Deem and Ramdas Pophale) SiO2 
 PCOD9433907
Probable space group: P C C N
;
_chemical_formula_sum "Si O2"
_cell_formula_units_Z 64
_cell_length_a 24.000000
_cell_length_b 9.000000
_cell_length_c 15.000000
_cell_angle_alpha 90.000000
_cell_angle_beta 90.000000
_cell_angle_gamma 90.000000
_cell_volume 3240.000000
_symmetry_space_group_name_H-M "P C C N"
_symmetry_group_IT_number 56
_symmetry_cell_setting 'orthorhombic'
loop_
_space_group_symop_operation_xyz
x,y,z
1/2-x,1/2-y,z
1/2+x,-y,1/2-z
-x,1/2+y,1/2-z
-x,-y,-z
1/2+x,1/2+y,-z
1/2-x,y,1/2+z
x,1/2-y,1/2+z
loop_
_atom_site_type_symbol
_atom_site_label
_atom_site_fract_x
_atom_site_fract_y
_atom_site_fract_z
Si Si1 0.482815 0.343812 0.804347
Si Si2 0.288986 0.468942 0.880498
Si Si3 0.370112 0.706892 0.944805
Si Si4 0.421669 0.877384 0.255990
Si Si5 0.444856 0.977022 0.558734
Si Si6 0.681844 0.512328 0.505110
Si Si7 0.796205 0.115898 0.310972
Si Si8 0.610320 0.719931 0.051550
O O1 0.523818 0.219403 0.766228
O O2 0.441297 0.450027 0.748100
O O3 0.529216 0.456858 0.845132
O O4 0.443007 0.275380 0.882294
O O5 0.314814 0.607924 0.935056
O O6 0.232312 0.433348 0.931786
O O7 0.281733 0.517390 0.777308
O O8 0.338343 0.349537 0.892001
O O9 0.406085 0.659183 0.858756
O O10 0.347272 0.870694 0.949822
O O11 0.409259 0.665781 0.028017
O O12 0.362415 0.844305 0.206255
O O13 0.405529 0.110787 0.529662
O O14 0.500000 0.000000 0.500000
O O15 0.703510 0.467910 0.406398
O O16 0.633344 0.633292 0.506731
O O17 0.750000 0.250000 0.313492
#
# Coordination Sequence:
#
# PCOD9433907 Si02
#       8
#     8   8   8   8   8   8   8   8
#     4  11  22  41  63  91 129 171 218 262 333 396
#     4  10  20  44  65  85 132 178 212 274 338 394
#     4  10  19  38  62  91 124 165 219 261 327 385
#     4  11  23  40  65  95 131 173 216 274 332 393
#     4   9  17  39  60  78 118 175 202 252 319 389
#     4  12  24  37  67 102 124 169 229 279 332 396
#     4  11  23  44  67 100 132 168 229 284 329 392
#     4  10  22  42  61  89 134 169 214 270 337 398
#
# _framework density 19.753086
#
# number of rings (size 3 to 8) (size 9 to 14) (size 15 to 20)
#    0.000    1.500    5.000    3.750    1.750    2.000 
#    0.000    5.625    0.000    0.000    0.000    0.000 
#    0.000    0.000    0.000    0.000    0.000    0.000 
#
# Total GULP energy -356465.376605 kJ/mol
# GULP energy per Si atom -5569.771509 kJ/mol
# Density = 1.970813 g / cm^3
# Si number density = 19.753086 Si / 1000 Ang^3
#
#
#
# Elastic Constant Matrix: (Units=GPa)
#
#
# Indices 1 2 3 4 5 6 
#
# 1 120.0126 34.9945 33.0198 0.0000 0.0000 0.0000
# 2 34.9945 55.1953 18.5500 0.0000 0.0000 0.0000
# 3 33.0198 18.5500 57.5254 0.0000 0.0000 0.0000
# 4 0.0000 0.0000 0.0000 16.0557 0.0000 0.0000
# 5 0.0000 0.0000 0.0000 0.0000 35.4196 0.0000
# 6 0.0000 0.0000 0.0000 0.0000 0.0000 40.4697
#
#
#
# Elastic Compliance Matrix: (Units=1/GPa)
#
#
# Indices 1 2 3 4 5 6 
#
# 1 0.011234 -0.005558 -0.004656 0.000000 0.000000 0.000000
# 2 -0.005558 0.023069 -0.004249 0.000000 0.000000 0.000000
# 3 -0.004656 -0.004249 0.021426 0.000000 0.000000 0.000000
# 4 0.000000 0.000000 0.000000 0.062283 0.000000 0.000000
# 5 0.000000 0.000000 0.000000 0.000000 0.028233 0.000000
# 6 0.000000 0.000000 0.000000 0.000000 0.000000 0.024710
#
#
# Mechanical properties :
#
#
# Convention : Reuss Voigt Hill
#
# Bulk Modulus (GPa) = 37.30783 45.09575 41.20179
# Shear Modulus (GPa) = 23.94451 28.13359 26.03905
#
# Velocity S-wave (km/s) = 3.48543 3.77804 3.63468
# Velocity P-wave (km/s) = 5.92670 6.47385 6.20630
#
# Compressibility (1/GPa) = 0.02680402
#
# Stress axis : x y z
#
# Youngs Moduli (GPa) = 89.01442 43.34801 46.67130
#
# Poissons Ratio (x) = 0.24092 0.21731
# Poissons Ratio (y) = 0.49472 0.19830
# Poissons Ratio (z) = 0.41447 0.18418
#
# Static dielectric constant tensor:
#      x y z
#    x 1.689850 0.000000 0.000000 
#    y 0.000000 1.761200 0.000000 
#    z 0.000000 0.000000 1.711750 
# 
# From -- ./inp_files/13286.got.cif
#   From: 2010.05.17/outbox.ucp.g08.bks.cvg/sg56_7_cif.got.tgz:13286.got - 2010.06.11 16:37:52.
