data_PCOD9433724
_publ_section_title
;
Structure prediction by ZEFSAII (Michael W. Deem and Ramdas Pophale) SiO2 
 PCOD9433724
Probable space group: P C C N
;
_chemical_formula_sum "Si O2"
_cell_formula_units_Z 36
_cell_length_a 20.627231
_cell_length_b 6.307696
_cell_length_c 12.433827
_cell_angle_alpha 90.000000
_cell_angle_beta 90.000000
_cell_angle_gamma 90.000000
_cell_volume 1617.768992
_symmetry_space_group_name_H-M "P C C N"
_symmetry_group_IT_number 56
_symmetry_cell_setting 'orthorhombic'
loop_
_space_group_symop_operation_xyz
x,y,z
1/2-x,1/2-y,z
1/2+x,-y,1/2-z
-x,1/2+y,1/2-z
-x,-y,-z
1/2+x,1/2+y,-z
1/2-x,y,1/2+z
x,1/2-y,1/2+z
loop_
_atom_site_type_symbol
_atom_site_label
_atom_site_fract_x
_atom_site_fract_y
_atom_site_fract_z
Si Si1 0.250000 0.750000 0.167632
Si Si2 0.812423 0.873291 0.958113
Si Si3 0.651294 0.014801 0.673514
Si Si4 0.428873 0.083993 0.130020
Si Si5 0.545653 0.295341 0.027054
O O1 0.296424 0.602260 0.094011
O O2 0.297978 0.878796 0.246253
O O3 0.750000 0.750000 0.916456
O O4 0.877161 0.746472 0.924436
O O5 0.812970 0.868652 0.087485
O O6 0.611468 0.158149 0.589933
O O7 0.595232 0.919539 0.748304
O O8 0.500392 0.168019 0.109311
O O9 0.433924 0.852266 0.073821
O O10 0.500000 0.500000 0.000000
#
# Coordination Sequence:
#
# PCOD9433724 Si02
#       5
#     4   8   8   8   8
#     4  12  28  48  70 112 144 194 248 308 376 448
#     4  12  27  48  70 109 152 185 252 313 361 447
#     4  12  27  44  79 100 145 201 234 302 379 443
#     4  11  27  47  74 108 143 194 247 300 370 444
#     4  11  26  50  70 108 152 185 247 313 361 445
#
# _framework density 22.252866999999998
#
# number of rings (size 3 to 8) (size 9 to 14) (size 15 to 20)
#    0.000    0.444    4.444    2.000    9.333    0.000 
#    0.000    0.000    0.000    0.000    0.000    0.000 
#    0.000    0.000    0.000    0.000    0.000    0.000 
#
# Total GULP energy -200792.140438 kJ/mol
# GULP energy per Si atom -5577.559457 kJ/mol
# Density = 2.220222 g / cm^3
# Si number density = 22.252867 Si / 1000 Ang^3
#
#
#
# Elastic Constant Matrix: (Units=GPa)
#
#
# Indices 1 2 3 4 5 6 
#
# 1 105.3549 20.2776 6.5290 0.0000 0.0000 0.0000
# 2 20.2776 71.5286 30.6544 0.0000 0.0000 0.0000
# 3 6.5290 30.6544 106.5313 0.0000 0.0000 0.0000
# 4 0.0000 0.0000 0.0000 22.3652 0.0000 0.0000
# 5 0.0000 0.0000 0.0000 0.0000 54.1976 0.0000
# 6 0.0000 0.0000 0.0000 0.0000 0.0000 46.8226
#
#
#
# Elastic Compliance Matrix: (Units=1/GPa)
#
#
# Indices 1 2 3 4 5 6 
#
# 1 0.010045 -0.002947 0.000232 0.000000 0.000000 0.000000
# 2 -0.002947 0.016812 -0.004657 0.000000 0.000000 0.000000
# 3 0.000232 -0.004657 0.010713 0.000000 0.000000 0.000000
# 4 0.000000 0.000000 0.000000 0.044712 0.000000 0.000000
# 5 0.000000 0.000000 0.000000 0.000000 0.018451 0.000000
# 6 0.000000 0.000000 0.000000 0.000000 0.000000 0.021357
#
#
# Mechanical properties :
#
#
# Convention : Reuss Voigt Hill
#
# Bulk Modulus (GPa) = 43.81036 44.25966 44.03501
# Shear Modulus (GPa) = 34.61612 39.74066 37.17839
#
# Velocity S-wave (km/s) = 3.94836 4.23054 4.09188
# Velocity P-wave (km/s) = 6.36525 6.61784 6.49277
#
# Compressibility (1/GPa) = 0.02282565
#
# Stress axis : x y z
#
# Youngs Moduli (GPa) = 99.55638 59.48244 93.34712
#
# Poissons Ratio (x) = 0.17530 -0.02170
# Poissons Ratio (y) = 0.29341 0.43471
# Poissons Ratio (z) = -0.02314 0.27701
#
# Static dielectric constant tensor:
#      x y z
#    x 1.727560 0.000000 0.000000 
#    y 0.000000 2.080890 0.000000 
#    z 0.000000 0.000000 1.801360 
# 
# From -- ./inp_files/5561.got.cif
#   From: 2010.05.17/outbox.cif.g08.bks.cpg/sg56_3_cif.got.tgz:5561.got - 2010.06.03 13:42:01.
