data_PCOD9433577
_publ_section_title
;
Structure prediction by ZEFSAII (Michael W. Deem and Ramdas Pophale) SiO2 
 PCOD9433577
Probable space group: P C C N
;
_chemical_formula_sum "Si O2"
_cell_formula_units_Z 24
_cell_length_a 5.258146
_cell_length_b 8.762412
_cell_length_c 23.176845
_cell_angle_alpha 90.000000
_cell_angle_beta 90.000000
_cell_angle_gamma 90.000000
_cell_volume 1067.850921
_symmetry_space_group_name_H-M "P C C N"
_symmetry_group_IT_number 56
_symmetry_cell_setting 'orthorhombic'
loop_
_space_group_symop_operation_xyz
x,y,z
1/2-x,1/2-y,z
1/2+x,-y,1/2-z
-x,1/2+y,1/2-z
-x,-y,-z
1/2+x,1/2+y,-z
1/2-x,y,1/2+z
x,1/2-y,1/2+z
loop_
_atom_site_type_symbol
_atom_site_label
_atom_site_fract_x
_atom_site_fract_y
_atom_site_fract_z
Si Si1 0.746627 0.569211 0.470389
Si Si2 0.235555 0.925749 0.653336
Si Si3 0.501427 0.146661 0.729632
O O1 0.750000 0.750000 0.477493
O O2 0.500000 0.500000 0.500000
O O3 0.712913 0.526850 0.403173
O O4 0.000000 0.500000 0.500000
O O5 0.250000 0.750000 0.633807
O O6 0.030575 0.915153 0.705080
O O7 0.470556 0.002479 0.687547
O O8 0.250000 0.250000 0.722699
O O9 0.750000 0.250000 0.718432
#
# Coordination Sequence:
#
# PCOD9433577 Si02
#       3
#     8   8   8
#     4  12  28  50  74 102 139 186 238 290 348 415
#     4  11  24  44  72 104 143 184 233 288 348 415
#     4  11  25  44  69 104 144 186 230 284 351 418
#
# _framework density 22.475047
#
# number of rings (size 3 to 8) (size 9 to 14) (size 15 to 20)
#    0.000    0.667    0.000    8.000    0.000   14.667 
#    0.000    0.000    0.000    0.000    0.000    0.000 
#    0.000    0.000    0.000    0.000    0.000    0.000 
#
# Total GULP energy -134222.501420 kJ/mol
# GULP energy per Si atom -5592.604226 kJ/mol
# Density = 2.242389 g / cm^3
# Si number density = 22.475047 Si / 1000 Ang^3
#
#
#
# Elastic Constant Matrix: (Units=GPa)
#
#
# Indices 1 2 3 4 5 6 
#
# 1 188.6719 91.0018 44.7019 0.0000 0.0000 0.0000
# 2 91.0018 220.4781 48.7600 0.0000 0.0000 0.0000
# 3 44.7019 48.7600 114.6619 0.0000 0.0000 0.0000
# 4 0.0000 0.0000 0.0000 113.7669 0.0000 0.0000
# 5 0.0000 0.0000 0.0000 0.0000 32.2221 0.0000
# 6 0.0000 0.0000 0.0000 0.0000 0.0000 54.6342
#
#
#
# Elastic Compliance Matrix: (Units=1/GPa)
#
#
# Indices 1 2 3 4 5 6 
#
# 1 0.006882 -0.002481 -0.001628 0.000000 0.000000 0.000000
# 2 -0.002481 0.005901 -0.001542 0.000000 0.000000 0.000000
# 3 -0.001628 -0.001542 0.010012 0.000000 0.000000 0.000000
# 4 0.000000 0.000000 0.000000 0.008790 0.000000 0.000000
# 5 0.000000 0.000000 0.000000 0.000000 0.031035 0.000000
# 6 0.000000 0.000000 0.000000 0.000000 0.000000 0.018304
#
#
# Mechanical properties :
#
#
# Convention : Reuss Voigt Hill
#
# Bulk Modulus (GPa) = 87.01090 99.19325 93.10208
# Shear Modulus (GPa) = 52.05303 62.74786 57.40045
#
# Velocity S-wave (km/s) = 4.81774 5.28957 5.05916
# Velocity P-wave (km/s) = 8.35141 9.02977 8.69720
#
# Compressibility (1/GPa) = 0.01149281
#
# Stress axis : x y z
#
# Youngs Moduli (GPa) = 145.29663 169.47679 99.88133
#
# Poissons Ratio (x) = 0.42041 0.16264
# Poissons Ratio (y) = 0.36043 0.15403
# Poissons Ratio (z) = 0.23659 0.26135
#
# Static dielectric constant tensor:
#      x y z
#    x 1.840470 0.000000 0.000000 
#    y 0.000000 1.868110 0.000000 
#    z 0.000000 0.000000 1.826940 
# 
# From -- ./inp_files/19735.got.cif
#   From: 2010.05.17/outbox.cif.g08.bks.cpg/sg56_10_cif.got.tgz:19735.got - 2010.06.03 13:42:01.
