data_PCOD9433068
_publ_section_title
;
Structure prediction by ZEFSAII (Michael W. Deem and Ramdas Pophale) SiO2 
 PCOD9433068
Probable space group: P C C N
;
_chemical_formula_sum "Si O2"
_cell_formula_units_Z 40
_cell_length_a 18.306588
_cell_length_b 8.214183
_cell_length_c 10.196730
_cell_angle_alpha 90.000000
_cell_angle_beta 90.000000
_cell_angle_gamma 90.000000
_cell_volume 1533.319650
_symmetry_space_group_name_H-M "P C C N"
_symmetry_group_IT_number 56
_symmetry_cell_setting 'orthorhombic'
loop_
_space_group_symop_operation_xyz
x,y,z
1/2-x,1/2-y,z
1/2+x,-y,1/2-z
-x,1/2+y,1/2-z
-x,-y,-z
1/2+x,1/2+y,-z
1/2-x,y,1/2+z
x,1/2-y,1/2+z
loop_
_atom_site_type_symbol
_atom_site_label
_atom_site_fract_x
_atom_site_fract_y
_atom_site_fract_z
Si Si1 0.961252 0.140072 0.417438
Si Si2 0.650205 0.587001 0.955159
Si Si3 0.820457 0.366541 0.241107
Si Si4 0.819875 0.955735 0.480492
Si Si5 0.062758 0.621285 0.369810
O O1 0.982852 0.125472 0.264798
O O2 0.976834 0.301393 0.503462
O O3 0.874926 0.088536 0.420629
O O4 0.000000 0.000000 0.500000
O O5 0.646932 0.780169 0.945831
O O6 0.736611 0.545200 0.933864
O O7 0.609149 0.536155 0.088066
O O8 0.627133 0.453542 0.847810
O O9 0.750000 0.250000 0.271250
O O10 0.806386 0.509715 0.134818
O O11 0.873302 0.248354 0.161100
#
# Coordination Sequence:
#
# PCOD9433068 Si02
#       5
#     8   8   8   8   8
#     4  11  26  48  69  97 137 184 239 278 340 419
#     4  11  23  39  67 105 138 173 224 289 360 402
#     4  11  21  38  66  98 138 176 224 275 352 422
#     4  10  25  39  66 101 141 175 222 293 346 410
#     4  11  23  44  69  99 131 185 226 284 345 415
#
# _framework density 26.087188999999999
#
# number of rings (size 3 to 8) (size 9 to 14) (size 15 to 20)
#    0.000    1.200    4.000    1.200    5.600    3.200 
#    3.600    2.000    0.000    0.000    0.000    0.000 
#    0.000    0.000    0.000    0.000    0.000    0.000 
#
# Total GULP energy -223152.684065 kJ/mol
# GULP energy per Si atom -5578.817102 kJ/mol
# Density = 2.602781 g / cm^3
# Si number density = 26.087189 Si / 1000 Ang^3
#
#
#
# Elastic Constant Matrix: (Units=GPa)
#
#
# Indices 1 2 3 4 5 6 
#
# 1 84.8744 10.7665 25.6497 0.0000 0.0000 0.0000
# 2 10.7665 104.4180 47.1483 0.0000 0.0000 0.0000
# 3 25.6497 47.1483 116.7504 0.0000 0.0000 0.0000
# 4 0.0000 0.0000 0.0000 26.9622 0.0000 0.0000
# 5 0.0000 0.0000 0.0000 0.0000 28.8338 0.0000
# 6 0.0000 0.0000 0.0000 0.0000 0.0000 33.4867
#
#
#
# Elastic Compliance Matrix: (Units=1/GPa)
#
#
# Indices 1 2 3 4 5 6 
#
# 1 0.012620 -0.000060 -0.002748 0.000000 0.000000 0.000000
# 2 -0.000060 0.011713 -0.004717 0.000000 0.000000 0.000000
# 3 -0.002748 -0.004717 0.011074 0.000000 0.000000 0.000000
# 4 0.000000 0.000000 0.000000 0.037089 0.000000 0.000000
# 5 0.000000 0.000000 0.000000 0.000000 0.034682 0.000000
# 6 0.000000 0.000000 0.000000 0.000000 0.000000 0.029863
#
#
# Mechanical properties :
#
#
# Convention : Reuss Voigt Hill
#
# Bulk Modulus (GPa) = 49.12507 52.57463 50.84985
# Shear Modulus (GPa) = 31.47096 32.68843 32.07970
#
# Velocity S-wave (km/s) = 3.47706 3.54368 3.51053
# Velocity P-wave (km/s) = 5.91540 6.07789 5.99719
#
# Compressibility (1/GPa) = 0.02035620
#
# Stress axis : x y z
#
# Youngs Moduli (GPa) = 79.23730 85.37564 90.30219
#
# Poissons Ratio (x) = 0.00515 0.24818
# Poissons Ratio (y) = 0.00478 0.42594
# Poissons Ratio (z) = 0.21777 0.40271
#
# Static dielectric constant tensor:
#      x y z
#    x 2.317150 0.000000 0.000000 
#    y 0.000000 2.114000 0.000000 
#    z 0.000000 0.000000 2.334390 
# 
# From -- ./inp_files/4675.got.cif
#   From: 2010.05.17/outbox.cif.g08.bks.cpg/sg56_3_cif.got.tgz:4675.got - 2010.06.03 13:42:01.
