data_PCOD9433090
_publ_section_title
;
Structure prediction by ZEFSAII (Michael W. Deem and Ramdas Pophale) SiO2 
 PCOD9433090
Probable space group: P C C N
;
_chemical_formula_sum "Si O2"
_cell_formula_units_Z 32
_cell_length_a 5.521688
_cell_length_b 28.672879
_cell_length_c 9.028057
_cell_angle_alpha 90.000000
_cell_angle_beta 90.000000
_cell_angle_gamma 90.000000
_cell_volume 1429.346287
_symmetry_space_group_name_H-M "P C C N"
_symmetry_group_IT_number 56
_symmetry_cell_setting 'orthorhombic'
loop_
_space_group_symop_operation_xyz
x,y,z
1/2-x,1/2-y,z
1/2+x,-y,1/2-z
-x,1/2+y,1/2-z
-x,-y,-z
1/2+x,1/2+y,-z
1/2-x,y,1/2+z
x,1/2-y,1/2+z
loop_
_atom_site_type_symbol
_atom_site_label
_atom_site_fract_x
_atom_site_fract_y
_atom_site_fract_z
Si Si1 0.050779 0.374032 0.140910
Si Si2 0.958495 0.516237 0.829923
Si Si3 0.228774 0.825264 0.607856
Si Si4 0.574318 0.706522 0.861135
O O1 0.083831 0.428177 0.168616
O O2 0.291047 0.343176 0.131729
O O3 0.897279 0.350797 0.273015
O O4 0.913471 0.363841 0.987256
O O5 0.710433 0.494648 0.759188
O O6 0.000000 0.500000 0.000000
O O7 0.380341 0.796197 0.490313
O O8 0.049793 0.793005 0.701484
O O9 0.750000 0.750000 0.878280
#
# Coordination Sequence:
#
# PCOD9433090 Si02
#       4
#     8   8   8   8
#     4  11  25  44  75 102 148 192 248 312 377 455
#     4  12  29  49  79 116 158 207 269 327 402 472
#     4  10  25  45  72 104 145 189 248 303 382 446
#     4  11  26  46  73 108 145 195 247 308 379 457
#
# _framework density 22.387855999999999
#
# number of rings (size 3 to 8) (size 9 to 14) (size 15 to 20)
#    0.000    1.000    0.000    3.750   14.000   10.000 
#    0.000    3.750    0.000    0.000    0.000    0.000 
#    0.000    0.000    0.000    0.000    0.000    0.000 
#
# Total GULP energy -179310.586664 kJ/mol
# GULP energy per Si atom -5603.455833 kJ/mol
# Density = 2.233690 g / cm^3
# Si number density = 22.387856 Si / 1000 Ang^3
#
#
#
# Elastic Constant Matrix: (Units=GPa)
#
#
# Indices 1 2 3 4 5 6 
#
# 1 113.5303 46.5090 40.1447 0.0000 0.0000 0.0000
# 2 46.5090 151.2800 21.2092 0.0000 0.0000 0.0000
# 3 40.1447 21.2092 120.3749 0.0000 0.0000 0.0000
# 4 0.0000 0.0000 0.0000 87.2355 0.0000 0.0000
# 5 0.0000 0.0000 0.0000 0.0000 -1.2685 0.0000
# 6 0.0000 0.0000 0.0000 0.0000 0.0000 36.5039
#
#
#
# Elastic Compliance Matrix: (Units=1/GPa)
#
#
# Indices 1 2 3 4 5 6 
#
# 1 0.011161 -0.002983 -0.003196 0.000000 0.000000 0.000000
# 2 -0.002983 0.007575 -0.000340 0.000000 0.000000 0.000000
# 3 -0.003196 -0.000340 0.009433 0.000000 0.000000 0.000000
# 4 0.000000 0.000000 0.000000 0.011463 0.000000 0.000000
# 5 0.000000 0.000000 0.000000 0.000000 -0.788324 0.000000
# 6 0.000000 0.000000 0.000000 0.000000 0.000000 0.027394
#
#
# Mechanical properties :
#
#
# Convention : Reuss Voigt Hill
#
# Bulk Modulus (GPa) = 66.09286 66.76789 66.43037
# Shear Modulus (GPa) = -7.11019 42.98232 17.93606
#
# Velocity S-wave (km/s) = -1.78404 4.38641 2.83353
# Velocity P-wave (km/s) = 5.03409 7.45266 6.35941
#
# Compressibility (1/GPa) = 0.01513023
#
# Stress axis : x y z
#
# Youngs Moduli (GPa) = 89.60167 132.01335 106.00794
#
# Poissons Ratio (x) = 0.39380 0.33885
# Poissons Ratio (y) = 0.26728 0.03602
# Poissons Ratio (z) = 0.28640 0.04486
#
# Static dielectric constant tensor:
#      x y z
#    x 1.790920 0.000000 0.000000 
#    y 0.000000 1.754880 0.000000 
#    z 0.000000 0.000000 1.828820 
# 
# From -- ./inp_files/1562.got.cif
#   From: 2010.05.17/outbox.cif.g08.bks.cpg/sg56_1_cif.got.tgz:1562.got - 2010.06.03 13:42:01.
