data_PCOD9433099
_publ_section_title
;
Structure prediction by ZEFSAII (Michael W. Deem and Ramdas Pophale) SiO2 
 PCOD9433099
Probable space group: P C C N
;
_chemical_formula_sum "Si O2"
_cell_formula_units_Z 64
_cell_length_a 14.449813
_cell_length_b 8.806225
_cell_length_c 23.210517
_cell_angle_alpha 90.000000
_cell_angle_beta 90.000000
_cell_angle_gamma 90.000000
_cell_volume 2953.498934
_symmetry_space_group_name_H-M "P C C N"
_symmetry_group_IT_number 56
_symmetry_cell_setting 'orthorhombic'
loop_
_space_group_symop_operation_xyz
x,y,z
1/2-x,1/2-y,z
1/2+x,-y,1/2-z
-x,1/2+y,1/2-z
-x,-y,-z
1/2+x,1/2+y,-z
1/2-x,y,1/2+z
x,1/2-y,1/2+z
loop_
_atom_site_type_symbol
_atom_site_label
_atom_site_fract_x
_atom_site_fract_y
_atom_site_fract_z
Si Si1 0.317423 0.111301 0.997357
Si Si2 0.106242 0.970771 0.711658
Si Si3 0.675579 0.384272 0.413179
Si Si4 0.713674 0.582286 0.724239
Si Si5 0.538138 0.684216 0.793142
Si Si6 0.450201 0.960154 0.406330
Si Si7 0.259372 0.930286 0.888127
Si Si8 0.484943 0.762450 0.517146
O O1 0.250000 0.250000 0.983248
O O2 0.420874 0.176053 0.998287
O O3 0.304198 0.989493 0.946641
O O4 0.285556 0.037434 0.057790
O O5 0.200644 0.996278 0.746933
O O6 0.057551 0.135780 0.704875
O O7 0.134782 0.909974 0.649554
O O8 0.040597 0.857705 0.746786
O O9 0.750000 0.250000 0.413683
O O10 0.591881 0.343745 0.455707
O O11 0.750000 0.750000 0.707795
O O12 0.631489 0.605787 0.769440
O O13 0.685515 0.493495 0.666747
O O14 0.507214 0.613279 0.854020
O O15 0.345965 0.992286 0.385552
O O16 0.447262 0.843977 0.459942
O O17 0.493620 0.110790 0.434122
O O18 0.250000 0.750000 0.886411
#
# Coordination Sequence:
#
# PCOD9433099 Si02
#       8
#     8   8   8   8   8   8   8   8
#     4  12  25  46  74 103 142 191 239 294 362 430
#     4  11  27  47  70 107 140 190 236 300 361 434
#     4  12  29  47  73 106 151 184 241 298 368 437
#     4  10  25  46  69 100 137 190 243 294 359 431
#     4  11  26  45  75 101 146 187 246 297 362 427
#     4  11  24  46  71 108 142 189 238 300 360 423
#     4  12  25  43  72 104 145 183 245 300 356 429
#     4  11  26  45  75 106 144 188 241 297 359 431
#
# _framework density 21.669215000000001
#
# number of rings (size 3 to 8) (size 9 to 14) (size 15 to 20)
#    0.000    0.750    2.500    3.375    8.750    2.000 
#    0.000    0.000    0.000    0.000    0.000    0.000 
#    0.000    0.000    0.000    0.000    0.000    0.000 
#
# Total GULP energy -358474.954811 kJ/mol
# GULP energy per Si atom -5601.171169 kJ/mol
# Density = 2.161989 g / cm^3
# Si number density = 21.669215 Si / 1000 Ang^3
#
#
#
# Elastic Constant Matrix: (Units=GPa)
#
#
# Indices 1 2 3 4 5 6 
#
# 1 67.9629 2.2104 6.6150 0.0000 0.0000 0.0000
# 2 2.2104 40.8234 23.2817 0.0000 0.0000 0.0000
# 3 6.6150 23.2817 115.4570 0.0000 0.0000 0.0000
# 4 0.0000 0.0000 0.0000 23.7712 0.0000 0.0000
# 5 0.0000 0.0000 0.0000 0.0000 31.1368 0.0000
# 6 0.0000 0.0000 0.0000 0.0000 0.0000 34.5373
#
#
#
# Elastic Compliance Matrix: (Units=1/GPa)
#
#
# Indices 1 2 3 4 5 6 
#
# 1 0.014801 -0.000359 -0.000776 0.000000 0.000000 0.000000
# 2 -0.000359 0.027688 -0.005563 0.000000 0.000000 0.000000
# 3 -0.000776 -0.005563 0.009827 0.000000 0.000000 0.000000
# 4 0.000000 0.000000 0.000000 0.042068 0.000000 0.000000
# 5 0.000000 0.000000 0.000000 0.000000 0.032116 0.000000
# 6 0.000000 0.000000 0.000000 0.000000 0.000000 0.028954
#
#
# Mechanical properties :
#
#
# Convention : Reuss Voigt Hill
#
# Bulk Modulus (GPa) = 25.69275 32.05082 28.87178
# Shear Modulus (GPa) = 27.49934 30.69815 29.09874
#
# Velocity S-wave (km/s) = 3.56624 3.76795 3.66848
# Velocity P-wave (km/s) = 5.37028 5.80973 5.59433
#
# Compressibility (1/GPa) = 0.03892149
#
# Stress axis : x y z
#
# Youngs Moduli (GPa) = 67.56265 36.11729 101.75679
#
# Poissons Ratio (x) = 0.01297 0.07892
# Poissons Ratio (y) = 0.02426 0.56603
# Poissons Ratio (z) = 0.05240 0.20091
#
# Static dielectric constant tensor:
#      x y z
#    x 1.779700 0.000000 0.000000 
#    y 0.000000 1.821140 0.000000 
#    z 0.000000 0.000000 1.762120 
# 
# From -- ./inp_files/21192.got.cif
#   From: 2010.05.17/outbox.cif.g08.bks.cpg/sg56_11_cif.got.tgz:21192.got - 2010.06.03 13:42:01.
