data_PCOD9433060
_publ_section_title
;
Structure prediction by ZEFSAII (Michael W. Deem and Ramdas Pophale) SiO2 
 PCOD9433060
Probable space group: P C C N
;
_chemical_formula_sum "Si O2"
_cell_formula_units_Z 60
_cell_length_a 10.856161
_cell_length_b 7.931991
_cell_length_c 30.492772
_cell_angle_alpha 90.000000
_cell_angle_beta 90.000000
_cell_angle_gamma 90.000000
_cell_volume 2625.762216
_symmetry_space_group_name_H-M "P C C N"
_symmetry_group_IT_number 56
_symmetry_cell_setting 'orthorhombic'
loop_
_space_group_symop_operation_xyz
x,y,z
1/2-x,1/2-y,z
1/2+x,-y,1/2-z
-x,1/2+y,1/2-z
-x,-y,-z
1/2+x,1/2+y,-z
1/2-x,y,1/2+z
x,1/2-y,1/2+z
loop_
_atom_site_type_symbol
_atom_site_label
_atom_site_fract_x
_atom_site_fract_y
_atom_site_fract_z
Si Si1 0.271569 0.053297 0.307710
Si Si2 0.250000 0.750000 0.037986
Si Si3 0.419980 0.043180 0.391869
Si Si4 0.263386 0.049829 0.971956
Si Si5 0.501379 0.400227 0.421305
Si Si6 0.988732 0.071308 0.667120
Si Si7 0.299779 0.929961 0.212791
Si Si8 0.641418 0.633833 0.856803
O O1 0.250000 0.250000 0.316487
O O2 0.369000 0.998754 0.344140
O O3 0.149485 0.945022 0.317506
O O4 0.306923 0.035169 0.257249
O O5 0.132065 0.678099 0.064400
O O6 0.278352 0.586280 0.007843
O O7 0.320403 0.004299 0.429457
O O8 0.435874 0.242937 0.397384
O O9 0.552892 0.953022 0.392287
O O10 0.250000 0.250000 0.983262
O O11 0.407926 0.036957 0.958949
O O12 0.505349 0.543704 0.384792
O O13 0.065955 0.926188 0.691286
O O14 0.061381 0.243983 0.674778
O O15 0.250000 0.750000 0.225517
O O16 0.209859 0.002990 0.175179
O O17 0.750000 0.750000 0.876528
#
# Coordination Sequence:
#
# PCOD9433060 Si02
#       8
#     8   4   8   8   8   8   8   8
#     4  12  24  43  71 103 137 196 239 301 354 421
#     4  12  28  44  80 104 142 192 234 304 390 436
#     4  11  23  44  74  99 144 191 241 290 370 430
#     4  10  24  49  71 108 147 185 243 301 364 455
#     4  11  24  48  71 107 143 187 241 298 371 440
#     4  11  24  44  71  99 143 187 239 301 349 427
#     4  11  27  43  67 101 150 187 246 301 355 418
#     4  10  25  45  66 106 142 188 245 294 352 429
#
# _framework density 22.850507
#
# number of rings (size 3 to 8) (size 9 to 14) (size 15 to 20)
#    0.000    1.067    2.667    2.800   10.267    2.133 
#    2.400    0.000    0.000    0.000    0.000    0.000 
#    0.000    0.000    0.000    0.000    0.000    0.000 
#
# Total GULP energy -335305.050247 kJ/mol
# GULP energy per Si atom -5588.417504 kJ/mol
# Density = 2.279850 g / cm^3
# Si number density = 22.850507 Si / 1000 Ang^3
#
#
#
# Elastic Constant Matrix: (Units=GPa)
#
#
# Indices 1 2 3 4 5 6 
#
# 1 83.1561 -1.9233 26.6930 0.0000 0.0000 0.0000
# 2 -1.9233 34.8844 2.7733 0.0000 0.0000 0.0000
# 3 26.6930 2.7733 67.3527 0.0000 0.0000 0.0000
# 4 0.0000 0.0000 0.0000 12.2608 0.0000 0.0000
# 5 0.0000 0.0000 0.0000 0.0000 -4.4208 0.0000
# 6 0.0000 0.0000 0.0000 0.0000 0.0000 26.4680
#
#
#
# Elastic Compliance Matrix: (Units=1/GPa)
#
#
# Indices 1 2 3 4 5 6 
#
# 1 0.013828 0.001202 -0.005530 0.000000 0.000000 0.000000
# 2 0.001202 0.028865 -0.001665 0.000000 0.000000 0.000000
# 3 -0.005530 -0.001665 0.017107 0.000000 0.000000 0.000000
# 4 0.000000 0.000000 0.000000 0.081560 0.000000 0.000000
# 5 0.000000 0.000000 0.000000 0.000000 -0.226202 0.000000
# 6 0.000000 0.000000 0.000000 0.000000 0.000000 0.037781
#
#
# Mechanical properties :
#
#
# Convention : Reuss Voigt Hill
#
# Bulk Modulus (GPa) = 20.91396 26.71991 23.81694
# Shear Modulus (GPa) = -261.29997 17.38496 -121.95751
#
# Velocity S-wave (km/s) = -10.70515 2.76128 -7.31353
# Velocity P-wave (km/s) = 11.98448 4.67813 7.80202
#
# Compressibility (1/GPa) = 0.04781494
#
# Stress axis : x y z
#
# Youngs Moduli (GPa) = 72.31448 34.64437 58.45428
#
# Poissons Ratio (x) = -0.04164 0.32325
# Poissons Ratio (y) = -0.08693 0.09732
# Poissons Ratio (z) = 0.39990 0.05768
#
# Static dielectric constant tensor:
#      x y z
#    x 1.871890 0.000000 0.000000 
#    y 0.000000 1.909170 0.000000 
#    z 0.000000 0.000000 1.824800 
# 
# From -- ./inp_files/22318.got.cif
#   From: 2010.05.17/outbox.cif.g08.bks.cpg/sg56_12_cif.got.tgz:22318.got - 2010.06.03 13:42:01.
