data_PCOD9433022
_publ_section_title
;
Structure prediction by ZEFSAII (Michael W. Deem and Ramdas Pophale) SiO2 
 PCOD9433022
Probable space group: P C C N
;
_chemical_formula_sum "Si O2"
_cell_formula_units_Z 60
_cell_length_a 21.418120
_cell_length_b 9.246482
_cell_length_c 12.194184
_cell_angle_alpha 90.000000
_cell_angle_beta 90.000000
_cell_angle_gamma 90.000000
_cell_volume 2414.963771
_symmetry_space_group_name_H-M "P C C N"
_symmetry_group_IT_number 56
_symmetry_cell_setting 'orthorhombic'
loop_
_space_group_symop_operation_xyz
x,y,z
1/2-x,1/2-y,z
1/2+x,-y,1/2-z
-x,1/2+y,1/2-z
-x,-y,-z
1/2+x,1/2+y,-z
1/2-x,y,1/2+z
x,1/2-y,1/2+z
loop_
_atom_site_type_symbol
_atom_site_label
_atom_site_fract_x
_atom_site_fract_y
_atom_site_fract_z
Si Si1 0.646868 0.416464 0.691682
Si Si2 0.545152 0.803715 0.441306
Si Si3 0.928770 0.124827 0.197296
Si Si4 0.750000 0.750000 0.903816
Si Si5 0.339098 0.000507 0.568586
Si Si6 0.026399 0.085463 0.393302
Si Si7 0.635397 0.923747 0.822833
Si Si8 0.685295 0.312563 0.470839
O O1 0.611930 0.266813 0.718948
O O2 0.676464 0.475463 0.802270
O O3 0.590977 0.517779 0.647830
O O4 0.692620 0.383966 0.590476
O O5 0.477029 0.841371 0.398391
O O6 0.592465 0.933494 0.432804
O O7 0.539463 0.745050 0.563373
O O8 0.580200 0.677555 0.370814
O O9 0.883004 0.987538 0.204991
O O10 0.976004 0.092703 0.298224
O O11 0.787865 0.878555 0.968116
O O12 0.803132 0.672679 0.832485
O O13 0.346843 0.843173 0.513865
O O14 0.000000 0.000000 0.500000
O O15 0.651057 0.065860 0.898525
O O16 0.750000 0.250000 0.423122
#
# Coordination Sequence:
#
# PCOD9433022 Si02
#       8
#     8   8   8   4   8   8   8   8
#     4  12  25  43  69 106 142 189 247 297 366 447
#     4  11  24  43  71 108 150 193 238 303 375 449
#     4  12  23  40  74 107 146 193 244 293 366 457
#     4  10  24  46  76 100 136 202 236 316 380 424
#     4  11  25  48  72 107 144 189 252 307 372 440
#     4  12  22  44  68 102 148 195 230 295 374 435
#     4  11  22  43  73 100 147 187 246 307 372 435
#     4  12  25  46  73 103 140 195 251 310 369 437
#
# _framework density 24.845094
#
# number of rings (size 3 to 8) (size 9 to 14) (size 15 to 20)
#    0.000    0.533    8.000    0.000    0.000    1.600 
#    4.800    3.333    0.000    0.000    0.000    0.000 
#    0.000    0.000    0.000    0.000    0.000    0.000 
#
# Total GULP energy -335654.047078 kJ/mol
# GULP energy per Si atom -5594.234118 kJ/mol
# Density = 2.478855 g / cm^3
# Si number density = 24.845094 Si / 1000 Ang^3
#
#
#
# Elastic Constant Matrix: (Units=GPa)
#
#
# Indices 1 2 3 4 5 6 
#
# 1 95.1604 45.0556 -7.5000 0.0000 0.0000 0.0000
# 2 45.0556 131.2911 21.4759 0.0000 0.0000 0.0000
# 3 -7.5000 21.4759 50.2093 0.0000 0.0000 0.0000
# 4 0.0000 0.0000 0.0000 37.3541 0.0000 0.0000
# 5 0.0000 0.0000 0.0000 0.0000 19.8627 0.0000
# 6 0.0000 0.0000 0.0000 0.0000 0.0000 57.0926
#
#
#
# Elastic Compliance Matrix: (Units=1/GPa)
#
#
# Indices 1 2 3 4 5 6 
#
# 1 0.013340 -0.005273 0.004248 0.000000 0.000000 0.000000
# 2 -0.005273 0.010274 -0.005182 0.000000 0.000000 0.000000
# 3 0.004248 -0.005182 0.022768 0.000000 0.000000 0.000000
# 4 0.000000 0.000000 0.000000 0.026771 0.000000 0.000000
# 5 0.000000 0.000000 0.000000 0.000000 0.050346 0.000000
# 6 0.000000 0.000000 0.000000 0.000000 0.000000 0.017515
#
#
# Mechanical properties :
#
#
# Convention : Reuss Voigt Hill
#
# Bulk Modulus (GPa) = 29.43977 43.85821 36.64899
# Shear Modulus (GPa) = 30.34915 37.37049 33.85982
#
# Velocity S-wave (km/s) = 3.49884 3.88253 3.69567
# Velocity P-wave (km/s) = 5.31014 6.14733 5.74401
#
# Compressibility (1/GPa) = 0.03396765
#
# Stress axis : x y z
#
# Youngs Moduli (GPa) = 74.96336 97.33535 43.92203
#
# Poissons Ratio (x) = 0.51322 -0.18658
# Poissons Ratio (y) = 0.39526 0.22760
# Poissons Ratio (z) = -0.31844 0.50439
#
# Static dielectric constant tensor:
#      x y z
#    x 1.998340 0.000000 0.000000 
#    y 0.000000 2.069650 0.000000 
#    z 0.000000 0.000000 1.987720 
# 
# From -- ./inp_files/13249.got.cif
#   From: 2010.05.17/outbox.cif.g08.bks.cpg/sg56_7_cif.got.tgz:13249.got - 2010.06.03 13:42:01.
