data_PCOD9433622
_publ_section_title
;
Structure prediction by ZEFSAII (Michael W. Deem and Ramdas Pophale) SiO2 
 PCOD9433622
Probable space group: P C C N
;
_chemical_formula_sum "Si O2"
_cell_formula_units_Z 40
_cell_length_a 5.116383
_cell_length_b 25.593232
_cell_length_c 12.451221
_cell_angle_alpha 90.000000
_cell_angle_beta 90.000000
_cell_angle_gamma 90.000000
_cell_volume 1630.422359
_symmetry_space_group_name_H-M "P C C N"
_symmetry_group_IT_number 56
_symmetry_cell_setting 'orthorhombic'
loop_
_space_group_symop_operation_xyz
x,y,z
1/2-x,1/2-y,z
1/2+x,-y,1/2-z
-x,1/2+y,1/2-z
-x,-y,-z
1/2+x,1/2+y,-z
1/2-x,y,1/2+z
x,1/2-y,1/2+z
loop_
_atom_site_type_symbol
_atom_site_label
_atom_site_fract_x
_atom_site_fract_y
_atom_site_fract_z
Si Si1 0.697184 0.980782 0.588871
Si Si2 0.754706 0.835563 0.319574
Si Si3 0.479252 0.621694 0.636711
Si Si4 0.442759 0.936467 0.788565
Si Si5 0.255432 0.692261 0.452230
O O1 0.535137 0.977075 0.699493
O O2 0.839969 0.924764 0.589923
O O3 0.500000 0.000000 0.500000
O O4 0.884046 0.029572 0.607752
O O5 0.518851 0.821099 0.397323
O O6 0.834294 0.896323 0.322519
O O7 0.015863 0.807232 0.360979
O O8 0.652142 0.833730 0.196982
O O9 0.283715 0.596928 0.727112
O O10 0.324438 0.648931 0.540532
O O11 0.250000 0.750000 0.501022
#
# Coordination Sequence:
#
# PCOD9433622 Si02
#       5
#     8   8   8   8   8
#     4  11  26  44  78 117 164 219 257 322 390 487
#     4  11  27  52  81 109 161 202 258 335 395 474
#     4  11  27  49  79 116 165 208 265 332 396 482
#     4  11  24  48  72 116 162 208 270 307 401 483
#     4  12  29  53  81 118 149 205 276 336 411 474
#
# _framework density 24.533518999999998
#
# number of rings (size 3 to 8) (size 9 to 14) (size 15 to 20)
#    0.000    0.800    4.000    0.600   11.200    1.600 
#    3.600    1.000    0.000    0.000    0.000    0.000 
#    0.000    0.000    0.000    0.000    0.000    0.000 
#
# Total GULP energy -223908.310230 kJ/mol
# GULP energy per Si atom -5597.707756 kJ/mol
# Density = 2.447768 g / cm^3
# Si number density = 24.533519 Si / 1000 Ang^3
#
#
#
# Elastic Constant Matrix: (Units=GPa)
#
#
# Indices 1 2 3 4 5 6 
#
# 1 118.7243 37.5492 16.2941 0.0000 0.0000 0.0000
# 2 37.5492 107.4378 44.8640 0.0000 0.0000 0.0000
# 3 16.2941 44.8640 54.8349 0.0000 0.0000 0.0000
# 4 0.0000 0.0000 0.0000 33.4008 0.0000 0.0000
# 5 0.0000 0.0000 0.0000 0.0000 26.9052 0.0000
# 6 0.0000 0.0000 0.0000 0.0000 0.0000 25.5510
#
#
#
# Elastic Compliance Matrix: (Units=1/GPa)
#
#
# Indices 1 2 3 4 5 6 
#
# 1 0.009471 -0.003243 -0.000161 0.000000 0.000000 0.000000
# 2 -0.003243 0.015248 -0.011512 0.000000 0.000000 0.000000
# 3 -0.000161 -0.011512 0.027703 0.000000 0.000000 0.000000
# 4 0.000000 0.000000 0.000000 0.029939 0.000000 0.000000
# 5 0.000000 0.000000 0.000000 0.000000 0.037168 0.000000
# 6 0.000000 0.000000 0.000000 0.000000 0.000000 0.039137
#
#
# Mechanical properties :
#
#
# Convention : Reuss Voigt Hill
#
# Bulk Modulus (GPa) = 44.26669 53.15684 48.71176
# Shear Modulus (GPa) = 25.50655 29.32403 27.41529
#
# Velocity S-wave (km/s) = 3.22788 3.46101 3.34647
# Velocity P-wave (km/s) = 5.65462 6.13885 5.90171
#
# Compressibility (1/GPa) = 0.02259035
#
# Stress axis : x y z
#
# Youngs Moduli (GPa) = 105.59048 65.58148 36.09696
#
# Poissons Ratio (x) = 0.21266 0.00582
# Poissons Ratio (y) = 0.34239 0.41555
# Poissons Ratio (z) = 0.01701 0.75497
#
# Static dielectric constant tensor:
#      x y z
#    x 2.081140 0.000000 0.000000 
#    y 0.000000 1.945190 0.000000 
#    z 0.000000 0.000000 1.959460 
# 
# From -- ./inp_files/5636.got.cif
#   From: 2010.05.17/outbox.cif.g08.bks.cpg/sg56_3_cif.got.tgz:5636.got - 2010.06.03 13:42:01.
