data_PCOD9433892
_publ_section_title
;
Structure prediction by ZEFSAII (Michael W. Deem and Ramdas Pophale) SiO2 
 PCOD9433892
Probable space group: P C C N
;
_chemical_formula_sum "Si O2"
_cell_formula_units_Z 36
_cell_length_a 5.355993
_cell_length_b 18.882070
_cell_length_c 12.799174
_cell_angle_alpha 90.000000
_cell_angle_beta 90.000000
_cell_angle_gamma 90.000000
_cell_volume 1294.409070
_symmetry_space_group_name_H-M "P C C N"
_symmetry_group_IT_number 56
_symmetry_cell_setting 'orthorhombic'
loop_
_space_group_symop_operation_xyz
x,y,z
1/2-x,1/2-y,z
1/2+x,-y,1/2-z
-x,1/2+y,1/2-z
-x,-y,-z
1/2+x,1/2+y,-z
1/2-x,y,1/2+z
x,1/2-y,1/2+z
loop_
_atom_site_type_symbol
_atom_site_label
_atom_site_fract_x
_atom_site_fract_y
_atom_site_fract_z
Si Si1 0.250000 0.750000 0.709735
Si Si2 0.999037 0.713136 0.004194
Si Si3 0.857608 0.963112 0.837719
Si Si4 0.754125 0.426033 0.990339
Si Si5 0.499576 0.388053 0.783090
O O1 0.470229 0.725897 0.629415
O O2 0.143270 0.679252 0.761826
O O3 0.750000 0.750000 0.965239
O O4 0.250000 0.750000 0.961648
O O5 0.472921 0.870533 0.989831
O O6 0.769423 0.896904 0.769240
O O7 0.093065 0.942674 0.908763
O O8 0.915704 0.030520 0.763655
O O9 0.685838 0.003585 0.924279
O O10 0.560106 0.385765 0.907640
#
# Coordination Sequence:
#
# PCOD9433892 Si02
#       5
#     4   8   8   8   8
#     4   8  18  34  56 100 140 186 252 308 388 474
#     4   9  17  34  61  97 137 193 241 307 386 464
#     4   9  17  34  59  94 148 203 261 326 396 481
#     4   8  18  35  55  98 150 200 262 316 402 469
#     4   9  17  34  58  96 144 202 253 319 396 479
#
# _framework density 27.811921000000002
#
# number of rings (size 3 to 8) (size 9 to 14) (size 15 to 20)
#    2.000    1.333    0.000    0.000    0.000    1.778 
#    0.000    3.333    0.000    0.000   11.556    3.111 
#    3.333    0.000    0.000    3.556    0.000    0.000 
#
# Total GULP energy -200948.487187 kJ/mol
# GULP energy per Si atom -5581.902422 kJ/mol
# Density = 2.774862 g / cm^3
# Si number density = 27.811921 Si / 1000 Ang^3
#
#
#
# Elastic Constant Matrix: (Units=GPa)
#
#
# Indices 1 2 3 4 5 6 
#
# 1 107.7641 88.7681 44.2992 0.0000 0.0000 0.0000
# 2 88.7681 223.7675 47.9498 0.0000 0.0000 0.0000
# 3 44.2992 47.9498 120.9988 0.0000 0.0000 0.0000
# 4 0.0000 0.0000 0.0000 26.7680 0.0000 0.0000
# 5 0.0000 0.0000 0.0000 0.0000 40.2038 0.0000
# 6 0.0000 0.0000 0.0000 0.0000 0.0000 45.9190
#
#
#
# Elastic Compliance Matrix: (Units=1/GPa)
#
#
# Indices 1 2 3 4 5 6 
#
# 1 0.014975 -0.005208 -0.003419 0.000000 0.000000 0.000000
# 2 -0.005208 0.006695 -0.000746 0.000000 0.000000 0.000000
# 3 -0.003419 -0.000746 0.009812 0.000000 0.000000 0.000000
# 4 0.000000 0.000000 0.000000 0.037358 0.000000 0.000000
# 5 0.000000 0.000000 0.000000 0.000000 0.024873 0.000000
# 6 0.000000 0.000000 0.000000 0.000000 0.000000 0.021777
#
#
# Mechanical properties :
#
#
# Convention : Reuss Voigt Hill
#
# Bulk Modulus (GPa) = 78.51959 90.50719 84.51339
# Shear Modulus (GPa) = 36.10595 40.67903 38.39249
#
# Velocity S-wave (km/s) = 3.60699 3.82861 3.71945
# Velocity P-wave (km/s) = 6.75580 7.22202 6.99279
#
# Compressibility (1/GPa) = 0.01273568
#
# Stress axis : x y z
#
# Youngs Moduli (GPa) = 66.77922 149.36929 101.91681
#
# Poissons Ratio (x) = 0.77790 0.34842
# Poissons Ratio (y) = 0.34778 0.07607
# Poissons Ratio (z) = 0.22829 0.11149
#
# Static dielectric constant tensor:
#      x y z
#    x 2.512690 0.000000 0.000000 
#    y 0.000000 2.138550 0.000000 
#    z 0.000000 0.000000 2.254400 
# 
# From -- ./inp_files/9495.got.cif
#   From: 2010.05.17/outbox.cif.g08.bks.cpg/sg56_5_cif.got.tgz:9495.got - 2010.06.03 13:42:01.
