data_PCOD9433774
_publ_section_title
;
Structure prediction by ZEFSAII (Michael W. Deem and Ramdas Pophale) SiO2 
 PCOD9433774
Probable space group: P C C N
;
_chemical_formula_sum "Si O2"
_cell_formula_units_Z 32
_cell_length_a 9.575299
_cell_length_b 10.571824
_cell_length_c 13.409700
_cell_angle_alpha 90.000000
_cell_angle_beta 90.000000
_cell_angle_gamma 90.000000
_cell_volume 1357.442151
_symmetry_space_group_name_H-M "P C C N"
_symmetry_group_IT_number 56
_symmetry_cell_setting 'orthorhombic'
loop_
_space_group_symop_operation_xyz
x,y,z
1/2-x,1/2-y,z
1/2+x,-y,1/2-z
-x,1/2+y,1/2-z
-x,-y,-z
1/2+x,1/2+y,-z
1/2-x,y,1/2+z
x,1/2-y,1/2+z
loop_
_atom_site_type_symbol
_atom_site_label
_atom_site_fract_x
_atom_site_fract_y
_atom_site_fract_z
Si Si1 0.402469 0.378571 0.504588
Si Si2 0.519398 0.779384 0.310496
Si Si3 0.750000 0.750000 0.674870
Si Si4 0.750000 0.250000 0.321599
Si Si5 0.377155 0.997728 0.582934
O O1 0.500000 0.500000 0.500000
O O2 0.477941 0.279345 0.578286
O O3 0.354409 0.326068 0.397583
O O4 0.253352 0.420143 0.546798
O O5 0.633531 0.695470 0.250191
O O6 0.375705 0.784380 0.252448
O O7 0.568499 0.924478 0.321761
O O8 0.814242 0.361942 0.388819
O O9 0.500000 0.000000 0.500000
#
# Coordination Sequence:
#
# PCOD9433774 Si02
#       5
#     8   8   4   4   8
#     4  12  27  48  82 113 153 209 262 330 403 478
#     4  12  28  52  79 116 157 211 268 329 408 482
#     4  12  22  52  78 110 158 210 264 322 408 466
#     4  12  32  46  82 120 156 216 268 330 406 486
#     4  12  28  51  77 115 159 203 267 330 397 483
#
# _framework density 23.573747000000001
#
# number of rings (size 3 to 8) (size 9 to 14) (size 15 to 20)
#    0.000    0.000    5.000    3.000   14.000    0.000 
#    0.000    0.000    0.000    0.000    0.000    0.000 
#    0.000    0.000    0.000    0.000    0.000    0.000 
#
# Total GULP energy -178893.145154 kJ/mol
# GULP energy per Si atom -5590.410786 kJ/mol
# Density = 2.352009 g / cm^3
# Si number density = 23.573747 Si / 1000 Ang^3
#
#
#
# Elastic Constant Matrix: (Units=GPa)
#
#
# Indices 1 2 3 4 5 6 
#
# 1 164.8831 32.2657 59.3595 0.0000 0.0000 0.0000
# 2 32.2657 112.7716 47.6596 0.0000 0.0000 0.0000
# 3 59.3595 47.6596 124.8525 0.0000 0.0000 0.0000
# 4 0.0000 0.0000 0.0000 21.0239 0.0000 0.0000
# 5 0.0000 0.0000 0.0000 0.0000 37.1272 0.0000
# 6 0.0000 0.0000 0.0000 0.0000 0.0000 53.2903
#
#
#
# Elastic Compliance Matrix: (Units=1/GPa)
#
#
# Indices 1 2 3 4 5 6 
#
# 1 0.007370 -0.000749 -0.003218 0.000000 0.000000 0.000000
# 2 -0.000749 0.010649 -0.003709 0.000000 0.000000 0.000000
# 3 -0.003218 -0.003709 0.010955 0.000000 0.000000 0.000000
# 4 0.000000 0.000000 0.000000 0.047565 0.000000 0.000000
# 5 0.000000 0.000000 0.000000 0.000000 0.026934 0.000000
# 6 0.000000 0.000000 0.000000 0.000000 0.000000 0.018765
#
#
# Mechanical properties :
#
#
# Convention : Reuss Voigt Hill
#
# Bulk Modulus (GPa) = 73.40716 75.67520 74.54118
# Shear Modulus (GPa) = 35.17857 39.83643 37.50750
#
# Velocity S-wave (km/s) = 3.86719 4.11526 3.99315
# Velocity P-wave (km/s) = 7.15173 7.39943 7.27663
#
# Compressibility (1/GPa) = 0.01362265
#
# Stress axis : x y z
#
# Youngs Moduli (GPa) = 135.68562 93.90338 91.27913
#
# Poissons Ratio (x) = 0.07029 0.29375
# Poissons Ratio (y) = 0.10157 0.33857
# Poissons Ratio (z) = 0.43666 0.34831
#
# Static dielectric constant tensor:
#      x y z
#    x 1.854140 0.000000 0.000000 
#    y 0.000000 1.565800 0.000000 
#    z 0.000000 0.000000 1.951630 
# 
# From -- ./inp_files/10195.got.cif
#   From: 2010.05.17/outbox.cif.g08.bks.cpg/sg56_6_cif.got.tgz:10195.got - 2010.06.03 13:42:01.
