data_PCOD9433580
_publ_section_title
;
Structure prediction by ZEFSAII (Michael W. Deem and Ramdas Pophale) SiO2 
 PCOD9433580
Probable space group: P C C N
;
_chemical_formula_sum "Si O2"
_cell_formula_units_Z 40
_cell_length_a 9.507361
_cell_length_b 8.054459
_cell_length_c 23.736819
_cell_angle_alpha 90.000000
_cell_angle_beta 90.000000
_cell_angle_gamma 90.000000
_cell_volume 1817.686066
_symmetry_space_group_name_H-M "P C C N"
_symmetry_group_IT_number 56
_symmetry_cell_setting 'orthorhombic'
loop_
_space_group_symop_operation_xyz
x,y,z
1/2-x,1/2-y,z
1/2+x,-y,1/2-z
-x,1/2+y,1/2-z
-x,-y,-z
1/2+x,1/2+y,-z
1/2-x,y,1/2+z
x,1/2-y,1/2+z
loop_
_atom_site_type_symbol
_atom_site_label
_atom_site_fract_x
_atom_site_fract_y
_atom_site_fract_z
Si Si1 0.391290 0.437582 0.415961
Si Si2 0.377818 0.354491 0.292948
Si Si3 0.291638 0.072387 0.105587
Si Si4 0.360622 0.872171 0.703331
Si Si5 0.355983 0.084296 0.484590
O O1 0.333358 0.427545 0.352673
O O2 0.545079 0.523606 0.408863
O O3 0.393923 0.257540 0.450070
O O4 0.260422 0.517998 0.449232
O O5 0.250000 0.250000 0.268925
O O6 0.506051 0.238362 0.310650
O O7 0.413843 0.489147 0.246393
O O8 0.250000 0.250000 0.132882
O O9 0.220412 0.942219 0.148620
O O10 0.215872 0.088161 0.045812
O O11 0.250000 0.750000 0.733566
O O12 0.500000 0.000000 0.500000
#
# Coordination Sequence:
#
# PCOD9433580 Si02
#       5
#     8   8   8   8   8
#     4  11  24  49  70 106 150 193 249 314 372 457
#     4  12  25  47  75 106 151 191 251 310 389 449
#     4  12  26  47  75 106 149 201 256 308 386 454
#     4  12  27  48  76 107 146 200 247 317 380 464
#     4  11  24  44  75 106 146 195 246 312 383 448
#
# _framework density 22.005998999999999
#
# number of rings (size 3 to 8) (size 9 to 14) (size 15 to 20)
#    0.000    0.400    6.000    3.600    2.800    0.000 
#    0.000    0.000    0.000    0.000    0.000    0.000 
#    0.000    0.000    0.000    0.000    0.000    0.000 
#
# Total GULP energy -222817.642568 kJ/mol
# GULP energy per Si atom -5570.441064 kJ/mol
# Density = 2.195591 g / cm^3
# Si number density = 22.005999 Si / 1000 Ang^3
#
#
#
# Elastic Constant Matrix: (Units=GPa)
#
#
# Indices 1 2 3 4 5 6 
#
# 1 159.3091 49.5943 32.7023 0.0000 0.0000 0.0000
# 2 49.5943 70.9699 30.9402 0.0000 0.0000 0.0000
# 3 32.7023 30.9402 134.3942 0.0000 0.0000 0.0000
# 4 0.0000 0.0000 0.0000 -15.5512 0.0000 0.0000
# 5 0.0000 0.0000 0.0000 0.0000 -46.9051 0.0000
# 6 0.0000 0.0000 0.0000 0.0000 0.0000 31.3541
#
#
#
# Elastic Compliance Matrix: (Units=1/GPa)
#
#
# Indices 1 2 3 4 5 6 
#
# 1 0.008088 -0.005329 -0.000741 0.000000 0.000000 0.000000
# 2 -0.005329 0.019173 -0.003117 0.000000 0.000000 0.000000
# 3 -0.000741 -0.003117 0.008339 0.000000 0.000000 0.000000
# 4 0.000000 0.000000 0.000000 -0.064304 0.000000 0.000000
# 5 0.000000 0.000000 0.000000 0.000000 -0.021320 0.000000
# 6 0.000000 0.000000 0.000000 0.000000 0.000000 0.031894
#
#
# Mechanical properties :
#
#
# Convention : Reuss Voigt Hill
#
# Bulk Modulus (GPa) = 58.05423 65.68297 61.86860
# Shear Modulus (GPa) = 834.99047 10.54197 422.76622
#
# Velocity S-wave (km/s) = 19.50029 2.19109 13.87556
# Velocity P-wave (km/s) = 23.09661 6.02609 16.87850
#
# Compressibility (1/GPa) = 0.01722527
#
# Stress axis : x y z
#
# Youngs Moduli (GPa) = 123.63659 52.15544 119.92038
#
# Poissons Ratio (x) = 0.27793 0.08890
# Poissons Ratio (y) = 0.65885 0.37384
# Poissons Ratio (z) = 0.09165 0.16259
#
# Static dielectric constant tensor:
#      x y z
#    x 1.857130 0.000000 0.000000 
#    y 0.000000 2.017490 0.000000 
#    z 0.000000 0.000000 1.816840 
# 
# From -- ./inp_files/20317.got.cif
#   From: 2010.05.17/outbox.cif.g08.bks.cpg/sg56_11_cif.got.tgz:20317.got - 2010.06.03 13:42:01.
