data_PCOD9433523
_publ_section_title
;
Structure prediction by ZEFSAII (Michael W. Deem and Ramdas Pophale) SiO2 
 PCOD9433523
Probable space group: P C C N
;
_chemical_formula_sum "Si O2"
_cell_formula_units_Z 44
_cell_length_a 20.325701
_cell_length_b 8.540948
_cell_length_c 9.521436
_cell_angle_alpha 90.000000
_cell_angle_beta 90.000000
_cell_angle_gamma 90.000000
_cell_volume 1652.928481
_symmetry_space_group_name_H-M "P C C N"
_symmetry_group_IT_number 56
_symmetry_cell_setting 'orthorhombic'
loop_
_space_group_symop_operation_xyz
x,y,z
1/2-x,1/2-y,z
1/2+x,-y,1/2-z
-x,1/2+y,1/2-z
-x,-y,-z
1/2+x,1/2+y,-z
1/2-x,y,1/2+z
x,1/2-y,1/2+z
loop_
_atom_site_type_symbol
_atom_site_label
_atom_site_fract_x
_atom_site_fract_y
_atom_site_fract_z
Si Si1 0.673297 0.799744 0.163170
Si Si2 0.250000 0.750000 0.461175
Si Si3 0.982092 0.369310 0.117245
Si Si4 0.128318 0.946904 0.853813
Si Si5 0.929698 0.939210 0.866731
Si Si6 0.865330 0.434943 0.953649
O O1 0.750000 0.750000 0.167696
O O2 0.640392 0.632301 0.169850
O O3 0.640287 0.900628 0.289288
O O4 0.649730 0.895482 0.023766
O O5 0.301592 0.860521 0.379438
O O6 0.293770 0.638110 0.555070
O O7 0.973296 0.451198 0.266175
O O8 0.906933 0.338480 0.069397
O O9 0.030795 0.223741 0.114850
O O10 0.000000 0.500000 0.000000
O O11 0.102540 0.905603 0.697824
O O12 0.084956 0.965502 0.993452
#
# Coordination Sequence:
#
# PCOD9433523 Si02
#       6
#     8   4   8   8   8   8
#     4  11  23  46  79 114 155 206 268 327 394 475
#     4  12  28  48  74 116 158 206 252 328 410 484
#     4  11  26  52  79 113 160 209 271 331 394 483
#     4  12  26  48  79 115 156 204 264 326 399 472
#     4  11  27  50  81 119 156 217 271 330 404 479
#     4  11  27  49  76 116 159 204 261 333 395 477
#
# _framework density 26.619423000000001
#
# number of rings (size 3 to 8) (size 9 to 14) (size 15 to 20)
#    0.000    0.727    1.818    4.909    2.545    8.727 
#    0.000    9.091    0.000    0.000    0.000    0.000 
#    0.000    0.000    0.000    0.000    0.000    0.000 
#
# Total GULP energy -246273.771317 kJ/mol
# GULP energy per Si atom -5597.131166 kJ/mol
# Density = 2.655884 g / cm^3
# Si number density = 26.619423 Si / 1000 Ang^3
#
#
#
# Elastic Constant Matrix: (Units=GPa)
#
#
# Indices 1 2 3 4 5 6 
#
# 1 157.4466 39.1453 76.1553 0.0000 0.0000 0.0000
# 2 39.1453 119.4568 55.0643 0.0000 0.0000 0.0000
# 3 76.1553 55.0643 213.7303 0.0000 0.0000 0.0000
# 4 0.0000 0.0000 0.0000 25.1386 0.0000 0.0000
# 5 0.0000 0.0000 0.0000 0.0000 31.7922 0.0000
# 6 0.0000 0.0000 0.0000 0.0000 0.0000 57.0475
#
#
#
# Elastic Compliance Matrix: (Units=1/GPa)
#
#
# Indices 1 2 3 4 5 6 
#
# 1 0.007893 -0.001464 -0.002435 0.000000 0.000000 0.000000
# 2 -0.001464 0.009771 -0.001996 0.000000 0.000000 0.000000
# 3 -0.002435 -0.001996 0.006061 0.000000 0.000000 0.000000
# 4 0.000000 0.000000 0.000000 0.039779 0.000000 0.000000
# 5 0.000000 0.000000 0.000000 0.000000 0.031454 0.000000
# 6 0.000000 0.000000 0.000000 0.000000 0.000000 0.017529
#
#
# Mechanical properties :
#
#
# Convention : Reuss Voigt Hill
#
# Bulk Modulus (GPa) = 83.78809 92.37372 88.08090
# Shear Modulus (GPa) = 38.98450 44.14692 41.56571
#
# Velocity S-wave (km/s) = 3.83105 4.07682 3.95584
# Velocity P-wave (km/s) = 7.14940 7.54570 7.35022
#
# Compressibility (1/GPa) = 0.01193487
#
# Stress axis : x y z
#
# Youngs Moduli (GPa) = 126.68994 102.34477 164.99779
#
# Poissons Ratio (x) = 0.14983 0.40182
# Poissons Ratio (y) = 0.18548 0.32928
# Poissons Ratio (z) = 0.30853 0.20425
#
# Static dielectric constant tensor:
#      x y z
#    x 2.603650 0.000000 0.000000 
#    y 0.000000 2.188040 0.000000 
#    z 0.000000 0.000000 2.091590 
# 
# From -- ./inp_files/8841.got.cif
#   From: 2010.05.17/outbox.cif.g08.bks.cpg/sg56_5_cif.got.tgz:8841.got - 2010.06.03 13:42:01.
