data_PCOD9433056
_publ_section_title
;
Structure prediction by ZEFSAII (Michael W. Deem and Ramdas Pophale) SiO2 
 PCOD9433056
Probable space group: P C C N
;
_chemical_formula_sum "Si O2"
_cell_formula_units_Z 56
_cell_length_a 15.023596
_cell_length_b 14.385399
_cell_length_c 12.024300
_cell_angle_alpha 90.000000
_cell_angle_beta 90.000000
_cell_angle_gamma 90.000000
_cell_volume 2598.696801
_symmetry_space_group_name_H-M "P C C N"
_symmetry_group_IT_number 56
_symmetry_cell_setting 'orthorhombic'
loop_
_space_group_symop_operation_xyz
x,y,z
1/2-x,1/2-y,z
1/2+x,-y,1/2-z
-x,1/2+y,1/2-z
-x,-y,-z
1/2+x,1/2+y,-z
1/2-x,y,1/2+z
x,1/2-y,1/2+z
loop_
_atom_site_type_symbol
_atom_site_label
_atom_site_fract_x
_atom_site_fract_y
_atom_site_fract_z
Si Si1 0.557516 0.748316 0.102923
Si Si2 0.098347 0.690805 0.760553
Si Si3 0.331169 0.061011 0.212555
Si Si4 0.779807 0.413401 0.416055
Si Si5 0.750000 0.750000 0.205297
Si Si6 0.410388 0.453814 0.956186
Si Si7 0.250000 0.750000 0.913685
Si Si8 0.006411 0.096294 0.560958
O O1 0.492551 0.731631 0.208673
O O2 0.658182 0.770882 0.139527
O O3 0.571664 0.655328 0.030891
O O4 0.507246 0.822661 0.028632
O O5 0.153086 0.646769 0.659342
O O6 0.163818 0.756029 0.832818
O O7 0.068188 0.611302 0.846338
O O8 0.268993 0.151091 0.234558
O O9 0.399904 0.097249 0.122258
O O10 0.287082 0.967353 0.165508
O O11 0.384624 0.038100 0.326020
O O12 0.831307 0.496711 0.477979
O O13 0.742679 0.340652 0.507133
O O14 0.500000 0.500000 0.000000
O O15 0.000000 0.000000 0.500000
#
# Coordination Sequence:
#
# PCOD9433056 Si02
#       8
#     8   8   8   8   4   8   4   8
#     4  11  26  48  76 107 149 196 249 313 380 449
#     4  12  25  51  70 111 147 196 249 305 379 443
#     4  11  26  46  72 112 144 199 247 311 377 445
#     4  12  26  45  77 108 146 199 252 310 370 457
#     4  10  24  48  74 106 146 192 246 306 372 448
#     4  11  23  48  73 107 144 194 253 299 377 451
#     4  12  28  48  76 108 156 198 248 312 382 458
#     4  12  27  46  72 108 150 189 250 313 383 448
#
# _framework density 21.549261999999999
#
# number of rings (size 3 to 8) (size 9 to 14) (size 15 to 20)
#    0.000    0.571    4.286    3.000    8.000    2.286 
#    0.000    0.000    0.000    0.000    0.000    0.000 
#    0.000    0.000    0.000    0.000    0.000    0.000 
#
# Total GULP energy -312945.450991 kJ/mol
# GULP energy per Si atom -5588.311625 kJ/mol
# Density = 2.150022 g / cm^3
# Si number density = 21.549262 Si / 1000 Ang^3
#
#
#
# Elastic Constant Matrix: (Units=GPa)
#
#
# Indices 1 2 3 4 5 6 
#
# 1 85.6775 26.0777 33.7780 0.0000 0.0000 0.0000
# 2 26.0777 110.0592 52.5913 0.0000 0.0000 0.0000
# 3 33.7780 52.5913 106.7208 0.0000 0.0000 0.0000
# 4 0.0000 0.0000 0.0000 36.1568 0.0000 0.0000
# 5 0.0000 0.0000 0.0000 0.0000 43.3698 0.0000
# 6 0.0000 0.0000 0.0000 0.0000 0.0000 39.7171
#
#
#
# Elastic Compliance Matrix: (Units=1/GPa)
#
#
# Indices 1 2 3 4 5 6 
#
# 1 0.013526 -0.001516 -0.003534 0.000000 0.000000 0.000000
# 2 -0.001516 0.012055 -0.005461 0.000000 0.000000 0.000000
# 3 -0.003534 -0.005461 0.013180 0.000000 0.000000 0.000000
# 4 0.000000 0.000000 0.000000 0.027657 0.000000 0.000000
# 5 0.000000 0.000000 0.000000 0.000000 0.023058 0.000000
# 6 0.000000 0.000000 0.000000 0.000000 0.000000 0.025178
#
#
# Mechanical properties :
#
#
# Convention : Reuss Voigt Hill
#
# Bulk Modulus (GPa) = 56.37257 58.59461 57.48359
# Shear Modulus (GPa) = 35.31366 36.51610 35.91488
#
# Velocity S-wave (km/s) = 4.05253 4.12095 4.08688
# Velocity P-wave (km/s) = 6.93642 7.06349 7.00025
#
# Compressibility (1/GPa) = 0.01773912
#
# Stress axis : x y z
#
# Youngs Moduli (GPa) = 73.92920 82.95609 75.87434
#
# Poissons Ratio (x) = 0.12578 0.26814
# Poissons Ratio (y) = 0.11210 0.41431
# Poissons Ratio (z) = 0.26127 0.45298
#
# Static dielectric constant tensor:
#      x y z
#    x 1.991170 0.000000 0.000000 
#    y 0.000000 1.326320 0.000000 
#    z 0.000000 0.000000 1.752000 
# 
# From -- ./inp_files/7932.got.cif
#   From: 2010.05.17/outbox.cif.g08.bks.cpg/sg56_4_cif.got.tgz:7932.got - 2010.06.03 13:42:01.
