data_PCOD9433755
_publ_section_title
;
Structure prediction by ZEFSAII (Michael W. Deem and Ramdas Pophale) SiO2 
 PCOD9433755
Probable space group: P C C N
;
_chemical_formula_sum "Si O2"
_cell_formula_units_Z 36
_cell_length_a 6.912783
_cell_length_b 12.873952
_cell_length_c 14.190527
_cell_angle_alpha 90.000000
_cell_angle_beta 90.000000
_cell_angle_gamma 90.000000
_cell_volume 1262.883631
_symmetry_space_group_name_H-M "P C C N"
_symmetry_group_IT_number 56
_symmetry_cell_setting 'orthorhombic'
loop_
_space_group_symop_operation_xyz
x,y,z
1/2-x,1/2-y,z
1/2+x,-y,1/2-z
-x,1/2+y,1/2-z
-x,-y,-z
1/2+x,1/2+y,-z
1/2-x,y,1/2+z
x,1/2-y,1/2+z
loop_
_atom_site_type_symbol
_atom_site_label
_atom_site_fract_x
_atom_site_fract_y
_atom_site_fract_z
Si Si1 0.685425 0.638247 0.111712
Si Si2 0.250000 0.750000 0.250000
Si Si3 0.185425 0.138247 0.111712
Si Si4 0.272552 0.913245 0.110679
Si Si5 0.227449 0.913245 0.389320
O O1 0.750000 0.750000 0.148108
O O2 0.456378 0.615362 0.118541
O O3 0.791736 0.532231 0.142604
O O4 0.724709 0.639825 0.000000
O O5 0.361711 0.828589 0.180124
O O6 0.138290 0.828589 0.319876
O O7 0.250000 0.250000 0.148108
O O8 0.956378 0.115362 0.118541
O O9 0.291736 0.032231 0.142604
O O10 0.324923 0.901046 1.000000
#
# Coordination Sequence:
#
# PCOD9433755 Si02
#       5
#     8   4   8   8   8
#     4   8  15  35  62  81 103 143 187 236 291 334
#     4  12  22  36  48  78 112 152 186 228 292 330
#     4   8  15  35  62  81 103 143 187 236 291 334
#     4   9  19  36  56  80 113 146 184 233 282 338
#     4   9  19  36  56  80 113 146 184 233 282 338
#
# _framework density 28.50619
#
# number of rings (size 3 to 8) (size 9 to 14) (size 15 to 20)
#    0.000    3.111    0.000    3.333    0.000    0.000 
#   16.000    0.000    0.000   10.667    0.000    0.000 
#    0.000    0.000    0.000    0.000    0.000    0.000 
#
# Total GULP energy -201627.326902 kJ/mol
# GULP energy per Si atom -5600.759081 kJ/mol
# Density = 2.844131 g / cm^3
# Si number density = 28.506190 Si / 1000 Ang^3
#
#
#
# Elastic Constant Matrix: (Units=GPa)
#
#
# Indices 1 2 3 4 5 6 
#
# 1 142.3184 68.8728 6.2596 0.0000 0.0000 0.0000
# 2 68.8728 352.5907 91.0641 0.0000 0.0000 0.0000
# 3 6.2596 91.0641 204.9759 0.0000 0.0000 0.0000
# 4 0.0000 0.0000 0.0000 747.1985 0.0000 0.0000
# 5 0.0000 0.0000 0.0000 0.0000 -1.4630 0.0000
# 6 0.0000 0.0000 0.0000 0.0000 0.0000 51.6633
#
#
#
# Elastic Compliance Matrix: (Units=1/GPa)
#
#
# Indices 1 2 3 4 5 6 
#
# 1 0.007804 -0.001653 0.000496 0.000000 0.000000 0.000000
# 2 -0.001653 0.003554 -0.001528 0.000000 0.000000 0.000000
# 3 0.000496 -0.001528 0.005542 0.000000 0.000000 0.000000
# 4 0.000000 0.000000 0.000000 0.001338 0.000000 0.000000
# 5 0.000000 0.000000 0.000000 0.000000 -0.683539 0.000000
# 6 0.000000 0.000000 0.000000 0.000000 0.000000 0.019356
#
#
# Mechanical properties :
#
#
# Convention : Reuss Voigt Hill
#
# Bulk Modulus (GPa) = 86.72640 114.69757 100.71198
# Shear Modulus (GPa) = -7.85262 195.05898 93.60318
#
# Velocity S-wave (km/s) = -1.66153 8.28103 5.73649
# Velocity P-wave (km/s) = 5.17773 11.47856 8.90410
#
# Compressibility (1/GPa) = 0.01153051
#
# Stress axis : x y z
#
# Youngs Moduli (GPa) = 128.13282 281.39994 180.42535
#
# Poissons Ratio (x) = 0.46502 -0.08946
# Poissons Ratio (y) = 0.21174 0.27575
# Poissons Ratio (z) = -0.06353 0.43007
#
# Static dielectric constant tensor:
#      x y z
#    x 2.501580 0.000000 0.000000 
#    y 0.000000 2.199860 0.000000 
#    z 0.000000 0.000000 2.160110 
# 
# From -- ./inp_files/11337.got.cif
#   From: 2010.05.17/outbox.cif.g08.bks.cpg/sg56_6_cif.got.tgz:11337.got - 2010.06.03 13:42:01.
