data_PCOD9433462
_publ_section_title
;
Structure prediction by ZEFSAII (Michael W. Deem and Ramdas Pophale) SiO2 
 PCOD9433462
Probable space group: P C C N
;
_chemical_formula_sum "Si O2"
_cell_formula_units_Z 64
_cell_length_a 12.807206
_cell_length_b 17.643081
_cell_length_c 11.021824
_cell_angle_alpha 90.000000
_cell_angle_beta 90.000000
_cell_angle_gamma 90.000000
_cell_volume 2490.475621
_symmetry_space_group_name_H-M "P C C N"
_symmetry_group_IT_number 56
_symmetry_cell_setting 'orthorhombic'
loop_
_space_group_symop_operation_xyz
x,y,z
1/2-x,1/2-y,z
1/2+x,-y,1/2-z
-x,1/2+y,1/2-z
-x,-y,-z
1/2+x,1/2+y,-z
1/2-x,y,1/2+z
x,1/2-y,1/2+z
loop_
_atom_site_type_symbol
_atom_site_label
_atom_site_fract_x
_atom_site_fract_y
_atom_site_fract_z
Si Si1 0.110324 0.043826 0.383851
Si Si2 0.292725 0.666555 0.645800
Si Si3 0.909670 0.625420 0.749158
Si Si4 0.028473 0.651688 0.966620
Si Si5 0.923582 0.044825 0.207164
Si Si6 0.798143 0.030105 0.978270
Si Si7 0.131659 0.220497 0.984123
Si Si8 0.800191 0.622341 0.320752
O O1 0.028223 0.075884 0.481274
O O2 0.182568 0.107550 0.321383
O O3 0.037958 0.033080 0.264080
O O4 0.190968 0.982635 0.439521
O O5 0.250000 0.750000 0.679494
O O6 0.360063 0.671408 0.521396
O O7 0.369877 0.620229 0.737399
O O8 0.209673 0.601533 0.611127
O O9 0.878725 0.536594 0.749232
O O10 0.902268 0.660145 0.617781
O O11 0.814921 0.658508 0.829091
O O12 0.014646 0.643708 0.822627
O O13 0.953905 0.715259 0.020374
O O14 0.896107 0.043622 0.066074
O O15 0.802373 0.952435 0.904150
O O16 0.250000 0.250000 0.962545
O O17 0.122456 0.179713 0.114926
#
# Coordination Sequence:
#
# PCOD9433462 Si02
#       8
#     8   8   8   8   8   8   8   8
#     4  11  23  42  70 104 136 181 232 286 339 409
#     4  11  26  49  70  95 135 185 237 288 342 408
#     4  12  22  43  68  98 135 181 227 279 342 415
#     4  11  25  44  68  99 137 186 229 276 344 417
#     4  11  24  44  72 102 135 178 239 286 340 414
#     4  12  21  45  70 102 134 181 232 285 349 406
#     4  12  25  39  63 103 143 176 215 278 350 413
#     4  12  22  40  70  98 140 174 222 283 349 406
#
# _framework density 25.697901999999999
#
# number of rings (size 3 to 8) (size 9 to 14) (size 15 to 20)
#    0.000    0.500    6.250    1.500    3.500    4.000 
#    9.000    0.000    0.000    0.000    0.000    0.000 
#    0.000    0.000    0.000    0.000    0.000    0.000 
#
# Total GULP energy -357640.919072 kJ/mol
# GULP energy per Si atom -5588.139361 kJ/mol
# Density = 2.563941 g / cm^3
# Si number density = 25.697902 Si / 1000 Ang^3
#
#
#
# Elastic Constant Matrix: (Units=GPa)
#
#
# Indices 1 2 3 4 5 6 
#
# 1 46.3431 24.5662 5.6944 0.0000 0.0000 0.0000
# 2 24.5662 159.6231 21.1844 0.0000 0.0000 0.0000
# 3 5.6944 21.1844 60.8366 0.0000 0.0000 0.0000
# 4 0.0000 0.0000 0.0000 27.0255 0.0000 0.0000
# 5 0.0000 0.0000 0.0000 0.0000 33.2339 0.0000
# 6 0.0000 0.0000 0.0000 0.0000 0.0000 27.1123
#
#
#
# Elastic Compliance Matrix: (Units=1/GPa)
#
#
# Indices 1 2 3 4 5 6 
#
# 1 0.023551 -0.003493 -0.000988 0.000000 0.000000 0.000000
# 2 -0.003493 0.007087 -0.002141 0.000000 0.000000 0.000000
# 3 -0.000988 -0.002141 0.017275 0.000000 0.000000 0.000000
# 4 0.000000 0.000000 0.000000 0.037002 0.000000 0.000000
# 5 0.000000 0.000000 0.000000 0.000000 0.030090 0.000000
# 6 0.000000 0.000000 0.000000 0.000000 0.000000 0.036884
#
#
# Mechanical properties :
#
#
# Convention : Reuss Voigt Hill
#
# Bulk Modulus (GPa) = 28.84412 41.07699 34.96056
# Shear Modulus (GPa) = 28.29826 31.83154 30.06490
#
# Velocity S-wave (km/s) = 3.32202 3.52331 3.42414
# Velocity P-wave (km/s) = 5.09540 5.70709 5.40990
#
# Compressibility (1/GPa) = 0.03466911
#
# Stress axis : x y z
#
# Youngs Moduli (GPa) = 42.46026 141.11331 57.88586
#
# Poissons Ratio (x) = 0.49298 0.05719
# Poissons Ratio (y) = 0.14833 0.12391
# Poissons Ratio (z) = 0.04195 0.30207
#
# Static dielectric constant tensor:
#      x y z
#    x 2.212820 0.000000 0.000000 
#    y 0.000000 2.071520 0.000000 
#    z 0.000000 0.000000 2.015520 
# 
# From -- ./inp_files/8050.got.cif
#   From: 2010.05.17/outbox.cif.g08.bks.cpg/sg56_5_cif.got.tgz:8050.got - 2010.06.03 13:42:01.
