data_PCOD9433807
_publ_section_title
;
Structure prediction by ZEFSAII (Michael W. Deem and Ramdas Pophale) SiO2 
 PCOD9433807
Probable space group: P C C N
;
_chemical_formula_sum "Si O2"
_cell_formula_units_Z 28
_cell_length_a 8.630803
_cell_length_b 4.929341
_cell_length_c 22.648263
_cell_angle_alpha 90.000000
_cell_angle_beta 90.000000
_cell_angle_gamma 90.000000
_cell_volume 963.551576
_symmetry_space_group_name_H-M "P C C N"
_symmetry_group_IT_number 56
_symmetry_cell_setting 'orthorhombic'
loop_
_space_group_symop_operation_xyz
x,y,z
1/2-x,1/2-y,z
1/2+x,-y,1/2-z
-x,1/2+y,1/2-z
-x,-y,-z
1/2+x,1/2+y,-z
1/2-x,y,1/2+z
x,1/2-y,1/2+z
loop_
_atom_site_type_symbol
_atom_site_label
_atom_site_fract_x
_atom_site_fract_y
_atom_site_fract_z
Si Si1 0.750000 0.750000 0.442494
Si Si2 0.250000 0.250000 0.350975
Si Si3 0.250000 0.750000 0.638536
Si Si4 0.087683 0.471159 0.746960
Si Si5 0.876309 0.998234 0.038579
O O1 0.691508 0.492017 0.404567
O O2 0.562944 0.901214 0.463635
O O3 0.318281 0.474625 0.307510
O O4 0.374207 0.112278 0.393810
O O5 0.142309 0.598513 0.686144
O O6 0.059881 0.154150 0.737386
O O7 0.750000 0.750000 0.016668
O O8 0.750000 0.250000 0.033989
#
# Coordination Sequence:
#
# PCOD9433807 Si02
#       5
#     4   4   4   8   8
#     4   9  23  42  78 100 149 193 260 320 402 469
#     4   9  23  46  72 118 157 197 276 326 398 501
#     4  12  24  48  66 114 148 190 264 312 386 488
#     4  12  26  45  74 110 152 210 247 323 402 469
#     4   8  20  44  78 109 150 211 264 336 415 469
#
# _framework density 29.059162000000001
#
# number of rings (size 3 to 8) (size 9 to 14) (size 15 to 20)
#    1.714    0.000    0.000    4.286    4.000    0.000 
#    5.143   18.571    0.000    0.000    0.000    0.000 
#    0.000    0.000    0.000    0.000    0.000    0.000 
#
# Total GULP energy -156354.885722 kJ/mol
# GULP energy per Si atom -5584.103062 kJ/mol
# Density = 2.899302 g / cm^3
# Si number density = 29.059162 Si / 1000 Ang^3
#
#
#
# Elastic Constant Matrix: (Units=GPa)
#
#
# Indices 1 2 3 4 5 6 
#
# 1 178.3772 67.7801 109.1589 0.0000 0.0000 0.0000
# 2 67.7801 212.2641 102.6738 0.0000 0.0000 0.0000
# 3 109.1589 102.6738 281.8983 0.0000 0.0000 0.0000
# 4 0.0000 0.0000 0.0000 55.1921 0.0000 0.0000
# 5 0.0000 0.0000 0.0000 0.0000 49.8613 0.0000
# 6 0.0000 0.0000 0.0000 0.0000 0.0000 68.2947
#
#
#
# Elastic Compliance Matrix: (Units=1/GPa)
#
#
# Indices 1 2 3 4 5 6 
#
# 1 0.007598 -0.001218 -0.002499 0.000000 0.000000 0.000000
# 2 -0.001218 0.005914 -0.001682 0.000000 0.000000 0.000000
# 3 -0.002499 -0.001682 0.005128 0.000000 0.000000 0.000000
# 4 0.000000 0.000000 0.000000 0.018119 0.000000 0.000000
# 5 0.000000 0.000000 0.000000 0.000000 0.020056 0.000000
# 6 0.000000 0.000000 0.000000 0.000000 0.000000 0.014642
#
#
# Mechanical properties :
#
#
# Convention : Reuss Voigt Hill
#
# Bulk Modulus (GPa) = 127.51845 136.86280 132.19062
# Shear Modulus (GPa) = 58.91574 60.86474 59.89024
#
# Velocity S-wave (km/s) = 4.50760 4.58155 4.54472
# Velocity P-wave (km/s) = 8.43023 8.67108 8.55151
#
# Compressibility (1/GPa) = 0.00784200
#
# Stress axis : x y z
#
# Youngs Moduli (GPa) = 131.61747 169.09881 195.01922
#
# Poissons Ratio (x) = 0.20588 0.48728
# Poissons Ratio (y) = 0.16025 0.32811
# Poissons Ratio (z) = 0.32886 0.28450
#
# Static dielectric constant tensor:
#      x y z
#    x 3.345530 0.000000 0.000000 
#    y 0.000000 2.360140 0.000000 
#    z 0.000000 0.000000 2.197610 
# 
# From -- ./inp_files/18484.got.cif
#   From: 2010.05.17/outbox.cif.g08.bks.cpg/sg56_10_cif.got.tgz:18484.got - 2010.06.03 13:42:01.
