data_PCOD9433029
_publ_section_title
;
Structure prediction by ZEFSAII (Michael W. Deem and Ramdas Pophale) SiO2 
 PCOD9433029
Probable space group: P C C N
;
_chemical_formula_sum "Si O2"
_cell_formula_units_Z 48
_cell_length_a 8.591658
_cell_length_b 22.460463
_cell_length_c 10.186512
_cell_angle_alpha 90.000000
_cell_angle_beta 90.000000
_cell_angle_gamma 90.000000
_cell_volume 1965.717875
_symmetry_space_group_name_H-M "P C C N"
_symmetry_group_IT_number 56
_symmetry_cell_setting 'orthorhombic'
loop_
_space_group_symop_operation_xyz
x,y,z
1/2-x,1/2-y,z
1/2+x,-y,1/2-z
-x,1/2+y,1/2-z
-x,-y,-z
1/2+x,1/2+y,-z
1/2-x,y,1/2+z
x,1/2-y,1/2+z
loop_
_atom_site_type_symbol
_atom_site_label
_atom_site_fract_x
_atom_site_fract_y
_atom_site_fract_z
Si Si1 0.417862 0.303276 0.128331
Si Si2 0.718322 0.454904 0.309257
Si Si3 0.390888 0.432220 0.185591
Si Si4 0.578589 0.062121 0.050029
Si Si5 0.877805 0.643099 0.787764
Si Si6 0.567710 0.236242 0.365493
O O1 0.446009 0.374714 0.104307
O O2 0.233584 0.306429 0.154391
O O3 0.498601 0.284870 0.264689
O O4 0.488608 0.266898 0.008042
O O5 0.544669 0.458859 0.250385
O O6 0.800027 0.512484 0.375583
O O7 0.824194 0.443124 0.183890
O O8 0.687677 0.413044 0.433689
O O9 0.251416 0.402174 0.275480
O O10 0.447535 0.108364 0.089689
O O11 0.500000 0.000000 0.000000
O O12 0.010277 0.673841 0.701564
O O13 0.750000 0.250000 0.376095
#
# Coordination Sequence:
#
# PCOD9433029 Si02
#       6
#     8   8   8   8   8   8
#     4  10  27  51  79 120 155 215 267 345 419 489
#     4  12  25  47  81 113 164 211 268 329 404 497
#     4  10  24  46  76 120 158 213 267 331 406 486
#     4  12  25  49  73 116 158 213 264 330 402 497
#     4  10  26  46  78 113 161 213 264 336 408 482
#     4  12  27  52  85 122 160 206 284 347 415 495
#
# _framework density 24.418562999999999
#
# number of rings (size 3 to 8) (size 9 to 14) (size 15 to 20)
#    1.000    0.000    3.333    1.000    4.667    7.333 
#    0.000    0.000    0.000    0.000    0.000    0.000 
#    0.000    0.000    0.000    0.000    0.000    0.000 
#
# Total GULP energy -267439.795571 kJ/mol
# GULP energy per Si atom -5571.662408 kJ/mol
# Density = 2.436298 g / cm^3
# Si number density = 24.418563 Si / 1000 Ang^3
#
#
#
# Elastic Constant Matrix: (Units=GPa)
#
#
# Indices 1 2 3 4 5 6 
#
# 1 113.8753 37.8698 78.7268 0.0000 0.0000 0.0000
# 2 37.8698 41.6997 22.4331 0.0000 0.0000 0.0000
# 3 78.7268 22.4331 141.9403 0.0000 0.0000 0.0000
# 4 0.0000 0.0000 0.0000 24.9398 0.0000 0.0000
# 5 0.0000 0.0000 0.0000 0.0000 41.7856 0.0000
# 6 0.0000 0.0000 0.0000 0.0000 0.0000 32.7456
#
#
#
# Elastic Compliance Matrix: (Units=1/GPa)
#
#
# Indices 1 2 3 4 5 6 
#
# 1 0.018774 -0.012512 -0.008436 0.000000 0.000000 0.000000
# 2 -0.012512 0.034548 0.001480 0.000000 0.000000 0.000000
# 3 -0.008436 0.001480 0.011490 0.000000 0.000000 0.000000
# 4 0.000000 0.000000 0.000000 0.040097 0.000000 0.000000
# 5 0.000000 0.000000 0.000000 0.000000 0.023932 0.000000
# 6 0.000000 0.000000 0.000000 0.000000 0.000000 0.030538
#
#
# Mechanical properties :
#
#
# Convention : Reuss Voigt Hill
#
# Bulk Modulus (GPa) = 38.64543 63.95274 51.29909
# Shear Modulus (GPa) = 24.16151 30.45990 27.31070
#
# Velocity S-wave (km/s) = 3.14900 3.53570 3.34794
# Velocity P-wave (km/s) = 5.39279 6.55098 5.99990
#
# Compressibility (1/GPa) = 0.02587628
#
# Stress axis : x y z
#
# Youngs Moduli (GPa) = 53.26397 28.94540 87.03050
#
# Poissons Ratio (x) = 0.36216 0.73417
# Poissons Ratio (y) = 0.66644 -0.12877
# Poissons Ratio (z) = 0.44932 -0.04283
#
# Static dielectric constant tensor:
#      x y z
#    x 1.958240 0.000000 0.000000 
#    y 0.000000 2.087590 0.000000 
#    z 0.000000 0.000000 1.946090 
# 
# From -- ./inp_files/6398.got.cif
#   From: 2010.05.17/outbox.cif.g08.bks.cpg/sg56_4_cif.got.tgz:6398.got - 2010.06.03 13:42:01.
