data_PCOD9433929
_publ_section_title
;
Structure prediction by ZEFSAII (Michael W. Deem and Ramdas Pophale) SiO2 
 PCOD9433929
Probable space group: P C C N
;
_chemical_formula_sum "Si O2"
_cell_formula_units_Z 64
_cell_length_a 15.000000
_cell_length_b 9.000000
_cell_length_c 24.000000
_cell_angle_alpha 90.000000
_cell_angle_beta 90.000000
_cell_angle_gamma 90.000000
_cell_volume 3240.000000
_symmetry_space_group_name_H-M "P C C N"
_symmetry_group_IT_number 56
_symmetry_cell_setting 'orthorhombic'
loop_
_space_group_symop_operation_xyz
x,y,z
1/2-x,1/2-y,z
1/2+x,-y,1/2-z
-x,1/2+y,1/2-z
-x,-y,-z
1/2+x,1/2+y,-z
1/2-x,y,1/2+z
x,1/2-y,1/2+z
loop_
_atom_site_type_symbol
_atom_site_label
_atom_site_fract_x
_atom_site_fract_y
_atom_site_fract_z
Si Si1 0.123045 0.374799 0.309525
Si Si2 0.027257 0.849888 0.531113
Si Si3 0.833689 0.337143 0.874740
Si Si4 0.252329 0.088495 0.703516
Si Si5 0.415431 0.873185 0.717910
Si Si6 0.345161 0.182434 0.916471
Si Si7 0.646998 0.295337 0.174647
Si Si8 0.346101 0.670710 0.436375
O O1 0.190568 0.381466 0.257550
O O2 0.138938 0.238416 0.352291
O O3 0.143552 0.531224 0.338912
O O4 0.021001 0.392275 0.289248
O O5 0.091284 0.888603 0.582708
O O6 0.092397 0.773760 0.486673
O O7 0.936574 0.771664 0.551626
O O8 0.000000 0.000000 0.500000
O O9 0.750000 0.250000 0.902117
O O10 0.794498 0.466963 0.835879
O O11 0.880307 0.217180 0.835063
O O12 0.250000 0.250000 0.674675
O O13 0.349336 0.018109 0.720627
O O14 0.399879 0.765002 0.770372
O O15 0.250000 0.250000 0.933688
O O16 0.336505 0.007020 0.929585
O O17 0.750000 0.250000 0.182385
O O18 0.607945 0.214430 0.121432
O O19 0.250000 0.750000 0.439204
#
# Coordination Sequence:
#
# PCOD9433929 Si02
#       8
#     8   8   8   8   8   8   8   8
#     4  12  24  39  65  95 135 171 217 270 328 401
#     4  10  22  43  69  96 125 177 231 272 336 393
#     4  10  20  44  69  87 133 177 219 272 335 399
#     4  11  25  39  61 102 137 172 220 263 328 402
#     4  11  23  41  64  97 130 184 213 268 340 401
#     4  11  23  42  66  97 131 172 219 281 335 387
#     4  11  21  41  62  92 136 170 219 269 327 397
#     4  10  23  41  69  97 130 176 224 274 336 399
#
# _framework density 19.753086
#
# number of rings (size 3 to 8) (size 9 to 14) (size 15 to 20)
#    0.000    1.250    3.750    2.625    3.500    2.000 
#    0.000    5.000    2.750    0.000    0.000    0.000 
#    0.000    0.000    0.000    0.000    0.000    0.000 
#
# Total GULP energy -356833.317869 kJ/mol
# GULP energy per Si atom -5575.520592 kJ/mol
# Density = 1.970813 g / cm^3
# Si number density = 19.753086 Si / 1000 Ang^3
#
#
#
# Elastic Constant Matrix: (Units=GPa)
#
#
# Indices 1 2 3 4 5 6 
#
# 1 152.1596 36.0820 54.3219 0.0000 0.0000 0.0000
# 2 36.0820 80.1228 12.3238 0.0000 0.0000 0.0000
# 3 54.3219 12.3238 86.5274 0.0000 0.0000 0.0000
# 4 0.0000 0.0000 0.0000 28.4781 0.0000 0.0000
# 5 0.0000 0.0000 0.0000 0.0000 19.4430 0.0000
# 6 0.0000 0.0000 0.0000 0.0000 0.0000 24.0050
#
#
#
# Elastic Compliance Matrix: (Units=1/GPa)
#
#
# Indices 1 2 3 4 5 6 
#
# 1 0.009276 -0.003355 -0.005346 0.000000 0.000000 0.000000
# 2 -0.003355 0.013974 0.000116 0.000000 0.000000 0.000000
# 3 -0.005346 0.000116 0.014897 0.000000 0.000000 0.000000
# 4 0.000000 0.000000 0.000000 0.035115 0.000000 0.000000
# 5 0.000000 0.000000 0.000000 0.000000 0.051432 0.000000
# 6 0.000000 0.000000 0.000000 0.000000 0.000000 0.041658
#
#
# Mechanical properties :
#
#
# Convention : Reuss Voigt Hill
#
# Bulk Modulus (GPa) = 47.67101 58.25170 52.96136
# Shear Modulus (GPa) = 26.24487 28.79068 27.51777
#
# Velocity S-wave (km/s) = 3.64901 3.82190 3.73646
# Velocity P-wave (km/s) = 6.47608 7.00213 6.74424
#
# Compressibility (1/GPa) = 0.02097711
#
# Stress axis : x y z
#
# Youngs Moduli (GPa) = 107.80392 71.56193 67.12975
#
# Poissons Ratio (x) = 0.24010 0.35885
# Poissons Ratio (y) = 0.36169 -0.00779
# Poissons Ratio (z) = 0.57629 -0.00831
#
# Static dielectric constant tensor:
#      x y z
#    x 1.665510 0.000000 0.000000 
#    y 0.000000 1.720160 0.000000 
#    z 0.000000 0.000000 1.732600 
# 
# From -- ./inp_files/21157.got.cif
#   From: 2010.05.17/outbox.ucp.g08.bks.cvg/sg56_11_cif.got.tgz:21157.got - 2010.06.11 16:37:52.
