data_PCOD9433201
_publ_section_title
;
Structure prediction by ZEFSAII (Michael W. Deem and Ramdas Pophale) SiO2 
 PCOD9433201
Probable space group: P C C N
;
_chemical_formula_sum "Si O2"
_cell_formula_units_Z 36
_cell_length_a 6.585654
_cell_length_b 12.347895
_cell_length_c 17.240961
_cell_angle_alpha 90.000000
_cell_angle_beta 90.000000
_cell_angle_gamma 90.000000
_cell_volume 1402.017089
_symmetry_space_group_name_H-M "P C C N"
_symmetry_group_IT_number 56
_symmetry_cell_setting 'orthorhombic'
loop_
_space_group_symop_operation_xyz
x,y,z
1/2-x,1/2-y,z
1/2+x,-y,1/2-z
-x,1/2+y,1/2-z
-x,-y,-z
1/2+x,1/2+y,-z
1/2-x,y,1/2+z
x,1/2-y,1/2+z
loop_
_atom_site_type_symbol
_atom_site_label
_atom_site_fract_x
_atom_site_fract_y
_atom_site_fract_z
Si Si1 0.750000 0.250000 0.606964
Si Si2 0.201435 0.070646 0.332266
Si Si3 0.435997 0.884280 0.035950
Si Si4 0.091707 0.005933 0.085990
Si Si5 0.100081 0.367241 0.178084
O O1 0.858928 0.176295 0.539793
O O2 0.559329 0.269659 0.665760
O O3 0.398891 0.004241 0.360180
O O4 0.035994 0.976984 0.316580
O O5 0.269876 0.133187 0.256397
O O6 0.115190 0.142056 0.404057
O O7 0.237323 0.901891 0.089346
O O8 0.500000 0.000000 0.000000
O O9 0.000000 0.000000 0.000000
O O10 0.234793 0.106950 0.109443
#
# Coordination Sequence:
#
# PCOD9433201 Si02
#       5
#     4   8   8   8   8
#     4  12  22  46  72 114 148 206 282 332 396 524
#     4  11  21  42  71 107 147 209 256 337 436 478
#     4  11  22  41  72 104 151 204 263 337 403 499
#     4  11  19  38  70 102 144 205 256 319 416 493
#     4  11  23  39  75 109 149 202 273 341 414 502
#
# _framework density 25.677291
#
# number of rings (size 3 to 8) (size 9 to 14) (size 15 to 20)
#    0.000    0.889    8.889    0.000    0.000    0.000 
#    0.000   11.111    4.889    0.000    0.000    0.000 
#    0.000    0.000    0.000    0.000    0.000    0.000 
#
# Total GULP energy -200537.648898 kJ/mol
# GULP energy per Si atom -5570.490247 kJ/mol
# Density = 2.561885 g / cm^3
# Si number density = 25.677291 Si / 1000 Ang^3
#
#
#
# Elastic Constant Matrix: (Units=GPa)
#
#
# Indices 1 2 3 4 5 6 
#
# 1 182.0139 73.5646 87.9162 0.0000 0.0000 0.0000
# 2 73.5646 66.1206 54.6944 0.0000 0.0000 0.0000
# 3 87.9162 54.6944 166.9236 0.0000 0.0000 0.0000
# 4 0.0000 0.0000 0.0000 18.6102 0.0000 0.0000
# 5 0.0000 0.0000 0.0000 0.0000 67.6229 0.0000
# 6 0.0000 0.0000 0.0000 0.0000 0.0000 60.8205
#
#
#
# Elastic Compliance Matrix: (Units=1/GPa)
#
#
# Indices 1 2 3 4 5 6 
#
# 1 0.010622 -0.009863 -0.002362 0.000000 0.000000 0.000000
# 2 -0.009863 0.029906 -0.004604 0.000000 0.000000 0.000000
# 3 -0.002362 -0.004604 0.008744 0.000000 0.000000 0.000000
# 4 0.000000 0.000000 0.000000 0.053734 0.000000 0.000000
# 5 0.000000 0.000000 0.000000 0.000000 0.014788 0.000000
# 6 0.000000 0.000000 0.000000 0.000000 0.000000 0.016442
#
#
# Mechanical properties :
#
#
# Convention : Reuss Voigt Hill
#
# Bulk Modulus (GPa) = 64.05519 94.15652 79.10585
# Shear Modulus (GPa) = 28.88521 42.66957 35.77739
#
# Velocity S-wave (km/s) = 3.35764 4.08090 3.73681
# Velocity P-wave (km/s) = 6.32709 7.67813 7.03512
#
# Compressibility (1/GPa) = 0.01561154
#
# Stress axis : x y z
#
# Youngs Moduli (GPa) = 94.14763 33.43796 114.36842
#
# Poissons Ratio (x) = 0.32981 0.27019
# Poissons Ratio (y) = 0.92860 0.52658
# Poissons Ratio (z) = 0.22242 0.15396
#
# Static dielectric constant tensor:
#      x y z
#    x 2.333410 0.000000 0.000000 
#    y 0.000000 2.216550 0.000000 
#    z 0.000000 0.000000 2.088690 
# 
# From -- ./inp_files/17415.got.cif
#   From: 2010.05.17/outbox.cif.g08.bks.cpg/sg56_9_cif.got.tgz:17415.got - 2010.06.03 13:42:01.
