data_PCOD9433082
_publ_section_title
;
Structure prediction by ZEFSAII (Michael W. Deem and Ramdas Pophale) SiO2 
 PCOD9433082
Probable space group: P C C N
;
_chemical_formula_sum "Si O2"
_cell_formula_units_Z 40
_cell_length_a 15.841766
_cell_length_b 19.420948
_cell_length_c 5.103548
_cell_angle_alpha 90.000000
_cell_angle_beta 90.000000
_cell_angle_gamma 90.000000
_cell_volume 1570.168365
_symmetry_space_group_name_H-M "P C C N"
_symmetry_group_IT_number 56
_symmetry_cell_setting 'orthorhombic'
loop_
_space_group_symop_operation_xyz
x,y,z
1/2-x,1/2-y,z
1/2+x,-y,1/2-z
-x,1/2+y,1/2-z
-x,-y,-z
1/2+x,1/2+y,-z
1/2-x,y,1/2+z
x,1/2-y,1/2+z
loop_
_atom_site_type_symbol
_atom_site_label
_atom_site_fract_x
_atom_site_fract_y
_atom_site_fract_z
Si Si1 0.554456 0.391665 0.949098
Si Si2 0.803006 0.878465 0.386412
Si Si3 0.785404 0.328815 0.709153
Si Si4 0.035997 0.206964 0.568447
Si Si5 0.571550 0.528723 0.690588
O O1 0.519214 0.354674 0.688820
O O2 0.596865 0.464724 0.874007
O O3 0.623741 0.342949 0.086151
O O4 0.473996 0.413848 0.127066
O O5 0.723994 0.877563 0.584330
O O6 0.866494 0.814927 0.422946
O O7 0.856372 0.941884 0.503702
O O8 0.750000 0.250000 0.747226
O O9 0.721548 0.360097 0.496362
O O10 0.018801 0.233625 0.280125
O O11 0.500000 0.500000 0.500000
#
# Coordination Sequence:
#
# PCOD9433082 Si02
#       5
#     8   8   8   8   8
#     4  11  26  46  78 108 163 205 272 318 390 483
#     4  12  27  49  76 111 154 194 257 333 398 457
#     4  10  25  44  68 108 156 201 244 313 385 458
#     4  12  27  45  76 112 146 206 251 314 397 472
#     4  11  25  49  77 110 152 210 270 324 385 481
#
# _framework density 25.474974
#
# number of rings (size 3 to 8) (size 9 to 14) (size 15 to 20)
#    0.000    0.800    2.000    3.600   11.200    4.000 
#    0.000    0.000    0.000    0.000    0.000    0.000 
#    0.000    0.000    0.000    0.000    0.000    0.000 
#
# Total GULP energy -223907.920880 kJ/mol
# GULP energy per Si atom -5597.698022 kJ/mol
# Density = 2.541699 g / cm^3
# Si number density = 25.474974 Si / 1000 Ang^3
#
#
#
# Elastic Constant Matrix: (Units=GPa)
#
#
# Indices 1 2 3 4 5 6 
#
# 1 97.7489 37.3229 13.8683 0.0000 0.0000 0.0000
# 2 37.3229 117.8145 12.1880 0.0000 0.0000 0.0000
# 3 13.8683 12.1880 85.2580 0.0000 0.0000 0.0000
# 4 0.0000 0.0000 0.0000 39.4792 0.0000 0.0000
# 5 0.0000 0.0000 0.0000 0.0000 56.9912 0.0000
# 6 0.0000 0.0000 0.0000 0.0000 0.0000 51.1148
#
#
#
# Elastic Compliance Matrix: (Units=1/GPa)
#
#
# Indices 1 2 3 4 5 6 
#
# 1 0.011802 -0.003593 -0.001406 0.000000 0.000000 0.000000
# 2 -0.003593 0.009709 -0.000804 0.000000 0.000000 0.000000
# 3 -0.001406 -0.000804 0.012073 0.000000 0.000000 0.000000
# 4 0.000000 0.000000 0.000000 0.025330 0.000000 0.000000
# 5 0.000000 0.000000 0.000000 0.000000 0.017547 0.000000
# 6 0.000000 0.000000 0.000000 0.000000 0.000000 0.019564
#
#
# Mechanical properties :
#
#
# Convention : Reuss Voigt Hill
#
# Bulk Modulus (GPa) = 45.49962 47.50885 46.50424
# Shear Modulus (GPa) = 43.49501 45.34652 44.42077
#
# Velocity S-wave (km/s) = 4.13651 4.22363 4.18030
# Velocity P-wave (km/s) = 6.38072 6.51729 6.44937
#
# Compressibility (1/GPa) = 0.02197820
#
# Stress axis : x y z
#
# Youngs Moduli (GPa) = 84.73295 102.99328 82.83168
#
# Poissons Ratio (x) = 0.37008 0.11646
# Poissons Ratio (y) = 0.30447 0.06656
# Poissons Ratio (z) = 0.11914 0.08276
#
# Static dielectric constant tensor:
#      x y z
#    x 1.993690 0.000000 0.000000 
#    y 0.000000 2.899850 0.000000 
#    z 0.000000 0.000000 2.018370 
# 
# From -- ./inp_files/627.got.cif
#   From: 2010.05.17/outbox.cif.g08.bks.cpg/sg56_1_cif.got.tgz:627.got - 2010.06.03 13:42:01.
