data_PCOD9433332
_publ_section_title
;
Structure prediction by ZEFSAII (Michael W. Deem and Ramdas Pophale) SiO2 
 PCOD9433332
Probable space group: P C C N
;
_chemical_formula_sum "Si O2"
_cell_formula_units_Z 36
_cell_length_a 24.639339
_cell_length_b 6.590722
_cell_length_c 10.143525
_cell_angle_alpha 90.000000
_cell_angle_beta 90.000000
_cell_angle_gamma 90.000000
_cell_volume 1647.217509
_symmetry_space_group_name_H-M "P C C N"
_symmetry_group_IT_number 56
_symmetry_cell_setting 'orthorhombic'
loop_
_space_group_symop_operation_xyz
x,y,z
1/2-x,1/2-y,z
1/2+x,-y,1/2-z
-x,1/2+y,1/2-z
-x,-y,-z
1/2+x,1/2+y,-z
1/2-x,y,1/2+z
x,1/2-y,1/2+z
loop_
_atom_site_type_symbol
_atom_site_label
_atom_site_fract_x
_atom_site_fract_y
_atom_site_fract_z
Si Si1 0.112065 0.832981 0.202180
Si Si2 0.062452 0.546201 0.973053
Si Si3 0.350090 0.230702 0.545994
Si Si4 0.285886 0.916316 0.195571
Si Si5 0.250000 0.250000 0.362127
O O1 0.073153 0.868758 0.326561
O O2 0.164710 0.711490 0.256586
O O3 0.131154 0.042893 0.134328
O O4 0.084931 0.699146 0.085774
O O5 0.097806 0.340378 0.984297
O O6 0.000000 0.500000 0.000000
O O7 0.317532 0.406176 0.622672
O O8 0.303991 0.183945 0.439141
O O9 0.250000 0.750000 0.117134
O O10 0.242465 0.044440 0.279642
#
# Coordination Sequence:
#
# PCOD9433332 Si02
#       5
#     8   8   8   8   4
#     4  11  25  47  70 103 144 186 244 303 365 441
#     4  11  27  46  72 104 138 193 246 309 373 435
#     4  11  24  42  68  99 143 185 239 295 361 436
#     4  11  22  38  63  96 137 179 227 279 348 424
#     4  12  22  38  64 100 140 188 230 288 360 434
#
# _framework density 21.855036999999999
#
# number of rings (size 3 to 8) (size 9 to 14) (size 15 to 20)
#    0.000    0.889    0.000    7.333    3.111    7.111 
#    0.000    0.000    0.000    0.000    0.000    0.000 
#    0.000    0.000    0.000    0.000    0.000    0.000 
#
# Total GULP energy -200933.484524 kJ/mol
# GULP energy per Si atom -5581.485681 kJ/mol
# Density = 2.180529 g / cm^3
# Si number density = 21.855037 Si / 1000 Ang^3
#
#
#
# Elastic Constant Matrix: (Units=GPa)
#
#
# Indices 1 2 3 4 5 6 
#
# 1 131.7878 52.1001 34.5510 0.0000 0.0000 0.0000
# 2 52.1001 129.2493 49.5097 0.0000 0.0000 0.0000
# 3 34.5510 49.5097 89.6799 0.0000 0.0000 0.0000
# 4 0.0000 0.0000 0.0000 32.2947 0.0000 0.0000
# 5 0.0000 0.0000 0.0000 0.0000 18.4256 0.0000
# 6 0.0000 0.0000 0.0000 0.0000 0.0000 33.1951
#
#
#
# Elastic Compliance Matrix: (Units=1/GPa)
#
#
# Indices 1 2 3 4 5 6 
#
# 1 0.009279 -0.003007 -0.001915 0.000000 0.000000 0.000000
# 2 -0.003007 0.010786 -0.004796 0.000000 0.000000 0.000000
# 3 -0.001915 -0.004796 0.014536 0.000000 0.000000 0.000000
# 4 0.000000 0.000000 0.000000 0.030965 0.000000 0.000000
# 5 0.000000 0.000000 0.000000 0.000000 0.054272 0.000000
# 6 0.000000 0.000000 0.000000 0.000000 0.000000 0.030125
#
#
# Mechanical properties :
#
#
# Convention : Reuss Voigt Hill
#
# Bulk Modulus (GPa) = 65.93941 69.22651 67.58296
# Shear Modulus (GPa) = 28.66079 31.08684 29.87381
#
# Velocity S-wave (km/s) = 3.62526 3.77558 3.70118
# Velocity P-wave (km/s) = 6.91087 7.12395 7.01822
#
# Compressibility (1/GPa) = 0.01516544
#
# Stress axis : x y z
#
# Youngs Moduli (GPa) = 107.77460 92.71054 68.79253
#
# Poissons Ratio (x) = 0.27875 0.13173
# Poissons Ratio (y) = 0.32404 0.32996
# Poissons Ratio (z) = 0.20637 0.44468
#
# Static dielectric constant tensor:
#      x y z
#    x 1.579830 0.000000 0.000000 
#    y 0.000000 1.877680 0.000000 
#    z 0.000000 0.000000 1.933060 
# 
# From -- ./inp_files/5536.got.cif
#   From: 2010.05.17/outbox.cif.g08.bks.cpg/sg56_3_cif.got.tgz:5536.got - 2010.06.03 13:42:01.
