data_PCOD9433561
_publ_section_title
;
Structure prediction by ZEFSAII (Michael W. Deem and Ramdas Pophale) SiO2 
 PCOD9433561
Probable space group: P C C N
;
_chemical_formula_sum "Si O2"
_cell_formula_units_Z 48
_cell_length_a 17.424476
_cell_length_b 7.384002
_cell_length_c 18.645131
_cell_angle_alpha 90.000000
_cell_angle_beta 90.000000
_cell_angle_gamma 90.000000
_cell_volume 2398.926662
_symmetry_space_group_name_H-M "P C C N"
_symmetry_group_IT_number 56
_symmetry_cell_setting 'orthorhombic'
loop_
_space_group_symop_operation_xyz
x,y,z
1/2-x,1/2-y,z
1/2+x,-y,1/2-z
-x,1/2+y,1/2-z
-x,-y,-z
1/2+x,1/2+y,-z
1/2-x,y,1/2+z
x,1/2-y,1/2+z
loop_
_atom_site_type_symbol
_atom_site_label
_atom_site_fract_x
_atom_site_fract_y
_atom_site_fract_z
Si Si1 0.434369 0.460083 0.555774
Si Si2 0.328410 0.137562 0.514663
Si Si3 0.661983 0.275432 0.893345
Si Si4 0.955562 0.534052 0.185396
Si Si5 0.167977 0.154059 0.845567
Si Si6 0.594629 0.172914 0.740068
O O1 0.500000 0.500000 0.500000
O O2 0.396145 0.272779 0.535796
O O3 0.369871 0.615535 0.556273
O O4 0.478317 0.471646 0.630701
O O5 0.250000 0.250000 0.529589
O O6 0.329160 0.095688 0.429411
O O7 0.340855 0.962273 0.563601
O O8 0.750000 0.250000 0.874727
O O9 0.617659 0.248375 0.818659
O O10 0.900738 0.698499 0.161958
O O11 0.904673 0.355792 0.194473
O O12 0.007003 0.597593 0.253368
O O13 0.250000 0.250000 0.828467
O O14 0.147058 0.985816 0.793332
#
# Coordination Sequence:
#
# PCOD9433561 Si02
#       6
#     8   8   8   8   8   8
#     4  11  24  43  70 106 137 176 233 283 341 416
#     4  11  24  46  73 101 138 180 228 291 346 406
#     4  11  26  45  69 102 137 182 234 283 346 406
#     4  11  24  44  68  98 139 182 230 281 343 408
#     4  11  26  45  69 103 140 181 231 283 348 410
#     4  11  26  45  67  99 137 184 227 284 341 410
#
# _framework density 20.008948
#
# number of rings (size 3 to 8) (size 9 to 14) (size 15 to 20)
#    0.000    1.000    5.000    0.000    7.000    0.667 
#    0.000    0.000    0.000    0.000    0.000    0.000 
#    0.000    0.000    0.000    0.000    0.000    0.000 
#
# Total GULP energy -267799.132243 kJ/mol
# GULP energy per Si atom -5579.148588 kJ/mol
# Density = 1.996341 g / cm^3
# Si number density = 20.008948 Si / 1000 Ang^3
#
#
#
# Elastic Constant Matrix: (Units=GPa)
#
#
# Indices 1 2 3 4 5 6 
#
# 1 61.6573 7.8677 12.5122 0.0000 0.0000 0.0000
# 2 7.8677 106.6430 47.9990 0.0000 0.0000 0.0000
# 3 12.5122 47.9990 68.0017 0.0000 0.0000 0.0000
# 4 0.0000 0.0000 0.0000 117.4027 0.0000 0.0000
# 5 0.0000 0.0000 0.0000 0.0000 44.0842 0.0000
# 6 0.0000 0.0000 0.0000 0.0000 0.0000 36.3547
#
#
#
# Elastic Compliance Matrix: (Units=1/GPa)
#
#
# Indices 1 2 3 4 5 6 
#
# 1 0.016851 0.000223 -0.003258 0.000000 0.000000 0.000000
# 2 0.000223 0.013746 -0.009744 0.000000 0.000000 0.000000
# 3 -0.003258 -0.009744 0.022183 0.000000 0.000000 0.000000
# 4 0.000000 0.000000 0.000000 0.008518 0.000000 0.000000
# 5 0.000000 0.000000 0.000000 0.000000 0.022684 0.000000
# 6 0.000000 0.000000 0.000000 0.000000 0.000000 0.027507
#
#
# Mechanical properties :
#
#
# Convention : Reuss Voigt Hill
#
# Bulk Modulus (GPa) = 36.73403 41.45109 39.09256
# Shear Modulus (GPa) = 34.21834 50.76319 42.49076
#
# Velocity S-wave (km/s) = 4.13988 5.04235 4.61324
# Velocity P-wave (km/s) = 6.42263 7.39335 6.92502
#
# Compressibility (1/GPa) = 0.02722271
#
# Stress axis : x y z
#
# Youngs Moduli (GPa) = 59.34229 72.74728 45.08016
#
# Poissons Ratio (x) = -0.01624 0.14688
# Poissons Ratio (y) = -0.01325 0.43925
# Poissons Ratio (z) = 0.19335 0.70884
#
# Static dielectric constant tensor:
#      x y z
#    x 1.705280 0.000000 0.000000 
#    y 0.000000 1.684600 0.000000 
#    z 0.000000 0.000000 1.503990 
# 
# From -- ./inp_files/19423.got.cif
#   From: 2010.05.17/outbox.cif.g08.bks.cpg/sg56_10_cif.got.tgz:19423.got - 2010.06.03 13:42:01.
