data_PCOD9433405
_publ_section_title
;
Structure prediction by ZEFSAII (Michael W. Deem and Ramdas Pophale) SiO2 
 PCOD9433405
Probable space group: P C C N
;
_chemical_formula_sum "Si O2"
_cell_formula_units_Z 48
_cell_length_a 11.234495
_cell_length_b 11.804973
_cell_length_c 17.453854
_cell_angle_alpha 90.000000
_cell_angle_beta 90.000000
_cell_angle_gamma 90.000000
_cell_volume 2314.780911
_symmetry_space_group_name_H-M "P C C N"
_symmetry_group_IT_number 56
_symmetry_cell_setting 'orthorhombic'
loop_
_space_group_symop_operation_xyz
x,y,z
1/2-x,1/2-y,z
1/2+x,-y,1/2-z
-x,1/2+y,1/2-z
-x,-y,-z
1/2+x,1/2+y,-z
1/2-x,y,1/2+z
x,1/2-y,1/2+z
loop_
_atom_site_type_symbol
_atom_site_label
_atom_site_fract_x
_atom_site_fract_y
_atom_site_fract_z
Si Si1 0.593279 0.787937 0.327816
Si Si2 0.631369 0.176590 0.926372
Si Si3 0.891551 0.769890 0.151031
Si Si4 0.358103 0.802108 0.411548
Si Si5 0.217180 0.082060 0.595269
Si Si6 0.121858 0.462017 0.459682
O O1 0.595780 0.744715 0.241621
O O2 0.466967 0.825616 0.357454
O O3 0.684524 0.892235 0.338852
O O4 0.626580 0.682272 0.383785
O O5 0.750000 0.250000 0.900205
O O6 0.502465 0.200563 0.886797
O O7 0.663523 0.043844 0.912285
O O8 0.614575 0.223623 0.014106
O O9 0.750000 0.750000 0.133726
O O10 0.909551 0.893676 0.115602
O O11 0.250000 0.750000 0.365410
O O12 0.313305 0.921606 0.442567
O O13 0.293752 0.104356 0.518328
O O14 0.000000 0.500000 0.500000
#
# Coordination Sequence:
#
# PCOD9433405 Si02
#       6
#     8   8   8   8   8   8
#     4  11  26  45  66 104 155 191 233 294 381 437
#     4  11  23  45  76 109 139 181 254 303 354 438
#     4  12  27  46  70 112 144 195 245 294 371 454
#     4  11  23  44  71 109 139 182 244 305 363 435
#     4  11  22  45  72  99 141 192 234 304 350 431
#     4  12  22  41  77 101 140 193 245 302 367 432
#
# _framework density 20.736304000000001
#
# number of rings (size 3 to 8) (size 9 to 14) (size 15 to 20)
#    0.000    0.667    8.333    0.000    4.667    4.000 
#    0.000    1.667    0.000    0.000    0.000    0.000 
#    0.000    0.000    0.000    0.000    0.000    0.000 
#
# Total GULP energy -267308.258557 kJ/mol
# GULP energy per Si atom -5568.922053 kJ/mol
# Density = 2.068911 g / cm^3
# Si number density = 20.736304 Si / 1000 Ang^3
#
#
#
# Elastic Constant Matrix: (Units=GPa)
#
#
# Indices 1 2 3 4 5 6 
#
# 1 107.0159 30.8528 31.9968 0.0000 0.0000 0.0000
# 2 30.8528 114.1340 42.8513 0.0000 0.0000 0.0000
# 3 31.9968 42.8513 103.9966 0.0000 0.0000 0.0000
# 4 0.0000 0.0000 0.0000 22.7884 0.0000 0.0000
# 5 0.0000 0.0000 0.0000 0.0000 15.6650 0.0000
# 6 0.0000 0.0000 0.0000 0.0000 0.0000 35.2806
#
#
#
# Elastic Compliance Matrix: (Units=1/GPa)
#
#
# Indices 1 2 3 4 5 6 
#
# 1 0.010646 -0.001950 -0.002472 0.000000 0.000000 0.000000
# 2 -0.001950 0.010722 -0.003818 0.000000 0.000000 0.000000
# 3 -0.002472 -0.003818 0.011950 0.000000 0.000000 0.000000
# 4 0.000000 0.000000 0.000000 0.043882 0.000000 0.000000
# 5 0.000000 0.000000 0.000000 0.000000 0.063836 0.000000
# 6 0.000000 0.000000 0.000000 0.000000 0.000000 0.028344
#
#
# Mechanical properties :
#
#
# Convention : Reuss Voigt Hill
#
# Bulk Modulus (GPa) = 59.39062 59.61649 59.50356
# Shear Modulus (GPa) = 26.11348 29.37651 27.74499
#
# Velocity S-wave (km/s) = 3.55253 3.76795 3.66182
# Velocity P-wave (km/s) = 6.74762 6.90957 6.82907
#
# Compressibility (1/GPa) = 0.01683767
#
# Stress axis : x y z
#
# Youngs Moduli (GPa) = 93.93552 93.26462 83.68525
#
# Poissons Ratio (x) = 0.18183 0.20687
# Poissons Ratio (y) = 0.18314 0.31953
# Poissons Ratio (z) = 0.23221 0.35610
#
# Static dielectric constant tensor:
#      x y z
#    x 1.810070 0.000000 0.000000 
#    y 0.000000 1.721340 0.000000 
#    z 0.000000 0.000000 1.781240 
# 
# From -- ./inp_files/15632.got.cif
#   From: 2010.05.17/outbox.cif.g08.bks.cpg/sg56_8_cif.got.tgz:15632.got - 2010.06.03 13:42:01.
