data_PCOD9433643
_publ_section_title
;
Structure prediction by ZEFSAII (Michael W. Deem and Ramdas Pophale) SiO2 
 PCOD9433643
Probable space group: P C C N
;
_chemical_formula_sum "Si O2"
_cell_formula_units_Z 48
_cell_length_a 8.902023
_cell_length_b 8.430800
_cell_length_c 29.565150
_cell_angle_alpha 90.000000
_cell_angle_beta 90.000000
_cell_angle_gamma 90.000000
_cell_volume 2218.899262
_symmetry_space_group_name_H-M "P C C N"
_symmetry_group_IT_number 56
_symmetry_cell_setting 'orthorhombic'
loop_
_space_group_symop_operation_xyz
x,y,z
1/2-x,1/2-y,z
1/2+x,-y,1/2-z
-x,1/2+y,1/2-z
-x,-y,-z
1/2+x,1/2+y,-z
1/2-x,y,1/2+z
x,1/2-y,1/2+z
loop_
_atom_site_type_symbol
_atom_site_label
_atom_site_fract_x
_atom_site_fract_y
_atom_site_fract_z
Si Si1 0.578735 0.934339 0.862062
Si Si2 0.075716 0.058312 0.953961
Si Si3 0.070087 0.437997 0.953282
Si Si4 0.878470 0.630988 0.712013
Si Si5 0.941160 0.570460 0.362055
Si Si6 0.884835 0.138727 0.279842
O O1 0.526532 0.755282 0.853025
O O2 0.760540 0.942703 0.861097
O O3 0.513836 0.988620 0.910075
O O4 0.535748 0.052397 0.821819
O O5 0.056792 0.247839 0.950740
O O6 0.253124 0.021784 0.952827
O O7 0.996784 0.975372 0.911745
O O8 0.000000 0.000000 0.000000
O O9 0.000000 0.500000 0.000000
O O10 0.750000 0.750000 0.695326
O O11 0.824268 0.492578 0.745375
O O12 0.973083 0.544754 0.672774
O O13 0.991028 0.743761 0.740432
O O14 0.750000 0.250000 0.295636
#
# Coordination Sequence:
#
# PCOD9433643 Si02
#       6
#     8   8   8   8   8   8
#     4  11  25  45  72  99 140 187 243 289 354 431
#     4  11  25  44  69 103 144 180 232 291 353 423
#     4  11  25  44  70 103 140 186 233 286 353 424
#     4  12  27  44  72 104 145 185 244 302 363 434
#     4  11  25  45  70 103 139 187 238 296 356 423
#     4  12  25  47  71 102 140 193 239 296 367 427
#
# _framework density 21.632348
#
# number of rings (size 3 to 8) (size 9 to 14) (size 15 to 20)
#    0.000    0.667    1.667    5.000    7.000    6.667 
#    0.000    0.000    0.000    0.000    0.000    0.000 
#    0.000    0.000    0.000    0.000    0.000    0.000 
#
# Total GULP energy -268668.889549 kJ/mol
# GULP energy per Si atom -5597.268532 kJ/mol
# Density = 2.158311 g / cm^3
# Si number density = 21.632348 Si / 1000 Ang^3
#
#
#
# Elastic Constant Matrix: (Units=GPa)
#
#
# Indices 1 2 3 4 5 6 
#
# 1 73.3600 69.5121 32.2529 0.0000 0.0000 0.0000
# 2 69.5121 141.0302 65.3940 0.0000 0.0000 0.0000
# 3 32.2529 65.3940 140.8313 0.0000 0.0000 0.0000
# 4 0.0000 0.0000 0.0000 41.7980 0.0000 0.0000
# 5 0.0000 0.0000 0.0000 0.0000 32.5280 0.0000
# 6 0.0000 0.0000 0.0000 0.0000 0.0000 44.2161
#
#
#
# Elastic Compliance Matrix: (Units=1/GPa)
#
#
# Indices 1 2 3 4 5 6 
#
# 1 0.025577 -0.012604 -0.000005 0.000000 0.000000 0.000000
# 2 -0.012604 0.015248 -0.004194 0.000000 0.000000 0.000000
# 3 -0.000005 -0.004194 0.009049 0.000000 0.000000 0.000000
# 4 0.000000 0.000000 0.000000 0.023925 0.000000 0.000000
# 5 0.000000 0.000000 0.000000 0.000000 0.030743 0.000000
# 6 0.000000 0.000000 0.000000 0.000000 0.000000 0.022616
#
#
# Mechanical properties :
#
#
# Convention : Reuss Voigt Hill
#
# Bulk Modulus (GPa) = 61.46980 76.61549 69.04264
# Shear Modulus (GPa) = 30.08705 36.24593 33.16649
#
# Velocity S-wave (km/s) = 3.73344 4.09778 3.91984
# Velocity P-wave (km/s) = 6.86018 7.60809 7.24380
#
# Compressibility (1/GPa) = 0.01626815
#
# Stress axis : x y z
#
# Youngs Moduli (GPa) = 39.09830 65.58411 110.50895
#
# Poissons Ratio (x) = 0.82663 0.00054
# Poissons Ratio (y) = 0.49280 0.46342
# Poissons Ratio (z) = 0.00019 0.27503
#
# Static dielectric constant tensor:
#      x y z
#    x 1.846980 0.000000 0.000000 
#    y 0.000000 1.776870 0.000000 
#    z 0.000000 0.000000 1.733870 
# 
# From -- ./inp_files/23238.got.cif
#   From: 2010.05.17/outbox.cif.g08.bks.cpg/sg56_12_cif.got.tgz:23238.got - 2010.06.03 13:42:01.
