data_PCOD9433532
_publ_section_title
;
Structure prediction by ZEFSAII (Michael W. Deem and Ramdas Pophale) SiO2 
 PCOD9433532
Probable space group: P C C N
;
_chemical_formula_sum "Si O2"
_cell_formula_units_Z 64
_cell_length_a 7.718404
_cell_length_b 30.036056
_cell_length_c 11.450663
_cell_angle_alpha 90.000000
_cell_angle_beta 90.000000
_cell_angle_gamma 90.000000
_cell_volume 2654.611953
_symmetry_space_group_name_H-M "P C C N"
_symmetry_group_IT_number 56
_symmetry_cell_setting 'orthorhombic'
loop_
_space_group_symop_operation_xyz
x,y,z
1/2-x,1/2-y,z
1/2+x,-y,1/2-z
-x,1/2+y,1/2-z
-x,-y,-z
1/2+x,1/2+y,-z
1/2-x,y,1/2+z
x,1/2-y,1/2+z
loop_
_atom_site_type_symbol
_atom_site_label
_atom_site_fract_x
_atom_site_fract_y
_atom_site_fract_z
Si Si1 0.961593 0.986975 0.845125
Si Si2 0.564940 0.834451 0.621389
Si Si3 0.057675 0.173569 0.318059
Si Si4 0.707055 0.182076 0.178289
Si Si5 0.438303 0.027853 0.108459
Si Si6 0.458955 0.574338 0.021711
Si Si7 0.056275 0.753089 0.505767
Si Si8 0.603891 0.108429 0.993864
O O1 0.764573 0.975737 0.873421
O O2 0.057238 0.942274 0.887773
O O3 0.972714 0.003100 0.714974
O O4 0.030711 0.030712 0.913634
O O5 0.736516 0.829557 0.702167
O O6 0.402235 0.832575 0.709218
O O7 0.562538 0.881345 0.552696
O O8 0.535492 0.794209 0.528437
O O9 0.908208 0.183417 0.221745
O O10 0.044449 0.212263 0.414999
O O11 0.004502 0.129431 0.389338
O O12 0.602649 0.224515 0.120271
O O13 0.691815 0.147075 0.072125
O O14 0.494925 0.078135 0.081956
O O15 0.500000 0.000000 0.000000
O O16 0.262208 0.581320 0.061592
O O17 0.250000 0.750000 0.559365
#
# Coordination Sequence:
#
# PCOD9433532 Si02
#       8
#     8   8   8   8   8   8   8   8
#     4  11  26  44  73 107 148 202 252 321 389 460
#     4  12  24  49  76 109 150 194 254 315 372 471
#     4  11  25  48  74 108 147 193 248 310 378 453
#     4  11  25  48  74 107 148 196 247 311 385 454
#     4  12  25  45  72 105 149 194 258 312 388 465
#     4  11  23  48  74 103 150 201 253 316 390 457
#     4  11  24  48  74 102 150 195 241 307 386 447
#     4  11  23  47  73 106 147 196 245 315 381 456
#
# _framework density 24.108984
#
# number of rings (size 3 to 8) (size 9 to 14) (size 15 to 20)
#    0.000    0.750    3.750    3.375    3.500    1.000 
#   18.000    0.000    0.000    0.000    0.000    0.000 
#    0.000    0.000    0.000    0.000    0.000    0.000 
#
# Total GULP energy -357648.765958 kJ/mol
# GULP energy per Si atom -5588.261968 kJ/mol
# Density = 2.405411 g / cm^3
# Si number density = 24.108984 Si / 1000 Ang^3
#
#
#
# Elastic Constant Matrix: (Units=GPa)
#
#
# Indices 1 2 3 4 5 6 
#
# 1 115.5037 13.4886 1.2138 0.0000 0.0000 0.0000
# 2 13.4886 85.7388 7.4091 0.0000 0.0000 0.0000
# 3 1.2138 7.4091 81.2818 0.0000 0.0000 0.0000
# 4 0.0000 0.0000 0.0000 27.2453 0.0000 0.0000
# 5 0.0000 0.0000 0.0000 0.0000 29.1550 0.0000
# 6 0.0000 0.0000 0.0000 0.0000 0.0000 26.3527
#
#
#
# Elastic Compliance Matrix: (Units=1/GPa)
#
#
# Indices 1 2 3 4 5 6 
#
# 1 0.008820 -0.001387 -0.000005 0.000000 0.000000 0.000000
# 2 -0.001387 0.011974 -0.001071 0.000000 0.000000 0.000000
# 3 -0.000005 -0.001071 0.012401 0.000000 0.000000 0.000000
# 4 0.000000 0.000000 0.000000 0.036704 0.000000 0.000000
# 5 0.000000 0.000000 0.000000 0.000000 0.034299 0.000000
# 6 0.000000 0.000000 0.000000 0.000000 0.000000 0.037947
#
#
# Mechanical properties :
#
#
# Convention : Reuss Voigt Hill
#
# Bulk Modulus (GPa) = 35.37546 36.30524 35.84035
# Shear Modulus (GPa) = 31.95027 33.91145 32.93086
#
# Velocity S-wave (km/s) = 3.64434 3.75452 3.69984
# Velocity P-wave (km/s) = 5.69327 5.82123 5.75760
#
# Compressibility (1/GPa) = 0.02826818
#
# Stress axis : x y z
#
# Youngs Moduli (GPa) = 113.38164 83.51377 80.64150
#
# Poissons Ratio (x) = 0.11584 0.00042
# Poissons Ratio (y) = 0.15727 0.08635
# Poissons Ratio (z) = 0.00060 0.08942
#
# Static dielectric constant tensor:
#      x y z
#    x 1.921660 0.000000 0.000000 
#    y 0.000000 1.951750 0.000000 
#    z 0.000000 0.000000 1.991710 
# 
# From -- ./inp_files/6616.got.cif
#   From: 2010.05.17/outbox.cif.g08.bks.cpg/sg56_4_cif.got.tgz:6616.got - 2010.06.03 13:42:01.
