data_PCOD9433841
_publ_section_title
;
Structure prediction by ZEFSAII (Michael W. Deem and Ramdas Pophale) SiO2 
 PCOD9433841
Probable space group: P C C N
;
_chemical_formula_sum "Si O2"
_cell_formula_units_Z 36
_cell_length_a 7.811887
_cell_length_b 19.726864
_cell_length_c 9.421267
_cell_angle_alpha 90.000000
_cell_angle_beta 90.000000
_cell_angle_gamma 90.000000
_cell_volume 1451.855235
_symmetry_space_group_name_H-M "P C C N"
_symmetry_group_IT_number 56
_symmetry_cell_setting 'orthorhombic'
loop_
_space_group_symop_operation_xyz
x,y,z
1/2-x,1/2-y,z
1/2+x,-y,1/2-z
-x,1/2+y,1/2-z
-x,-y,-z
1/2+x,1/2+y,-z
1/2-x,y,1/2+z
x,1/2-y,1/2+z
loop_
_atom_site_type_symbol
_atom_site_label
_atom_site_fract_x
_atom_site_fract_y
_atom_site_fract_z
Si Si1 0.750000 0.250000 0.720053
Si Si2 0.292729 0.384579 0.856002
Si Si3 0.802051 0.022089 0.499957
Si Si4 0.392938 0.304663 0.136996
Si Si5 0.842285 0.393440 0.254711
O O1 0.575961 0.232093 0.636203
O O2 0.717956 0.319619 0.803564
O O3 0.284214 0.457040 0.931205
O O4 0.129955 0.361437 0.761793
O O5 0.453271 0.389575 0.750884
O O6 0.340272 0.333929 0.984142
O O7 0.723287 0.045573 0.352446
O O8 0.777499 0.087704 0.599294
O O9 0.000000 0.000000 0.500000
O O10 0.250000 0.250000 0.178833
#
# Coordination Sequence:
#
# PCOD9433841 Si02
#       5
#     4   8   8   8   8
#     4  12  28  48  78 110 156 196 262 306 396 464
#     4  12  26  49  78 110 154 201 260 321 386 460
#     4  12  26  46  75 108 152 198 264 316 395 455
#     4  12  26  50  76 113 153 201 253 317 385 460
#     4  12  26  47  73 112 148 208 250 326 382 470
#
# _framework density 24.795860000000001
#
# number of rings (size 3 to 8) (size 9 to 14) (size 15 to 20)
#    0.000    0.000    2.222    8.000    0.000    3.556 
#    0.000    0.000    0.000    0.000    0.000    0.000 
#    0.000    0.000    0.000    0.000    0.000    0.000 
#
# Total GULP energy -201627.550993 kJ/mol
# GULP energy per Si atom -5600.765305 kJ/mol
# Density = 2.473942 g / cm^3
# Si number density = 24.795860 Si / 1000 Ang^3
#
#
#
# Elastic Constant Matrix: (Units=GPa)
#
#
# Indices 1 2 3 4 5 6 
#
# 1 108.8824 18.3638 7.9196 0.0000 0.0000 0.0000
# 2 18.3638 116.2024 13.3528 0.0000 0.0000 0.0000
# 3 7.9196 13.3528 97.8346 0.0000 0.0000 0.0000
# 4 0.0000 0.0000 0.0000 45.8624 0.0000 0.0000
# 5 0.0000 0.0000 0.0000 0.0000 26.6160 0.0000
# 6 0.0000 0.0000 0.0000 0.0000 0.0000 43.4597
#
#
#
# Elastic Compliance Matrix: (Units=1/GPa)
#
#
# Indices 1 2 3 4 5 6 
#
# 1 0.009467 -0.001430 -0.000571 0.000000 0.000000 0.000000
# 2 -0.001430 0.008959 -0.001107 0.000000 0.000000 0.000000
# 3 -0.000571 -0.001107 0.010419 0.000000 0.000000 0.000000
# 4 0.000000 0.000000 0.000000 0.021804 0.000000 0.000000
# 5 0.000000 0.000000 0.000000 0.000000 0.037571 0.000000
# 6 0.000000 0.000000 0.000000 0.000000 0.000000 0.023010
#
#
# Mechanical properties :
#
#
# Convention : Reuss Voigt Hill
#
# Bulk Modulus (GPa) = 44.19393 44.68796 44.44094
# Shear Modulus (GPa) = 40.00331 42.07318 41.03824
#
# Velocity S-wave (km/s) = 4.02096 4.12367 4.07264
# Velocity P-wave (km/s) = 6.27847 6.38235 6.33062
#
# Compressibility (1/GPa) = 0.02262754
#
# Stress axis : x y z
#
# Youngs Moduli (GPa) = 105.62988 111.62038 95.98180
#
# Poissons Ratio (x) = 0.15967 0.05482
# Poissons Ratio (y) = 0.15110 0.10625
# Poissons Ratio (z) = 0.06033 0.12356
#
# Static dielectric constant tensor:
#      x y z
#    x 1.974010 0.000000 0.000000 
#    y 0.000000 1.998840 0.000000 
#    z 0.000000 0.000000 1.917800 
# 
# From -- ./inp_files/1981.got.cif
#   From: 2010.05.17/outbox.cif.g08.bks.cpg/sg56_1_cif.got.tgz:1981.got - 2010.06.03 13:42:01.
