data_PCOD9433096
_publ_section_title
;
Structure prediction by ZEFSAII (Michael W. Deem and Ramdas Pophale) SiO2 
 PCOD9433096
Probable space group: P C C N
;
_chemical_formula_sum "Si O2"
_cell_formula_units_Z 40
_cell_length_a 6.677591
_cell_length_b 24.392027
_cell_length_c 9.214068
_cell_angle_alpha 90.000000
_cell_angle_beta 90.000000
_cell_angle_gamma 90.000000
_cell_volume 1500.787211
_symmetry_space_group_name_H-M "P C C N"
_symmetry_group_IT_number 56
_symmetry_cell_setting 'orthorhombic'
loop_
_space_group_symop_operation_xyz
x,y,z
1/2-x,1/2-y,z
1/2+x,-y,1/2-z
-x,1/2+y,1/2-z
-x,-y,-z
1/2+x,1/2+y,-z
1/2-x,y,1/2+z
x,1/2-y,1/2+z
loop_
_atom_site_type_symbol
_atom_site_label
_atom_site_fract_x
_atom_site_fract_y
_atom_site_fract_z
Si Si1 0.388062 0.397897 0.534960
Si Si2 0.500502 0.238376 0.922206
Si Si3 0.835799 0.075607 0.032905
Si Si4 0.866106 0.539849 0.687982
Si Si5 0.915483 0.674776 0.335485
O O1 0.485903 0.317210 0.328724
O O2 0.622015 0.398366 0.524107
O O3 0.285136 0.417960 0.388740
O O4 0.310429 0.342960 0.617112
O O5 0.750000 0.250000 0.893158
O O6 0.481433 0.271199 0.074014
O O7 0.250000 0.250000 0.873313
O O8 0.975421 0.122229 0.097976
O O9 0.837805 0.021013 0.129976
O O10 0.922338 0.059682 0.876069
O O11 0.845486 0.550409 0.856427
#
# Coordination Sequence:
#
# PCOD9433096 Si02
#       5
#     8   8   8   8   8
#     4  11  26  47  78 115 165 211 267 339 410 516
#     4  12  30  55  83 113 160 212 282 353 410 503
#     4  10  25  45  76 112 159 215 263 331 412 500
#     4  10  25  47  74 117 163 214 267 328 415 496
#     4  11  29  50  79 117 154 211 275 338 429 477
#
# _framework density 26.652681000000001
#
# number of rings (size 3 to 8) (size 9 to 14) (size 15 to 20)
#    0.000    1.200    0.000    1.800   19.600    3.200 
#    0.000    0.000    0.000    0.000    0.000    0.000 
#    0.000    0.000    0.000    0.000    0.000    0.000 
#
# Total GULP energy -222701.271290 kJ/mol
# GULP energy per Si atom -5567.531782 kJ/mol
# Density = 2.659202 g / cm^3
# Si number density = 26.652681 Si / 1000 Ang^3
#
#
#
# Elastic Constant Matrix: (Units=GPa)
#
#
# Indices 1 2 3 4 5 6 
#
# 1 185.6869 46.1295 29.0019 0.0000 0.0000 0.0000
# 2 46.1295 139.9564 29.8621 0.0000 0.0000 0.0000
# 3 29.0019 29.8621 73.4892 0.0000 0.0000 0.0000
# 4 0.0000 0.0000 0.0000 28.5150 0.0000 0.0000
# 5 0.0000 0.0000 0.0000 0.0000 19.2556 0.0000
# 6 0.0000 0.0000 0.0000 0.0000 0.0000 24.5016
#
#
#
# Elastic Compliance Matrix: (Units=1/GPa)
#
#
# Indices 1 2 3 4 5 6 
#
# 1 0.006060 -0.001628 -0.001730 0.000000 0.000000 0.000000
# 2 -0.001628 0.008261 -0.002714 0.000000 0.000000 0.000000
# 3 -0.001730 -0.002714 0.015393 0.000000 0.000000 0.000000
# 4 0.000000 0.000000 0.000000 0.035069 0.000000 0.000000
# 5 0.000000 0.000000 0.000000 0.000000 0.051933 0.000000
# 6 0.000000 0.000000 0.000000 0.000000 0.000000 0.040814
#
#
# Mechanical properties :
#
#
# Convention : Reuss Voigt Hill
#
# Bulk Modulus (GPa) = 56.91770 67.67995 62.29882
# Shear Modulus (GPa) = 28.48496 34.06370 31.27433
#
# Velocity S-wave (km/s) = 3.27272 3.57887 3.42921
# Velocity P-wave (km/s) = 5.97349 6.52121 6.25335
#
# Compressibility (1/GPa) = 0.01756923
#
# Stress axis : x y z
#
# Youngs Moduli (GPa) = 165.01341 121.05241 64.96438
#
# Poissons Ratio (x) = 0.19711 0.11238
# Poissons Ratio (y) = 0.26869 0.17633
# Poissons Ratio (z) = 0.28546 0.32856
#
# Static dielectric constant tensor:
#      x y z
#    x 2.257670 0.000000 0.000000 
#    y 0.000000 2.278450 0.000000 
#    z 0.000000 0.000000 2.090340 
# 
# From -- ./inp_files/5617.got.cif
#   From: 2010.05.17/outbox.cif.g08.bks.cpg/sg56_3_cif.got.tgz:5617.got - 2010.06.03 13:42:01.
