data_PCOD9433118
_publ_section_title
;
Structure prediction by ZEFSAII (Michael W. Deem and Ramdas Pophale) SiO2 
 PCOD9433118
Probable space group: P C C N
;
_chemical_formula_sum "Si O2"
_cell_formula_units_Z 32
_cell_length_a 4.990195
_cell_length_b 10.622650
_cell_length_c 23.465516
_cell_angle_alpha 90.000000
_cell_angle_beta 90.000000
_cell_angle_gamma 90.000000
_cell_volume 1243.885765
_symmetry_space_group_name_H-M "P C C N"
_symmetry_group_IT_number 56
_symmetry_cell_setting 'orthorhombic'
loop_
_space_group_symop_operation_xyz
x,y,z
1/2-x,1/2-y,z
1/2+x,-y,1/2-z
-x,1/2+y,1/2-z
-x,-y,-z
1/2+x,1/2+y,-z
1/2-x,y,1/2+z
x,1/2-y,1/2+z
loop_
_atom_site_type_symbol
_atom_site_label
_atom_site_fract_x
_atom_site_fract_y
_atom_site_fract_z
Si Si1 0.750000 0.750000 0.318557
Si Si2 0.444827 0.369928 0.393609
Si Si3 0.935828 0.357491 0.091395
Si Si4 0.422436 0.917112 0.236500
Si Si5 0.250000 0.750000 0.518341
O O1 0.676403 0.640205 0.363992
O O2 0.529445 0.807690 0.277046
O O3 0.250000 0.250000 0.403670
O O4 0.314140 0.503995 0.409684
O O5 0.535898 0.373055 0.328298
O O6 0.702580 0.359933 0.435445
O O7 0.750000 0.250000 0.118229
O O8 0.968996 0.297776 0.028496
O O9 0.128041 0.967225 0.251037
#
# Coordination Sequence:
#
# PCOD9433118 Si02
#       5
#     4   8   8   8   4
#     4  12  24  46  78 106 158 208 264 320 406 478
#     4  12  26  47  76 113 153 207 259 331 392 467
#     4  10  25  49  73 106 151 207 257 319 394 470
#     4  12  28  48  78 115 160 203 267 329 402 479
#     4  10  28  46  78 108 160 196 280 310 400 460
#
# _framework density 25.725836000000001
#
# number of rings (size 3 to 8) (size 9 to 14) (size 15 to 20)
#    0.750    0.000    3.750    2.250    5.250    3.000 
#    0.000    0.000    0.000    0.000    0.000    0.000 
#    0.000    0.000    0.000    0.000    0.000    0.000 
#
# Total GULP energy -178380.840235 kJ/mol
# GULP energy per Si atom -5574.401257 kJ/mol
# Density = 2.566728 g / cm^3
# Si number density = 25.725836 Si / 1000 Ang^3
#
#
#
# Elastic Constant Matrix: (Units=GPa)
#
#
# Indices 1 2 3 4 5 6 
#
# 1 63.4180 44.6122 35.5570 0.0000 0.0000 0.0000
# 2 44.6122 181.6918 38.6444 0.0000 0.0000 0.0000
# 3 35.5570 38.6444 246.8999 0.0000 0.0000 0.0000
# 4 0.0000 0.0000 0.0000 26.5854 0.0000 0.0000
# 5 0.0000 0.0000 0.0000 0.0000 -24.1920 0.0000
# 6 0.0000 0.0000 0.0000 0.0000 0.0000 45.3675
#
#
#
# Elastic Compliance Matrix: (Units=1/GPa)
#
#
# Indices 1 2 3 4 5 6 
#
# 1 0.020154 -0.004480 -0.002201 0.000000 0.000000 0.000000
# 2 -0.004480 0.006689 -0.000402 0.000000 0.000000 0.000000
# 3 -0.002201 -0.000402 0.004430 0.000000 0.000000 0.000000
# 4 0.000000 0.000000 0.000000 0.037615 0.000000 0.000000
# 5 0.000000 0.000000 0.000000 0.000000 -0.041336 0.000000
# 6 0.000000 0.000000 0.000000 0.000000 0.000000 0.022042
#
#
# Mechanical properties :
#
#
# Convention : Reuss Voigt Hill
#
# Bulk Modulus (GPa) = 58.45567 81.07076 69.76321
# Shear Modulus (GPa) = 71.97950 34.43190 53.20570
#
# Velocity S-wave (km/s) = 5.29530 3.66241 4.55266
# Velocity P-wave (km/s) = 7.75621 7.03321 7.40354
#
# Compressibility (1/GPa) = 0.01710698
#
# Stress axis : x y z
#
# Youngs Moduli (GPa) = 49.61687 149.49017 225.72761
#
# Poissons Ratio (x) = 0.66979 0.49688
# Poissons Ratio (y) = 0.22231 0.09069
# Poissons Ratio (z) = 0.10922 0.06006
#
# Static dielectric constant tensor:
#      x y z
#    x 2.275380 0.000000 0.000000 
#    y 0.000000 2.276530 0.000000 
#    z 0.000000 0.000000 1.938420 
# 
# From -- ./inp_files/17288.got.cif
#   From: 2010.05.17/outbox.cif.g08.bks.cpg/sg56_9_cif.got.tgz:17288.got - 2010.06.03 13:42:01.
