data_PCOD9433514
_publ_section_title
;
Structure prediction by ZEFSAII (Michael W. Deem and Ramdas Pophale) SiO2 
 PCOD9433514
Probable space group: P C C N
;
_chemical_formula_sum "Si O2"
_cell_formula_units_Z 32
_cell_length_a 13.329989
_cell_length_b 5.414224
_cell_length_c 18.817379
_cell_angle_alpha 90.000000
_cell_angle_beta 90.000000
_cell_angle_gamma 90.000000
_cell_volume 1358.079341
_symmetry_space_group_name_H-M "P C C N"
_symmetry_group_IT_number 56
_symmetry_cell_setting 'orthorhombic'
loop_
_space_group_symop_operation_xyz
x,y,z
1/2-x,1/2-y,z
1/2+x,-y,1/2-z
-x,1/2+y,1/2-z
-x,-y,-z
1/2+x,1/2+y,-z
1/2-x,y,1/2+z
x,1/2-y,1/2+z
loop_
_atom_site_type_symbol
_atom_site_label
_atom_site_fract_x
_atom_site_fract_y
_atom_site_fract_z
Si Si1 0.495424 0.143027 0.592412
Si Si2 0.349999 0.916298 0.832690
Si Si3 0.864952 0.754511 0.526106
Si Si4 0.188073 0.003409 0.174149
O O1 0.549557 0.256987 0.660422
O O2 0.436601 0.327780 0.539496
O O3 0.406969 0.973580 0.622572
O O4 0.583963 0.004316 0.549849
O O5 0.250000 0.750000 0.840116
O O6 0.359931 0.089246 0.901565
O O7 0.344115 0.041316 0.756351
O O8 0.750000 0.750000 0.502035
O O9 0.250000 0.250000 0.155594
O O10 0.250000 0.750000 0.171079
#
# Coordination Sequence:
#
# PCOD9433514 Si02
#       4
#     8   8   8   8
#     4  11  26  44  72 106 140 198 238 303 366 436
#     4  11  24  43  75 104 145 192 242 302 363 445
#     4  11  23  46  68 103 146 187 248 299 366 434
#     4  11  28  49  75 111 151 191 243 304 367 436
#
# _framework density 23.562691000000001
#
# number of rings (size 3 to 8) (size 9 to 14) (size 15 to 20)
#    0.000    1.000    2.500    2.250   10.500    0.000 
#    9.000    0.000    0.000    0.000    0.000    0.000 
#    0.000    0.000    0.000    0.000    0.000    0.000 
#
# Total GULP energy -178786.286531 kJ/mol
# GULP energy per Si atom -5587.071454 kJ/mol
# Density = 2.350906 g / cm^3
# Si number density = 23.562691 Si / 1000 Ang^3
#
#
#
# Elastic Constant Matrix: (Units=GPa)
#
#
# Indices 1 2 3 4 5 6 
#
# 1 163.5782 46.1943 61.0950 0.0000 0.0000 0.0000
# 2 46.1943 64.0109 23.2250 0.0000 0.0000 0.0000
# 3 61.0950 23.2250 131.4126 0.0000 0.0000 0.0000
# 4 0.0000 0.0000 0.0000 15.3897 0.0000 0.0000
# 5 0.0000 0.0000 0.0000 0.0000 -6.2927 0.0000
# 6 0.0000 0.0000 0.0000 0.0000 0.0000 35.5290
#
#
#
# Elastic Compliance Matrix: (Units=1/GPa)
#
#
# Indices 1 2 3 4 5 6 
#
# 1 0.008752 -0.005171 -0.003155 0.000000 0.000000 0.000000
# 2 -0.005171 0.019748 -0.001086 0.000000 0.000000 0.000000
# 3 -0.003155 -0.001086 0.009268 0.000000 0.000000 0.000000
# 4 0.000000 0.000000 0.000000 0.064979 0.000000 0.000000
# 5 0.000000 0.000000 0.000000 0.000000 -0.158915 0.000000
# 6 0.000000 0.000000 0.000000 0.000000 0.000000 0.028146
#
#
# Mechanical properties :
#
#
# Convention : Reuss Voigt Hill
#
# Bulk Modulus (GPa) = 52.78678 68.89226 60.83952
# Shear Modulus (GPa) = -1734.53883 24.15769 -855.19057
#
# Velocity S-wave (km/s) = -27.16129 3.20543 -19.07172
# Velocity P-wave (km/s) = 31.00317 6.55752 21.42657
#
# Compressibility (1/GPa) = 0.01894414
#
# Stress axis : x y z
#
# Youngs Moduli (GPa) = 114.25969 50.63725 107.89443
#
# Poissons Ratio (x) = 0.26186 0.34040
# Poissons Ratio (y) = 0.59087 0.11717
# Poissons Ratio (z) = 0.36048 0.05499
#
# Static dielectric constant tensor:
#      x y z
#    x 2.003320 0.000000 0.000000 
#    y 0.000000 2.005940 0.000000 
#    z 0.000000 0.000000 1.886480 
# 
# From -- ./inp_files/17247.got.cif
#   From: 2010.05.17/outbox.cif.g08.bks.cpg/sg56_9_cif.got.tgz:17247.got - 2010.06.03 13:42:01.
