data_PCOD9433825
_publ_section_title
;
Structure prediction by ZEFSAII (Michael W. Deem and Ramdas Pophale) SiO2 
 PCOD9433825
Probable space group: P C C N
;
_chemical_formula_sum "Si O2"
_cell_formula_units_Z 40
_cell_length_a 8.319744
_cell_length_b 10.708657
_cell_length_c 19.080815
_cell_angle_alpha 90.000000
_cell_angle_beta 90.000000
_cell_angle_gamma 90.000000
_cell_volume 1699.972485
_symmetry_space_group_name_H-M "P C C N"
_symmetry_group_IT_number 56
_symmetry_cell_setting 'orthorhombic'
loop_
_space_group_symop_operation_xyz
x,y,z
1/2-x,1/2-y,z
1/2+x,-y,1/2-z
-x,1/2+y,1/2-z
-x,-y,-z
1/2+x,1/2+y,-z
1/2-x,y,1/2+z
x,1/2-y,1/2+z
loop_
_atom_site_type_symbol
_atom_site_label
_atom_site_fract_x
_atom_site_fract_y
_atom_site_fract_z
Si Si1 0.346454 0.380492 0.806028
Si Si2 0.557916 0.777943 0.945884
Si Si3 0.870963 0.359116 0.912287
Si Si4 0.443076 0.494014 0.078807
Si Si5 0.453089 0.539219 0.324619
O O1 0.250000 0.250000 0.809918
O O2 0.459885 0.411238 0.872237
O O3 0.453990 0.390936 0.736786
O O4 0.224227 0.498337 0.803297
O O5 0.750000 0.750000 0.957252
O O6 0.516905 0.649160 0.904390
O O7 0.480541 0.881206 0.894803
O O8 0.476133 0.813348 0.020924
O O9 0.750000 0.250000 0.894156
O O10 0.745303 0.472839 0.925520
O O11 0.971175 0.405812 0.846707
O O12 0.500000 0.500000 0.000000
#
# Coordination Sequence:
#
# PCOD9433825 Si02
#       5
#     8   8   8   8   8
#     4  12  30  52  78 112 158 208 259 331 395 470
#     4  12  27  47  79 110 159 198 259 323 387 463
#     4  12  25  45  76 117 149 204 255 317 391 471
#     4  12  26  48  77 113 154 195 263 318 390 471
#     4  12  28  49  77 109 154 205 258 315 396 464
#
# _framework density 23.529793000000002
#
# number of rings (size 3 to 8) (size 9 to 14) (size 15 to 20)
#    0.000    0.000    4.000    4.800    5.600    0.000 
#    0.000    0.000    0.000    0.000    0.000    0.000 
#    0.000    0.000    0.000    0.000    0.000    0.000 
#
# Total GULP energy -223375.717544 kJ/mol
# GULP energy per Si atom -5584.392939 kJ/mol
# Density = 2.347624 g / cm^3
# Si number density = 23.529793 Si / 1000 Ang^3
#
#
#
# Elastic Constant Matrix: (Units=GPa)
#
#
# Indices 1 2 3 4 5 6 
#
# 1 96.6525 30.6058 26.2182 0.0000 0.0000 0.0000
# 2 30.6058 103.5800 24.6686 0.0000 0.0000 0.0000
# 3 26.2182 24.6686 97.7931 0.0000 0.0000 0.0000
# 4 0.0000 0.0000 0.0000 33.9111 0.0000 0.0000
# 5 0.0000 0.0000 0.0000 0.0000 43.6151 0.0000
# 6 0.0000 0.0000 0.0000 0.0000 0.0000 35.9851
#
#
#
# Elastic Compliance Matrix: (Units=1/GPa)
#
#
# Indices 1 2 3 4 5 6 
#
# 1 0.011946 -0.002944 -0.002460 0.000000 0.000000 0.000000
# 2 -0.002944 0.010997 -0.001985 0.000000 0.000000 0.000000
# 3 -0.002460 -0.001985 0.011386 0.000000 0.000000 0.000000
# 4 0.000000 0.000000 0.000000 0.029489 0.000000 0.000000
# 5 0.000000 0.000000 0.000000 0.000000 0.022928 0.000000
# 6 0.000000 0.000000 0.000000 0.000000 0.000000 0.027789
#
#
# Mechanical properties :
#
#
# Convention : Reuss Voigt Hill
#
# Bulk Modulus (GPa) = 51.14760 51.22342 51.18551
# Shear Modulus (GPa) = 36.81094 37.13778 36.97436
#
# Velocity S-wave (km/s) = 3.95959 3.97713 3.96837
# Velocity P-wave (km/s) = 6.53369 6.55034 6.54202
#
# Compressibility (1/GPa) = 0.01955126
#
# Stress axis : x y z
#
# Youngs Moduli (GPa) = 83.71091 90.93453 87.82810
#
# Poissons Ratio (x) = 0.26770 0.21606
# Poissons Ratio (y) = 0.24643 0.17432
# Poissons Ratio (z) = 0.20594 0.18048
#
# Static dielectric constant tensor:
#      x y z
#    x 1.978030 0.000000 0.000000 
#    y 0.000000 2.073460 0.000000 
#    z 0.000000 0.000000 1.812750 
# 
# From -- ./inp_files/14421.got.cif
#   From: 2010.05.17/outbox.cif.g08.bks.cpg/sg56_8_cif.got.tgz:14421.got - 2010.06.03 13:42:01.
