data_PCOD9433256
_publ_section_title
;
Structure prediction by ZEFSAII (Michael W. Deem and Ramdas Pophale) SiO2 
 PCOD9433256
Probable space group: P C C N
;
_chemical_formula_sum "Si O2"
_cell_formula_units_Z 48
_cell_length_a 11.226849
_cell_length_b 7.902324
_cell_length_c 21.886871
_cell_angle_alpha 90.000000
_cell_angle_beta 90.000000
_cell_angle_gamma 90.000000
_cell_volume 1941.763761
_symmetry_space_group_name_H-M "P C C N"
_symmetry_group_IT_number 56
_symmetry_cell_setting 'orthorhombic'
loop_
_space_group_symop_operation_xyz
x,y,z
1/2-x,1/2-y,z
1/2+x,-y,1/2-z
-x,1/2+y,1/2-z
-x,-y,-z
1/2+x,1/2+y,-z
1/2-x,y,1/2+z
x,1/2-y,1/2+z
loop_
_atom_site_type_symbol
_atom_site_label
_atom_site_fract_x
_atom_site_fract_y
_atom_site_fract_z
Si Si1 0.704262 0.521773 0.416532
Si Si2 0.135581 0.463974 0.346015
Si Si3 0.179615 0.917816 0.266848
Si Si4 0.689405 0.427306 0.546662
Si Si5 0.598527 0.168422 0.368763
Si Si6 0.001217 0.186521 0.642009
O O1 0.674985 0.543502 0.487716
O O2 0.643626 0.347449 0.393035
O O3 0.844387 0.476593 0.411892
O O4 0.638429 0.657139 0.373559
O O5 0.221492 0.446735 0.287356
O O6 0.223617 0.495134 0.402404
O O7 0.043783 0.624371 0.342359
O O8 0.042783 0.318529 0.361125
O O9 0.250000 0.750000 0.290903
O O10 0.152524 0.883192 0.197014
O O11 0.054872 0.924752 0.302739
O O12 0.750000 0.250000 0.526169
O O13 0.569962 0.375186 0.581899
#
# Coordination Sequence:
#
# PCOD9433256 Si02
#       6
#     8   8   8   8   8   8
#     4  11  21  36  57  84 113 145 187 228 284 328
#     4   9  21  38  61  81 109 151 190 227 278 330
#     4   9  18  38  58  80 111 151 183 223 279 346
#     4   9  17  39  58  80 109 152 185 224 278 344
#     4  11  22  34  58  84 115 146 185 229 283 333
#     4   9  20  35  63  79 108 149 188 225 276 327
#
# _framework density 24.719794
#
# number of rings (size 3 to 8) (size 9 to 14) (size 15 to 20)
#    0.000    2.333    3.333    2.500    2.333    1.333 
#    0.000    3.333    7.333    0.000    0.000    0.000 
#    0.000    0.000    0.000    0.000    0.000    0.000 
#
# Total GULP energy -268036.959606 kJ/mol
# GULP energy per Si atom -5584.103325 kJ/mol
# Density = 2.466353 g / cm^3
# Si number density = 24.719794 Si / 1000 Ang^3
#
#
#
# Elastic Constant Matrix: (Units=GPa)
#
#
# Indices 1 2 3 4 5 6 
#
# 1 110.8332 13.3276 10.9469 0.0000 0.0000 0.0000
# 2 13.3276 61.4783 -2.9902 0.0000 0.0000 0.0000
# 3 10.9469 -2.9902 97.7568 0.0000 0.0000 0.0000
# 4 0.0000 0.0000 0.0000 11.2351 0.0000 0.0000
# 5 0.0000 0.0000 0.0000 0.0000 -14.0496 0.0000
# 6 0.0000 0.0000 0.0000 0.0000 0.0000 32.5659
#
#
#
# Elastic Compliance Matrix: (Units=1/GPa)
#
#
# Indices 1 2 3 4 5 6 
#
# 1 0.009384 -0.002088 -0.001115 0.000000 0.000000 0.000000
# 2 -0.002088 0.016755 0.000746 0.000000 0.000000 0.000000
# 3 -0.001115 0.000746 0.010377 0.000000 0.000000 0.000000
# 4 0.000000 0.000000 0.000000 0.089007 0.000000 0.000000
# 5 0.000000 0.000000 0.000000 0.000000 -0.071177 0.000000
# 6 0.000000 0.000000 0.000000 0.000000 0.000000 0.030707
#
#
# Mechanical properties :
#
#
# Convention : Reuss Voigt Hill
#
# Bulk Modulus (GPa) = 31.64329 34.73744 33.19036
# Shear Modulus (GPa) = 49.75090 22.53590 36.14340
#
# Velocity S-wave (km/s) = 4.49106 3.02264 3.82792
# Velocity P-wave (km/s) = 6.30249 5.12492 5.74396
#
# Compressibility (1/GPa) = 0.03160228
#
# Stress axis : x y z
#
# Youngs Moduli (GPa) = 106.56664 59.68380 96.36589
#
# Poissons Ratio (x) = 0.12465 0.10742
# Poissons Ratio (y) = 0.22256 -0.07193
# Poissons Ratio (z) = 0.11879 -0.04455
#
# Static dielectric constant tensor:
#      x y z
#    x 2.039530 0.000000 0.000000 
#    y 0.000000 2.115300 0.000000 
#    z 0.000000 0.000000 1.903840 
# 
# From -- ./inp_files/20500.got.cif
#   From: 2010.05.17/outbox.cif.g08.bks.cpg/sg56_11_cif.got.tgz:20500.got - 2010.06.03 13:42:01.
