data_PCOD9433902
_publ_section_title
;
Structure prediction by ZEFSAII (Michael W. Deem and Ramdas Pophale) SiO2 
 PCOD9433902
Probable space group: P C C N
;
_chemical_formula_sum "Si O2"
_cell_formula_units_Z 64
_cell_length_a 18.000000
_cell_length_b 15.000000
_cell_length_c 15.000000
_cell_angle_alpha 90.000000
_cell_angle_beta 90.000000
_cell_angle_gamma 90.000000
_cell_volume 4050.000000
_symmetry_space_group_name_H-M "P C C N"
_symmetry_group_IT_number 56
_symmetry_cell_setting 'orthorhombic'
loop_
_space_group_symop_operation_xyz
x,y,z
1/2-x,1/2-y,z
1/2+x,-y,1/2-z
-x,1/2+y,1/2-z
-x,-y,-z
1/2+x,1/2+y,-z
1/2-x,y,1/2+z
x,1/2-y,1/2+z
loop_
_atom_site_type_symbol
_atom_site_label
_atom_site_fract_x
_atom_site_fract_y
_atom_site_fract_z
Si Si1 0.172034 0.909974 0.164015
Si Si2 0.727437 0.352349 0.166239
Si Si3 0.487974 0.687334 0.402237
Si Si4 0.943881 0.152780 0.231077
Si Si5 0.715353 0.068960 0.980425
Si Si6 0.424460 0.442602 0.483189
Si Si7 0.388166 0.774335 0.079882
Si Si8 0.051879 0.503438 0.791206
O O1 0.225406 0.878624 0.245642
O O2 0.137533 0.824362 0.110918
O O3 0.110014 0.969448 0.213994
O O4 0.220956 0.959559 0.088970
O O5 0.750000 0.250000 0.146425
O O6 0.639499 0.358778 0.189436
O O7 0.752651 0.409043 0.079203
O O8 0.484811 0.772787 0.333619
O O9 0.559214 0.647126 0.458639
O O10 0.433659 0.714833 0.486005
O O11 0.465854 0.600259 0.340217
O O12 0.931853 0.189756 0.332388
O O13 0.987272 0.058302 0.246022
O O14 0.647232 0.998758 0.985070
O O15 0.681306 0.160194 0.938713
O O16 0.500000 0.500000 0.500000
O O17 0.419184 0.442661 0.374906
#
# Coordination Sequence:
#
# PCOD9433902 Si02
#       8
#     8   8   8   8   8   8   8   8
#     4  12  22  33  55  88 126 155 190 246 297 358
#     4  12  21  34  53  90 128 152 186 240 308 372
#     4  11  21  38  59  86 119 156 204 240 285 363
#     4  12  23  36  61  91 119 160 198 245 304 359
#     4  12  21  34  55  84 119 161 193 238 302 358
#     4  10  19  34  58  81 111 156 202 236 279 354
#     4  12  19  35  56  86 122 157 186 234 304 369
#     4  11  21  40  58  84 122 160 205 241 291 358
#
# _framework density 15.802469
#
# number of rings (size 3 to 8) (size 9 to 14) (size 15 to 20)
#    0.000    0.500    8.750    3.375    0.000    0.000 
#    0.000    2.500    0.000    0.750    0.000    1.750 
#    0.000    0.000    0.000    0.000    0.000    0.000 
#
# Total GULP energy -356513.414524 kJ/mol
# GULP energy per Si atom -5570.522102 kJ/mol
# Density = 1.576650 g / cm^3
# Si number density = 15.802469 Si / 1000 Ang^3
#
#
#
# Elastic Constant Matrix: (Units=GPa)
#
#
# Indices 1 2 3 4 5 6 
#
# 1 103.3883 51.7646 49.6015 0.0000 0.0000 0.0000
# 2 51.7646 71.3190 40.5799 0.0000 0.0000 0.0000
# 3 49.6015 40.5799 130.9516 0.0000 0.0000 0.0000
# 4 0.0000 0.0000 0.0000 31.3314 0.0000 0.0000
# 5 0.0000 0.0000 0.0000 0.0000 37.3900 0.0000
# 6 0.0000 0.0000 0.0000 0.0000 0.0000 34.4704
#
#
#
# Elastic Compliance Matrix: (Units=1/GPa)
#
#
# Indices 1 2 3 4 5 6 
#
# 1 0.016115 -0.009984 -0.003010 0.000000 0.000000 0.000000
# 2 -0.009984 0.023208 -0.003410 0.000000 0.000000 0.000000
# 3 -0.003010 -0.003410 0.009833 0.000000 0.000000 0.000000
# 4 0.000000 0.000000 0.000000 0.031917 0.000000 0.000000
# 5 0.000000 0.000000 0.000000 0.000000 0.026745 0.000000
# 6 0.000000 0.000000 0.000000 0.000000 0.000000 0.029010
#
#
# Mechanical properties :
#
#
# Convention : Reuss Voigt Hill
#
# Bulk Modulus (GPa) = 61.16861 65.50565 63.33713
# Shear Modulus (GPa) = 28.55712 31.55256 30.05484
#
# Velocity S-wave (km/s) = 4.25565 4.47328 4.36582
# Velocity P-wave (km/s) = 7.93345 8.25972 8.09823
#
# Compressibility (1/GPa) = 0.01634826
#
# Stress axis : x y z
#
# Youngs Moduli (GPa) = 62.05306 43.08774 101.69424
#
# Poissons Ratio (x) = 0.43019 0.30612
# Poissons Ratio (y) = 0.61953 0.34680
# Poissons Ratio (z) = 0.18679 0.14694
#
# Static dielectric constant tensor:
#      x y z
#    x 1.559010 0.000000 0.000000 
#    y 0.000000 1.536110 0.000000 
#    z 0.000000 0.000000 1.553780 
# 
# From -- ./inp_files/12908.got.cif
#   From: 2010.05.17/outbox.ucp.g08.bks.cvg/sg56_7_cif.got.tgz:12908.got - 2010.06.11 16:37:52.
