data_PCOD9433385
_publ_section_title
;
Structure prediction by ZEFSAII (Michael W. Deem and Ramdas Pophale) SiO2 
 PCOD9433385
Probable space group: P C C N
;
_chemical_formula_sum "Si O2"
_cell_formula_units_Z 56
_cell_length_a 22.288197
_cell_length_b 15.124810
_cell_length_c 7.559608
_cell_angle_alpha 90.000000
_cell_angle_beta 90.000000
_cell_angle_gamma 90.000000
_cell_volume 2548.379726
_symmetry_space_group_name_H-M "P C C N"
_symmetry_group_IT_number 56
_symmetry_cell_setting 'orthorhombic'
loop_
_space_group_symop_operation_xyz
x,y,z
1/2-x,1/2-y,z
1/2+x,-y,1/2-z
-x,1/2+y,1/2-z
-x,-y,-z
1/2+x,1/2+y,-z
1/2-x,y,1/2+z
x,1/2-y,1/2+z
loop_
_atom_site_type_symbol
_atom_site_label
_atom_site_fract_x
_atom_site_fract_y
_atom_site_fract_z
Si Si1 0.407257 0.819761 0.796956
Si Si2 0.315507 0.965806 0.880654
Si Si3 0.079527 0.625514 0.404832
Si Si4 0.868480 0.857773 0.660198
Si Si5 0.320776 0.493710 0.795198
Si Si6 0.499015 0.598643 0.575486
Si Si7 0.813036 0.700691 0.811839
O O1 0.346543 0.875257 0.824419
O O2 0.433569 0.848673 0.606943
O O3 0.395237 0.715766 0.815835
O O4 0.454391 0.847313 0.948841
O O5 0.244735 0.972551 0.851869
O O6 0.347338 0.046346 0.774335
O O7 0.329534 0.981914 0.087749
O O8 0.127474 0.546604 0.395110
O O9 0.024618 0.599901 0.277179
O O10 0.863536 0.775385 0.789328
O O11 0.820056 0.834377 0.509607
O O12 0.933740 0.865464 0.576729
O O13 0.321158 0.386721 0.807862
O O14 0.500000 0.500000 0.500000
O O15 0.750000 0.750000 0.792049
#
# Coordination Sequence:
#
# PCOD9433385 Si02
#       7
#     8   8   8   8   8   8   8
#     4  12  25  47  76 104 147 192 244 304 369 433
#     4  11  22  44  67 102 142 183 240 300 362 433
#     4  12  26  47  76 107 145 196 242 307 373 431
#     4  11  25  40  67 101 140 193 233 299 357 432
#     4  11  23  42  70 103 145 189 238 305 365 434
#     4  12  25  51  70 104 154 186 250 303 360 437
#     4  11  23  41  67 100 146 184 240 295 361 437
#
# _framework density 21.974748000000002
#
# number of rings (size 3 to 8) (size 9 to 14) (size 15 to 20)
#    0.000    0.571    5.714    2.143    4.000    2.286 
#    0.000    2.857    0.000    0.000    0.000    0.000 
#    0.000    0.000    0.000    0.000    0.000    0.000 
#
# Total GULP energy -313236.394408 kJ/mol
# GULP energy per Si atom -5593.507043 kJ/mol
# Density = 2.192473 g / cm^3
# Si number density = 21.974748 Si / 1000 Ang^3
#
#
#
# Elastic Constant Matrix: (Units=GPa)
#
#
# Indices 1 2 3 4 5 6 
#
# 1 90.0775 28.3111 8.7312 0.0000 0.0000 0.0000
# 2 28.3111 114.2088 -0.3708 0.0000 0.0000 0.0000
# 3 8.7312 -0.3708 80.6381 0.0000 0.0000 0.0000
# 4 0.0000 0.0000 0.0000 32.0221 0.0000 0.0000
# 5 0.0000 0.0000 0.0000 0.0000 32.1358 0.0000
# 6 0.0000 0.0000 0.0000 0.0000 0.0000 32.2989
#
#
#
# Elastic Compliance Matrix: (Units=1/GPa)
#
#
# Indices 1 2 3 4 5 6 
#
# 1 0.012181 -0.003024 -0.001333 0.000000 0.000000 0.000000
# 2 -0.003024 0.009507 0.000371 0.000000 0.000000 0.000000
# 3 -0.001333 0.000371 0.012547 0.000000 0.000000 0.000000
# 4 0.000000 0.000000 0.000000 0.031228 0.000000 0.000000
# 5 0.000000 0.000000 0.000000 0.000000 0.031118 0.000000
# 6 0.000000 0.000000 0.000000 0.000000 0.000000 0.030961
#
#
# Mechanical properties :
#
#
# Convention : Reuss Voigt Hill
#
# Bulk Modulus (GPa) = 38.07532 39.80750 38.94141
# Shear Modulus (GPa) = 34.65774 35.84155 35.24965
#
# Velocity S-wave (km/s) = 3.97566 4.04299 4.00946
# Velocity P-wave (km/s) = 6.19992 6.32050 6.26050
#
# Compressibility (1/GPa) = 0.02626373
#
# Stress axis : x y z
#
# Youngs Moduli (GPa) = 82.09411 105.18910 79.69968
#
# Poissons Ratio (x) = 0.31808 0.10623
# Poissons Ratio (y) = 0.24824 -0.02958
# Poissons Ratio (z) = 0.10942 -0.03904
#
# Static dielectric constant tensor:
#      x y z
#    x 1.762390 0.000000 0.000000 
#    y 0.000000 1.878940 0.000000 
#    z 0.000000 0.000000 1.853680 
# 
# From -- ./inp_files/4469.got.cif
#   From: 2010.05.17/outbox.cif.g08.bks.cpg/sg56_3_cif.got.tgz:4469.got - 2010.06.03 13:42:01.
