data_PCOD9433461
_publ_section_title
;
Structure prediction by ZEFSAII (Michael W. Deem and Ramdas Pophale) SiO2 
 PCOD9433461
Probable space group: P C C N
;
_chemical_formula_sum "Si O2"
_cell_formula_units_Z 60
_cell_length_a 13.292318
_cell_length_b 9.000734
_cell_length_c 19.696140
_cell_angle_alpha 90.000000
_cell_angle_beta 90.000000
_cell_angle_gamma 90.000000
_cell_volume 2356.458373
_symmetry_space_group_name_H-M "P C C N"
_symmetry_group_IT_number 56
_symmetry_cell_setting 'orthorhombic'
loop_
_space_group_symop_operation_xyz
x,y,z
1/2-x,1/2-y,z
1/2+x,-y,1/2-z
-x,1/2+y,1/2-z
-x,-y,-z
1/2+x,1/2+y,-z
1/2-x,y,1/2+z
x,1/2-y,1/2+z
loop_
_atom_site_type_symbol
_atom_site_label
_atom_site_fract_x
_atom_site_fract_y
_atom_site_fract_z
Si Si1 0.750000 0.250000 0.003129
Si Si2 0.303445 0.936621 0.877424
Si Si3 0.962756 0.201963 0.166176
Si Si4 0.799181 0.510914 0.913765
Si Si5 0.221079 0.921805 0.228799
Si Si6 0.126607 0.236897 0.400738
Si Si7 0.020272 0.401718 0.277818
Si Si8 0.598729 0.686166 0.953200
O O1 0.764840 0.115118 0.059205
O O2 0.816363 0.350026 0.950181
O O3 0.366312 0.793978 0.854789
O O4 0.264021 0.992350 0.804055
O O5 0.382603 0.059394 0.902151
O O6 0.032846 0.314767 0.207699
O O7 0.011692 0.140755 0.097964
O O8 0.940922 0.069002 0.217454
O O9 0.780832 0.492899 0.833568
O O10 0.693018 0.579794 0.939508
O O11 0.875019 0.642214 0.933792
O O12 0.250000 0.750000 0.230514
O O13 0.100725 0.922965 0.213555
O O14 0.250000 0.250000 0.403171
O O15 0.073493 0.306150 0.335923
O O16 0.079692 0.310532 0.467183
#
# Coordination Sequence:
#
# PCOD9433461 Si02
#       8
#     4   8   8   8   8   8   8   8
#     4  12  22  44  68 102 142 180 236 302 348 432
#     4  11  26  44  69 104 139 185 240 294 364 426
#     4  11  26  47  69 102 145 182 240 298 355 432
#     4  11  23  42  70 100 136 179 235 287 351 425
#     4  11  23  44  71 103 135 182 240 288 347 426
#     4  12  26  46  72 103 144 187 239 295 361 429
#     4  11  26  46  70 104 143 187 238 298 358 423
#     4  11  24  45  67  99 140 180 233 289 353 426
#
# _framework density 25.461939999999998
#
# number of rings (size 3 to 8) (size 9 to 14) (size 15 to 20)
#    0.000    0.800    5.333    1.600    3.733    6.400 
#    0.000    0.000    0.000    0.000    0.000    0.000 
#    0.000    0.000    0.000    0.000    0.000    0.000 
#
# Total GULP energy -335266.701474 kJ/mol
# GULP energy per Si atom -5587.778358 kJ/mol
# Density = 2.540399 g / cm^3
# Si number density = 25.461940 Si / 1000 Ang^3
#
#
#
# Elastic Constant Matrix: (Units=GPa)
#
#
# Indices 1 2 3 4 5 6 
#
# 1 57.7064 11.7503 32.2278 0.0000 0.0000 0.0000
# 2 11.7503 104.3962 11.9392 0.0000 0.0000 0.0000
# 3 32.2278 11.9392 175.6985 0.0000 0.0000 0.0000
# 4 0.0000 0.0000 0.0000 42.8118 0.0000 0.0000
# 5 0.0000 0.0000 0.0000 0.0000 14.9174 0.0000
# 6 0.0000 0.0000 0.0000 0.0000 0.0000 32.8103
#
#
#
# Elastic Compliance Matrix: (Units=1/GPa)
#
#
# Indices 1 2 3 4 5 6 
#
# 1 0.019642 -0.001813 -0.003480 0.000000 0.000000 0.000000
# 2 -0.001813 0.009821 -0.000335 0.000000 0.000000 0.000000
# 3 -0.003480 -0.000335 0.006353 0.000000 0.000000 0.000000
# 4 0.000000 0.000000 0.000000 0.023358 0.000000 0.000000
# 5 0.000000 0.000000 0.000000 0.000000 0.067036 0.000000
# 6 0.000000 0.000000 0.000000 0.000000 0.000000 0.030478
#
#
# Mechanical properties :
#
#
# Convention : Reuss Voigt Hill
#
# Bulk Modulus (GPa) = 40.71528 49.95951 45.33739
# Shear Modulus (GPa) = 28.38831 36.90015 32.64423
#
# Velocity S-wave (km/s) = 3.34268 3.81100 3.58450
# Velocity P-wave (km/s) = 5.56088 6.24731 5.91406
#
# Compressibility (1/GPa) = 0.02456081
#
# Stress axis : x y z
#
# Youngs Moduli (GPa) = 50.91258 101.82025 157.41660
#
# Poissons Ratio (x) = 0.18458 0.54774
# Poissons Ratio (y) = 0.09229 0.05271
# Poissons Ratio (z) = 0.17715 0.03410
#
# Static dielectric constant tensor:
#      x y z
#    x 2.059190 0.000000 0.000000 
#    y 0.000000 2.057020 0.000000 
#    z 0.000000 0.000000 2.015370 
# 
# From -- ./inp_files/16670.got.cif
#   From: 2010.05.17/outbox.cif.g08.bks.cpg/sg56_9_cif.got.tgz:16670.got - 2010.06.03 13:42:01.
