data_PCOD9433529
_publ_section_title
;
Structure prediction by ZEFSAII (Michael W. Deem and Ramdas Pophale) SiO2 
 PCOD9433529
Probable space group: P C C N
;
_chemical_formula_sum "Si O2"
_cell_formula_units_Z 40
_cell_length_a 28.490725
_cell_length_b 5.083250
_cell_length_c 10.013249
_cell_angle_alpha 90.000000
_cell_angle_beta 90.000000
_cell_angle_gamma 90.000000
_cell_volume 1450.173571
_symmetry_space_group_name_H-M "P C C N"
_symmetry_group_IT_number 56
_symmetry_cell_setting 'orthorhombic'
loop_
_space_group_symop_operation_xyz
x,y,z
1/2-x,1/2-y,z
1/2+x,-y,1/2-z
-x,1/2+y,1/2-z
-x,-y,-z
1/2+x,1/2+y,-z
1/2-x,y,1/2+z
x,1/2-y,1/2+z
loop_
_atom_site_type_symbol
_atom_site_label
_atom_site_fract_x
_atom_site_fract_y
_atom_site_fract_z
Si Si1 0.428938 0.020378 0.652714
Si Si2 0.199293 0.816334 0.850083
Si Si3 0.826787 0.805648 0.814444
Si Si4 0.040262 0.347644 0.920631
Si Si5 0.130087 0.912221 0.536586
O O1 0.384008 0.205161 0.683528
O O2 0.449946 0.081756 0.505575
O O3 0.403412 0.736789 0.646112
O O4 0.466836 0.109715 0.762669
O O5 0.250000 0.750000 0.907372
O O6 0.188930 0.592601 0.735301
O O7 0.197687 0.099540 0.783020
O O8 0.158313 0.815685 0.959256
O O9 0.826908 0.623346 0.947720
O O10 0.090971 0.481814 0.937456
O O11 0.000000 0.500000 0.000000
#
# Coordination Sequence:
#
# PCOD9433529 Si02
#       5
#     8   8   8   8   8
#     4  11  24  49  76 109 158 206 259 321 400 470
#     4  12  26  46  72 108 150 196 260 320 389 465
#     4  11  23  47  72 104 147 199 246 314 384 462
#     4  11  26  44  75 115 153 209 263 329 393 483
#     4  11  24  46  79 102 156 205 258 320 401 470
#
# _framework density 27.582908
#
# number of rings (size 3 to 8) (size 9 to 14) (size 15 to 20)
#    0.000    0.800    4.000    1.800    5.600    3.200 
#    3.600    0.000    0.000    0.000    0.000    0.000 
#    0.000    0.000    0.000    0.000    0.000    0.000 
#
# Total GULP energy -222811.703033 kJ/mol
# GULP energy per Si atom -5570.292576 kJ/mol
# Density = 2.752013 g / cm^3
# Si number density = 27.582908 Si / 1000 Ang^3
#
#
#
# Elastic Constant Matrix: (Units=GPa)
#
#
# Indices 1 2 3 4 5 6 
#
# 1 92.7481 -20.7588 13.4101 0.0000 0.0000 0.0000
# 2 -20.7588 126.6615 33.8400 0.0000 0.0000 0.0000
# 3 13.4101 33.8400 88.3941 0.0000 0.0000 0.0000
# 4 0.0000 0.0000 0.0000 25.1735 0.0000 0.0000
# 5 0.0000 0.0000 0.0000 0.0000 26.7538 0.0000
# 6 0.0000 0.0000 0.0000 0.0000 0.0000 49.0106
#
#
#
# Elastic Compliance Matrix: (Units=1/GPa)
#
#
# Indices 1 2 3 4 5 6 
#
# 1 0.011790 0.002685 -0.002816 0.000000 0.000000 0.000000
# 2 0.002685 0.009406 -0.004008 0.000000 0.000000 0.000000
# 3 -0.002816 -0.004008 0.013275 0.000000 0.000000 0.000000
# 4 0.000000 0.000000 0.000000 0.039724 0.000000 0.000000
# 5 0.000000 0.000000 0.000000 0.000000 0.037378 0.000000
# 6 0.000000 0.000000 0.000000 0.000000 0.000000 0.020404
#
#
# Mechanical properties :
#
#
# Convention : Reuss Voigt Hill
#
# Bulk Modulus (GPa) = 38.18121 40.08738 39.13430
# Shear Modulus (GPa) = 33.56005 38.94173 36.25089
#
# Velocity S-wave (km/s) = 3.49190 3.76148 3.62919
# Velocity P-wave (km/s) = 5.48910 5.78186 5.63738
#
# Compressibility (1/GPa) = 0.02619089
#
# Stress axis : x y z
#
# Youngs Moduli (GPa) = 84.81758 106.31594 75.33128
#
# Poissons Ratio (x) = -0.28543 0.21217
# Poissons Ratio (y) = -0.22771 0.30194
# Poissons Ratio (z) = 0.23888 0.42613
#
# Static dielectric constant tensor:
#      x y z
#    x 2.001960 0.000000 0.000000 
#    y 0.000000 2.962400 0.000000 
#    z 0.000000 0.000000 2.490000 
# 
# From -- ./inp_files/9127.got.cif
#   From: 2010.05.17/outbox.cif.g08.bks.cpg/sg56_5_cif.got.tgz:9127.got - 2010.06.03 13:42:01.
