data_PCOD9433851
_publ_section_title
;
Structure prediction by ZEFSAII (Michael W. Deem and Ramdas Pophale) SiO2 
 PCOD9433851
Probable space group: P C C N
;
_chemical_formula_sum "Si O2"
_cell_formula_units_Z 20
_cell_length_a 5.400512
_cell_length_b 8.112998
_cell_length_c 18.553832
_cell_angle_alpha 90.000000
_cell_angle_beta 90.000000
_cell_angle_gamma 90.000000
_cell_volume 812.923960
_symmetry_space_group_name_H-M "P C C N"
_symmetry_group_IT_number 56
_symmetry_cell_setting 'orthorhombic'
loop_
_space_group_symop_operation_xyz
x,y,z
1/2-x,1/2-y,z
1/2+x,-y,1/2-z
-x,1/2+y,1/2-z
-x,-y,-z
1/2+x,1/2+y,-z
1/2-x,y,1/2+z
x,1/2-y,1/2+z
loop_
_atom_site_type_symbol
_atom_site_label
_atom_site_fract_x
_atom_site_fract_y
_atom_site_fract_z
Si Si1 0.750000 0.250000 0.290006
Si Si2 0.750302 0.069909 0.530833
Si Si3 0.561550 0.607105 0.336779
O O1 0.674840 0.422402 0.329232
O O2 0.527243 0.186577 0.238385
O O3 0.750000 0.250000 0.500769
O O4 0.812100 0.078492 0.615724
O O5 0.500000 0.000000 0.500000
O O6 0.000000 0.000000 0.500000
O O7 0.750000 0.750000 0.368228
#
# Coordination Sequence:
#
# PCOD9433851 Si02
#       3
#     4   8   8
#     4  12  26  48  84 120 164 214 270 342 432 494
#     4  12  28  53  81 114 161 218 276 339 406 487
#     4  12  26  50  82 121 167 213 277 349 417 503
#
# _framework density 24.602547000000001
#
# number of rings (size 3 to 8) (size 9 to 14) (size 15 to 20)
#    0.000    0.000    6.000    3.600    2.800    0.000 
#   14.400    0.000    0.000    0.000    0.000    0.000 
#    0.000    0.000    0.000    0.000    0.000    0.000 
#
# Total GULP energy -111642.279409 kJ/mol
# GULP energy per Si atom -5582.113970 kJ/mol
# Density = 2.454655 g / cm^3
# Si number density = 24.602547 Si / 1000 Ang^3
#
#
#
# Elastic Constant Matrix: (Units=GPa)
#
#
# Indices 1 2 3 4 5 6 
#
# 1 209.2768 117.8916 61.9940 0.0000 0.0000 0.0000
# 2 117.8916 264.6705 51.6096 0.0000 0.0000 0.0000
# 3 61.9940 51.6096 72.4583 0.0000 0.0000 0.0000
# 4 0.0000 0.0000 0.0000 33.4936 0.0000 0.0000
# 5 0.0000 0.0000 0.0000 0.0000 62.9691 0.0000
# 6 0.0000 0.0000 0.0000 0.0000 0.0000 71.4166
#
#
#
# Elastic Compliance Matrix: (Units=1/GPa)
#
#
# Indices 1 2 3 4 5 6 
#
# 1 0.007554 -0.002444 -0.004722 0.000000 0.000000 0.000000
# 2 -0.002444 0.005178 -0.001597 0.000000 0.000000 0.000000
# 3 -0.004722 -0.001597 0.018979 0.000000 0.000000 0.000000
# 4 0.000000 0.000000 0.000000 0.029856 0.000000 0.000000
# 5 0.000000 0.000000 0.000000 0.000000 0.015881 0.000000
# 6 0.000000 0.000000 0.000000 0.000000 0.000000 0.014002
#
#
# Mechanical properties :
#
#
# Convention : Reuss Voigt Hill
#
# Bulk Modulus (GPa) = 70.50098 112.15512 91.32805
# Shear Modulus (GPa) = 43.97287 54.56988 49.27137
#
# Velocity S-wave (km/s) = 4.23227 4.71474 4.48000
# Velocity P-wave (km/s) = 7.25265 8.67894 7.99766
#
# Compressibility (1/GPa) = 0.01418420
#
# Stress axis : x y z
#
# Youngs Moduli (GPa) = 132.38043 193.11137 52.68941
#
# Poissons Ratio (x) = 0.47195 0.24882
# Poissons Ratio (y) = 0.32353 0.08417
# Poissons Ratio (z) = 0.62514 0.30847
#
# Static dielectric constant tensor:
#      x y z
#    x 1.916690 0.000000 0.000000 
#    y 0.000000 2.015120 0.000000 
#    z 0.000000 0.000000 2.130890 
# 
# From -- ./inp_files/13515.got.cif
#   From: 2010.05.17/outbox.cif.g08.bks.cpg/sg56_7_cif.got.tgz:13515.got - 2010.06.03 13:42:01.
