data_PCOD9433590
_publ_section_title
;
Structure prediction by ZEFSAII (Michael W. Deem and Ramdas Pophale) SiO2 
 PCOD9433590
Probable space group: P C C N
;
_chemical_formula_sum "Si O2"
_cell_formula_units_Z 40
_cell_length_a 14.353630
_cell_length_b 7.194932
_cell_length_c 14.650825
_cell_angle_alpha 90.000000
_cell_angle_beta 90.000000
_cell_angle_gamma 90.000000
_cell_volume 1513.040390
_symmetry_space_group_name_H-M "P C C N"
_symmetry_group_IT_number 56
_symmetry_cell_setting 'orthorhombic'
loop_
_space_group_symop_operation_xyz
x,y,z
1/2-x,1/2-y,z
1/2+x,-y,1/2-z
-x,1/2+y,1/2-z
-x,-y,-z
1/2+x,1/2+y,-z
1/2-x,y,1/2+z
x,1/2-y,1/2+z
loop_
_atom_site_type_symbol
_atom_site_label
_atom_site_fract_x
_atom_site_fract_y
_atom_site_fract_z
Si Si1 0.380929 0.210774 0.424121
Si Si2 0.451560 0.629704 0.806324
Si Si3 0.330136 0.880436 0.915719
Si Si4 0.645388 0.792892 0.374781
Si Si5 0.417580 0.875210 0.099590
O O1 0.320435 0.397291 0.403173
O O2 0.351013 0.123703 0.521992
O O3 0.483524 0.302005 0.435668
O O4 0.399960 0.051430 0.349022
O O5 0.421260 0.806524 0.865219
O O6 0.564353 0.608428 0.815665
O O7 0.417273 0.676480 0.705459
O O8 0.250000 0.750000 0.876437
O O9 0.344985 0.823541 0.021076
O O10 0.750000 0.750000 0.339225
O O11 0.604060 0.591488 0.393322
#
# Coordination Sequence:
#
# PCOD9433590 Si02
#       5
#     8   8   8   8   8
#     4  11  24  45  77 105 146 203 260 307 395 468
#     4  12  25  47  78 112 153 211 251 325 396 461
#     4  11  26  48  76 108 158 203 261 322 384 467
#     4  11  24  47  76 114 152 206 262 319 390 464
#     4  11  24  49  73 106 156 198 259 321 388 469
#
# _framework density 26.436836
#
# number of rings (size 3 to 8) (size 9 to 14) (size 15 to 20)
#    0.000    0.800    4.000    3.000    5.600    0.800 
#    7.200    1.000    0.000    0.000    0.000    0.000 
#    0.000    0.000    0.000    0.000    0.000    0.000 
#
# Total GULP energy -223567.268316 kJ/mol
# GULP energy per Si atom -5589.181708 kJ/mol
# Density = 2.637666 g / cm^3
# Si number density = 26.436836 Si / 1000 Ang^3
#
#
#
# Elastic Constant Matrix: (Units=GPa)
#
#
# Indices 1 2 3 4 5 6 
#
# 1 115.2337 25.2620 20.2792 0.0000 0.0000 0.0000
# 2 25.2620 136.2657 26.3990 0.0000 0.0000 0.0000
# 3 20.2792 26.3990 149.1519 0.0000 0.0000 0.0000
# 4 0.0000 0.0000 0.0000 37.2300 0.0000 0.0000
# 5 0.0000 0.0000 0.0000 0.0000 51.2788 0.0000
# 6 0.0000 0.0000 0.0000 0.0000 0.0000 30.3616
#
#
#
# Elastic Compliance Matrix: (Units=1/GPa)
#
#
# Indices 1 2 3 4 5 6 
#
# 1 0.009182 -0.001512 -0.000981 0.000000 0.000000 0.000000
# 2 -0.001512 0.007848 -0.001183 0.000000 0.000000 0.000000
# 3 -0.000981 -0.001183 0.007047 0.000000 0.000000 0.000000
# 4 0.000000 0.000000 0.000000 0.026860 0.000000 0.000000
# 5 0.000000 0.000000 0.000000 0.000000 0.019501 0.000000
# 6 0.000000 0.000000 0.000000 0.000000 0.000000 0.032936
#
#
# Mechanical properties :
#
#
# Convention : Reuss Voigt Hill
#
# Bulk Modulus (GPa) = 59.79160 60.50351 60.14755
# Shear Modulus (GPa) = 42.99103 45.68815 44.33959
#
# Velocity S-wave (km/s) = 4.03697 4.16167 4.09979
# Velocity P-wave (km/s) = 6.66298 6.78443 6.72398
#
# Compressibility (1/GPa) = 0.01672476
#
# Stress axis : x y z
#
# Youngs Moduli (GPa) = 108.90710 127.41724 141.89642
#
# Poissons Ratio (x) = 0.19269 0.13917
# Poissons Ratio (y) = 0.16469 0.16793
# Poissons Ratio (z) = 0.10681 0.15080
#
# Static dielectric constant tensor:
#      x y z
#    x 2.200680 0.000000 0.000000 
#    y 0.000000 2.081380 0.000000 
#    z 0.000000 0.000000 2.165160 
# 
# From -- ./inp_files/16037.got.cif
#   From: 2010.05.17/outbox.cif.g08.bks.cpg/sg56_9_cif.got.tgz:16037.got - 2010.06.03 13:42:01.
