data_PCOD9433055
_publ_section_title
;
Structure prediction by ZEFSAII (Michael W. Deem and Ramdas Pophale) SiO2 
 PCOD9433055
Probable space group: P C C N
;
_chemical_formula_sum "Si O2"
_cell_formula_units_Z 60
_cell_length_a 12.030614
_cell_length_b 26.019145
_cell_length_c 9.450944
_cell_angle_alpha 90.000000
_cell_angle_beta 90.000000
_cell_angle_gamma 90.000000
_cell_volume 2958.393938
_symmetry_space_group_name_H-M "P C C N"
_symmetry_group_IT_number 56
_symmetry_cell_setting 'orthorhombic'
loop_
_space_group_symop_operation_xyz
x,y,z
1/2-x,1/2-y,z
1/2+x,-y,1/2-z
-x,1/2+y,1/2-z
-x,-y,-z
1/2+x,1/2+y,-z
1/2-x,y,1/2+z
x,1/2-y,1/2+z
loop_
_atom_site_type_symbol
_atom_site_label
_atom_site_fract_x
_atom_site_fract_y
_atom_site_fract_z
Si Si1 0.538105 0.050527 0.912873
Si Si2 0.184119 0.464134 0.796098
Si Si3 0.517362 0.438555 0.974887
Si Si4 0.282962 0.572899 0.817472
Si Si5 0.055180 0.884415 0.315027
Si Si6 0.750000 0.750000 0.556471
Si Si7 0.719223 0.905040 0.453302
Si Si8 0.647008 0.687650 0.314936
O O1 0.445857 0.047294 0.790050
O O2 0.651347 0.061670 0.828559
O O3 0.524114 0.094628 0.029673
O O4 0.500000 0.000000 0.000000
O O5 0.215989 0.520136 0.849409
O O6 0.240135 0.454438 0.646335
O O7 0.228049 0.420049 0.899158
O O8 0.626840 0.421280 0.058997
O O9 0.411957 0.404727 0.022388
O O10 0.500000 0.500000 0.000000
O O11 0.527618 0.425910 0.808136
O O12 0.189708 0.617098 0.809930
O O13 0.975994 0.835452 0.292503
O O14 0.658542 0.728044 0.445287
O O15 0.804699 0.709562 0.667069
O O16 0.773178 0.857498 0.374557
#
# Coordination Sequence:
#
# PCOD9433055 Si02
#       8
#     8   8   8   8   8   4   8   8
#     4  12  23  39  56  88 134 191 232 266 302 364
#     4  12  23  35  56  87 134 186 228 266 298 365
#     4  12  23  39  56  89 140 193 232 267 303 366
#     4  12  25  39  56  88 134 195 234 267 308 360
#     4  12  25  39  62  92 129 171 228 273 329 399
#     4  10  24  48  74 102 136 152 206 294 390 436
#     4  12  23  38  63  93 133 173 226 271 320 389
#     4  11  24  44  72 106 126 164 211 287 363 427
#
# _framework density 20.281274
#
# number of rings (size 3 to 8) (size 9 to 14) (size 15 to 20)
#    0.000    0.267    5.333    5.600    0.000    0.000 
#    0.000    0.000    0.000    0.000    0.000   31.733 
#    0.000    0.000    0.000    0.000    0.000    0.000 
#
# Total GULP energy -334879.633047 kJ/mol
# GULP energy per Si atom -5581.327217 kJ/mol
# Density = 2.023511 g / cm^3
# Si number density = 20.281274 Si / 1000 Ang^3
#
#
#
# Elastic Constant Matrix: (Units=GPa)
#
#
# Indices 1 2 3 4 5 6 
#
# 1 139.3855 38.2800 29.7378 0.0000 0.0000 0.0000
# 2 38.2800 47.5716 25.3724 0.0000 0.0000 0.0000
# 3 29.7378 25.3724 115.7557 0.0000 0.0000 0.0000
# 4 0.0000 0.0000 0.0000 28.5778 0.0000 0.0000
# 5 0.0000 0.0000 0.0000 0.0000 36.0915 0.0000
# 6 0.0000 0.0000 0.0000 0.0000 0.0000 29.8301
#
#
#
# Elastic Compliance Matrix: (Units=1/GPa)
#
#
# Indices 1 2 3 4 5 6 
#
# 1 0.009282 -0.007018 -0.000846 0.000000 0.000000 0.000000
# 2 -0.007018 0.029109 -0.004578 0.000000 0.000000 0.000000
# 3 -0.000846 -0.004578 0.009860 0.000000 0.000000 0.000000
# 4 0.000000 0.000000 0.000000 0.034992 0.000000 0.000000
# 5 0.000000 0.000000 0.000000 0.000000 0.027707 0.000000
# 6 0.000000 0.000000 0.000000 0.000000 0.000000 0.033523
#
#
# Mechanical properties :
#
#
# Convention : Reuss Voigt Hill
#
# Bulk Modulus (GPa) = 42.79391 54.38812 48.59102
# Shear Modulus (GPa) = 28.22513 32.85473 30.53993
#
# Velocity S-wave (km/s) = 3.73458 4.02923 3.88470
# Velocity P-wave (km/s) = 6.30413 6.96573 6.64317
#
# Compressibility (1/GPa) = 0.02336781
#
# Stress axis : x y z
#
# Youngs Moduli (GPa) = 107.73247 34.35305 101.42315
#
# Poissons Ratio (x) = 0.24108 0.08584
# Poissons Ratio (y) = 0.75605 0.46427
# Poissons Ratio (z) = 0.09118 0.15725
#
# Static dielectric constant tensor:
#      x y z
#    x 1.789370 0.000000 0.000000 
#    y 0.000000 1.730690 0.000000 
#    z 0.000000 0.000000 1.785640 
# 
# From -- ./inp_files/2893.got.cif
#   From: 2010.05.17/outbox.cif.g08.bks.cpg/sg56_2_cif.got.tgz:2893.got - 2010.06.03 13:42:01.
