data_PCOD9433919
_publ_section_title
;
Structure prediction by ZEFSAII (Michael W. Deem and Ramdas Pophale) SiO2 
 PCOD9433919
Probable space group: P C C N
;
_chemical_formula_sum "Si O2"
_cell_formula_units_Z 48
_cell_length_a 15.000000
_cell_length_b 9.000000
_cell_length_c 18.000000
_cell_angle_alpha 90.000000
_cell_angle_beta 90.000000
_cell_angle_gamma 90.000000
_cell_volume 2430.000000
_symmetry_space_group_name_H-M "P C C N"
_symmetry_group_IT_number 56
_symmetry_cell_setting 'orthorhombic'
loop_
_space_group_symop_operation_xyz
x,y,z
1/2-x,1/2-y,z
1/2+x,-y,1/2-z
-x,1/2+y,1/2-z
-x,-y,-z
1/2+x,1/2+y,-z
1/2-x,y,1/2+z
x,1/2-y,1/2+z
loop_
_atom_site_type_symbol
_atom_site_label
_atom_site_fract_x
_atom_site_fract_y
_atom_site_fract_z
Si Si1 0.033961 0.837849 0.778673
Si Si2 0.172210 0.144472 0.576611
Si Si3 0.002319 0.861773 0.942981
Si Si4 0.279641 0.915793 0.202442
Si Si5 0.892924 0.482913 0.199246
Si Si6 0.907479 0.430560 0.029623
O O1 0.125416 0.887942 0.740881
O O2 0.044367 0.661389 0.788012
O O3 0.024636 0.912401 0.859577
O O4 0.947753 0.879940 0.731449
O O5 0.250000 0.250000 0.550222
O O6 0.084983 0.253364 0.570414
O O7 0.202386 0.062351 0.652381
O O8 0.162397 0.000101 0.525496
O O9 0.078330 0.745502 0.968958
O O10 0.000000 0.000000 0.000000
O O11 0.250000 0.750000 0.170565
O O12 0.200038 0.955731 0.259365
O O13 0.884709 0.488750 0.111144
O O14 0.000000 0.500000 0.000000
#
# Coordination Sequence:
#
# PCOD9433919 Si02
#       6
#     8   8   8   8   8   8
#     4  10  20  37  60  85 120 159 198 253 311 365
#     4  11  23  40  59  88 123 159 205 258 310 373
#     4  10  22  39  61  91 123 163 208 251 309 382
#     4  10  22  39  61  88 117 158 209 257 317 378
#     4  10  21  38  61  89 119 157 205 256 309 374
#     4   9  20  39  60  85 121 160 202 251 304 364
#
# _framework density 19.753086
#
# number of rings (size 3 to 8) (size 9 to 14) (size 15 to 20)
#    0.000    2.000    0.000    4.000    0.000    8.000 
#    0.000    6.667    0.000    0.000    0.000    0.000 
#    0.000    0.000    0.000    0.000    0.000    0.000 
#
# Total GULP energy -267340.202509 kJ/mol
# GULP energy per Si atom -5569.587552 kJ/mol
# Density = 1.970813 g / cm^3
# Si number density = 19.753086 Si / 1000 Ang^3
#
#
#
# Elastic Constant Matrix: (Units=GPa)
#
#
# Indices 1 2 3 4 5 6 
#
# 1 47.4781 1.8135 -10.8218 0.0000 0.0000 0.0000
# 2 1.8135 18.4510 7.7844 0.0000 0.0000 0.0000
# 3 -10.8218 7.7844 36.4806 0.0000 0.0000 0.0000
# 4 0.0000 0.0000 0.0000 27.8373 0.0000 0.0000
# 5 0.0000 0.0000 0.0000 0.0000 24.3460 0.0000
# 6 0.0000 0.0000 0.0000 0.0000 0.0000 23.9716
#
#
#
# Elastic Compliance Matrix: (Units=1/GPa)
#
#
# Indices 1 2 3 4 5 6 
#
# 1 0.023118 -0.005677 0.008069 0.000000 0.000000 0.000000
# 2 -0.005677 0.060953 -0.014690 0.000000 0.000000 0.000000
# 3 0.008069 -0.014690 0.032940 0.000000 0.000000 0.000000
# 4 0.000000 0.000000 0.000000 0.035923 0.000000 0.000000
# 5 0.000000 0.000000 0.000000 0.000000 0.041075 0.000000
# 6 0.000000 0.000000 0.000000 0.000000 0.000000 0.041716
#
#
# Mechanical properties :
#
#
# Convention : Reuss Voigt Hill
#
# Bulk Modulus (GPa) = 10.82059 11.10687 10.96373
# Shear Modulus (GPa) = 17.17467 22.13989 19.65728
#
# Velocity S-wave (km/s) = 2.95187 3.35151 3.15802
# Velocity P-wave (km/s) = 4.13617 4.54004 4.34280
#
# Compressibility (1/GPa) = 0.09241642
#
# Stress axis : x y z
#
# Youngs Moduli (GPa) = 43.25552 16.40602 30.35804
#
# Poissons Ratio (x) = 0.09313 -0.24497
# Poissons Ratio (y) = 0.24554 0.44597
# Poissons Ratio (z) = -0.34904 0.24101
#
# Static dielectric constant tensor:
#      x y z
#    x 1.703460 0.000000 0.000000 
#    y 0.000000 1.714920 0.000000 
#    z 0.000000 0.000000 1.886850 
# 
# From -- ./inp_files/16154.got.cif
#   From: 2010.05.17/outbox.ucp.g08.bks.cvg/sg56_9_cif.got.tgz:16154.got - 2010.06.11 16:37:52.
