data_PCOD9433714
_publ_section_title
;
Structure prediction by ZEFSAII (Michael W. Deem and Ramdas Pophale) SiO2 
 PCOD9433714
Probable space group: P C C N
;
_chemical_formula_sum "Si O2"
_cell_formula_units_Z 48
_cell_length_a 9.170676
_cell_length_b 8.348566
_cell_length_c 27.488780
_cell_angle_alpha 90.000000
_cell_angle_beta 90.000000
_cell_angle_gamma 90.000000
_cell_volume 2104.595805
_symmetry_space_group_name_H-M "P C C N"
_symmetry_group_IT_number 56
_symmetry_cell_setting 'orthorhombic'
loop_
_space_group_symop_operation_xyz
x,y,z
1/2-x,1/2-y,z
1/2+x,-y,1/2-z
-x,1/2+y,1/2-z
-x,-y,-z
1/2+x,1/2+y,-z
1/2-x,y,1/2+z
x,1/2-y,1/2+z
loop_
_atom_site_type_symbol
_atom_site_label
_atom_site_fract_x
_atom_site_fract_y
_atom_site_fract_z
Si Si1 0.159894 0.405884 0.345639
Si Si2 0.024485 0.895737 0.248096
Si Si3 0.814709 0.476098 0.927144
Si Si4 0.250000 0.750000 0.312720
Si Si5 0.508158 0.167322 0.437068
Si Si6 0.250000 0.250000 0.506290
Si Si7 0.723238 0.940150 0.814884
O O1 0.250000 0.250000 0.361339
O O2 0.237946 0.579225 0.340290
O O3 0.092058 0.357266 0.293591
O O4 0.038005 0.417689 0.386960
O O5 0.107984 0.759160 0.278409
O O6 0.930905 0.981689 0.289898
O O7 0.151513 0.984955 0.218732
O O8 0.947786 0.352946 0.930004
O O9 0.664498 0.407805 0.950333
O O10 0.840994 0.635333 0.957706
O O11 0.782791 0.503549 0.870296
O O12 0.370358 0.162648 0.472758
O O13 0.750000 0.750000 0.814536
#
# Coordination Sequence:
#
# PCOD9433714 Si02
#       7
#     8   8   8   4   8   4   8
#     4  12  27  48  72 111 155 196 256 313 375 458
#     4  12  27  44  68 106 151 198 255 301 367 455
#     4  11  26  47  76 109 147 192 253 314 379 461
#     4  12  30  44  72 112 154 206 250 310 384 442
#     4  11  26  47  75 109 146 192 245 315 389 444
#     4  12  24  52  78 106 144 194 252 320 390 456
#     4  12  26  46  71 107 152 201 251 306 374 451
#
# _framework density 22.807230000000001
#
# number of rings (size 3 to 8) (size 9 to 14) (size 15 to 20)
#    0.000    0.333    5.000    2.500    7.000    0.000 
#    0.000    1.667    0.000    0.000    0.000    0.000 
#    0.000    0.000    0.000    0.000    0.000    0.000 
#
# Total GULP energy -268259.950615 kJ/mol
# GULP energy per Si atom -5588.748971 kJ/mol
# Density = 2.275532 g / cm^3
# Si number density = 22.807230 Si / 1000 Ang^3
#
#
#
# Elastic Constant Matrix: (Units=GPa)
#
#
# Indices 1 2 3 4 5 6 
#
# 1 80.1774 2.3637 37.2641 0.0000 0.0000 0.0000
# 2 2.3637 94.0425 29.0910 0.0000 0.0000 0.0000
# 3 37.2641 29.0910 120.8425 0.0000 0.0000 0.0000
# 4 0.0000 0.0000 0.0000 31.0591 0.0000 0.0000
# 5 0.0000 0.0000 0.0000 0.0000 11.3533 0.0000
# 6 0.0000 0.0000 0.0000 0.0000 0.0000 38.3242
#
#
#
# Elastic Compliance Matrix: (Units=1/GPa)
#
#
# Indices 1 2 3 4 5 6 
#
# 1 0.014666 0.001113 -0.004791 0.000000 0.000000 0.000000
# 2 0.001113 0.011574 -0.003129 0.000000 0.000000 0.000000
# 3 -0.004791 -0.003129 0.010506 0.000000 0.000000 0.000000
# 4 0.000000 0.000000 0.000000 0.032197 0.000000 0.000000
# 5 0.000000 0.000000 0.000000 0.000000 0.088080 0.000000
# 6 0.000000 0.000000 0.000000 0.000000 0.000000 0.026093
#
#
# Mechanical properties :
#
#
# Convention : Reuss Voigt Hill
#
# Bulk Modulus (GPa) = 43.23017 48.05557 45.64287
# Shear Modulus (GPa) = 24.45706 31.23688 27.84697
#
# Velocity S-wave (km/s) = 3.27821 3.70483 3.49803
# Velocity P-wave (km/s) = 5.77275 6.27830 6.03083
#
# Compressibility (1/GPa) = 0.02313199
#
# Stress axis : x y z
#
# Youngs Moduli (GPa) = 68.18473 86.40376 95.18490
#
# Poissons Ratio (x) = -0.09619 0.45599
# Poissons Ratio (y) = -0.07591 0.29788
# Poissons Ratio (z) = 0.32664 0.27040
#
# Static dielectric constant tensor:
#      x y z
#    x 1.862450 0.000000 0.000000 
#    y 0.000000 1.938330 0.000000 
#    z 0.000000 0.000000 1.791350 
# 
# From -- ./inp_files/23291.got.cif
#   From: 2010.05.17/outbox.cif.g08.bks.cpg/sg56_12_cif.got.tgz:23291.got - 2010.06.03 13:42:01.
