data_PCOD9433395
_publ_section_title
;
Structure prediction by ZEFSAII (Michael W. Deem and Ramdas Pophale) SiO2 
 PCOD9433395
Probable space group: P C C N
;
_chemical_formula_sum "Si O2"
_cell_formula_units_Z 60
_cell_length_a 20.678979
_cell_length_b 7.455156
_cell_length_c 17.294562
_cell_angle_alpha 90.000000
_cell_angle_beta 90.000000
_cell_angle_gamma 90.000000
_cell_volume 2666.216399
_symmetry_space_group_name_H-M "P C C N"
_symmetry_group_IT_number 56
_symmetry_cell_setting 'orthorhombic'
loop_
_space_group_symop_operation_xyz
x,y,z
1/2-x,1/2-y,z
1/2+x,-y,1/2-z
-x,1/2+y,1/2-z
-x,-y,-z
1/2+x,1/2+y,-z
1/2-x,y,1/2+z
x,1/2-y,1/2+z
loop_
_atom_site_type_symbol
_atom_site_label
_atom_site_fract_x
_atom_site_fract_y
_atom_site_fract_z
Si Si1 0.830579 0.863625 0.419640
Si Si2 0.032796 0.433406 0.077082
Si Si3 0.294452 0.591136 0.103400
Si Si4 0.501844 0.796527 0.208523
Si Si5 0.971349 0.076486 0.135800
Si Si6 0.250000 0.250000 0.853068
Si Si7 0.853325 0.643616 0.270723
Si Si8 0.654804 0.537138 0.039191
O O1 0.892276 0.988724 0.428288
O O2 0.835484 0.798599 0.331479
O O3 0.849595 0.709995 0.481871
O O4 0.759935 0.945617 0.424266
O O5 0.016139 0.221803 0.091136
O O6 0.006330 0.541170 0.149860
O O7 0.000000 0.500000 0.000000
O O8 0.250000 0.750000 0.131711
O O9 0.339731 0.525052 0.172893
O O10 0.330427 0.620793 0.022204
O O11 0.495279 0.608955 0.163536
O O12 0.574775 0.816464 0.241784
O O13 0.455525 0.825648 0.282398
O O14 0.909127 0.015593 0.086650
O O15 0.196421 0.346171 0.799780
O O16 0.288303 0.398987 0.903193
#
# Coordination Sequence:
#
# PCOD9433395 Si02
#       8
#     8   8   8   8   8   4   8   8
#     4  11  22  48  70  96 141 193 239 296 373 453
#     4  12  29  46  72 110 147 198 246 307 376 457
#     4  11  25  46  69 106 142 189 248 317 375 452
#     4  12  25  48  72 104 154 190 249 312 371 446
#     4  12  25  47  73 109 143 197 243 307 377 439
#     4  12  20  42  76 102 132 190 244 298 372 450
#     4  11  22  44  72  98 138 190 241 294 379 448
#     4  11  24  43  75 100 143 190 247 307 373 444
#
# _framework density 22.503799999999998
#
# number of rings (size 3 to 8) (size 9 to 14) (size 15 to 20)
#    0.000    0.533    6.667    1.600    1.867    3.200 
#    4.800    0.000    0.000    0.000    0.000    0.000 
#    0.000    0.000    0.000    0.000    0.000    0.000 
#
# Total GULP energy -334991.640064 kJ/mol
# GULP energy per Si atom -5583.194001 kJ/mol
# Density = 2.245258 g / cm^3
# Si number density = 22.503800 Si / 1000 Ang^3
#
#
#
# Elastic Constant Matrix: (Units=GPa)
#
#
# Indices 1 2 3 4 5 6 
#
# 1 100.8623 33.7998 59.1477 0.0000 0.0000 0.0000
# 2 33.7998 97.1275 21.8103 0.0000 0.0000 0.0000
# 3 59.1477 21.8103 128.0054 0.0000 0.0000 0.0000
# 4 0.0000 0.0000 0.0000 28.9701 0.0000 0.0000
# 5 0.0000 0.0000 0.0000 0.0000 40.7330 0.0000
# 6 0.0000 0.0000 0.0000 0.0000 0.0000 33.2380
#
#
#
# Elastic Compliance Matrix: (Units=1/GPa)
#
#
# Indices 1 2 3 4 5 6 
#
# 1 0.014813 -0.003762 -0.006204 0.000000 0.000000 0.000000
# 2 -0.003762 0.011661 -0.000249 0.000000 0.000000 0.000000
# 3 -0.006204 -0.000249 0.010721 0.000000 0.000000 0.000000
# 4 0.000000 0.000000 0.000000 0.034518 0.000000 0.000000
# 5 0.000000 0.000000 0.000000 0.000000 0.024550 0.000000
# 6 0.000000 0.000000 0.000000 0.000000 0.000000 0.030086
#
#
# Mechanical properties :
#
#
# Convention : Reuss Voigt Hill
#
# Bulk Modulus (GPa) = 59.64248 61.72341 60.68295
# Shear Modulus (GPa) = 32.81560 34.67072 33.74316
#
# Velocity S-wave (km/s) = 3.82281 3.92938 3.87646
# Velocity P-wave (km/s) = 6.78572 6.93356 6.86004
#
# Compressibility (1/GPa) = 0.01676657
#
# Stress axis : x y z
#
# Youngs Moduli (GPa) = 67.50763 85.75856 93.27381
#
# Poissons Ratio (x) = 0.32261 0.57865
# Poissons Ratio (y) = 0.25395 0.02319
# Poissons Ratio (z) = 0.41880 0.02132
#
# Static dielectric constant tensor:
#      x y z
#    x 1.765470 0.000000 0.000000 
#    y 0.000000 1.975010 0.000000 
#    z 0.000000 0.000000 1.820040 
# 
# From -- ./inp_files/13239.got.cif
#   From: 2010.05.17/outbox.cif.g08.bks.cpg/sg56_7_cif.got.tgz:13239.got - 2010.06.03 13:42:01.
