data_PCOD9433982
_publ_section_title
;
Structure prediction by ZEFSAII (Michael W. Deem and Ramdas Pophale) SiO2 
 PCOD9433982
Probable space group: P B C M
;
_chemical_formula_sum "Si O2"
_cell_formula_units_Z 48
_cell_length_a 25.215847
_cell_length_b 5.455693
_cell_length_c 14.498549
_cell_angle_alpha 90.000000
_cell_angle_beta 90.000000
_cell_angle_gamma 90.000000
_cell_volume 1994.564226
_symmetry_space_group_name_H-M "P B C M"
_symmetry_group_IT_number 57
_symmetry_cell_setting 'orthorhombic'
loop_
_space_group_symop_operation_xyz
x,y,z
-x,-y,1/2+z
x,1/2-y,-z
-x,1/2+y,1/2-z
-x,-y,-z
x,y,1/2-z
-x,1/2+y,z
x,1/2-y,1/2+z
loop_
_atom_site_type_symbol
_atom_site_label
_atom_site_fract_x
_atom_site_fract_y
_atom_site_fract_z
Si Si1 0.353561 0.974173 0.896073
Si Si2 0.521360 0.471661 0.604852
Si Si3 0.970703 0.107174 0.137962
Si Si4 0.150322 0.791529 0.604697
Si Si5 0.688278 0.528099 0.107254
Si Si6 0.191194 0.206421 0.391923
O O1 0.416022 0.926546 0.898008
O O2 0.324260 0.739653 0.853851
O O3 0.343884 0.241325 0.854022
O O4 0.329926 0.000986 0.000002
O O5 0.500000 0.500000 0.500000
O O6 0.507238 0.735225 0.646491
O O7 0.969090 0.107114 0.250000
O O8 0.910618 0.128346 0.104023
O O9 0.002369 0.351806 0.108988
O O10 0.170427 0.750000 0.500000
O O11 0.156094 0.518443 0.645717
O O12 0.182116 0.020844 0.646964
O O13 0.749090 0.608214 0.114720
O O14 0.178002 0.250000 0.500000
#
# Coordination Sequence:
#
# PCOD9433982 Si02
#       6
#     8   8   8   8   8   8
#     4  10  17  22  34  48  65  99 142 181 229 278
#     4  10  16  23  29  40  61  88 128 186 243 266
#     4  10  21  38  58  76  97 126 158 188 221 267
#     4  10  21  32  49  75  99 123 150 185 234 278
#     4  10  16  24  35  50  71 102 137 173 217 280
#     4  10  18  29  43  63  94 119 143 181 232 281
#
# _framework density 24.065407
#
# number of rings (size 3 to 8) (size 9 to 14) (size 15 to 20)
#    0.000    2.000    1.667    7.000    4.667    0.667 
#    0.000    0.000    0.000    0.000    0.000    0.000 
#    0.000    0.000    0.000    0.000    0.000    0.000 
#
# Total GULP energy -268133.764242 kJ/mol
# GULP energy per Si atom -5586.120088 kJ/mol
# Density = 2.401063 g / cm^3
# Si number density = 24.065407 Si / 1000 Ang^3
#
#
#
# Elastic Constant Matrix: (Units=GPa)
#
#
# Indices 1 2 3 4 5 6 
#
# 1 134.8623 65.5668 -4.1386 0.0000 0.0000 0.0000
# 2 65.5668 275.0004 21.0274 0.0000 0.0000 0.0000
# 3 -4.1386 21.0274 92.7019 0.0000 0.0000 0.0000
# 4 0.0000 0.0000 0.0000 -28.3641 0.0000 0.0000
# 5 0.0000 0.0000 0.0000 0.0000 -52.2937 0.0000
# 6 0.0000 0.0000 0.0000 0.0000 0.0000 56.2469
#
#
#
# Elastic Compliance Matrix: (Units=1/GPa)
#
#
# Indices 1 2 3 4 5 6 
#
# 1 0.008452 -0.002080 0.000849 0.000000 0.000000 0.000000
# 2 -0.002080 0.004212 -0.001048 0.000000 0.000000 0.000000
# 3 0.000849 -0.001048 0.011063 0.000000 0.000000 0.000000
# 4 0.000000 0.000000 0.000000 -0.035256 0.000000 0.000000
# 5 0.000000 0.000000 0.000000 0.000000 -0.019123 0.000000
# 6 0.000000 0.000000 0.000000 0.000000 0.000000 0.017779
#
#
# Mechanical properties :
#
#
# Convention : Reuss Voigt Hill
#
# Bulk Modulus (GPa) = 52.16730 74.16399 63.16564
# Shear Modulus (GPa) = -2599.26756 23.12509 -1288.07123
#
# Velocity S-wave (km/s) = -32.90029 3.10324 -23.16030
# Velocity P-wave (km/s) = 37.70298 6.61247 26.24681
#
# Compressibility (1/GPa) = 0.01916910
#
# Stress axis : x y z
#
# Youngs Moduli (GPa) = 118.31005 237.38950 90.39155
#
# Poissons Ratio (x) = 0.49381 -0.07676
# Poissons Ratio (y) = 0.24611 0.09476
# Poissons Ratio (z) = -0.10047 0.24887
#
# Static dielectric constant tensor:
#      x y z
#    x 1.837730 0.000000 0.000000 
#    y 0.000000 1.977380 0.000000 
#    z 0.000000 0.000000 1.884050 
# 
# From -- ./inp_files/25688.got.cif
#   From: 2010.05.17/outbox.cif.g08.bks.cpg/sg57_13_cif.got.tgz:25688.got - 2010.06.03 13:58:18.
