data_PCOD9433466
_publ_section_title
;
Structure prediction by ZEFSAII (Michael W. Deem and Ramdas Pophale) SiO2 
 PCOD9433466
Probable space group: P C C N
;
_chemical_formula_sum "Si O2"
_cell_formula_units_Z 60
_cell_length_a 17.568601
_cell_length_b 7.818894
_cell_length_c 18.107857
_cell_angle_alpha 90.000000
_cell_angle_beta 90.000000
_cell_angle_gamma 90.000000
_cell_volume 2487.422517
_symmetry_space_group_name_H-M "P C C N"
_symmetry_group_IT_number 56
_symmetry_cell_setting 'orthorhombic'
loop_
_space_group_symop_operation_xyz
x,y,z
1/2-x,1/2-y,z
1/2+x,-y,1/2-z
-x,1/2+y,1/2-z
-x,-y,-z
1/2+x,1/2+y,-z
1/2-x,y,1/2+z
x,1/2-y,1/2+z
loop_
_atom_site_type_symbol
_atom_site_label
_atom_site_fract_x
_atom_site_fract_y
_atom_site_fract_z
Si Si1 0.529770 0.194660 0.831283
Si Si2 0.292747 0.909929 0.590314
Si Si3 0.523540 0.413042 0.180232
Si Si4 0.132509 0.511504 0.051586
Si Si5 0.121020 0.364303 0.901748
Si Si6 0.140557 0.228301 0.174617
Si Si7 0.750000 0.750000 0.695246
Si Si8 0.414771 0.986976 0.466535
O O1 0.511071 0.395556 0.827275
O O2 0.447439 0.110197 0.844520
O O3 0.565566 0.122579 0.756562
O O4 0.583502 0.139235 0.898384
O O5 0.250000 0.750000 0.631191
O O6 0.360210 0.914588 0.529669
O O7 0.220369 0.947401 0.538717
O O8 0.318017 0.051363 0.650159
O O9 0.448655 0.297496 0.186194
O O10 0.573940 0.379365 0.108389
O O11 0.141874 0.344479 0.102259
O O12 0.100965 0.482144 0.970952
O O13 0.201774 0.373180 0.859676
O O14 0.114107 0.172379 0.937268
O O15 0.183613 0.302768 0.246326
O O16 0.500000 0.000000 0.500000
#
# Coordination Sequence:
#
# PCOD9433466 Si02
#       8
#     8   8   8   8   8   8   4   8
#     4  11  25  42  71 106 144 194 237 309 357 452
#     4  12  25  43  68 105 141 190 240 303 365 447
#     4  11  23  45  69 107 146 187 252 297 377 440
#     4  12  24  44  71 101 142 183 246 292 368 434
#     4  11  24  43  72 102 138 181 245 291 358 430
#     4  12  23  45  72 102 142 198 236 303 375 441
#     4  12  24  42  72 104 140 188 234 302 362 434
#     4  11  23  42  72  97 142 192 236 296 373 431
#
# _framework density 24.121354
#
# number of rings (size 3 to 8) (size 9 to 14) (size 15 to 20)
#    0.000    0.533    5.333    2.800    3.733    0.000 
#    4.800    0.000    0.000    1.600    0.000    0.000 
#    0.000    0.000    0.000    0.000    0.000    0.000 
#
# Total GULP energy -334931.495273 kJ/mol
# GULP energy per Si atom -5582.191588 kJ/mol
# Density = 2.406645 g / cm^3
# Si number density = 24.121354 Si / 1000 Ang^3
#
#
#
# Elastic Constant Matrix: (Units=GPa)
#
#
# Indices 1 2 3 4 5 6 
#
# 1 109.5990 10.9670 31.2781 0.0000 0.0000 0.0000
# 2 10.9670 61.6998 19.2244 0.0000 0.0000 0.0000
# 3 31.2781 19.2244 136.9552 0.0000 0.0000 0.0000
# 4 0.0000 0.0000 0.0000 15.5355 0.0000 0.0000
# 5 0.0000 0.0000 0.0000 0.0000 46.4799 0.0000
# 6 0.0000 0.0000 0.0000 0.0000 0.0000 32.0708
#
#
#
# Elastic Compliance Matrix: (Units=1/GPa)
#
#
# Indices 1 2 3 4 5 6 
#
# 1 0.009831 -0.001096 -0.002091 0.000000 0.000000 0.000000
# 2 -0.001096 0.017071 -0.002146 0.000000 0.000000 0.000000
# 3 -0.002091 -0.002146 0.008081 0.000000 0.000000 0.000000
# 4 0.000000 0.000000 0.000000 0.064369 0.000000 0.000000
# 5 0.000000 0.000000 0.000000 0.000000 0.021515 0.000000
# 6 0.000000 0.000000 0.000000 0.000000 0.000000 0.031181
#
#
# Mechanical properties :
#
#
# Convention : Reuss Voigt Hill
#
# Bulk Modulus (GPa) = 41.12530 47.91032 44.51781
# Shear Modulus (GPa) = 29.27093 35.26955 32.27024
#
# Velocity S-wave (km/s) = 3.48729 3.82798 3.66160
# Velocity P-wave (km/s) = 5.77073 6.28039 6.03094
#
# Compressibility (1/GPa) = 0.02431593
#
# Stress axis : x y z
#
# Youngs Moduli (GPa) = 101.72262 58.57915 123.75451
#
# Poissons Ratio (x) = 0.06419 0.25881
# Poissons Ratio (y) = 0.11146 0.26558
# Poissons Ratio (z) = 0.21274 0.12571
#
# Static dielectric constant tensor:
#      x y z
#    x 1.958780 0.000000 0.000000 
#    y 0.000000 2.138930 0.000000 
#    z 0.000000 0.000000 1.898020 
# 
# From -- ./inp_files/16634.got.cif
#   From: 2010.05.17/outbox.cif.g08.bks.cpg/sg56_9_cif.got.tgz:16634.got - 2010.06.03 13:42:01.
