data_PCOD9433995
_publ_section_title
;
Structure prediction by ZEFSAII (Michael W. Deem and Ramdas Pophale) SiO2 
 PCOD9433995
Probable space group: P B C M
;
_chemical_formula_sum "Si O2"
_cell_formula_units_Z 28
_cell_length_a 16.180855
_cell_length_b 5.279161
_cell_length_c 14.619143
_cell_angle_alpha 90.000000
_cell_angle_beta 90.000000
_cell_angle_gamma 90.000000
_cell_volume 1248.786765
_symmetry_space_group_name_H-M "P B C M"
_symmetry_group_IT_number 57
_symmetry_cell_setting 'orthorhombic'
loop_
_space_group_symop_operation_xyz
x,y,z
-x,-y,1/2+z
x,1/2-y,-z
-x,1/2+y,1/2-z
-x,-y,-z
x,y,1/2-z
-x,1/2+y,z
x,1/2-y,1/2+z
loop_
_atom_site_type_symbol
_atom_site_label
_atom_site_fract_x
_atom_site_fract_y
_atom_site_fract_z
Si Si1 0.944060 0.250000 0.500000
Si Si2 0.727912 0.937956 0.896776
Si Si3 0.454703 0.249999 0.139373
Si Si4 0.207829 0.935751 0.602254
O O1 0.881440 0.309888 0.584391
O O2 0.000000 0.500000 0.500000
O O3 0.786240 0.716060 0.856482
O O4 0.635754 0.834158 0.891454
O O5 0.737193 0.216367 0.853318
O O6 0.756068 0.998721 0.000784
O O7 0.454004 0.251442 0.250000
O O8 0.518046 0.029510 0.109240
#
# Coordination Sequence:
#
# PCOD9433995 Si02
#       4
#     4   8   8   8
#     4  10  16  26  44  68  96 116 136 170 212 260
#     4   9  16  31  44  59  90 118 142 182 219 258
#     4  10  20  32  46  64  85 113 152 195 228 253
#     4   9  18  29  44  66  91 117 143 173 215 268
#
# _framework density 22.421762000000001
#
# number of rings (size 3 to 8) (size 9 to 14) (size 15 to 20)
#    0.000    2.857    0.000    5.143    0.000    0.000 
#    0.000   17.143    0.000    0.000    0.000    0.000 
#    0.000  121.143    0.000    0.000    0.000    0.000 
#
# Total GULP energy -155971.725751 kJ/mol
# GULP energy per Si atom -5570.418777 kJ/mol
# Density = 2.237073 g / cm^3
# Si number density = 22.421762 Si / 1000 Ang^3
#
#
#
# Elastic Constant Matrix: (Units=GPa)
#
#
# Indices 1 2 3 4 5 6 
#
# 1 69.8301 2.5408 -15.3211 0.0000 0.0000 0.0000
# 2 2.5408 171.1203 -8.7163 0.0000 0.0000 0.0000
# 3 -15.3211 -8.7163 69.4072 0.0000 0.0000 0.0000
# 4 0.0000 0.0000 0.0000 -5.7108 0.0000 0.0000
# 5 0.0000 0.0000 0.0000 0.0000 25.6024 0.0000
# 6 0.0000 0.0000 0.0000 0.0000 0.0000 56.6635
#
#
#
# Elastic Compliance Matrix: (Units=1/GPa)
#
#
# Indices 1 2 3 4 5 6 
#
# 1 0.015050 -0.000055 0.003315 0.000000 0.000000 0.000000
# 2 -0.000055 0.005882 0.000727 0.000000 0.000000 0.000000
# 3 0.003315 0.000727 0.015231 0.000000 0.000000 0.000000
# 4 0.000000 0.000000 0.000000 -0.175108 0.000000 0.000000
# 5 0.000000 0.000000 0.000000 0.000000 0.039059 0.000000
# 6 0.000000 0.000000 0.000000 0.000000 0.000000 0.017648
#
#
# Mechanical properties :
#
#
# Convention : Reuss Voigt Hill
#
# Bulk Modulus (GPa) = 22.65683 29.70717 26.18200
# Shear Modulus (GPa) = -66.22402 37.43465 -14.39469
#
# Velocity S-wave (km/s) = -5.44056 4.09047 -2.53651
# Velocity P-wave (km/s) = 5.41660 5.96550 1.76745
#
# Compressibility (1/GPa) = 0.04413681
#
# Stress axis : x y z
#
# Youngs Moduli (GPa) = 66.44590 170.01994 65.65648
#
# Poissons Ratio (x) = 0.00928 -0.21767
# Poissons Ratio (y) = 0.00363 -0.04770
# Poissons Ratio (z) = -0.22029 -0.12353
#
# Static dielectric constant tensor:
#      x y z
#    x 1.833910 0.000000 0.000000 
#    y 0.000000 2.029780 0.000000 
#    z 0.000000 0.000000 1.979480 
# 
# From -- ./inp_files/26977.got.cif
#   From: 2010.05.17/outbox.cif.g08.bks.cpg/sg57_14_cif.got.tgz:26977.got - 2010.06.03 13:58:18.
