data_PCOD9433558
_publ_section_title
;
Structure prediction by ZEFSAII (Michael W. Deem and Ramdas Pophale) SiO2 
 PCOD9433558
Probable space group: P C C N
;
_chemical_formula_sum "Si O2"
_cell_formula_units_Z 48
_cell_length_a 24.829129
_cell_length_b 8.927397
_cell_length_c 9.409568
_cell_angle_alpha 90.000000
_cell_angle_beta 90.000000
_cell_angle_gamma 90.000000
_cell_volume 2085.720060
_symmetry_space_group_name_H-M "P C C N"
_symmetry_group_IT_number 56
_symmetry_cell_setting 'orthorhombic'
loop_
_space_group_symop_operation_xyz
x,y,z
1/2-x,1/2-y,z
1/2+x,-y,1/2-z
-x,1/2+y,1/2-z
-x,-y,-z
1/2+x,1/2+y,-z
1/2-x,y,1/2+z
x,1/2-y,1/2+z
loop_
_atom_site_type_symbol
_atom_site_label
_atom_site_fract_x
_atom_site_fract_y
_atom_site_fract_z
Si Si1 0.544768 0.775506 0.158889
Si Si2 0.094041 0.933226 0.460406
Si Si3 0.731246 0.922081 0.830425
Si Si4 0.527208 0.166055 0.587381
Si Si5 0.211472 0.894324 0.386908
Si Si6 0.114380 0.007463 0.771767
O O1 0.508869 0.862177 0.274400
O O2 0.585021 0.666292 0.239949
O O3 0.580874 0.894864 0.073783
O O4 0.507972 0.670623 0.056017
O O5 0.044223 0.839531 0.404717
O O6 0.147997 0.866674 0.391962
O O7 0.101419 0.915118 0.629153
O O8 0.750000 0.750000 0.828559
O O9 0.720492 0.983442 0.988229
O O10 0.775761 0.027982 0.761548
O O11 0.677893 0.957493 0.734944
O O12 0.583298 0.074805 0.599078
O O13 0.250000 0.750000 0.406628
#
# Coordination Sequence:
#
# PCOD9433558 Si02
#       6
#     8   8   8   8   8   8
#     4  12  23  42  68  95 137 179 220 270 333 399
#     4  11  24  44  64  97 138 172 217 286 334 394
#     4  11  24  45  70  99 138 178 230 293 350 412
#     4  12  23  42  68  95 137 178 221 271 331 399
#     4  11  24  45  71  99 136 179 232 292 349 413
#     4  11  24  43  65  98 132 176 225 271 335 410
#
# _framework density 23.013635000000001
#
# number of rings (size 3 to 8) (size 9 to 14) (size 15 to 20)
#    0.000    0.667    3.333    5.000    0.000    2.667 
#    6.000    0.000    0.000    0.000    0.000    0.000 
#    0.000    0.000    0.000    0.000    0.000    0.000 
#
# Total GULP energy -268214.870714 kJ/mol
# GULP energy per Si atom -5587.809807 kJ/mol
# Density = 2.296126 g / cm^3
# Si number density = 23.013635 Si / 1000 Ang^3
#
#
#
# Elastic Constant Matrix: (Units=GPa)
#
#
# Indices 1 2 3 4 5 6 
#
# 1 56.4080 8.9774 11.4020 0.0000 0.0000 0.0000
# 2 8.9774 75.2398 -5.5961 0.0000 0.0000 0.0000
# 3 11.4020 -5.5961 50.0728 0.0000 0.0000 0.0000
# 4 0.0000 0.0000 0.0000 23.7386 0.0000 0.0000
# 5 0.0000 0.0000 0.0000 0.0000 21.7858 0.0000
# 6 0.0000 0.0000 0.0000 0.0000 0.0000 44.7026
#
#
#
# Elastic Compliance Matrix: (Units=1/GPa)
#
#
# Indices 1 2 3 4 5 6 
#
# 1 0.019083 -0.002622 -0.004638 0.000000 0.000000 0.000000
# 2 -0.002622 0.013762 0.002135 0.000000 0.000000 0.000000
# 3 -0.004638 0.002135 0.021266 0.000000 0.000000 0.000000
# 4 0.000000 0.000000 0.000000 0.042125 0.000000 0.000000
# 5 0.000000 0.000000 0.000000 0.000000 0.045901 0.000000
# 6 0.000000 0.000000 0.000000 0.000000 0.000000 0.022370
#
#
# Mechanical properties :
#
#
# Convention : Reuss Voigt Hill
#
# Bulk Modulus (GPa) = 22.79943 23.47637 23.13790
# Shear Modulus (GPa) = 26.40215 29.17456 27.78836
#
# Velocity S-wave (km/s) = 3.39077 3.56435 3.47864
# Velocity P-wave (km/s) = 5.02575 5.21178 5.11961
#
# Compressibility (1/GPa) = 0.04386075
#
# Stress axis : x y z
#
# Youngs Moduli (GPa) = 52.40314 72.66137 47.02404
#
# Poissons Ratio (x) = 0.19051 0.21811
# Poissons Ratio (y) = 0.13740 -0.10040
# Poissons Ratio (z) = 0.24306 -0.15514
#
# Static dielectric constant tensor:
#      x y z
#    x 1.889190 0.000000 0.000000 
#    y 0.000000 1.871600 0.000000 
#    z 0.000000 0.000000 1.818330 
# 
# From -- ./inp_files/5137.got.cif
#   From: 2010.05.17/outbox.cif.g08.bks.cpg/sg56_3_cif.got.tgz:5137.got - 2010.06.03 13:42:01.
