data_PCOD9433674
_publ_section_title
;
Structure prediction by ZEFSAII (Michael W. Deem and Ramdas Pophale) SiO2 
 PCOD9433674
Probable space group: P C C N
;
_chemical_formula_sum "Si O2"
_cell_formula_units_Z 32
_cell_length_a 22.636895
_cell_length_b 5.022514
_cell_length_c 9.254956
_cell_angle_alpha 90.000000
_cell_angle_beta 90.000000
_cell_angle_gamma 90.000000
_cell_volume 1052.234097
_symmetry_space_group_name_H-M "P C C N"
_symmetry_group_IT_number 56
_symmetry_cell_setting 'orthorhombic'
loop_
_space_group_symop_operation_xyz
x,y,z
1/2-x,1/2-y,z
1/2+x,-y,1/2-z
-x,1/2+y,1/2-z
-x,-y,-z
1/2+x,1/2+y,-z
1/2-x,y,1/2+z
x,1/2-y,1/2+z
loop_
_atom_site_type_symbol
_atom_site_label
_atom_site_fract_x
_atom_site_fract_y
_atom_site_fract_z
Si Si1 0.683425 0.296083 0.174275
Si Si2 0.434060 0.085983 0.177156
Si Si3 0.941253 0.207247 0.061321
Si Si4 0.186174 0.119890 0.082267
O O1 0.750000 0.250000 0.121074
O O2 0.621413 0.173506 0.117654
O O3 0.679948 0.581280 0.090168
O O4 0.686051 0.164909 0.333865
O O5 0.493970 0.205686 0.114147
O O6 0.372018 0.219266 0.133632
O O7 0.438674 0.069216 0.349901
O O8 0.436628 0.788342 0.105737
O O9 0.250000 0.250000 0.115521
#
# Coordination Sequence:
#
# PCOD9433674 Si02
#       4
#     8   8   8   8
#     4  12  26  49  76 108 150 195 250 308 374 453
#     4  11  26  47  75 110 152 198 248 312 377 444
#     4  11  25  47  75 111 152 196 252 308 374 453
#     4  12  28  50  76 109 151 197 248 312 377 445
#
# _framework density 30.411484000000002
#
# number of rings (size 3 to 8) (size 9 to 14) (size 15 to 20)
#    0.000    0.500    0.000    6.750    0.000   13.000 
#    0.000    3.750    0.000    0.000    0.000    0.000 
#    0.000    0.000    0.000    0.000    0.000    0.000 
#
# Total GULP energy -178250.767284 kJ/mol
# GULP energy per Si atom -5570.336478 kJ/mol
# Density = 3.034227 g / cm^3
# Si number density = 30.411484 Si / 1000 Ang^3
#
#
#
# Elastic Constant Matrix: (Units=GPa)
#
#
# Indices 1 2 3 4 5 6 
#
# 1 380.6641 79.0036 80.7920 0.0000 0.0000 0.0000
# 2 79.0036 93.3269 51.4622 0.0000 0.0000 0.0000
# 3 80.7920 51.4622 139.5666 0.0000 0.0000 0.0000
# 4 0.0000 0.0000 0.0000 64.5819 0.0000 0.0000
# 5 0.0000 0.0000 0.0000 0.0000 62.7398 0.0000
# 6 0.0000 0.0000 0.0000 0.0000 0.0000 68.2651
#
#
#
# Elastic Compliance Matrix: (Units=1/GPa)
#
#
# Indices 1 2 3 4 5 6 
#
# 1 0.003319 -0.002197 -0.001111 0.000000 0.000000 0.000000
# 2 -0.002197 0.014904 -0.004224 0.000000 0.000000 0.000000
# 3 -0.001111 -0.004224 0.009366 0.000000 0.000000 0.000000
# 4 0.000000 0.000000 0.000000 0.015484 0.000000 0.000000
# 5 0.000000 0.000000 0.000000 0.000000 0.015939 0.000000
# 6 0.000000 0.000000 0.000000 0.000000 0.000000 0.014649
#
#
# Mechanical properties :
#
#
# Convention : Reuss Voigt Hill
#
# Bulk Modulus (GPa) = 79.84152 115.11926 97.48039
# Shear Modulus (GPa) = 53.82239 65.93732 59.87986
#
# Velocity S-wave (km/s) = 4.21147 4.66141 4.44214
# Velocity P-wave (km/s) = 7.06819 8.17972 7.64419
#
# Compressibility (1/GPa) = 0.01252481
#
# Stress axis : x y z
#
# Youngs Moduli (GPa) = 301.32099 67.09763 106.77256
#
# Poissons Ratio (x) = 0.14739 0.11864
# Poissons Ratio (y) = 0.66190 0.45099
# Poissons Ratio (z) = 0.33482 0.28341
#
# Static dielectric constant tensor:
#      x y z
#    x 2.233280 0.000000 0.000000 
#    y 0.000000 2.569300 0.000000 
#    z 0.000000 0.000000 2.279870 
# 
# From -- ./inp_files/8779.got.cif
#   From: 2010.05.17/outbox.cif.g08.bks.cpg/sg56_5_cif.got.tgz:8779.got - 2010.06.03 13:42:01.
