data_PCOD9433634
_publ_section_title
;
Structure prediction by ZEFSAII (Michael W. Deem and Ramdas Pophale) SiO2 
 PCOD9433634
Probable space group: P C C N
;
_chemical_formula_sum "Si O2"
_cell_formula_units_Z 28
_cell_length_a 5.451714
_cell_length_b 13.104832
_cell_length_c 14.091190
_cell_angle_alpha 90.000000
_cell_angle_beta 90.000000
_cell_angle_gamma 90.000000
_cell_volume 1006.728105
_symmetry_space_group_name_H-M "P C C N"
_symmetry_group_IT_number 56
_symmetry_cell_setting 'orthorhombic'
loop_
_space_group_symop_operation_xyz
x,y,z
1/2-x,1/2-y,z
1/2+x,-y,1/2-z
-x,1/2+y,1/2-z
-x,-y,-z
1/2+x,1/2+y,-z
1/2-x,y,1/2+z
x,1/2-y,1/2+z
loop_
_atom_site_type_symbol
_atom_site_label
_atom_site_fract_x
_atom_site_fract_y
_atom_site_fract_z
Si Si1 0.750000 0.250000 0.174374
Si Si2 0.680270 0.632048 0.567663
Si Si3 0.670173 0.422458 0.829638
Si Si4 0.313692 0.140844 0.639816
O O1 0.843297 0.339294 0.246250
O O2 0.582381 0.321309 0.108132
O O3 0.750000 0.750000 0.583504
O O4 0.420697 0.605524 0.614767
O O5 0.662236 0.618065 0.454113
O O6 0.925248 0.576941 0.606204
O O7 0.689483 0.540747 0.797417
O O8 0.250000 0.250000 0.686925
#
# Coordination Sequence:
#
# PCOD9433634 Si02
#       4
#     4   8   8   8
#     4  12  30  46  76 114 154 204 252 330 404 466
#     4  11  24  50  79 112 146 201 261 320 380 469
#     4  12  27  51  79 109 156 202 260 314 395 460
#     4  11  30  46  78 109 155 198 265 318 393 457
#
# _framework density 27.812871999999999
#
# number of rings (size 3 to 8) (size 9 to 14) (size 15 to 20)
#    0.000    0.571    2.857    1.714   20.000    0.000 
#    0.000    0.000    0.000    0.000    0.000    0.000 
#    0.000    0.000    0.000    0.000    0.000    0.000 
#
# Total GULP energy -156645.135746 kJ/mol
# GULP energy per Si atom -5594.469134 kJ/mol
# Density = 2.774957 g / cm^3
# Si number density = 27.812872 Si / 1000 Ang^3
#
#
#
# Elastic Constant Matrix: (Units=GPa)
#
#
# Indices 1 2 3 4 5 6 
#
# 1 158.4825 37.3063 38.8067 0.0000 0.0000 0.0000
# 2 37.3063 222.3901 16.9393 0.0000 0.0000 0.0000
# 3 38.8067 16.9393 85.6894 0.0000 0.0000 0.0000
# 4 0.0000 0.0000 0.0000 24.0135 0.0000 0.0000
# 5 0.0000 0.0000 0.0000 0.0000 33.7611 0.0000
# 6 0.0000 0.0000 0.0000 0.0000 0.0000 47.9092
#
#
#
# Elastic Compliance Matrix: (Units=1/GPa)
#
#
# Indices 1 2 3 4 5 6 
#
# 1 0.007305 -0.000988 -0.003113 0.000000 0.000000 0.000000
# 2 -0.000988 0.004699 -0.000481 0.000000 0.000000 0.000000
# 3 -0.003113 -0.000481 0.013175 0.000000 0.000000 0.000000
# 4 0.000000 0.000000 0.000000 0.041643 0.000000 0.000000
# 5 0.000000 0.000000 0.000000 0.000000 0.029620 0.000000
# 6 0.000000 0.000000 0.000000 0.000000 0.000000 0.020873
#
#
# Mechanical properties :
#
#
# Convention : Reuss Voigt Hill
#
# Bulk Modulus (GPa) = 62.44586 72.51851 67.48218
# Shear Modulus (GPa) = 37.93127 46.03740 41.98433
#
# Velocity S-wave (km/s) = 3.69698 4.07290 3.88948
# Velocity P-wave (km/s) = 6.38157 6.94610 6.66981
#
# Compressibility (1/GPa) = 0.01601387
#
# Stress axis : x y z
#
# Youngs Moduli (GPa) = 136.89845 212.80882 75.90189
#
# Poissons Ratio (x) = 0.21031 0.23626
# Poissons Ratio (y) = 0.13529 0.03654
# Poissons Ratio (z) = 0.42613 0.10244
#
# Static dielectric constant tensor:
#      x y z
#    x 3.803240 0.000000 0.000000 
#    y 0.000000 2.128560 0.000000 
#    z 0.000000 0.000000 2.087150 
# 
# From -- ./inp_files/13653.got.cif
#   From: 2010.05.17/outbox.cif.g08.bks.cpg/sg56_7_cif.got.tgz:13653.got - 2010.06.03 13:42:01.
