data_PCOD9433430
_publ_section_title
;
Structure prediction by ZEFSAII (Michael W. Deem and Ramdas Pophale) SiO2 
 PCOD9433430
Probable space group: P C C N
;
_chemical_formula_sum "Si O2"
_cell_formula_units_Z 32
_cell_length_a 28.857811
_cell_length_b 4.943040
_cell_length_c 8.885650
_cell_angle_alpha 90.000000
_cell_angle_beta 90.000000
_cell_angle_gamma 90.000000
_cell_volume 1267.496335
_symmetry_space_group_name_H-M "P C C N"
_symmetry_group_IT_number 56
_symmetry_cell_setting 'orthorhombic'
loop_
_space_group_symop_operation_xyz
x,y,z
1/2-x,1/2-y,z
1/2+x,-y,1/2-z
-x,1/2+y,1/2-z
-x,-y,-z
1/2+x,1/2+y,-z
1/2-x,y,1/2+z
x,1/2-y,1/2+z
loop_
_atom_site_type_symbol
_atom_site_label
_atom_site_fract_x
_atom_site_fract_y
_atom_site_fract_z
Si Si1 0.300685 0.125353 0.298816
Si Si2 0.434109 0.921343 0.652256
Si Si3 0.026045 0.211800 0.392943
Si Si4 0.832490 0.134559 0.885039
O O1 0.250000 0.250000 0.327857
O O2 0.327391 0.383759 0.230503
O O3 0.319579 0.984796 0.451216
O O4 0.302331 0.888107 0.172373
O O5 0.451805 0.063672 0.501315
O O6 0.431164 0.130546 0.788398
O O7 0.480688 0.774213 0.707912
O O8 0.386394 0.774051 0.621370
O O9 0.000000 0.000000 0.500000
#
# Coordination Sequence:
#
# PCOD9433430 Si02
#       4
#     8   8   8   8
#     4  12  28  52  78 116 148 196 249 329 404 464
#     4  11  25  41  69 103 144 202 250 298 371 431
#     4  11  23  40  64 100 152 196 242 305 353 435
#     4  12  28  48  84 111 157 199 263 319 380 487
#
# _framework density 25.246621999999999
#
# number of rings (size 3 to 8) (size 9 to 14) (size 15 to 20)
#    0.000    0.500    2.500    4.500    7.000    2.000 
#    0.000    1.250    0.000    0.000    0.000    0.000 
#    0.000    0.000    0.000    0.000    0.000    0.000 
#
# Total GULP energy -178784.240676 kJ/mol
# GULP energy per Si atom -5587.007521 kJ/mol
# Density = 2.518916 g / cm^3
# Si number density = 25.246622 Si / 1000 Ang^3
#
#
#
# Elastic Constant Matrix: (Units=GPa)
#
#
# Indices 1 2 3 4 5 6 
#
# 1 72.3104 20.9069 9.1755 0.0000 0.0000 0.0000
# 2 20.9069 95.9290 16.8076 0.0000 0.0000 0.0000
# 3 9.1755 16.8076 103.7061 0.0000 0.0000 0.0000
# 4 0.0000 0.0000 0.0000 47.8245 0.0000 0.0000
# 5 0.0000 0.0000 0.0000 0.0000 19.0135 0.0000
# 6 0.0000 0.0000 0.0000 0.0000 0.0000 23.7229
#
#
#
# Elastic Compliance Matrix: (Units=1/GPa)
#
#
# Indices 1 2 3 4 5 6 
#
# 1 0.014825 -0.003089 -0.000811 0.000000 0.000000 0.000000
# 2 -0.003089 0.011373 -0.001570 0.000000 0.000000 0.000000
# 3 -0.000811 -0.001570 0.009969 0.000000 0.000000 0.000000
# 4 0.000000 0.000000 0.000000 0.020910 0.000000 0.000000
# 5 0.000000 0.000000 0.000000 0.000000 0.052594 0.000000
# 6 0.000000 0.000000 0.000000 0.000000 0.000000 0.042153
#
#
# Mechanical properties :
#
#
# Convention : Reuss Voigt Hill
#
# Bulk Modulus (GPa) = 39.64004 40.63618 40.13811
# Shear Modulus (GPa) = 29.21025 33.11587 31.16306
#
# Velocity S-wave (km/s) = 3.40515 3.62566 3.51714
# Velocity P-wave (km/s) = 5.58528 5.80154 5.69444
#
# Compressibility (1/GPa) = 0.02522702
#
# Stress axis : x y z
#
# Youngs Moduli (GPa) = 67.45231 87.93032 100.31275
#
# Poissons Ratio (x) = 0.27161 0.08136
# Poissons Ratio (y) = 0.20836 0.15748
# Poissons Ratio (z) = 0.05471 0.13804
#
# Static dielectric constant tensor:
#      x y z
#    x 1.765510 0.000000 0.000000 
#    y 0.000000 2.859490 0.000000 
#    z 0.000000 0.000000 -0.205300 
# 
# From -- ./inp_files/1553.got.cif
#   From: 2010.05.17/outbox.cif.g08.bks.cpg/sg56_1_cif.got.tgz:1553.got - 2010.06.03 13:42:01.
