data_PCOD9433200
_publ_section_title
;
Structure prediction by ZEFSAII (Michael W. Deem and Ramdas Pophale) SiO2 
 PCOD9433200
Probable space group: P C C N
;
_chemical_formula_sum "Si O2"
_cell_formula_units_Z 48
_cell_length_a 17.665381
_cell_length_b 15.146545
_cell_length_c 9.359597
_cell_angle_alpha 90.000000
_cell_angle_beta 90.000000
_cell_angle_gamma 90.000000
_cell_volume 2504.342580
_symmetry_space_group_name_H-M "P C C N"
_symmetry_group_IT_number 56
_symmetry_cell_setting 'orthorhombic'
loop_
_space_group_symop_operation_xyz
x,y,z
1/2-x,1/2-y,z
1/2+x,-y,1/2-z
-x,1/2+y,1/2-z
-x,-y,-z
1/2+x,1/2+y,-z
1/2-x,y,1/2+z
x,1/2-y,1/2+z
loop_
_atom_site_type_symbol
_atom_site_label
_atom_site_fract_x
_atom_site_fract_y
_atom_site_fract_z
Si Si1 0.498209 0.575559 0.615623
Si Si2 0.698165 0.952808 0.545533
Si Si3 0.668848 0.894457 0.224449
Si Si4 0.883357 0.707467 0.674804
Si Si5 0.939553 0.064513 0.084252
Si Si6 0.510871 0.756655 0.933357
O O1 0.500000 0.500000 0.500000
O O2 0.580379 0.587167 0.690881
O O3 0.445401 0.549923 0.746354
O O4 0.477555 0.664565 0.529190
O O5 0.694425 0.918750 0.383382
O O6 0.782347 0.948861 0.608660
O O7 0.656362 0.885748 0.656141
O O8 0.645521 0.039349 0.541158
O O9 0.671606 0.788498 0.210237
O O10 0.914093 0.728371 0.517666
O O11 0.955766 0.709921 0.781822
O O12 0.961493 0.167708 0.068381
O O13 0.000000 0.000000 0.000000
#
# Coordination Sequence:
#
# PCOD9433200 Si02
#       6
#     8   8   8   8   8   8
#     4  11  24  40  65  96 122 160 221 270 318 379
#     4  12  25  38  62  88 135 173 203 258 325 389
#     4  11  25  39  55  95 128 167 207 252 324 388
#     4  11  19  38  58  88 130 166 201 252 316 382
#     4  12  21  42  62  88 127 172 206 259 317 377
#     4  11  21  37  62  93 124 159 214 261 315 370
#
# _framework density 19.166708
#
# number of rings (size 3 to 8) (size 9 to 14) (size 15 to 20)
#    0.000    0.667    8.333    1.500    7.000    1.333 
#    0.000    0.000    0.000    1.000    0.000    0.000 
#    0.000    0.000    0.000    0.000    0.000    0.000 
#
# Total GULP energy -267637.479332 kJ/mol
# GULP energy per Si atom -5575.780819 kJ/mol
# Density = 1.912308 g / cm^3
# Si number density = 19.166708 Si / 1000 Ang^3
#
#
#
# Elastic Constant Matrix: (Units=GPa)
#
#
# Indices 1 2 3 4 5 6 
#
# 1 37.1559 9.7416 9.8933 0.0000 0.0000 0.0000
# 2 9.7416 65.6091 23.9378 0.0000 0.0000 0.0000
# 3 9.8933 23.9378 108.7186 0.0000 0.0000 0.0000
# 4 0.0000 0.0000 0.0000 33.9701 0.0000 0.0000
# 5 0.0000 0.0000 0.0000 0.0000 21.6997 0.0000
# 6 0.0000 0.0000 0.0000 0.0000 0.0000 23.6128
#
#
#
# Elastic Compliance Matrix: (Units=1/GPa)
#
#
# Indices 1 2 3 4 5 6 
#
# 1 0.028323 -0.003550 -0.001796 0.000000 0.000000 0.000000
# 2 -0.003550 0.017018 -0.003424 0.000000 0.000000 0.000000
# 3 -0.001796 -0.003424 0.010115 0.000000 0.000000 0.000000
# 4 0.000000 0.000000 0.000000 0.029438 0.000000 0.000000
# 5 0.000000 0.000000 0.000000 0.000000 0.046084 0.000000
# 6 0.000000 0.000000 0.000000 0.000000 0.000000 0.042350
#
#
# Mechanical properties :
#
#
# Convention : Reuss Voigt Hill
#
# Bulk Modulus (GPa) = 26.37378 33.18099 29.77738
# Shear Modulus (GPa) = 24.56934 27.05058 25.80996
#
# Velocity S-wave (km/s) = 3.58421 3.76085 3.67359
# Velocity P-wave (km/s) = 5.56047 6.01731 5.79339
#
# Compressibility (1/GPa) = 0.03791644
#
# Stress axis : x y z
#
# Youngs Moduli (GPa) = 35.30759 58.76068 98.85943
#
# Poissons Ratio (x) = 0.20861 0.17752
# Poissons Ratio (y) = 0.12535 0.33850
# Poissons Ratio (z) = 0.06340 0.20120
#
# Static dielectric constant tensor:
#      x y z
#    x 1.696870 0.000000 0.000000 
#    y 0.000000 1.676970 0.000000 
#    z 0.000000 0.000000 1.688310 
# 
# From -- ./inp_files/4001.got.cif
#   From: 2010.05.17/outbox.cif.g08.bks.cpg/sg56_3_cif.got.tgz:4001.got - 2010.06.03 13:42:01.
