data_PCOD9433525
_publ_section_title
;
Structure prediction by ZEFSAII (Michael W. Deem and Ramdas Pophale) SiO2 
 PCOD9433525
Probable space group: P C C N
;
_chemical_formula_sum "Si O2"
_cell_formula_units_Z 48
_cell_length_a 16.972639
_cell_length_b 9.224787
_cell_length_c 14.202737
_cell_angle_alpha 90.000000
_cell_angle_beta 90.000000
_cell_angle_gamma 90.000000
_cell_volume 2223.708040
_symmetry_space_group_name_H-M "P C C N"
_symmetry_group_IT_number 56
_symmetry_cell_setting 'orthorhombic'
loop_
_space_group_symop_operation_xyz
x,y,z
1/2-x,1/2-y,z
1/2+x,-y,1/2-z
-x,1/2+y,1/2-z
-x,-y,-z
1/2+x,1/2+y,-z
1/2-x,y,1/2+z
x,1/2-y,1/2+z
loop_
_atom_site_type_symbol
_atom_site_label
_atom_site_fract_x
_atom_site_fract_y
_atom_site_fract_z
Si Si1 0.763151 0.052821 0.063827
Si Si2 0.362845 0.581242 0.122402
Si Si3 0.400462 0.640440 0.527850
Si Si4 0.989866 0.934987 0.358370
Si Si5 0.250000 0.750000 0.269049
Si Si6 0.916254 0.823837 0.753940
Si Si7 0.250000 0.250000 0.836080
O O1 0.791659 0.140168 0.157112
O O2 0.748097 0.892523 0.100358
O O3 0.818863 0.045837 0.974397
O O4 0.684042 0.127571 0.022352
O O5 0.414395 0.717265 0.089689
O O6 0.305409 0.651231 0.202650
O O7 0.402377 0.436921 0.160857
O O8 0.463650 0.633566 0.445330
O O9 0.411255 0.505088 0.597925
O O10 0.970033 0.811802 0.283281
O O11 0.042821 0.068683 0.321283
O O12 0.830977 0.762668 0.723011
#
# Coordination Sequence:
#
# PCOD9433525 Si02
#       7
#     8   8   8   8   4   8   4
#     4  12  25  43  72 112 147 186 238 313 365 426
#     4  12  25  42  77 106 143 191 248 297 370 430
#     4  11  23  47  68 101 144 195 237 296 366 443
#     4  11  27  46  72  98 153 188 240 302 373 437
#     4  12  20  44  68 106 146 186 234 308 362 430
#     4  12  28  48  72 112 141 200 244 303 367 444
#     4  12  28  44  76 112 150 182 258 308 358 428
#
# _framework density 21.585567000000001
#
# number of rings (size 3 to 8) (size 9 to 14) (size 15 to 20)
#    0.000    0.333    6.667    1.000    7.000    2.000 
#    0.000    0.000    0.000    0.000    0.000    0.000 
#    0.000    0.000    0.000    0.000    0.000    0.000 
#
# Total GULP energy -268162.807733 kJ/mol
# GULP energy per Si atom -5586.725161 kJ/mol
# Density = 2.153644 g / cm^3
# Si number density = 21.585567 Si / 1000 Ang^3
#
#
#
# Elastic Constant Matrix: (Units=GPa)
#
#
# Indices 1 2 3 4 5 6 
#
# 1 47.6832 21.8972 22.4913 0.0000 0.0000 0.0000
# 2 21.8972 68.8823 20.9693 0.0000 0.0000 0.0000
# 3 22.4913 20.9693 106.1778 0.0000 0.0000 0.0000
# 4 0.0000 0.0000 0.0000 22.1950 0.0000 0.0000
# 5 0.0000 0.0000 0.0000 0.0000 110.5392 0.0000
# 6 0.0000 0.0000 0.0000 0.0000 0.0000 29.9224
#
#
#
# Elastic Compliance Matrix: (Units=1/GPa)
#
#
# Indices 1 2 3 4 5 6 
#
# 1 0.026169 -0.007056 -0.004150 0.000000 0.000000 0.000000
# 2 -0.007056 0.017349 -0.001932 0.000000 0.000000 0.000000
# 3 -0.004150 -0.001932 0.010679 0.000000 0.000000 0.000000
# 4 0.000000 0.000000 0.000000 0.045055 0.000000 0.000000
# 5 0.000000 0.000000 0.000000 0.000000 0.009047 0.000000
# 6 0.000000 0.000000 0.000000 0.000000 0.000000 0.033420
#
#
# Mechanical properties :
#
#
# Convention : Reuss Voigt Hill
#
# Bulk Modulus (GPa) = 35.81397 39.27321 37.54359
# Shear Modulus (GPa) = 28.20080 43.02369 35.61224
#
# Velocity S-wave (km/s) = 3.61843 4.46934 4.06620
# Velocity P-wave (km/s) = 5.83824 6.69828 6.28299
#
# Compressibility (1/GPa) = 0.02792207
#
# Stress axis : x y z
#
# Youngs Moduli (GPa) = 38.21268 57.64181 93.64436
#
# Poissons Ratio (x) = 0.40670 0.38861
# Poissons Ratio (y) = 0.26962 0.18088
# Poissons Ratio (z) = 0.15858 0.11134
#
# Static dielectric constant tensor:
#      x y z
#    x 1.836100 0.000000 0.000000 
#    y 0.000000 1.811090 0.000000 
#    z 0.000000 0.000000 1.786300 
# 
# From -- ./inp_files/12719.got.cif
#   From: 2010.05.17/outbox.cif.g08.bks.cpg/sg56_7_cif.got.tgz:12719.got - 2010.06.03 13:42:01.
