data_PCOD9433693
_publ_section_title
;
Structure prediction by ZEFSAII (Michael W. Deem and Ramdas Pophale) SiO2 
 PCOD9433693
Probable space group: P C C N
;
_chemical_formula_sum "Si O2"
_cell_formula_units_Z 40
_cell_length_a 8.378491
_cell_length_b 13.171873
_cell_length_c 15.111266
_cell_angle_alpha 90.000000
_cell_angle_beta 90.000000
_cell_angle_gamma 90.000000
_cell_volume 1667.685653
_symmetry_space_group_name_H-M "P C C N"
_symmetry_group_IT_number 56
_symmetry_cell_setting 'orthorhombic'
loop_
_space_group_symop_operation_xyz
x,y,z
1/2-x,1/2-y,z
1/2+x,-y,1/2-z
-x,1/2+y,1/2-z
-x,-y,-z
1/2+x,1/2+y,-z
1/2-x,y,1/2+z
x,1/2-y,1/2+z
loop_
_atom_site_type_symbol
_atom_site_label
_atom_site_fract_x
_atom_site_fract_y
_atom_site_fract_z
Si Si1 0.613716 0.328251 0.822197
Si Si2 0.903993 0.913071 0.446859
Si Si3 0.808292 0.863868 0.100569
Si Si4 0.184329 0.446343 0.712537
Si Si5 0.445388 0.727912 0.851692
O O1 0.750000 0.250000 0.850127
O O2 0.497943 0.361995 0.899059
O O3 0.663552 0.433477 0.779683
O O4 0.515491 0.272179 0.745721
O O5 0.752622 0.907473 0.509920
O O6 0.838686 0.940584 0.350797
O O7 0.983990 0.802332 0.427808
O O8 0.000000 0.000000 0.500000
O O9 0.750000 0.750000 0.102240
O O10 0.729933 0.911751 0.188518
O O11 0.039115 0.381289 0.663811
O O12 0.250000 0.750000 0.856686
#
# Coordination Sequence:
#
# PCOD9433693 Si02
#       5
#     8   8   8   8   8
#     4  11  27  45  80 114 151 203 267 322 394 479
#     4  12  28  48  76 114 153 207 260 323 392 475
#     4  12  25  46  78 108 155 202 258 320 397 473
#     4  12  26  51  77 110 159 207 251 325 406 463
#     4  11  25  50  77 113 158 204 263 326 391 476
#
# _framework density 23.985334999999999
#
# number of rings (size 3 to 8) (size 9 to 14) (size 15 to 20)
#    0.000    0.400    4.000    3.000   11.200    0.800 
#    3.600    1.000    0.000    0.000    0.000    0.000 
#    0.000    0.000    0.000    0.000    0.000    0.000 
#
# Total GULP energy -222962.985985 kJ/mol
# GULP energy per Si atom -5574.074650 kJ/mol
# Density = 2.393074 g / cm^3
# Si number density = 23.985335 Si / 1000 Ang^3
#
#
#
# Elastic Constant Matrix: (Units=GPa)
#
#
# Indices 1 2 3 4 5 6 
#
# 1 74.7910 22.4539 20.6151 0.0000 0.0000 0.0000
# 2 22.4539 109.6807 -8.9664 0.0000 0.0000 0.0000
# 3 20.6151 -8.9664 79.8650 0.0000 0.0000 0.0000
# 4 0.0000 0.0000 0.0000 16.7901 0.0000 0.0000
# 5 0.0000 0.0000 0.0000 0.0000 -30.7043 0.0000
# 6 0.0000 0.0000 0.0000 0.0000 0.0000 35.5984
#
#
#
# Elastic Compliance Matrix: (Units=1/GPa)
#
#
# Indices 1 2 3 4 5 6 
#
# 1 0.015668 -0.003571 -0.004445 0.000000 0.000000 0.000000
# 2 -0.003571 0.010016 0.002046 0.000000 0.000000 0.000000
# 3 -0.004445 0.002046 0.013898 0.000000 0.000000 0.000000
# 4 0.000000 0.000000 0.000000 0.059559 0.000000 0.000000
# 5 0.000000 0.000000 0.000000 0.000000 -0.032569 0.000000
# 6 0.000000 0.000000 0.000000 0.000000 0.000000 0.028091
#
#
# Mechanical properties :
#
#
# Convention : Reuss Voigt Hill
#
# Bulk Modulus (GPa) = 36.17677 36.94910 36.56294
# Shear Modulus (GPa) = 43.17151 19.68578 31.42865
#
# Velocity S-wave (km/s) = 4.24714 2.86797 3.62377
# Velocity P-wave (km/s) = 6.25832 5.13861 5.72590
#
# Compressibility (1/GPa) = 0.02764205
#
# Stress axis : x y z
#
# Youngs Moduli (GPa) = 63.82470 99.84332 71.95139
#
# Poissons Ratio (x) = 0.35653 0.31984
# Poissons Ratio (y) = 0.22791 -0.14723
# Poissons Ratio (z) = 0.28371 -0.20430
#
# Static dielectric constant tensor:
#      x y z
#    x 2.022020 0.000000 0.000000 
#    y 0.000000 1.899110 0.000000 
#    z 0.000000 0.000000 1.894670 
# 
# From -- ./inp_files/10387.got.cif
#   From: 2010.05.17/outbox.cif.g08.bks.cpg/sg56_6_cif.got.tgz:10387.got - 2010.06.03 13:42:01.
