data_PCOD9433572
_publ_section_title
;
Structure prediction by ZEFSAII (Michael W. Deem and Ramdas Pophale) SiO2 
 PCOD9433572
Probable space group: P C C N
;
_chemical_formula_sum "Si O2"
_cell_formula_units_Z 48
_cell_length_a 9.184763
_cell_length_b 8.474267
_cell_length_c 28.438717
_cell_angle_alpha 90.000000
_cell_angle_beta 90.000000
_cell_angle_gamma 90.000000
_cell_volume 2213.502910
_symmetry_space_group_name_H-M "P C C N"
_symmetry_group_IT_number 56
_symmetry_cell_setting 'orthorhombic'
loop_
_space_group_symop_operation_xyz
x,y,z
1/2-x,1/2-y,z
1/2+x,-y,1/2-z
-x,1/2+y,1/2-z
-x,-y,-z
1/2+x,1/2+y,-z
1/2-x,y,1/2+z
x,1/2-y,1/2+z
loop_
_atom_site_type_symbol
_atom_site_label
_atom_site_fract_x
_atom_site_fract_y
_atom_site_fract_z
Si Si1 0.286451 0.935534 0.102848
Si Si2 0.675417 0.920859 0.706552
Si Si3 0.038559 0.566316 0.948538
Si Si4 0.457017 0.431858 0.050054
Si Si5 0.794335 0.933665 0.102802
Si Si6 0.677869 0.078234 0.296726
O O1 0.250000 0.750000 0.097689
O O2 0.229959 0.994994 0.153492
O O3 0.454572 0.968733 0.092393
O O4 0.209977 0.036504 0.061896
O O5 0.750000 0.750000 0.705561
O O6 0.721029 0.993525 0.656195
O O7 0.498200 0.916831 0.708016
O O8 0.746181 0.000969 0.751756
O O9 0.999456 0.749940 0.945999
O O10 0.204984 0.533863 0.935125
O O11 0.000000 0.500000 0.000000
O O12 0.539445 0.539261 0.088461
O O13 0.500000 0.500000 0.000000
O O14 0.750000 0.750000 0.099524
O O15 0.750000 0.250000 0.299060
#
# Coordination Sequence:
#
# PCOD9433572 Si02
#       6
#     8   8   8   8   8   8
#     4  11  24  44  69  97 136 179 230 281 348 410
#     4  11  25  45  72 103 140 184 231 286 352 418
#     4  12  26  42  67 102 135 184 229 286 348 410
#     4  12  24  44  67  96 137 176 229 286 342 416
#     4  11  24  44  69  97 136 179 230 281 348 410
#     4  11  25  45  72 103 140 184 231 286 352 418
#
# _framework density 21.685085999999998
#
# number of rings (size 3 to 8) (size 9 to 14) (size 15 to 20)
#    0.000    0.667    1.667    6.000    9.333    2.667 
#    0.000    0.000    0.000    0.000    0.000    0.000 
#    0.000    0.000    0.000    0.000    0.000    0.000 
#
# Total GULP energy -268303.916934 kJ/mol
# GULP energy per Si atom -5589.664936 kJ/mol
# Density = 2.163573 g / cm^3
# Si number density = 21.685086 Si / 1000 Ang^3
#
#
#
# Elastic Constant Matrix: (Units=GPa)
#
#
# Indices 1 2 3 4 5 6 
#
# 1 99.6065 8.3846 30.4001 0.0000 0.0000 0.0000
# 2 8.3846 85.4687 22.9974 0.0000 0.0000 0.0000
# 3 30.4001 22.9974 154.7176 0.0000 0.0000 0.0000
# 4 0.0000 0.0000 0.0000 31.3882 0.0000 0.0000
# 5 0.0000 0.0000 0.0000 0.0000 42.9403 0.0000
# 6 0.0000 0.0000 0.0000 0.0000 0.0000 42.1741
#
#
#
# Elastic Compliance Matrix: (Units=1/GPa)
#
#
# Indices 1 2 3 4 5 6 
#
# 1 0.010701 -0.000504 -0.002028 0.000000 0.000000 0.000000
# 2 -0.000504 0.012211 -0.001716 0.000000 0.000000 0.000000
# 3 -0.002028 -0.001716 0.007117 0.000000 0.000000 0.000000
# 4 0.000000 0.000000 0.000000 0.031859 0.000000 0.000000
# 5 0.000000 0.000000 0.000000 0.000000 0.023288 0.000000
# 6 0.000000 0.000000 0.000000 0.000000 0.000000 0.023711
#
#
# Mechanical properties :
#
#
# Convention : Reuss Voigt Hill
#
# Bulk Modulus (GPa) = 46.43965 51.48412 48.96188
# Shear Modulus (GPa) = 40.14099 41.83458 40.98778
#
# Velocity S-wave (km/s) = 4.30709 4.39702 4.35229
# Velocity P-wave (km/s) = 6.79682 7.04071 6.91984
#
# Compressibility (1/GPa) = 0.02153332
#
# Stress axis : x y z
#
# Youngs Moduli (GPa) = 93.45108 81.89076 140.51116
#
# Poissons Ratio (x) = 0.04129 0.28490
# Poissons Ratio (y) = 0.04712 0.24112
# Poissons Ratio (z) = 0.18948 0.14053
#
# Static dielectric constant tensor:
#      x y z
#    x 1.735660 0.000000 0.000000 
#    y 0.000000 2.018630 0.000000 
#    z 0.000000 0.000000 1.832490 
# 
# From -- ./inp_files/23186.got.cif
#   From: 2010.05.17/outbox.cif.g08.bks.cpg/sg56_12_cif.got.tgz:23186.got - 2010.06.03 13:42:01.
