data_PCOD9433000
_publ_section_title
;
Structure prediction by ZEFSAII (Michael W. Deem and Ramdas Pophale) SiO2 
 PCOD9433000
Probable space group: P C C N
;
_chemical_formula_sum "Si O2"
_cell_formula_units_Z 40
_cell_length_a 6.026202
_cell_length_b 16.231359
_cell_length_c 17.323655
_cell_angle_alpha 90.000000
_cell_angle_beta 90.000000
_cell_angle_gamma 90.000000
_cell_volume 1694.486429
_symmetry_space_group_name_H-M "P C C N"
_symmetry_group_IT_number 56
_symmetry_cell_setting 'orthorhombic'
loop_
_space_group_symop_operation_xyz
x,y,z
1/2-x,1/2-y,z
1/2+x,-y,1/2-z
-x,1/2+y,1/2-z
-x,-y,-z
1/2+x,1/2+y,-z
1/2-x,y,1/2+z
x,1/2-y,1/2+z
loop_
_atom_site_type_symbol
_atom_site_label
_atom_site_fract_x
_atom_site_fract_y
_atom_site_fract_z
Si Si1 0.083254 0.617020 0.733098
Si Si2 0.900925 0.369992 0.911316
Si Si3 0.750000 0.250000 0.670666
Si Si4 0.756077 0.512946 0.640617
Si Si5 0.250000 0.250000 0.967786
Si Si6 0.452899 0.624541 0.950568
O O1 0.276904 0.625657 0.670143
O O2 0.071316 0.702757 0.777482
O O3 0.149093 0.548480 0.796763
O O4 0.869368 0.586568 0.687702
O O5 0.067868 0.447380 0.912127
O O6 0.043167 0.286070 0.920466
O O7 0.725580 0.374849 0.980486
O O8 0.865461 0.315734 0.616269
O O9 0.941371 0.464919 0.589819
O O10 0.330416 0.329006 0.017605
#
# Coordination Sequence:
#
# PCOD9433000 Si02
#       6
#     8   8   4   8   4   8
#     4  11  25  45  69 106 142 189 238 296 365 440
#     4  12  25  45  72 104 146 186 244 299 368 438
#     4  10  24  46  68  94 154 184 234 304 354 432
#     4  11  25  46  72 106 144 191 239 302 369 432
#     4  12  26  44  74 106 136 190 244 302 362 422
#     4  11  25  48  71 105 141 190 246 304 356 438
#
# _framework density 23.605972999999999
#
# number of rings (size 3 to 8) (size 9 to 14) (size 15 to 20)
#    0.000    0.800    4.000    1.800    5.600    6.400 
#    0.000    0.000    0.000    0.000    0.000    0.000 
#    0.000    0.000    0.000    0.000    0.000    0.000 
#
# Total GULP energy -223983.330008 kJ/mol
# GULP energy per Si atom -5599.583250 kJ/mol
# Density = 2.355224 g / cm^3
# Si number density = 23.605973 Si / 1000 Ang^3
#
#
#
# Elastic Constant Matrix: (Units=GPa)
#
#
# Indices 1 2 3 4 5 6 
#
# 1 55.9405 24.6135 30.7248 0.0000 0.0000 0.0000
# 2 24.6135 89.6745 65.6717 0.0000 0.0000 0.0000
# 3 30.7248 65.6717 101.3161 0.0000 0.0000 0.0000
# 4 0.0000 0.0000 0.0000 67.1610 0.0000 0.0000
# 5 0.0000 0.0000 0.0000 0.0000 23.5597 0.0000
# 6 0.0000 0.0000 0.0000 0.0000 0.0000 41.5236
#
#
#
# Elastic Compliance Matrix: (Units=1/GPa)
#
#
# Indices 1 2 3 4 5 6 
#
# 1 0.021666 -0.002161 -0.005170 0.000000 0.000000 0.000000
# 2 -0.002161 0.021444 -0.013244 0.000000 0.000000 0.000000
# 3 -0.005170 -0.013244 0.020023 0.000000 0.000000 0.000000
# 4 0.000000 0.000000 0.000000 0.014890 0.000000 0.000000
# 5 0.000000 0.000000 0.000000 0.000000 0.042445 0.000000
# 6 0.000000 0.000000 0.000000 0.000000 0.000000 0.024083
#
#
# Mechanical properties :
#
#
# Convention : Reuss Voigt Hill
#
# Bulk Modulus (GPa) = 45.48994 54.32790 49.90892
# Shear Modulus (GPa) = 25.90297 34.84359 30.37328
#
# Velocity S-wave (km/s) = 3.31615 3.84611 3.59092
# Velocity P-wave (km/s) = 5.82880 6.54124 6.19527
#
# Compressibility (1/GPa) = 0.02198288
#
# Stress axis : x y z
#
# Youngs Moduli (GPa) = 46.15439 46.63358 49.94349
#
# Poissons Ratio (x) = 0.10077 0.25820
# Poissons Ratio (y) = 0.09973 0.66146
# Poissons Ratio (z) = 0.23861 0.61763
#
# Static dielectric constant tensor:
#      x y z
#    x 1.989430 0.000000 0.000000 
#    y 0.000000 1.926720 0.000000 
#    z 0.000000 0.000000 1.873150 
# 
# From -- ./inp_files/13873.got.cif
#   From: 2010.05.17/outbox.cif.g08.bks.cpg/sg56_7_cif.got.tgz:13873.got - 2010.06.03 13:42:01.
