data_PCOD9433484
_publ_section_title
;
Structure prediction by ZEFSAII (Michael W. Deem and Ramdas Pophale) SiO2 
 PCOD9433484
Probable space group: P C C N
;
_chemical_formula_sum "Si O2"
_cell_formula_units_Z 48
_cell_length_a 9.784273
_cell_length_b 16.462102
_cell_length_c 14.510073
_cell_angle_alpha 90.000000
_cell_angle_beta 90.000000
_cell_angle_gamma 90.000000
_cell_volume 2337.133107
_symmetry_space_group_name_H-M "P C C N"
_symmetry_group_IT_number 56
_symmetry_cell_setting 'orthorhombic'
loop_
_space_group_symop_operation_xyz
x,y,z
1/2-x,1/2-y,z
1/2+x,-y,1/2-z
-x,1/2+y,1/2-z
-x,-y,-z
1/2+x,1/2+y,-z
1/2-x,y,1/2+z
x,1/2-y,1/2+z
loop_
_atom_site_type_symbol
_atom_site_label
_atom_site_fract_x
_atom_site_fract_y
_atom_site_fract_z
Si Si1 0.457089 0.670539 0.247964
Si Si2 0.041362 0.836422 0.650691
Si Si3 0.328657 0.664607 0.446980
Si Si4 0.662586 0.002143 0.512819
Si Si5 0.752964 0.034058 0.814344
Si Si6 0.259695 0.388750 0.825142
O O1 0.412349 0.757365 0.207240
O O2 0.422903 0.660694 0.355978
O O3 0.370898 0.601378 0.195488
O O4 0.615133 0.657429 0.222653
O O5 0.090173 0.835292 0.544228
O O6 0.111709 0.916558 0.693421
O O7 0.879180 0.840545 0.660023
O O8 0.250000 0.750000 0.442391
O O9 0.224106 0.587631 0.448224
O O10 0.734295 0.994119 0.414101
O O11 0.500000 0.000000 0.500000
O O12 0.697292 0.927384 0.578099
O O13 0.769875 0.966295 0.738613
#
# Coordination Sequence:
#
# PCOD9433484 Si02
#       6
#     8   8   8   8   8   8
#     4  12  24  46  68  98 136 181 228 281 340 414
#     4  11  26  45  66 102 137 180 229 284 340 409
#     4  11  25  45  74  99 133 189 235 278 340 419
#     4  11  24  42  69 102 136 177 226 289 344 405
#     4  11  23  43  72  94 134 181 233 271 340 411
#     4  12  26  43  67 103 141 174 225 289 350 395
#
# _framework density 20.537984000000002
#
# number of rings (size 3 to 8) (size 9 to 14) (size 15 to 20)
#    0.000    0.667    3.333    5.000    2.333    1.333 
#    0.000    1.667    0.000    0.000    0.000    0.000 
#    0.000    0.000    0.000    0.000    0.000    0.000 
#
# Total GULP energy -268486.149689 kJ/mol
# GULP energy per Si atom -5593.461452 kJ/mol
# Density = 2.049124 g / cm^3
# Si number density = 20.537984 Si / 1000 Ang^3
#
#
#
# Elastic Constant Matrix: (Units=GPa)
#
#
# Indices 1 2 3 4 5 6 
#
# 1 141.9000 33.9911 28.7494 0.0000 0.0000 0.0000
# 2 33.9911 61.5889 37.1621 0.0000 0.0000 0.0000
# 3 28.7494 37.1621 104.6363 0.0000 0.0000 0.0000
# 4 0.0000 0.0000 0.0000 25.5785 0.0000 0.0000
# 5 0.0000 0.0000 0.0000 0.0000 20.3079 0.0000
# 6 0.0000 0.0000 0.0000 0.0000 0.0000 15.5197
#
#
#
# Elastic Compliance Matrix: (Units=1/GPa)
#
#
# Indices 1 2 3 4 5 6 
#
# 1 0.008176 -0.004018 -0.000819 0.000000 0.000000 0.000000
# 2 -0.004018 0.022640 -0.006937 0.000000 0.000000 0.000000
# 3 -0.000819 -0.006937 0.012246 0.000000 0.000000 0.000000
# 4 0.000000 0.000000 0.000000 0.039095 0.000000 0.000000
# 5 0.000000 0.000000 0.000000 0.000000 0.049242 0.000000
# 6 0.000000 0.000000 0.000000 0.000000 0.000000 0.064434
#
#
# Mechanical properties :
#
#
# Convention : Reuss Voigt Hill
#
# Bulk Modulus (GPa) = 51.24714 56.43671 53.84192
# Shear Modulus (GPa) = 22.13520 26.16272 24.14896
#
# Velocity S-wave (km/s) = 3.28650 3.57300 3.43274
# Velocity P-wave (km/s) = 6.27758 6.67538 6.47953
#
# Compressibility (1/GPa) = 0.01951329
#
# Stress axis : x y z
#
# Youngs Moduli (GPa) = 122.31439 44.17036 81.66174
#
# Poissons Ratio (x) = 0.17747 0.06691
# Poissons Ratio (y) = 0.49143 0.56646
# Poissons Ratio (z) = 0.10022 0.30640
#
# Static dielectric constant tensor:
#      x y z
#    x 1.725990 0.000000 0.000000 
#    y 0.000000 1.723290 0.000000 
#    z 0.000000 0.000000 1.714810 
# 
# From -- ./inp_files/10659.got.cif
#   From: 2010.05.17/outbox.cif.g08.bks.cpg/sg56_6_cif.got.tgz:10659.got - 2010.06.03 13:42:01.
