data_PCOD9433353
_publ_section_title
;
Structure prediction by ZEFSAII (Michael W. Deem and Ramdas Pophale) SiO2 
 PCOD9433353
Probable space group: P C C N
;
_chemical_formula_sum "Si O2"
_cell_formula_units_Z 64
_cell_length_a 22.078787
_cell_length_b 9.798801
_cell_length_c 10.909025
_cell_angle_alpha 90.000000
_cell_angle_beta 90.000000
_cell_angle_gamma 90.000000
_cell_volume 2360.119997
_symmetry_space_group_name_H-M "P C C N"
_symmetry_group_IT_number 56
_symmetry_cell_setting 'orthorhombic'
loop_
_space_group_symop_operation_xyz
x,y,z
1/2-x,1/2-y,z
1/2+x,-y,1/2-z
-x,1/2+y,1/2-z
-x,-y,-z
1/2+x,1/2+y,-z
1/2-x,y,1/2+z
x,1/2-y,1/2+z
loop_
_atom_site_type_symbol
_atom_site_label
_atom_site_fract_x
_atom_site_fract_y
_atom_site_fract_z
Si Si1 0.964435 0.193722 0.455127
Si Si2 0.782882 0.941705 0.328854
Si Si3 0.856098 0.254746 0.617615
Si Si4 0.565344 0.999797 0.376699
Si Si5 0.157105 0.314526 0.734052
Si Si6 0.407095 0.205530 0.425272
Si Si7 0.559283 0.024793 0.730825
Si Si8 0.750830 0.077930 0.578184
O O1 0.914398 0.181461 0.560478
O O2 0.941121 0.337820 0.390305
O O3 0.960311 0.065631 0.365437
O O4 0.035890 0.214084 0.479254
O O5 0.836580 0.831071 0.335972
O O6 0.715992 0.879338 0.325158
O O7 0.783079 0.028252 0.453799
O O8 0.781298 0.991715 0.186202
O O9 0.886670 0.368726 0.703870
O O10 0.804871 0.148267 0.660469
O O11 0.807390 0.334194 0.530689
O O12 0.603694 0.925253 0.272805
O O13 0.598554 0.928065 0.491235
O O14 0.497144 0.943824 0.360199
O O15 0.153551 0.277622 0.879036
O O16 0.431018 0.134107 0.299094
#
# Coordination Sequence:
#
# PCOD9433353 Si02
#       8
#     8   8   8   8   8   8   8   8
#     4  11  22  40  68 102 139 178 226 281 355 424
#     4  11  28  49  68  98 137 188 242 297 350 407
#     4  11  24  41  69  99 137 184 224 292 352 432
#     4  11  22  43  67 101 139 181 229 282 352 428
#     4  11  26  42  72  96 134 187 230 294 338 421
#     4  11  22  43  67 101 139 181 229 282 352 428
#     4  11  22  40  68 102 139 178 226 281 355 424
#     4  11  28  47  69 101 137 185 240 294 352 413
#
# _framework density 27.117267999999999
#
# number of rings (size 3 to 8) (size 9 to 14) (size 15 to 20)
#    0.000    1.000    3.750    2.250   10.500    2.000 
#    0.000    0.000    0.000    4.500    0.000    0.000 
#    0.000    0.000    0.000    0.000    0.000    0.000 
#
# Total GULP energy -356313.270962 kJ/mol
# GULP energy per Si atom -5567.394859 kJ/mol
# Density = 2.705555 g / cm^3
# Si number density = 27.117268 Si / 1000 Ang^3
#
#
#
# Elastic Constant Matrix: (Units=GPa)
#
#
# Indices 1 2 3 4 5 6 
#
# 1 103.4372 13.7999 -6.7960 0.0000 0.0000 0.0000
# 2 13.7999 52.1934 15.5148 0.0000 0.0000 0.0000
# 3 -6.7960 15.5148 51.9481 0.0000 0.0000 0.0000
# 4 0.0000 0.0000 0.0000 226.8548 0.0000 0.0000
# 5 0.0000 0.0000 0.0000 0.0000 32.3999 0.0000
# 6 0.0000 0.0000 0.0000 0.0000 0.0000 -2.4317
#
#
#
# Elastic Compliance Matrix: (Units=1/GPa)
#
#
# Indices 1 2 3 4 5 6 
#
# 1 0.010280 -0.003421 0.002367 0.000000 0.000000 0.000000
# 2 -0.003421 0.022165 -0.007067 0.000000 0.000000 0.000000
# 3 0.002367 -0.007067 0.021670 0.000000 0.000000 0.000000
# 4 0.000000 0.000000 0.000000 0.004408 0.000000 0.000000
# 5 0.000000 0.000000 0.000000 0.000000 0.030864 0.000000
# 6 0.000000 0.000000 0.000000 0.000000 0.000000 -0.411234
#
#
# Mechanical properties :
#
#
# Convention : Reuss Voigt Hill
#
# Bulk Modulus (GPa) = 26.40567 28.06844 27.23705
# Shear Modulus (GPa) = -17.06607 63.70194 23.31793
#
# Velocity S-wave (km/s) = -2.51139 4.85204 2.93557
# Velocity P-wave (km/s) = 1.16158 6.46243 4.64285
#
# Compressibility (1/GPa) = 0.03787066
#
# Stress axis : x y z
#
# Youngs Moduli (GPa) = 97.27942 45.11628 46.14600
#
# Poissons Ratio (x) = 0.15436 -0.10921
# Poissons Ratio (y) = 0.33284 0.32613
# Poissons Ratio (z) = -0.23023 0.31885
#
# Static dielectric constant tensor:
#      x y z
#    x 2.179290 0.000000 0.000000 
#    y 0.000000 2.354670 0.000000 
#    z 0.000000 0.000000 2.327960 
# 
# From -- ./inp_files/8965.got.cif
#   From: 2010.05.17/outbox.cif.g08.bks.cpg/sg56_5_cif.got.tgz:8965.got - 2010.06.03 13:42:01.
