data_PCOD9433871
_publ_section_title
;
Structure prediction by ZEFSAII (Michael W. Deem and Ramdas Pophale) SiO2 
 PCOD9433871
Probable space group: P C C N
;
_chemical_formula_sum "Si O2"
_cell_formula_units_Z 24
_cell_length_a 4.773371
_cell_length_b 24.086117
_cell_length_c 8.576233
_cell_angle_alpha 90.000000
_cell_angle_beta 90.000000
_cell_angle_gamma 90.000000
_cell_volume 986.026424
_symmetry_space_group_name_H-M "P C C N"
_symmetry_group_IT_number 56
_symmetry_cell_setting 'orthorhombic'
loop_
_space_group_symop_operation_xyz
x,y,z
1/2-x,1/2-y,z
1/2+x,-y,1/2-z
-x,1/2+y,1/2-z
-x,-y,-z
1/2+x,1/2+y,-z
1/2-x,y,1/2+z
x,1/2-y,1/2+z
loop_
_atom_site_type_symbol
_atom_site_label
_atom_site_fract_x
_atom_site_fract_y
_atom_site_fract_z
Si Si1 0.140237 0.521171 0.158078
Si Si2 0.639563 0.145233 0.385472
Si Si3 0.641698 0.812451 0.930235
O O1 0.399970 0.483362 0.211178
O O2 0.252881 0.583064 0.137503
O O3 0.000000 0.500000 0.000000
O O4 0.403022 0.149829 0.518407
O O5 0.497788 0.167244 0.228674
O O6 0.903245 0.182033 0.438013
O O7 0.750000 0.750000 0.917320
#
# Coordination Sequence:
#
# PCOD9433871 Si02
#       3
#     8   8   8
#     4  12  27  50  77 112 153 201 255 315 380 453
#     4  12  27  50  78 112 153 201 253 313 380 454
#     4  12  27  50  77 112 152 200 253 312 379 453
#
# _framework density 24.340119999999999
#
# number of rings (size 3 to 8) (size 9 to 14) (size 15 to 20)
#    0.000    0.000    0.000    9.000    0.000    8.000 
#    0.000    1.667    0.000    0.000    0.000    0.000 
#    0.000    0.000    0.000    0.000    0.000    0.000 
#
# Total GULP energy -134952.449066 kJ/mol
# GULP energy per Si atom -5623.018711 kJ/mol
# Density = 2.428472 g / cm^3
# Si number density = 24.340120 Si / 1000 Ang^3
#
#
#
# Elastic Constant Matrix: (Units=GPa)
#
#
# Indices 1 2 3 4 5 6 
#
# 1 200.4922 116.3842 80.9825 0.0000 0.0000 0.0000
# 2 116.3842 221.1891 130.9899 0.0000 0.0000 0.0000
# 3 80.9825 130.9899 127.0382 0.0000 0.0000 0.0000
# 4 0.0000 0.0000 0.0000 36.4578 0.0000 0.0000
# 5 0.0000 0.0000 0.0000 0.0000 75.5561 0.0000
# 6 0.0000 0.0000 0.0000 0.0000 0.0000 66.3149
#
#
#
# Elastic Compliance Matrix: (Units=1/GPa)
#
#
# Indices 1 2 3 4 5 6 
#
# 1 0.007336 -0.002801 -0.001788 0.000000 0.000000 0.000000
# 2 -0.002801 0.012680 -0.011289 0.000000 0.000000 0.000000
# 3 -0.001788 -0.011289 0.020652 0.000000 0.000000 0.000000
# 4 0.000000 0.000000 0.000000 0.027429 0.000000 0.000000
# 5 0.000000 0.000000 0.000000 0.000000 0.013235 0.000000
# 6 0.000000 0.000000 0.000000 0.000000 0.000000 0.015080
#
#
# Mechanical properties :
#
#
# Convention : Reuss Voigt Hill
#
# Bulk Modulus (GPa) = 112.21748 133.93695 123.07722
# Shear Modulus (GPa) = 38.12706 50.35663 44.24184
#
# Velocity S-wave (km/s) = 3.96211 4.55342 4.26802
# Velocity P-wave (km/s) = 8.19360 9.09899 8.65814
#
# Compressibility (1/GPa) = 0.00891127
#
# Stress axis : x y z
#
# Youngs Moduli (GPa) = 136.31397 78.86138 48.42073
#
# Poissons Ratio (x) = 0.22088 0.08660
# Poissons Ratio (y) = 0.38180 0.54664
# Poissons Ratio (z) = 0.24379 0.89030
#
# Static dielectric constant tensor:
#      x y z
#    x 1.928250 0.000000 0.000000 
#    y 0.000000 1.794350 0.000000 
#    z 0.000000 0.000000 1.996510 
# 
# From -- ./inp_files/1487.got.cif
#   From: 2010.05.17/outbox.cif.g08.bks.cpg/sg56_1_cif.got.tgz:1487.got - 2010.06.03 13:42:01.
