data_PCOD9433953
_publ_section_title
;
Structure prediction by ZEFSAII (Michael W. Deem and Ramdas Pophale) SiO2 
 PCOD9433953
Probable space group: P C C N
;
_chemical_formula_sum "Si O2"
_cell_formula_units_Z 48
_cell_length_a 9.000000
_cell_length_b 15.000000
_cell_length_c 18.000000
_cell_angle_alpha 90.000000
_cell_angle_beta 90.000000
_cell_angle_gamma 90.000000
_cell_volume 2430.000000
_symmetry_space_group_name_H-M "P C C N"
_symmetry_group_IT_number 56
_symmetry_cell_setting 'orthorhombic'
loop_
_space_group_symop_operation_xyz
x,y,z
1/2-x,1/2-y,z
1/2+x,-y,1/2-z
-x,1/2+y,1/2-z
-x,-y,-z
1/2+x,1/2+y,-z
1/2-x,y,1/2+z
x,1/2-y,1/2+z
loop_
_atom_site_type_symbol
_atom_site_label
_atom_site_fract_x
_atom_site_fract_y
_atom_site_fract_z
Si Si1 0.657955 0.158993 0.076584
Si Si2 0.583994 0.215580 0.839624
Si Si3 0.367184 0.174429 0.976012
Si Si4 0.969139 0.113166 0.735729
Si Si5 0.181022 0.499385 0.506471
Si Si6 0.714480 0.479174 0.321934
O O1 0.750000 0.250000 0.072618
O O2 0.621289 0.134581 0.160983
O O3 0.498844 0.163163 0.035547
O O4 0.756633 0.084841 0.036351
O O5 0.750000 0.250000 0.865453
O O6 0.458511 0.204149 0.902600
O O7 0.528034 0.292984 0.782288
O O8 0.619263 0.113581 0.813843
O O9 0.250000 0.250000 0.998020
O O10 0.266462 0.085472 0.970406
O O11 0.869098 0.043072 0.781451
O O12 0.121482 0.062192 0.712246
O O13 0.241346 0.504748 0.591644
O O14 0.000000 0.500000 0.500000
#
# Coordination Sequence:
#
# PCOD9433953 Si02
#       6
#     8   8   8   8   8   8
#     4  12  24  46  74 104 141 188 235 303 357 430
#     4  10  23  45  72 102 143 193 236 297 363 432
#     4  12  25  43  71 107 140 185 242 295 355 428
#     4  11  26  45  70 105 144 191 235 299 365 430
#     4  12  27  46  77 106 142 188 246 301 363 434
#     4  11  24  48  71 104 145 188 243 295 362 432
#
# _framework density 19.753086
#
# number of rings (size 3 to 8) (size 9 to 14) (size 15 to 20)
#    0.000    0.667    3.333    4.500    9.333    1.333 
#    3.000    0.833    0.000    0.000    0.000    0.000 
#    0.000    0.000    0.000    0.000    0.000    0.000 
#
# Total GULP energy -268223.552725 kJ/mol
# GULP energy per Si atom -5587.990682 kJ/mol
# Density = 1.970813 g / cm^3
# Si number density = 19.753086 Si / 1000 Ang^3
#
#
#
# Elastic Constant Matrix: (Units=GPa)
#
#
# Indices 1 2 3 4 5 6 
#
# 1 123.0405 57.2600 48.1825 0.0000 0.0000 0.0000
# 2 57.2600 132.7807 48.9878 0.0000 0.0000 0.0000
# 3 48.1825 48.9878 134.3640 0.0000 0.0000 0.0000
# 4 0.0000 0.0000 0.0000 29.4722 0.0000 0.0000
# 5 0.0000 0.0000 0.0000 0.0000 30.7394 0.0000
# 6 0.0000 0.0000 0.0000 0.0000 0.0000 52.9445
#
#
#
# Elastic Compliance Matrix: (Units=1/GPa)
#
#
# Indices 1 2 3 4 5 6 
#
# 1 0.010863 -0.003752 -0.002528 0.000000 0.000000 0.000000
# 2 -0.003752 0.009998 -0.002300 0.000000 0.000000 0.000000
# 3 -0.002528 -0.002300 0.009187 0.000000 0.000000 0.000000
# 4 0.000000 0.000000 0.000000 0.033930 0.000000 0.000000
# 5 0.000000 0.000000 0.000000 0.000000 0.032531 0.000000
# 6 0.000000 0.000000 0.000000 0.000000 0.000000 0.018888
#
#
# Mechanical properties :
#
#
# Convention : Reuss Voigt Hill
#
# Bulk Modulus (GPa) = 77.58115 77.67175 77.62645
# Shear Modulus (GPa) = 36.53557 38.34820 37.44188
#
# Velocity S-wave (km/s) = 4.30538 4.41089 4.35845
# Velocity P-wave (km/s) = 8.00473 8.08381 8.04437
#
# Compressibility (1/GPa) = 0.01288973
#
# Stress axis : x y z
#
# Youngs Moduli (GPa) = 92.05250 100.02320 108.84667
#
# Poissons Ratio (x) = 0.37530 0.27512
# Poissons Ratio (y) = 0.34540 0.25030
# Poissons Ratio (z) = 0.23267 0.23001
#
# Static dielectric constant tensor:
#      x y z
#    x 1.665970 0.000000 0.000000 
#    y 0.000000 1.709800 0.000000 
#    z 0.000000 0.000000 1.721000 
# 
# From -- ./inp_files/14832.got.cif
#   From: 2010.05.17/outbox.ucp.g08.bks.cvg/sg56_8_cif.got.tgz:14832.got - 2010.06.11 16:37:52.
