data_PCOD9433303
_publ_section_title
;
Structure prediction by ZEFSAII (Michael W. Deem and Ramdas Pophale) SiO2 
 PCOD9433303
Probable space group: P C C N
;
_chemical_formula_sum "Si O2"
_cell_formula_units_Z 40
_cell_length_a 6.315558
_cell_length_b 16.377859
_cell_length_c 14.477673
_cell_angle_alpha 90.000000
_cell_angle_beta 90.000000
_cell_angle_gamma 90.000000
_cell_volume 1497.502717
_symmetry_space_group_name_H-M "P C C N"
_symmetry_group_IT_number 56
_symmetry_cell_setting 'orthorhombic'
loop_
_space_group_symop_operation_xyz
x,y,z
1/2-x,1/2-y,z
1/2+x,-y,1/2-z
-x,1/2+y,1/2-z
-x,-y,-z
1/2+x,1/2+y,-z
1/2-x,y,1/2+z
x,1/2-y,1/2+z
loop_
_atom_site_type_symbol
_atom_site_label
_atom_site_fract_x
_atom_site_fract_y
_atom_site_fract_z
Si Si1 0.496644 0.392815 0.859296
Si Si2 0.715799 0.154407 0.021318
Si Si3 0.991246 0.763032 0.766252
Si Si4 0.995554 0.434938 0.678339
Si Si5 0.829208 0.930450 0.479322
O O1 0.471791 0.305888 0.811569
O O2 0.479065 0.470831 0.790206
O O3 0.701778 0.382921 0.924939
O O4 0.321801 0.416194 0.934723
O O5 0.750000 0.250000 0.017324
O O6 0.468168 0.148735 0.034242
O O7 0.825931 0.102461 0.103915
O O8 0.250000 0.750000 0.794170
O O9 0.750000 0.750000 0.813076
O O10 0.988224 0.861118 0.749385
O O11 0.196959 0.442318 0.612092
O O12 0.000000 0.000000 0.500000
#
# Coordination Sequence:
#
# PCOD9433303 Si02
#       5
#     8   8   8   8   8
#     4  11  25  46  75 113 155 207 264 330 403 479
#     4  11  23  41  75 115 155 187 258 339 406 469
#     4  12  32  52  74 110 162 218 268 320 394 492
#     4  11  25  46  75 113 155 207 264 330 403 479
#     4  11  21  43  83 120 149 199 264 342 412 476
#
# _framework density 26.711137999999998
#
# number of rings (size 3 to 8) (size 9 to 14) (size 15 to 20)
#    0.000    0.800    4.000    2.400   11.200    3.200 
#    0.000    0.000    0.000    0.000    0.000    1.400 
#    0.000    0.000    0.000    0.000    0.000    0.000 
#
# Total GULP energy -223061.577702 kJ/mol
# GULP energy per Si atom -5576.539443 kJ/mol
# Density = 2.665034 g / cm^3
# Si number density = 26.711138 Si / 1000 Ang^3
#
#
#
# Elastic Constant Matrix: (Units=GPa)
#
#
# Indices 1 2 3 4 5 6 
#
# 1 139.2469 5.2184 44.5047 0.0000 0.0000 0.0000
# 2 5.2184 190.3889 74.1903 0.0000 0.0000 0.0000
# 3 44.5047 74.1903 79.8616 0.0000 0.0000 0.0000
# 4 0.0000 0.0000 0.0000 20.1065 0.0000 0.0000
# 5 0.0000 0.0000 0.0000 0.0000 22.0950 0.0000
# 6 0.0000 0.0000 0.0000 0.0000 0.0000 29.3757
#
#
#
# Elastic Compliance Matrix: (Units=1/GPa)
#
#
# Indices 1 2 3 4 5 6 
#
# 1 0.009643 0.002868 -0.008038 0.000000 0.000000 0.000000
# 2 0.002868 0.009086 -0.010039 0.000000 0.000000 0.000000
# 3 -0.008038 -0.010039 0.026327 0.000000 0.000000 0.000000
# 4 0.000000 0.000000 0.000000 0.049735 0.000000 0.000000
# 5 0.000000 0.000000 0.000000 0.000000 0.045259 0.000000
# 6 0.000000 0.000000 0.000000 0.000000 0.000000 0.034042
#
#
# Mechanical properties :
#
#
# Convention : Reuss Voigt Hill
#
# Bulk Modulus (GPa) = 68.31564 73.03601 70.67582
# Shear Modulus (GPa) = 23.87908 33.35438 28.61673
#
# Velocity S-wave (km/s) = 2.99318 3.53754 3.27669
# Velocity P-wave (km/s) = 6.12999 6.63987 6.39002
#
# Compressibility (1/GPa) = 0.01463794
#
# Stress axis : x y z
#
# Youngs Moduli (GPa) = 103.70146 110.06390 37.98407
#
# Poissons Ratio (x) = -0.31566 0.30532
# Poissons Ratio (y) = -0.29741 0.38131
# Poissons Ratio (z) = 0.83356 1.10489
#
# Static dielectric constant tensor:
#      x y z
#    x 2.305900 0.000000 0.000000 
#    y 0.000000 2.219940 0.000000 
#    z 0.000000 0.000000 2.155150 
# 
# From -- ./inp_files/13839.got.cif
#   From: 2010.05.17/outbox.cif.g08.bks.cpg/sg56_7_cif.got.tgz:13839.got - 2010.06.03 13:42:01.
