data_PCOD9433597
_publ_section_title
;
Structure prediction by ZEFSAII (Michael W. Deem and Ramdas Pophale) SiO2 
 PCOD9433597
Probable space group: P C C N
;
_chemical_formula_sum "Si O2"
_cell_formula_units_Z 48
_cell_length_a 9.041122
_cell_length_b 16.962901
_cell_length_c 13.925022
_cell_angle_alpha 90.000000
_cell_angle_beta 90.000000
_cell_angle_gamma 90.000000
_cell_volume 2135.592304
_symmetry_space_group_name_H-M "P C C N"
_symmetry_group_IT_number 56
_symmetry_cell_setting 'orthorhombic'
loop_
_space_group_symop_operation_xyz
x,y,z
1/2-x,1/2-y,z
1/2+x,-y,1/2-z
-x,1/2+y,1/2-z
-x,-y,-z
1/2+x,1/2+y,-z
1/2-x,y,1/2+z
x,1/2-y,1/2+z
loop_
_atom_site_type_symbol
_atom_site_label
_atom_site_fract_x
_atom_site_fract_y
_atom_site_fract_z
Si Si1 0.231427 0.665634 0.897290
Si Si2 0.411211 0.914511 0.235561
Si Si3 0.375029 0.179687 0.079150
Si Si4 0.324315 0.334759 0.354199
Si Si5 0.188988 0.662225 0.612818
Si Si6 0.924718 0.910853 0.232573
O O1 0.250000 0.750000 0.848153
O O2 0.303747 0.604330 0.824657
O O3 0.056582 0.672615 0.916408
O O4 0.322833 0.660348 0.997249
O O5 0.538582 0.850620 0.216084
O O6 0.308024 0.903815 0.142479
O O7 0.477371 0.000999 0.248235
O O8 0.250000 0.250000 0.093929
O O9 0.351412 0.122525 0.169806
O O10 0.358393 0.163389 0.966528
O O11 0.250000 0.250000 0.333193
O O12 0.211073 0.406141 0.339837
O O13 0.250000 0.750000 0.632358
O O14 0.048109 0.642580 0.679295
#
# Coordination Sequence:
#
# PCOD9433597 Si02
#       6
#     8   8   8   8   8   8
#     4  11  26  45  75 103 141 194 245 298 352 430
#     4  12  25  46  72 109 147 189 237 294 369 427
#     4  11  26  47  72 106 142 190 248 295 355 427
#     4  11  26  45  73 105 143 189 245 301 349 424
#     4  11  24  46  73 101 142 192 247 297 355 424
#     4  12  27  43  74 110 148 191 235 299 367 430
#
# _framework density 22.476202000000001
#
# number of rings (size 3 to 8) (size 9 to 14) (size 15 to 20)
#    0.000    0.667    3.333    3.000   11.667    2.667 
#    0.000    0.000    0.000    0.000    0.000    0.000 
#    0.000    0.000    0.000    0.000    0.000    0.000 
#
# Total GULP energy -267253.339456 kJ/mol
# GULP energy per Si atom -5567.777905 kJ/mol
# Density = 2.242504 g / cm^3
# Si number density = 22.476202 Si / 1000 Ang^3
#
#
#
# Elastic Constant Matrix: (Units=GPa)
#
#
# Indices 1 2 3 4 5 6 
#
# 1 113.9045 41.6545 43.9766 0.0000 0.0000 0.0000
# 2 41.6545 104.5094 60.8761 0.0000 0.0000 0.0000
# 3 43.9766 60.8761 128.5338 0.0000 0.0000 0.0000
# 4 0.0000 0.0000 0.0000 -9.1516 0.0000 0.0000
# 5 0.0000 0.0000 0.0000 0.0000 37.7654 0.0000
# 6 0.0000 0.0000 0.0000 0.0000 0.0000 26.2238
#
#
#
# Elastic Compliance Matrix: (Units=1/GPa)
#
#
# Indices 1 2 3 4 5 6 
#
# 1 0.010738 -0.002955 -0.002274 0.000000 0.000000 0.000000
# 2 -0.002955 0.014027 -0.005633 0.000000 0.000000 0.000000
# 3 -0.002274 -0.005633 0.011226 0.000000 0.000000 0.000000
# 4 0.000000 0.000000 0.000000 -0.109270 0.000000 0.000000
# 5 0.000000 0.000000 0.000000 0.000000 0.026479 0.000000
# 6 0.000000 0.000000 0.000000 0.000000 0.000000 0.038133
#
#
# Mechanical properties :
#
#
# Convention : Reuss Voigt Hill
#
# Bulk Modulus (GPa) = 70.09052 71.10689 70.59871
# Shear Modulus (GPa) = 280.69267 24.33021 152.51144
#
# Velocity S-wave (km/s) = 11.18729 3.29369 8.24633
# Velocity P-wave (km/s) = 14.07572 6.79483 11.05205
#
# Compressibility (1/GPa) = 0.01426726
#
# Stress axis : x y z
#
# Youngs Moduli (GPa) = 93.12699 71.28985 89.07997
#
# Poissons Ratio (x) = 0.21067 0.20260
# Poissons Ratio (y) = 0.27520 0.50175
# Poissons Ratio (z) = 0.21180 0.40154
#
# Static dielectric constant tensor:
#      x y z
#    x 2.035080 0.000000 0.000000 
#    y 0.000000 1.852510 0.000000 
#    z 0.000000 0.000000 1.823750 
# 
# From -- ./inp_files/10678.got.cif
#   From: 2010.05.17/outbox.cif.g08.bks.cpg/sg56_6_cif.got.tgz:10678.got - 2010.06.03 13:42:01.
