data_PCOD9433330
_publ_section_title
;
Structure prediction by ZEFSAII (Michael W. Deem and Ramdas Pophale) SiO2 
 PCOD9433330
Probable space group: P C C N
;
_chemical_formula_sum "Si O2"
_cell_formula_units_Z 56
_cell_length_a 5.113388
_cell_length_b 24.121362
_cell_length_c 24.554830
_cell_angle_alpha 90.000000
_cell_angle_beta 90.000000
_cell_angle_gamma 90.000000
_cell_volume 3028.638969
_symmetry_space_group_name_H-M "P C C N"
_symmetry_group_IT_number 56
_symmetry_cell_setting 'orthorhombic'
loop_
_space_group_symop_operation_xyz
x,y,z
1/2-x,1/2-y,z
1/2+x,-y,1/2-z
-x,1/2+y,1/2-z
-x,-y,-z
1/2+x,1/2+y,-z
1/2-x,y,1/2+z
x,1/2-y,1/2+z
loop_
_atom_site_type_symbol
_atom_site_label
_atom_site_fract_x
_atom_site_fract_y
_atom_site_fract_z
Si Si1 0.685733 0.121710 0.820014
Si Si2 0.817299 0.813992 0.146382
Si Si3 0.176204 0.965175 0.897414
Si Si4 0.315765 0.878285 0.982162
Si Si5 0.319431 0.964070 0.080764
Si Si6 0.250251 0.533500 0.768565
Si Si7 0.317900 0.185983 0.484039
O O1 0.397871 0.146739 0.826122
O O2 0.721335 0.075061 0.866730
O O3 0.731446 0.091553 0.762940
O O4 0.898226 0.168777 0.832723
O O5 0.750000 0.750000 0.156640
O O6 0.802334 0.823199 0.081199
O O7 0.249750 0.907422 0.925462
O O8 0.190683 0.962118 0.832312
O O9 0.393479 0.009688 0.916420
O O10 0.895309 0.987568 0.916485
O O11 0.287708 0.926337 0.027700
O O12 0.603280 0.852863 0.987557
O O13 0.104762 0.831266 0.996587
O O14 0.467606 0.493458 0.741678
O O15 0.250000 0.250000 0.494262
#
# Coordination Sequence:
#
# PCOD9433330 Si02
#       7
#     8   8   8   8   8   8   8
#     4  12  21  37  62  84 119 150 187 239 285 331
#     4  11  22  38  60  88 115 147 190 242 294 339
#     4  12  24  39  55  85 122 156 193 225 273 352
#     4  12  23  37  59  85 120 151 185 236 290 342
#     4  12  21  37  58  87 119 154 184 227 291 339
#     4  12  23  38  59  83 115 155 192 230 274 338
#     4  11  22  38  60  86 113 147 191 239 291 341
#
# _framework density 18.490152999999999
#
# number of rings (size 3 to 8) (size 9 to 14) (size 15 to 20)
#    0.000    0.286    5.714    5.143    0.000    2.286 
#    0.000    0.000    0.000    5.143    0.000    0.000 
#    0.000    0.000    0.000    0.000    0.000    0.000 
#
# Total GULP energy -313423.451655 kJ/mol
# GULP energy per Si atom -5596.847351 kJ/mol
# Density = 1.844807 g / cm^3
# Si number density = 18.490153 Si / 1000 Ang^3
#
#
#
# Elastic Constant Matrix: (Units=GPa)
#
#
# Indices 1 2 3 4 5 6 
#
# 1 39.4418 -19.6769 -11.9809 0.0000 0.0000 0.0000
# 2 -19.6769 43.1771 13.1415 0.0000 0.0000 0.0000
# 3 -11.9809 13.1415 58.7026 0.0000 0.0000 0.0000
# 4 0.0000 0.0000 0.0000 -11.8061 0.0000 0.0000
# 5 0.0000 0.0000 0.0000 0.0000 11.4305 0.0000
# 6 0.0000 0.0000 0.0000 0.0000 0.0000 31.0832
#
#
#
# Elastic Compliance Matrix: (Units=1/GPa)
#
#
# Indices 1 2 3 4 5 6 
#
# 1 0.033537 0.014165 0.003673 0.000000 0.000000 0.000000
# 2 0.014165 0.030837 -0.004012 0.000000 0.000000 0.000000
# 3 0.003673 -0.004012 0.018683 0.000000 0.000000 0.000000
# 4 0.000000 0.000000 0.000000 -0.084702 0.000000 0.000000
# 5 0.000000 0.000000 0.000000 0.000000 0.087486 0.000000
# 6 0.000000 0.000000 0.000000 0.000000 0.000000 0.032172
#
#
# Mechanical properties :
#
#
# Convention : Reuss Voigt Hill
#
# Bulk Modulus (GPa) = 9.03260 11.58764 10.31012
# Shear Modulus (GPa) = 39.28914 16.79739 28.04326
#
# Velocity S-wave (km/s) = 4.61463 3.01732 3.89866
# Velocity P-wave (km/s) = 5.76964 4.29179 5.08470
#
# Compressibility (1/GPa) = 0.11071004
#
# Stress axis : x y z
#
# Youngs Moduli (GPa) = 29.81816 32.42842 53.52469
#
# Poissons Ratio (x) = -0.45936 -0.19662
# Poissons Ratio (y) = -0.42239 0.21476
# Poissons Ratio (z) = -0.10954 0.13011
#
# Static dielectric constant tensor:
#      x y z
#    x 1.622470 0.000000 0.000000 
#    y 0.000000 1.623620 0.000000 
#    z 0.000000 0.000000 1.619120 
# 
# From -- ./inp_files/20129.got.cif
#   From: 2010.05.17/outbox.cif.g08.bks.cpg/sg56_11_cif.got.tgz:20129.got - 2010.06.03 13:42:01.
