data_PCOD9433656
_publ_section_title
;
Structure prediction by ZEFSAII (Michael W. Deem and Ramdas Pophale) SiO2 
 PCOD9433656
Probable space group: P C C N
;
_chemical_formula_sum "Si O2"
_cell_formula_units_Z 48
_cell_length_a 10.154681
_cell_length_b 17.403137
_cell_length_c 12.381005
_cell_angle_alpha 90.000000
_cell_angle_beta 90.000000
_cell_angle_gamma 90.000000
_cell_volume 2188.012118
_symmetry_space_group_name_H-M "P C C N"
_symmetry_group_IT_number 56
_symmetry_cell_setting 'orthorhombic'
loop_
_space_group_symop_operation_xyz
x,y,z
1/2-x,1/2-y,z
1/2+x,-y,1/2-z
-x,1/2+y,1/2-z
-x,-y,-z
1/2+x,1/2+y,-z
1/2-x,y,1/2+z
x,1/2-y,1/2+z
loop_
_atom_site_type_symbol
_atom_site_label
_atom_site_fract_x
_atom_site_fract_y
_atom_site_fract_z
Si Si1 0.402682 0.639073 0.022031
Si Si2 0.003930 0.828370 0.802087
Si Si3 0.326518 0.535655 0.459315
Si Si4 0.453638 0.510250 0.688797
Si Si5 0.250000 0.250000 0.300631
Si Si6 0.750000 0.250000 0.815675
Si Si7 0.848572 0.911552 0.127356
O O1 0.487080 0.680477 0.930531
O O2 0.290448 0.595733 0.955035
O O3 0.330384 0.692056 0.107822
O O4 0.503547 0.582636 0.081713
O O5 0.137581 0.792411 0.752983
O O6 0.873490 0.785280 0.763199
O O7 0.999879 0.917053 0.760199
O O8 0.391304 0.542347 0.577243
O O9 0.427698 0.541018 0.360164
O O10 0.257796 0.453014 0.447284
O O11 0.356145 0.457525 0.759088
O O12 0.310446 0.177056 0.362613
#
# Coordination Sequence:
#
# PCOD9433656 Si02
#       7
#     8   8   8   8   4   4   8
#     4  12  27  44  77 106 140 195 250 300 374 444
#     4  12  26  50  73 106 151 192 245 311 375 445
#     4  11  25  45  73 106 141 189 251 301 368 444
#     4  11  26  45  76 104 143 194 244 306 369 441
#     4  12  28  50  70 110 152 194 230 320 378 438
#     4  12  26  50  74 106 146 190 250 310 372 440
#     4  12  27  46  75 106 148 187 247 301 374 445
#
# _framework density 21.937721
#
# number of rings (size 3 to 8) (size 9 to 14) (size 15 to 20)
#    0.000    0.333    6.667    1.000    7.000    2.000 
#    0.000    0.000    0.000    0.000    0.000    0.000 
#    0.000    0.000    0.000    0.000    0.000    0.000 
#
# Total GULP energy -268407.342093 kJ/mol
# GULP energy per Si atom -5591.819627 kJ/mol
# Density = 2.188779 g / cm^3
# Si number density = 21.937721 Si / 1000 Ang^3
#
#
#
# Elastic Constant Matrix: (Units=GPa)
#
#
# Indices 1 2 3 4 5 6 
#
# 1 73.8171 -3.0652 20.9017 0.0000 0.0000 0.0000
# 2 -3.0652 66.1389 7.5411 0.0000 0.0000 0.0000
# 3 20.9017 7.5411 79.1516 0.0000 0.0000 0.0000
# 4 0.0000 0.0000 0.0000 181.1879 0.0000 0.0000
# 5 0.0000 0.0000 0.0000 0.0000 -25.7758 0.0000
# 6 0.0000 0.0000 0.0000 0.0000 0.0000 44.8760
#
#
#
# Elastic Compliance Matrix: (Units=1/GPa)
#
#
# Indices 1 2 3 4 5 6 
#
# 1 0.014726 0.001138 -0.003997 0.000000 0.000000 0.000000
# 2 0.001138 0.015374 -0.001765 0.000000 0.000000 0.000000
# 3 -0.003997 -0.001765 0.013858 0.000000 0.000000 0.000000
# 4 0.000000 0.000000 0.000000 0.005519 0.000000 0.000000
# 5 0.000000 0.000000 0.000000 0.000000 -0.038796 0.000000
# 6 0.000000 0.000000 0.000000 0.000000 0.000000 0.022284
#
#
# Mechanical properties :
#
#
# Convention : Reuss Voigt Hill
#
# Bulk Modulus (GPa) = 28.81095 29.98477 29.39786
# Shear Modulus (GPa) = 92.96732 52.97296 72.97014
#
# Velocity S-wave (km/s) = 6.51689 4.91929 5.77361
# Velocity P-wave (km/s) = 8.35392 6.77965 7.60762
#
# Compressibility (1/GPa) = 0.03470902
#
# Stress axis : x y z
#
# Youngs Moduli (GPa) = 67.90673 65.04599 72.16195
#
# Poissons Ratio (x) = -0.07404 0.28845
# Poissons Ratio (y) = -0.07729 0.12739
# Poissons Ratio (z) = 0.27144 0.11483
#
# Static dielectric constant tensor:
#      x y z
#    x 1.803440 0.000000 0.000000 
#    y 0.000000 1.824110 0.000000 
#    z 0.000000 0.000000 1.767570 
# 
# From -- ./inp_files/7202.got.cif
#   From: 2010.05.17/outbox.cif.g08.bks.cpg/sg56_4_cif.got.tgz:7202.got - 2010.06.03 13:42:01.
