data_PCOD9433875
_publ_section_title
;
Structure prediction by ZEFSAII (Michael W. Deem and Ramdas Pophale) SiO2 
 PCOD9433875
Probable space group: P C C N
;
_chemical_formula_sum "Si O2"
_cell_formula_units_Z 32
_cell_length_a 7.760647
_cell_length_b 12.496131
_cell_length_c 13.905789
_cell_angle_alpha 90.000000
_cell_angle_beta 90.000000
_cell_angle_gamma 90.000000
_cell_volume 1348.556462
_symmetry_space_group_name_H-M "P C C N"
_symmetry_group_IT_number 56
_symmetry_cell_setting 'orthorhombic'
loop_
_space_group_symop_operation_xyz
x,y,z
1/2-x,1/2-y,z
1/2+x,-y,1/2-z
-x,1/2+y,1/2-z
-x,-y,-z
1/2+x,1/2+y,-z
1/2-x,y,1/2+z
x,1/2-y,1/2+z
loop_
_atom_site_type_symbol
_atom_site_label
_atom_site_fract_x
_atom_site_fract_y
_atom_site_fract_z
Si Si1 0.250000 0.750000 0.520079
Si Si2 0.981196 0.412718 0.081610
Si Si3 0.750000 0.750000 0.835176
Si Si4 0.465903 0.932458 0.598709
Si Si5 0.697664 0.548488 0.735960
O O1 0.322678 0.658703 0.451962
O O2 0.401489 0.811434 0.577804
O O3 0.935307 0.479566 0.175118
O O4 0.130115 0.326583 0.102006
O O5 0.000000 0.500000 0.000000
O O6 0.645321 0.668291 0.767365
O O7 0.637737 0.939430 0.664847
O O8 0.500000 0.000000 0.500000
O O9 0.311334 0.985573 0.661616
#
# Coordination Sequence:
#
# PCOD9433875 Si02
#       5
#     4   8   4   8   8
#     4  12  28  48  84 112 166 222 260 354 430 482
#     4  12  29  49  79 121 161 213 284 342 418 510
#     4  12  28  48  80 116 164 218 272 350 432 496
#     4  12  27  52  81 122 170 214 287 351 420 510
#     4  12  28  50  78 119 162 216 280 345 414 512
#
# _framework density 23.729077
#
# number of rings (size 3 to 8) (size 9 to 14) (size 15 to 20)
#    0.000    0.000    5.000    3.000    7.000    1.000 
#    0.000    0.000    0.000    0.000    0.000    0.000 
#    0.000    0.000    0.000    0.000    0.000    0.000 
#
# Total GULP energy -178751.918993 kJ/mol
# GULP energy per Si atom -5585.997469 kJ/mol
# Density = 2.367507 g / cm^3
# Si number density = 23.729077 Si / 1000 Ang^3
#
#
#
# Elastic Constant Matrix: (Units=GPa)
#
#
# Indices 1 2 3 4 5 6 
#
# 1 108.2445 40.1672 52.6306 0.0000 0.0000 0.0000
# 2 40.1672 165.5035 71.5173 0.0000 0.0000 0.0000
# 3 52.6306 71.5173 169.8298 0.0000 0.0000 0.0000
# 4 0.0000 0.0000 0.0000 45.0126 0.0000 0.0000
# 5 0.0000 0.0000 0.0000 0.0000 38.1114 0.0000
# 6 0.0000 0.0000 0.0000 0.0000 0.0000 66.5876
#
#
#
# Elastic Compliance Matrix: (Units=1/GPa)
#
#
# Indices 1 2 3 4 5 6 
#
# 1 0.011168 -0.001485 -0.002836 0.000000 0.000000 0.000000
# 2 -0.001485 0.007584 -0.002733 0.000000 0.000000 0.000000
# 3 -0.002836 -0.002733 0.007918 0.000000 0.000000 0.000000
# 4 0.000000 0.000000 0.000000 0.022216 0.000000 0.000000
# 5 0.000000 0.000000 0.000000 0.000000 0.026239 0.000000
# 6 0.000000 0.000000 0.000000 0.000000 0.000000 0.015018
#
#
# Mechanical properties :
#
#
# Convention : Reuss Voigt Hill
#
# Bulk Modulus (GPa) = 79.60688 85.80087 82.70388
# Shear Modulus (GPa) = 46.10921 48.55983 47.33452
#
# Velocity S-wave (km/s) = 4.41290 4.52865 4.47115
# Velocity P-wave (km/s) = 7.71920 7.97383 7.84755
#
# Compressibility (1/GPa) = 0.01256173
#
# Stress axis : x y z
#
# Youngs Moduli (GPa) = 89.54006 131.86099 126.29355
#
# Poissons Ratio (x) = 0.19583 0.35812
# Poissons Ratio (y) = 0.13298 0.34520
# Poissons Ratio (z) = 0.25390 0.36042
#
# Static dielectric constant tensor:
#      x y z
#    x 1.970030 0.000000 0.000000 
#    y 0.000000 1.845660 0.000000 
#    z 0.000000 0.000000 1.897710 
# 
# From -- ./inp_files/10108.got.cif
#   From: 2010.05.17/outbox.cif.g08.bks.cpg/sg56_6_cif.got.tgz:10108.got - 2010.06.03 13:42:01.
