data_PCOD9433369
_publ_section_title
;
Structure prediction by ZEFSAII (Michael W. Deem and Ramdas Pophale) SiO2 
 PCOD9433369
Probable space group: P C C N
;
_chemical_formula_sum "Si O2"
_cell_formula_units_Z 56
_cell_length_a 9.054810
_cell_length_b 16.917872
_cell_length_c 18.473150
_cell_angle_alpha 90.000000
_cell_angle_beta 90.000000
_cell_angle_gamma 90.000000
_cell_volume 2829.867056
_symmetry_space_group_name_H-M "P C C N"
_symmetry_group_IT_number 56
_symmetry_cell_setting 'orthorhombic'
loop_
_space_group_symop_operation_xyz
x,y,z
1/2-x,1/2-y,z
1/2+x,-y,1/2-z
-x,1/2+y,1/2-z
-x,-y,-z
1/2+x,1/2+y,-z
1/2-x,y,1/2+z
x,1/2-y,1/2+z
loop_
_atom_site_type_symbol
_atom_site_label
_atom_site_fract_x
_atom_site_fract_y
_atom_site_fract_z
Si Si1 0.428560 0.251991 0.555237
Si Si2 0.407278 0.207797 0.897485
Si Si3 0.072228 0.590225 0.416703
Si Si4 0.629092 0.440356 0.913160
Si Si5 0.478733 0.965944 0.081688
Si Si6 0.899132 0.200213 0.801349
Si Si7 0.601270 0.117311 0.146662
O O1 0.250000 0.250000 0.557661
O O2 0.479550 0.258267 0.471443
O O3 0.482839 0.171139 0.590222
O O4 0.507481 0.325178 0.594241
O O5 0.250000 0.250000 0.898007
O O6 0.425177 0.113740 0.907816
O O7 0.479323 0.235402 0.822948
O O8 0.100692 0.576605 0.502215
O O9 0.229358 0.604436 0.378376
O O10 0.972025 0.515979 0.392425
O O11 0.805046 0.452107 0.906830
O O12 0.589732 0.367305 0.862151
O O13 0.530199 0.031362 0.138675
O O14 0.500000 0.000000 0.000000
O O15 0.750000 0.250000 0.806428
O O16 0.907580 0.157568 0.724629
#
# Coordination Sequence:
#
# PCOD9433369 Si02
#       7
#     8   8   8   8   8   8   8
#     4  11  22  41  70 100 135 181 235 291 342 413
#     4  11  25  42  72 100 138 183 238 290 352 426
#     4  11  23  40  69 105 134 178 234 288 341 419
#     4  11  24  41  70 100 138 180 230 287 353 417
#     4  12  23  44  72 103 135 179 236 295 352 417
#     4  12  26  48  65  98 140 189 228 281 363 425
#     4  12  27  43  70 101 143 180 237 293 350 422
#
# _framework density 19.788916
#
# number of rings (size 3 to 8) (size 9 to 14) (size 15 to 20)
#    0.000    0.571    5.714    2.143    4.000    1.714 
#    2.571    0.000    0.000    0.000    0.000    0.000 
#    0.000    0.000    0.000    0.000    0.000    0.000 
#
# Total GULP energy -312733.340308 kJ/mol
# GULP energy per Si atom -5584.523934 kJ/mol
# Density = 1.974388 g / cm^3
# Si number density = 19.788916 Si / 1000 Ang^3
#
#
#
# Elastic Constant Matrix: (Units=GPa)
#
#
# Indices 1 2 3 4 5 6 
#
# 1 83.3358 48.4912 12.3628 0.0000 0.0000 0.0000
# 2 48.4912 160.0290 39.0585 0.0000 0.0000 0.0000
# 3 12.3628 39.0585 78.3728 0.0000 0.0000 0.0000
# 4 0.0000 0.0000 0.0000 35.0190 0.0000 0.0000
# 5 0.0000 0.0000 0.0000 0.0000 15.9352 0.0000
# 6 0.0000 0.0000 0.0000 0.0000 0.0000 40.6180
#
#
#
# Elastic Compliance Matrix: (Units=1/GPa)
#
#
# Indices 1 2 3 4 5 6 
#
# 1 0.014569 -0.004387 -0.000112 0.000000 0.000000 0.000000
# 2 -0.004387 0.008435 -0.003512 0.000000 0.000000 0.000000
# 3 -0.000112 -0.003512 0.014527 0.000000 0.000000 0.000000
# 4 0.000000 0.000000 0.000000 0.028556 0.000000 0.000000
# 5 0.000000 0.000000 0.000000 0.000000 0.062754 0.000000
# 6 0.000000 0.000000 0.000000 0.000000 0.000000 0.024620
#
#
# Mechanical properties :
#
#
# Convention : Reuss Voigt Hill
#
# Bulk Modulus (GPa) = 46.48984 57.95141 52.22062
# Shear Modulus (GPa) = 28.30399 33.10279 30.70339
#
# Velocity S-wave (km/s) = 3.78603 4.09442 3.94324
# Velocity P-wave (km/s) = 6.53115 7.19032 6.86865
#
# Compressibility (1/GPa) = 0.02151008
#
# Stress axis : x y z
#
# Youngs Moduli (GPa) = 68.63820 118.54699 68.83572
#
# Poissons Ratio (x) = 0.52012 0.00768
# Poissons Ratio (y) = 0.30115 0.24174
# Poissons Ratio (z) = 0.00766 0.41632
#
# Static dielectric constant tensor:
#      x y z
#    x 1.579970 0.000000 0.000000 
#    y 0.000000 1.707660 0.000000 
#    z 0.000000 0.000000 2.300480 
# 
# From -- ./inp_files/18223.got.cif
#   From: 2010.05.17/outbox.cif.g08.bks.cpg/sg56_10_cif.got.tgz:18223.got - 2010.06.03 13:42:01.
