data_PCOD9433086
_publ_section_title
;
Structure prediction by ZEFSAII (Michael W. Deem and Ramdas Pophale) SiO2 
 PCOD9433086
Probable space group: P C C N
;
_chemical_formula_sum "Si O2"
_cell_formula_units_Z 48
_cell_length_a 11.841572
_cell_length_b 16.177698
_cell_length_c 11.379169
_cell_angle_alpha 90.000000
_cell_angle_beta 90.000000
_cell_angle_gamma 90.000000
_cell_volume 2179.900301
_symmetry_space_group_name_H-M "P C C N"
_symmetry_group_IT_number 56
_symmetry_cell_setting 'orthorhombic'
loop_
_space_group_symop_operation_xyz
x,y,z
1/2-x,1/2-y,z
1/2+x,-y,1/2-z
-x,1/2+y,1/2-z
-x,-y,-z
1/2+x,1/2+y,-z
1/2-x,y,1/2+z
x,1/2-y,1/2+z
loop_
_atom_site_type_symbol
_atom_site_label
_atom_site_fract_x
_atom_site_fract_y
_atom_site_fract_z
Si Si1 0.979658 0.612848 0.703639
Si Si2 0.904101 0.669990 0.464658
Si Si3 0.415104 0.569027 0.826680
Si Si4 0.337580 0.145947 0.070290
Si Si5 0.527943 0.410972 0.442299
Si Si6 0.310741 0.659129 0.360502
O O1 0.935244 0.672517 0.601706
O O2 0.968581 0.521041 0.649111
O O3 0.896478 0.608193 0.815490
O O4 0.101219 0.641762 0.753343
O O5 0.865194 0.757586 0.415306
O O6 0.790227 0.617868 0.443988
O O7 0.009103 0.634901 0.395149
O O8 0.426638 0.583377 0.687653
O O9 0.286362 0.589066 0.859983
O O10 0.403659 0.127507 0.949944
O O11 0.500000 0.500000 0.500000
O O12 0.611825 0.357397 0.524371
O O13 0.250000 0.750000 0.356436
#
# Coordination Sequence:
#
# PCOD9433086 Si02
#       6
#     8   8   8   8   8   8
#     4  11  26  46  69 106 147 179 247 291 364 431
#     4  11  27  43  73 104 139 185 236 297 358 433
#     4  12  26  42  76 104 144 187 238 301 361 433
#     4  10  25  45  70 100 138 187 229 290 355 432
#     4  11  24  46  70 103 146 189 241 294 365 432
#     4  11  27  48  71 107 146 198 242 299 362 437
#
# _framework density 22.019355000000001
#
# number of rings (size 3 to 8) (size 9 to 14) (size 15 to 20)
#    0.000    1.000    3.333    2.500   14.000    2.000 
#    0.000    0.000    0.000    0.000    0.000    0.000 
#    0.000    0.000    0.000    0.000    0.000    0.000 
#
# Total GULP energy -267937.932460 kJ/mol
# GULP energy per Si atom -5582.040260 kJ/mol
# Density = 2.196924 g / cm^3
# Si number density = 22.019355 Si / 1000 Ang^3
#
#
#
# Elastic Constant Matrix: (Units=GPa)
#
#
# Indices 1 2 3 4 5 6 
#
# 1 137.8338 0.6792 24.4361 0.0000 0.0000 0.0000
# 2 0.6792 55.5053 -1.9070 0.0000 0.0000 0.0000
# 3 24.4361 -1.9070 72.6510 0.0000 0.0000 0.0000
# 4 0.0000 0.0000 0.0000 25.8365 0.0000 0.0000
# 5 0.0000 0.0000 0.0000 0.0000 10.0763 0.0000
# 6 0.0000 0.0000 0.0000 0.0000 0.0000 29.5946
#
#
#
# Elastic Compliance Matrix: (Units=1/GPa)
#
#
# Indices 1 2 3 4 5 6 
#
# 1 0.007717 -0.000184 -0.002600 0.000000 0.000000 0.000000
# 2 -0.000184 0.018037 0.000535 0.000000 0.000000 0.000000
# 3 -0.002600 0.000535 0.014653 0.000000 0.000000 0.000000
# 4 0.000000 0.000000 0.000000 0.038705 0.000000 0.000000
# 5 0.000000 0.000000 0.000000 0.000000 0.099243 0.000000
# 6 0.000000 0.000000 0.000000 0.000000 0.000000 0.033790
#
#
# Mechanical properties :
#
#
# Convention : Reuss Voigt Hill
#
# Bulk Modulus (GPa) = 27.84803 34.71187 31.27995
# Shear Modulus (GPa) = 21.87109 29.28693 25.57901
#
# Velocity S-wave (km/s) = 3.15503 3.65095 3.41201
# Velocity P-wave (km/s) = 5.09380 5.79405 5.45517
#
# Compressibility (1/GPa) = 0.03590918
#
# Stress axis : x y z
#
# Youngs Moduli (GPa) = 129.58322 55.44183 68.24473
#
# Poissons Ratio (x) = 0.01019 0.17747
# Poissons Ratio (y) = 0.02381 -0.03653
# Poissons Ratio (z) = 0.33697 -0.02968
#
# Static dielectric constant tensor:
#      x y z
#    x 1.859800 0.000000 0.000000 
#    y 0.000000 2.069390 0.000000 
#    z 0.000000 0.000000 1.776950 
# 
# From -- ./inp_files/7169.got.cif
#   From: 2010.05.17/outbox.cif.g08.bks.cpg/sg56_4_cif.got.tgz:7169.got - 2010.06.03 13:42:01.
