data_PCOD9433464
_publ_section_title
;
Structure prediction by ZEFSAII (Michael W. Deem and Ramdas Pophale) SiO2 
 PCOD9433464
Probable space group: P C C N
;
_chemical_formula_sum "Si O2"
_cell_formula_units_Z 48
_cell_length_a 21.150727
_cell_length_b 11.526712
_cell_length_c 8.516936
_cell_angle_alpha 90.000000
_cell_angle_beta 90.000000
_cell_angle_gamma 90.000000
_cell_volume 2076.414848
_symmetry_space_group_name_H-M "P C C N"
_symmetry_group_IT_number 56
_symmetry_cell_setting 'orthorhombic'
loop_
_space_group_symop_operation_xyz
x,y,z
1/2-x,1/2-y,z
1/2+x,-y,1/2-z
-x,1/2+y,1/2-z
-x,-y,-z
1/2+x,1/2+y,-z
1/2-x,y,1/2+z
x,1/2-y,1/2+z
loop_
_atom_site_type_symbol
_atom_site_label
_atom_site_fract_x
_atom_site_fract_y
_atom_site_fract_z
Si Si1 0.808161 0.417200 0.050255
Si Si2 0.394604 0.168796 0.437817
Si Si3 0.321382 0.970718 0.304488
Si Si4 0.980021 0.120557 0.746310
Si Si5 0.592451 0.290494 0.045556
Si Si6 0.098723 0.412828 0.794787
O O1 0.737162 0.407432 0.110855
O O2 0.850209 0.301362 0.032760
O O3 0.843817 0.499906 0.173102
O O4 0.808974 0.474462 0.879328
O O5 0.452988 0.127312 0.329410
O O6 0.402498 0.134686 0.618445
O O7 0.393398 0.306018 0.412075
O O8 0.334238 0.097764 0.374383
O O9 0.382724 0.892160 0.342307
O O10 0.966219 0.217834 0.615859
O O11 0.962964 0.993344 0.682769
O O12 0.929187 0.152694 0.882992
#
# Coordination Sequence:
#
# PCOD9433464 Si02
#       6
#     8   8   8   8   8   8
#     4  11  26  44  70 102 142 181 243 291 358 427
#     4  12  25  43  72  98 148 189 241 291 358 426
#     4  12  25  43  69 103 138 190 230 298 356 423
#     4  11  24  43  70 106 145 185 238 297 360 431
#     4  11  23  42  71 103 142 183 232 296 364 417
#     4  11  25  45  67 102 137 192 237 291 352 423
#
# _framework density 23.116766999999999
#
# number of rings (size 3 to 8) (size 9 to 14) (size 15 to 20)
#    0.000    0.667    3.333    4.000    4.667    2.000 
#    0.000    7.500    0.000    0.000    0.000    0.000 
#    0.000    0.000    0.000    0.000    0.000    0.000 
#
# Total GULP energy -268874.517974 kJ/mol
# GULP energy per Si atom -5601.552458 kJ/mol
# Density = 2.306415 g / cm^3
# Si number density = 23.116767 Si / 1000 Ang^3
#
#
#
# Elastic Constant Matrix: (Units=GPa)
#
#
# Indices 1 2 3 4 5 6 
#
# 1 72.3427 18.7587 -0.7066 0.0000 0.0000 0.0000
# 2 18.7587 94.9450 22.9754 0.0000 0.0000 0.0000
# 3 -0.7066 22.9754 79.9204 0.0000 0.0000 0.0000
# 4 0.0000 0.0000 0.0000 34.7013 0.0000 0.0000
# 5 0.0000 0.0000 0.0000 0.0000 31.8214 0.0000
# 6 0.0000 0.0000 0.0000 0.0000 0.0000 25.2810
#
#
#
# Elastic Compliance Matrix: (Units=1/GPa)
#
#
# Indices 1 2 3 4 5 6 
#
# 1 0.014649 -0.003144 0.001033 0.000000 0.000000 0.000000
# 2 -0.003144 0.011995 -0.003476 0.000000 0.000000 0.000000
# 3 0.001033 -0.003476 0.013521 0.000000 0.000000 0.000000
# 4 0.000000 0.000000 0.000000 0.028817 0.000000 0.000000
# 5 0.000000 0.000000 0.000000 0.000000 0.031425 0.000000
# 6 0.000000 0.000000 0.000000 0.000000 0.000000 0.039555
#
#
# Mechanical properties :
#
#
# Convention : Reuss Voigt Hill
#
# Bulk Modulus (GPa) = 34.49415 36.58479 35.53947
# Shear Modulus (GPa) = 31.09461 32.10611 31.60036
#
# Velocity S-wave (km/s) = 3.67155 3.73079 3.70129
# Velocity P-wave (km/s) = 5.73828 5.86676 5.80287
#
# Compressibility (1/GPa) = 0.02899043
#
# Stress axis : x y z
#
# Youngs Moduli (GPa) = 68.26635 83.36957 73.95969
#
# Poissons Ratio (x) = 0.26213 -0.07643
# Poissons Ratio (y) = 0.21465 0.25709
# Poissons Ratio (z) = -0.07055 0.28980
#
# Static dielectric constant tensor:
#      x y z
#    x 1.856020 0.000000 0.000000 
#    y 0.000000 1.862980 0.000000 
#    z 0.000000 0.000000 1.820850 
# 
# From -- ./inp_files/4739.got.cif
#   From: 2010.05.17/outbox.cif.g08.bks.cpg/sg56_3_cif.got.tgz:4739.got - 2010.06.03 13:42:01.
