data_PCOD9433866
_publ_section_title
;
Structure prediction by ZEFSAII (Michael W. Deem and Ramdas Pophale) SiO2 
 PCOD9433866
Probable space group: P C C N
;
_chemical_formula_sum "Si O2"
_cell_formula_units_Z 28
_cell_length_a 12.005979
_cell_length_b 6.574078
_cell_length_c 16.651981
_cell_angle_alpha 90.000000
_cell_angle_beta 90.000000
_cell_angle_gamma 90.000000
_cell_volume 1314.311593
_symmetry_space_group_name_H-M "P C C N"
_symmetry_group_IT_number 56
_symmetry_cell_setting 'orthorhombic'
loop_
_space_group_symop_operation_xyz
x,y,z
1/2-x,1/2-y,z
1/2+x,-y,1/2-z
-x,1/2+y,1/2-z
-x,-y,-z
1/2+x,1/2+y,-z
1/2-x,y,1/2+z
x,1/2-y,1/2+z
loop_
_atom_site_type_symbol
_atom_site_label
_atom_site_fract_x
_atom_site_fract_y
_atom_site_fract_z
Si Si1 0.554851 0.505519 0.133451
Si Si2 0.250000 0.750000 0.954437
Si Si3 0.376977 0.314926 0.700618
Si Si4 0.072361 0.880169 0.563802
O O1 0.654632 0.370452 0.094720
O O2 0.607521 0.636275 0.205732
O O3 0.462605 0.356804 0.171382
O O4 0.512914 0.337934 0.923371
O O5 0.311090 0.893357 0.017623
O O6 0.250000 0.250000 0.685090
O O7 0.410660 0.513125 0.649091
O O8 0.000000 0.000000 0.500000
#
# Coordination Sequence:
#
# PCOD9433866 Si02
#       4
#     8   4   8   8
#     4  12  28  51  73 116 148 202 256 308 381 462
#     4  12  28  46  80 108 156 190 254 318 374 452
#     4  12  28  48  79 105 153 199 250 311 379 458
#     4  12  27  48  74 109 151 195 249 314 382 444
#
# _framework density 21.303929
#
# number of rings (size 3 to 8) (size 9 to 14) (size 15 to 20)
#    0.000    0.000    5.714    2.571   12.000    1.143 
#    0.000    0.000    0.000    0.000    0.000    0.000 
#    0.000    0.000    0.000    0.000    0.000    0.000 
#
# Total GULP energy -156389.107648 kJ/mol
# GULP energy per Si atom -5585.325273 kJ/mol
# Density = 2.125544 g / cm^3
# Si number density = 21.303929 Si / 1000 Ang^3
#
#
#
# Elastic Constant Matrix: (Units=GPa)
#
#
# Indices 1 2 3 4 5 6 
#
# 1 135.3734 41.0601 32.5894 0.0000 0.0000 0.0000
# 2 41.0601 89.1563 31.0584 0.0000 0.0000 0.0000
# 3 32.5894 31.0584 94.0514 0.0000 0.0000 0.0000
# 4 0.0000 0.0000 0.0000 14.5276 0.0000 0.0000
# 5 0.0000 0.0000 0.0000 0.0000 14.6473 0.0000
# 6 0.0000 0.0000 0.0000 0.0000 0.0000 47.6362
#
#
#
# Elastic Compliance Matrix: (Units=1/GPa)
#
#
# Indices 1 2 3 4 5 6 
#
# 1 0.008893 -0.003415 -0.001954 0.000000 0.000000 0.000000
# 2 -0.003415 0.013986 -0.003435 0.000000 0.000000 0.000000
# 3 -0.001954 -0.003435 0.012444 0.000000 0.000000 0.000000
# 4 0.000000 0.000000 0.000000 0.068835 0.000000 0.000000
# 5 0.000000 0.000000 0.000000 0.000000 0.068272 0.000000
# 6 0.000000 0.000000 0.000000 0.000000 0.000000 0.020992
#
#
# Mechanical properties :
#
#
# Convention : Reuss Voigt Hill
#
# Bulk Modulus (GPa) = 56.45007 58.66633 57.55820
# Shear Modulus (GPa) = 23.04842 29.62042 26.33442
#
# Velocity S-wave (km/s) = 3.29277 3.73282 3.51968
# Velocity P-wave (km/s) = 6.40402 6.79530 6.60256
#
# Compressibility (1/GPa) = 0.01771477
#
# Stress axis : x y z
#
# Youngs Moduli (GPa) = 112.44620 71.50176 80.36097
#
# Poissons Ratio (x) = 0.24418 0.15701
# Poissons Ratio (y) = 0.38401 0.27605
# Poissons Ratio (z) = 0.21970 0.24562
#
# Static dielectric constant tensor:
#      x y z
#    x 1.670480 0.000000 0.000000 
#    y 0.000000 1.775480 0.000000 
#    z 0.000000 0.000000 1.736880 
# 
# From -- ./inp_files/11178.got.cif
#   From: 2010.05.17/outbox.cif.g08.bks.cpg/sg56_6_cif.got.tgz:11178.got - 2010.06.03 13:42:01.
