data_PCOD9433804
_publ_section_title
;
Structure prediction by ZEFSAII (Michael W. Deem and Ramdas Pophale) SiO2 
 PCOD9433804
Probable space group: P C C N
;
_chemical_formula_sum "Si O2"
_cell_formula_units_Z 32
_cell_length_a 11.503992
_cell_length_b 4.896765
_cell_length_c 24.690774
_cell_angle_alpha 90.000000
_cell_angle_beta 90.000000
_cell_angle_gamma 90.000000
_cell_volume 1390.889209
_symmetry_space_group_name_H-M "P C C N"
_symmetry_group_IT_number 56
_symmetry_cell_setting 'orthorhombic'
loop_
_space_group_symop_operation_xyz
x,y,z
1/2-x,1/2-y,z
1/2+x,-y,1/2-z
-x,1/2+y,1/2-z
-x,-y,-z
1/2+x,1/2+y,-z
1/2-x,y,1/2+z
x,1/2-y,1/2+z
loop_
_atom_site_type_symbol
_atom_site_label
_atom_site_fract_x
_atom_site_fract_y
_atom_site_fract_z
Si Si1 0.986450 0.748271 0.540681
Si Si2 0.250000 0.250000 0.392440
Si Si3 0.750000 0.250000 0.186172
Si Si4 0.827671 0.498898 0.375831
Si Si5 0.068885 0.434672 0.737480
O O1 0.863991 0.793718 0.570794
O O2 0.000000 0.500000 0.500000
O O3 0.083943 0.662084 0.584913
O O4 0.000000 0.000000 0.500000
O O5 0.217151 0.507573 0.355113
O O6 0.840799 0.401473 0.225442
O O7 0.750000 0.750000 0.399917
O O8 0.890277 0.622369 0.323331
O O9 0.750000 0.250000 0.354231
O O10 0.037284 0.147971 0.764212
#
# Coordination Sequence:
#
# PCOD9433804 Si02
#       5
#     8   4   4   8   8
#     4  12  28  49  78 106 144 199 249 317 375 437
#     4  12  28  50  74 110 146 192 254 304 372 456
#     4  12  24  46  72 108 148 194 234 294 370 438
#     4  12  26  46  74 112 151 194 249 309 377 450
#     4  12  25  43  73 108 153 196 240 296 367 450
#
# _framework density 23.006865999999999
#
# number of rings (size 3 to 8) (size 9 to 14) (size 15 to 20)
#    0.000    0.000    1.250    9.000    7.000    0.000 
#    0.000    0.000    0.000    0.000    0.000    0.000 
#    0.000    0.000    0.000    0.000    0.000    0.000 
#
# Total GULP energy -178900.668306 kJ/mol
# GULP energy per Si atom -5590.645885 kJ/mol
# Density = 2.295450 g / cm^3
# Si number density = 23.006866 Si / 1000 Ang^3
#
#
#
# Elastic Constant Matrix: (Units=GPa)
#
#
# Indices 1 2 3 4 5 6 
#
# 1 96.0189 32.7695 68.9543 0.0000 0.0000 0.0000
# 2 32.7695 139.7429 40.4979 0.0000 0.0000 0.0000
# 3 68.9543 40.4979 144.3991 0.0000 0.0000 0.0000
# 4 0.0000 0.0000 0.0000 100.2528 0.0000 0.0000
# 5 0.0000 0.0000 0.0000 0.0000 38.4933 0.0000
# 6 0.0000 0.0000 0.0000 0.0000 0.0000 40.8578
#
#
#
# Elastic Compliance Matrix: (Units=1/GPa)
#
#
# Indices 1 2 3 4 5 6 
#
# 1 0.016211 -0.001696 -0.007266 0.000000 0.000000 0.000000
# 2 -0.001696 0.007966 -0.001424 0.000000 0.000000 0.000000
# 3 -0.007266 -0.001424 0.010794 0.000000 0.000000 0.000000
# 4 0.000000 0.000000 0.000000 0.009975 0.000000 0.000000
# 5 0.000000 0.000000 0.000000 0.000000 0.025979 0.000000
# 6 0.000000 0.000000 0.000000 0.000000 0.000000 0.024475
#
#
# Mechanical properties :
#
#
# Convention : Reuss Voigt Hill
#
# Bulk Modulus (GPa) = 70.42257 73.84492 72.13374
# Shear Modulus (GPa) = 41.35468 51.78341 46.56905
#
# Velocity S-wave (km/s) = 4.24428 4.74939 4.50392
# Velocity P-wave (km/s) = 7.39557 7.88937 7.64646
#
# Compressibility (1/GPa) = 0.01419999
#
# Stress axis : x y z
#
# Youngs Moduli (GPa) = 61.68638 125.52591 92.64196
#
# Poissons Ratio (x) = 0.21288 0.67310
# Poissons Ratio (y) = 0.10461 0.13196
# Poissons Ratio (z) = 0.44819 0.17880
#
# Static dielectric constant tensor:
#      x y z
#    x 1.886710 0.000000 0.000000 
#    y 0.000000 1.783810 0.000000 
#    z 0.000000 0.000000 1.908660 
# 
# From -- ./inp_files/18536.got.cif
#   From: 2010.05.17/outbox.cif.g08.bks.cpg/sg56_10_cif.got.tgz:18536.got - 2010.06.03 13:42:01.
