data_PCOD9433315
_publ_section_title
;
Structure prediction by ZEFSAII (Michael W. Deem and Ramdas Pophale) SiO2 
 PCOD9433315
Probable space group: P C C N
;
_chemical_formula_sum "Si O2"
_cell_formula_units_Z 32
_cell_length_a 10.518596
_cell_length_b 9.105702
_cell_length_c 13.108767
_cell_angle_alpha 90.000000
_cell_angle_beta 90.000000
_cell_angle_gamma 90.000000
_cell_volume 1255.547225
_symmetry_space_group_name_H-M "P C C N"
_symmetry_group_IT_number 56
_symmetry_cell_setting 'orthorhombic'
loop_
_space_group_symop_operation_xyz
x,y,z
1/2-x,1/2-y,z
1/2+x,-y,1/2-z
-x,1/2+y,1/2-z
-x,-y,-z
1/2+x,1/2+y,-z
1/2-x,y,1/2+z
x,1/2-y,1/2+z
loop_
_atom_site_type_symbol
_atom_site_label
_atom_site_fract_x
_atom_site_fract_y
_atom_site_fract_z
Si Si1 0.746594 0.079968 0.004443
Si Si2 0.413080 0.648003 0.312207
Si Si3 0.038461 0.634068 0.143505
Si Si4 0.606777 0.698461 0.969055
O O1 0.750000 0.250000 0.975585
O O2 0.625674 0.040627 0.934609
O O3 0.707125 0.090212 0.122685
O O4 0.864469 0.975562 0.983418
O O5 0.394296 0.746825 0.214265
O O6 0.480387 0.494220 0.286816
O O7 0.501327 0.747565 0.388087
O O8 0.936587 0.723707 0.074931
O O9 0.750000 0.750000 0.941724
#
# Coordination Sequence:
#
# PCOD9433315 Si02
#       4
#     8   8   8   8
#     4  11  25  45  69  99 139 179 231 286 343 417
#     4  11  25  44  68 102 140 177 231 288 344 415
#     4  11  25  44  68 102 140 177 231 288 344 415
#     4  11  21  47  73  92 133 187 227 276 348 408
#
# _framework density 25.486895000000001
#
# number of rings (size 3 to 8) (size 9 to 14) (size 15 to 20)
#    0.000    1.000    5.000    1.500    7.000    4.000 
#    0.000    0.000    0.000    0.000    0.000    0.000 
#    0.000    0.000    0.000    0.000    0.000    0.000 
#
# Total GULP energy -178842.921689 kJ/mol
# GULP energy per Si atom -5588.841303 kJ/mol
# Density = 2.542889 g / cm^3
# Si number density = 25.486895 Si / 1000 Ang^3
#
#
#
# Elastic Constant Matrix: (Units=GPa)
#
#
# Indices 1 2 3 4 5 6 
#
# 1 106.7888 36.5037 10.1871 0.0000 0.0000 0.0000
# 2 36.5037 184.9364 34.0299 0.0000 0.0000 0.0000
# 3 10.1871 34.0299 81.5298 0.0000 0.0000 0.0000
# 4 0.0000 0.0000 0.0000 40.8252 0.0000 0.0000
# 5 0.0000 0.0000 0.0000 0.0000 21.6905 0.0000
# 6 0.0000 0.0000 0.0000 0.0000 0.0000 51.4917
#
#
#
# Elastic Compliance Matrix: (Units=1/GPa)
#
#
# Indices 1 2 3 4 5 6 
#
# 1 0.010058 -0.001900 -0.000464 0.000000 0.000000 0.000000
# 2 -0.001900 0.006216 -0.002357 0.000000 0.000000 0.000000
# 3 -0.000464 -0.002357 0.013307 0.000000 0.000000 0.000000
# 4 0.000000 0.000000 0.000000 0.024495 0.000000 0.000000
# 5 0.000000 0.000000 0.000000 0.000000 0.046103 0.000000
# 6 0.000000 0.000000 0.000000 0.000000 0.000000 0.019421
#
#
# Mechanical properties :
#
#
# Convention : Reuss Voigt Hill
#
# Bulk Modulus (GPa) = 49.65329 59.41069 54.53199
# Shear Modulus (GPa) = 36.83119 42.30377 39.56748
#
# Velocity S-wave (km/s) = 3.80558 4.07851 3.94441
# Velocity P-wave (km/s) = 6.23170 6.74833 6.49515
#
# Compressibility (1/GPa) = 0.02013965
#
# Stress axis : x y z
#
# Youngs Moduli (GPa) = 99.42358 160.87463 75.14712
#
# Poissons Ratio (x) = 0.30566 0.03485
# Poissons Ratio (y) = 0.18890 0.17713
# Poissons Ratio (z) = 0.04610 0.37920
#
# Static dielectric constant tensor:
#      x y z
#    x 2.222360 0.000000 0.000000 
#    y 0.000000 2.209990 0.000000 
#    z 0.000000 0.000000 1.949740 
# 
# From -- ./inp_files/10165.got.cif
#   From: 2010.05.17/outbox.cif.g08.bks.cpg/sg56_6_cif.got.tgz:10165.got - 2010.06.03 13:42:01.
