data_PCOD9433931
_publ_section_title
;
Structure prediction by ZEFSAII (Michael W. Deem and Ramdas Pophale) SiO2 
 PCOD9433931
Probable space group: P C C N
;
_chemical_formula_sum "Si O2"
_cell_formula_units_Z 60
_cell_length_a 15.000000
_cell_length_b 9.000000
_cell_length_c 24.000000
_cell_angle_alpha 90.000000
_cell_angle_beta 90.000000
_cell_angle_gamma 90.000000
_cell_volume 3240.000000
_symmetry_space_group_name_H-M "P C C N"
_symmetry_group_IT_number 56
_symmetry_cell_setting 'orthorhombic'
loop_
_space_group_symop_operation_xyz
x,y,z
1/2-x,1/2-y,z
1/2+x,-y,1/2-z
-x,1/2+y,1/2-z
-x,-y,-z
1/2+x,1/2+y,-z
1/2-x,y,1/2+z
x,1/2-y,1/2+z
loop_
_atom_site_type_symbol
_atom_site_label
_atom_site_fract_x
_atom_site_fract_y
_atom_site_fract_z
Si Si1 0.115565 0.441633 0.278119
Si Si2 0.028591 0.583102 0.386323
Si Si3 0.973440 0.148190 0.696505
Si Si4 0.250000 0.250000 0.836923
Si Si5 0.093491 0.070915 0.396606
Si Si6 0.645703 0.221040 0.031853
Si Si7 0.064561 0.707201 0.586751
Si Si8 0.354705 0.761759 0.210255
O O1 0.076939 0.487100 0.338272
O O2 0.206030 0.366727 0.295108
O O3 0.123545 0.577834 0.235923
O O4 0.048656 0.339308 0.243931
O O5 0.001596 0.723876 0.348133
O O6 0.091306 0.654374 0.433347
O O7 0.959020 0.468862 0.413743
O O8 0.887358 0.162008 0.737224
O O9 0.953417 0.007922 0.656959
O O10 0.320737 0.161205 0.874739
O O11 0.024150 0.192155 0.419486
O O12 0.118344 0.939196 0.440651
O O13 0.750000 0.250000 0.041394
O O14 0.624082 0.242662 0.966157
O O15 0.102629 0.734988 0.649365
O O16 0.250000 0.750000 0.202970
#
# Coordination Sequence:
#
# PCOD9433931 Si02
#       8
#     8   8   8   4   8   8   8   8
#     4  11  21  37  59  93 125 161 201 249 305 369
#     4  10  22  39  64  87 118 164 208 243 300 368
#     4  10  21  39  61  89 128 165 193 248 306 379
#     4  12  22  34  64  92 124 158 204 258 298 354
#     4  11  23  41  65  89 124 160 207 254 307 361
#     4  11  25  43  63  90 122 159 214 262 303 354
#     4  12  22  42  65  89 123 166 204 252 310 369
#     4  11  22  36  61  92 128 160 204 247 312 366
#
# _framework density 18.518519000000001
#
# number of rings (size 3 to 8) (size 9 to 14) (size 15 to 20)
#    0.000    1.067    4.000    2.800    1.867    4.800 
#    0.000    0.000    0.000    0.800    0.000    0.000 
#    0.000    0.000    0.000    0.000    0.000    0.000 
#
# Total GULP energy -334203.161011 kJ/mol
# GULP energy per Si atom -5570.052684 kJ/mol
# Density = 1.847637 g / cm^3
# Si number density = 18.518519 Si / 1000 Ang^3
#
#
#
# Elastic Constant Matrix: (Units=GPa)
#
#
# Indices 1 2 3 4 5 6 
#
# 1 47.8141 -0.5305 9.6748 0.0000 0.0000 0.0000
# 2 -0.5305 25.6671 29.5069 0.0000 0.0000 0.0000
# 3 9.6748 29.5069 90.6473 0.0000 0.0000 0.0000
# 4 0.0000 0.0000 0.0000 17.9368 0.0000 0.0000
# 5 0.0000 0.0000 0.0000 0.0000 66.8852 0.0000
# 6 0.0000 0.0000 0.0000 0.0000 0.0000 13.6304
#
#
#
# Elastic Compliance Matrix: (Units=1/GPa)
#
#
# Indices 1 2 3 4 5 6 
#
# 1 0.021768 0.004987 -0.003947 0.000000 0.000000 0.000000
# 2 0.004987 0.063400 -0.021170 0.000000 0.000000 0.000000
# 3 -0.003947 -0.021170 0.018344 0.000000 0.000000 0.000000
# 4 0.000000 0.000000 0.000000 0.055751 0.000000 0.000000
# 5 0.000000 0.000000 0.000000 0.000000 0.014951 0.000000
# 6 0.000000 0.000000 0.000000 0.000000 0.000000 0.073365
#
#
# Mechanical properties :
#
#
# Convention : Reuss Voigt Hill
#
# Bulk Modulus (GPa) = 15.80940 26.82567 21.31754
# Shear Modulus (GPa) = 16.18521 28.05563 22.12042
#
# Velocity S-wave (km/s) = 2.95956 3.89653 3.45991
# Velocity P-wave (km/s) = 4.49825 5.89586 5.24383
#
# Compressibility (1/GPa) = 0.06325349
#
# Stress axis : x y z
#
# Youngs Moduli (GPa) = 45.93850 15.77278 54.51349
#
# Poissons Ratio (x) = -0.07866 0.21515
# Poissons Ratio (y) = -0.22910 1.15405
# Poissons Ratio (z) = 0.18130 0.33391
#
# Static dielectric constant tensor:
#      x y z
#    x 1.695590 0.000000 0.000000 
#    y 0.000000 1.626260 0.000000 
#    z 0.000000 0.000000 1.605960 
# 
# From -- ./inp_files/21135.got.cif
#   From: 2010.05.17/outbox.ucp.g08.bks.cvg/sg56_11_cif.got.tgz:21135.got - 2010.06.11 16:37:52.
