data_PCOD9433161
_publ_section_title
;
Structure prediction by ZEFSAII (Michael W. Deem and Ramdas Pophale) SiO2 
 PCOD9433161
Probable space group: P C C N
;
_chemical_formula_sum "Si O2"
_cell_formula_units_Z 44
_cell_length_a 21.512252
_cell_length_b 11.698098
_cell_length_c 8.161588
_cell_angle_alpha 90.000000
_cell_angle_beta 90.000000
_cell_angle_gamma 90.000000
_cell_volume 2053.883470
_symmetry_space_group_name_H-M "P C C N"
_symmetry_group_IT_number 56
_symmetry_cell_setting 'orthorhombic'
loop_
_space_group_symop_operation_xyz
x,y,z
1/2-x,1/2-y,z
1/2+x,-y,1/2-z
-x,1/2+y,1/2-z
-x,-y,-z
1/2+x,1/2+y,-z
1/2-x,y,1/2+z
x,1/2-y,1/2+z
loop_
_atom_site_type_symbol
_atom_site_label
_atom_site_fract_x
_atom_site_fract_y
_atom_site_fract_z
Si Si1 0.944585 0.716745 0.385358
Si Si2 0.096730 0.896424 0.335804
Si Si3 0.959813 0.924781 0.217614
Si Si4 0.074828 0.661682 0.212628
Si Si5 0.750000 0.750000 0.935865
Si Si6 0.327932 0.381008 0.304874
O O1 0.939433 0.854466 0.379894
O O2 0.950082 0.651315 0.556016
O O3 0.887797 0.671895 0.281117
O O4 0.007587 0.696699 0.282985
O O5 0.114207 0.774812 0.252478
O O6 0.077062 0.864485 0.520739
O O7 0.034192 0.944482 0.243893
O O8 0.151702 0.989124 0.337633
O O9 0.918339 0.038197 0.202713
O O10 0.805243 0.696939 0.044394
O O11 0.726476 0.644478 0.825916
#
# Coordination Sequence:
#
# PCOD9433161 Si02
#       6
#     8   8   8   8   4   8
#     4  11  22  36  65  98 139 172 208 253 328 377
#     4  11  24  39  62  95 141 178 207 251 322 390
#     4  11  22  36  58 101 144 173 208 248 308 421
#     4  11  23  38  59 100 145 168 206 242 311 430
#     4  10  26  48  70  96 116 160 236 294 310 362
#     4  11  24  46  69  96 123 165 219 280 328 357
#
# _framework density 21.422832
#
# number of rings (size 3 to 8) (size 9 to 14) (size 15 to 20)
#    0.000    1.091    1.818    6.545    7.636    0.000 
#    0.000    0.000    0.000    3.273    0.000    0.000 
#    0.000    0.000    0.000    0.000    0.000    0.000 
#
# Total GULP energy -245579.859218 kJ/mol
# GULP energy per Si atom -5581.360437 kJ/mol
# Density = 2.137407 g / cm^3
# Si number density = 21.422832 Si / 1000 Ang^3
#
#
#
# Elastic Constant Matrix: (Units=GPa)
#
#
# Indices 1 2 3 4 5 6 
#
# 1 39.5426 27.7633 31.9048 0.0000 0.0000 0.0000
# 2 27.7633 172.4554 49.3821 0.0000 0.0000 0.0000
# 3 31.9048 49.3821 107.2677 0.0000 0.0000 0.0000
# 4 0.0000 0.0000 0.0000 31.0879 0.0000 0.0000
# 5 0.0000 0.0000 0.0000 0.0000 15.9827 0.0000
# 6 0.0000 0.0000 0.0000 0.0000 0.0000 25.4103
#
#
#
# Elastic Compliance Matrix: (Units=1/GPa)
#
#
# Indices 1 2 3 4 5 6 
#
# 1 0.034589 -0.003021 -0.008897 0.000000 0.000000 0.000000
# 2 -0.003021 0.006943 -0.002298 0.000000 0.000000 0.000000
# 3 -0.008897 -0.002298 0.013027 0.000000 0.000000 0.000000
# 4 0.000000 0.000000 0.000000 0.032167 0.000000 0.000000
# 5 0.000000 0.000000 0.000000 0.000000 0.062568 0.000000
# 6 0.000000 0.000000 0.000000 0.000000 0.000000 0.039354
#
#
# Mechanical properties :
#
#
# Convention : Reuss Voigt Hill
#
# Bulk Modulus (GPa) = 38.27481 59.70736 48.99108
# Shear Modulus (GPa) = 22.14477 28.51055 25.32766
#
# Velocity S-wave (km/s) = 3.21861 3.65204 3.44215
# Velocity P-wave (km/s) = 5.63185 6.76126 6.22223
#
# Compressibility (1/GPa) = 0.02612685
#
# Stress axis : x y z
#
# Youngs Moduli (GPa) = 28.91118 144.03283 76.76609
#
# Poissons Ratio (x) = 0.43508 0.68300
# Poissons Ratio (y) = 0.08733 0.17639
# Poissons Ratio (z) = 0.25723 0.33096
#
# Static dielectric constant tensor:
#      x y z
#    x 1.782760 0.000000 0.000000 
#    y 0.000000 1.925800 0.000000 
#    z 0.000000 0.000000 1.825660 
# 
# From -- ./inp_files/4718.got.cif
#   From: 2010.05.17/outbox.cif.g08.bks.cpg/sg56_3_cif.got.tgz:4718.got - 2010.06.03 13:42:01.
