data_PCOD9433980
_publ_section_title
;
Structure prediction by ZEFSAII (Michael W. Deem and Ramdas Pophale) SiO2 
 PCOD9433980
Probable space group: P B C M
;
_chemical_formula_sum "Si O2"
_cell_formula_units_Z 48
_cell_length_a 16.105525
_cell_length_b 8.175364
_cell_length_c 14.117243
_cell_angle_alpha 90.000000
_cell_angle_beta 90.000000
_cell_angle_gamma 90.000000
_cell_volume 1858.796623
_symmetry_space_group_name_H-M "P B C M"
_symmetry_group_IT_number 57
_symmetry_cell_setting 'orthorhombic'
loop_
_space_group_symop_operation_xyz
x,y,z
-x,-y,1/2+z
x,1/2-y,-z
-x,1/2+y,1/2-z
-x,-y,-z
x,y,1/2-z
-x,1/2+y,z
x,1/2-y,1/2+z
loop_
_atom_site_type_symbol
_atom_site_label
_atom_site_fract_x
_atom_site_fract_y
_atom_site_fract_z
Si Si1 0.476053 0.458179 0.860871
Si Si2 0.219977 0.174881 0.363982
Si Si3 0.321666 0.661920 0.600006
Si Si4 0.905914 0.490899 0.466023
Si Si5 0.159337 0.676950 0.354314
Si Si6 0.625503 0.857263 0.365794
O O1 0.488768 0.426495 0.750000
O O2 0.413579 0.613383 0.866690
O O3 0.425935 0.303304 0.896652
O O4 0.566668 0.497860 0.902109
O O5 0.211493 0.177549 0.250000
O O6 0.272408 0.011289 0.391462
O O7 0.131943 0.148043 0.413184
O O8 0.280093 0.323828 0.393353
O O9 0.325118 0.750000 0.500000
O O10 0.257040 0.780632 0.652854
O O11 0.856577 0.449323 0.562008
O O12 0.888130 0.339858 0.393287
O O13 0.000000 0.500000 0.500000
O O14 0.129703 0.628334 0.250000
O O15 0.626118 0.862306 0.250000
#
# Coordination Sequence:
#
# PCOD9433980 Si02
#       6
#     8   8   8   8   8   8
#     4   9  16  27  45  71 100 135 177 220 265 316
#     4   9  16  30  49  71 100 137 173 213 270 330
#     4  10  15  27  47  71  97 128 165 219 264 310
#     4  10  19  32  52  78 104 130 172 227 270 323
#     4  10  19  33  52  77 105 135 171 218 274 324
#     4   8  15  27  47  72 102 140 181 223 268 320
#
# _framework density 25.823159
#
# number of rings (size 3 to 8) (size 9 to 14) (size 15 to 20)
#    0.000    2.667    3.333    4.000    0.000    1.333 
#    0.000    3.333    0.000    4.000    0.000    7.000 
#    0.000    0.000    0.000    0.000    0.000    0.000 
#
# Total GULP energy -268448.686495 kJ/mol
# GULP energy per Si atom -5592.680969 kJ/mol
# Density = 2.576438 g / cm^3
# Si number density = 25.823159 Si / 1000 Ang^3
#
#
#
# Elastic Constant Matrix: (Units=GPa)
#
#
# Indices 1 2 3 4 5 6 
#
# 1 177.9090 42.1335 35.5094 0.0000 0.0000 0.0000
# 2 42.1335 71.7537 26.3616 0.0000 0.0000 0.0000
# 3 35.5094 26.3616 148.2345 0.0000 0.0000 0.0000
# 4 0.0000 0.0000 0.0000 17.1621 0.0000 0.0000
# 5 0.0000 0.0000 0.0000 0.0000 29.6514 0.0000
# 6 0.0000 0.0000 0.0000 0.0000 0.0000 23.7709
#
#
#
# Elastic Compliance Matrix: (Units=1/GPa)
#
#
# Indices 1 2 3 4 5 6 
#
# 1 0.006655 -0.003554 -0.000962 0.000000 0.000000 0.000000
# 2 -0.003554 0.016809 -0.002138 0.000000 0.000000 0.000000
# 3 -0.000962 -0.002138 0.007357 0.000000 0.000000 0.000000
# 4 0.000000 0.000000 0.000000 0.058268 0.000000 0.000000
# 5 0.000000 0.000000 0.000000 0.000000 0.033725 0.000000
# 6 0.000000 0.000000 0.000000 0.000000 0.000000 0.042068
#
#
# Mechanical properties :
#
#
# Convention : Reuss Voigt Hill
#
# Bulk Modulus (GPa) = 57.10304 67.32292 62.21298
# Shear Modulus (GPa) = 27.16991 33.70971 30.43981
#
# Velocity S-wave (km/s) = 3.24721 3.61696 3.43706
# Velocity P-wave (km/s) = 6.01833 6.60080 6.31628
#
# Compressibility (1/GPa) = 0.01751220
#
# Stress axis : x y z
#
# Youngs Moduli (GPa) = 150.27264 59.49214 135.93014
#
# Poissons Ratio (x) = 0.21144 0.13077
# Poissons Ratio (y) = 0.53408 0.29060
# Poissons Ratio (z) = 0.14457 0.12719
#
# Static dielectric constant tensor:
#      x y z
#    x 2.034100 0.000000 0.000000 
#    y 0.000000 2.134560 0.000000 
#    z 0.000000 0.000000 2.115900 
# 
# From -- ./inp_files/18434.got.cif
#   From: 2010.05.17/outbox.cif.g08.bks.cpg/sg57_10_cif.got.tgz:18434.got - 2010.06.03 13:58:18.
