data_PCOD9433838
_publ_section_title
;
Structure prediction by ZEFSAII (Michael W. Deem and Ramdas Pophale) SiO2 
 PCOD9433838
Probable space group: P C C N
;
_chemical_formula_sum "Si O2"
_cell_formula_units_Z 40
_cell_length_a 10.713132
_cell_length_b 5.139485
_cell_length_c 26.666569
_cell_angle_alpha 90.000000
_cell_angle_beta 90.000000
_cell_angle_gamma 90.000000
_cell_volume 1468.260788
_symmetry_space_group_name_H-M "P C C N"
_symmetry_group_IT_number 56
_symmetry_cell_setting 'orthorhombic'
loop_
_space_group_symop_operation_xyz
x,y,z
1/2-x,1/2-y,z
1/2+x,-y,1/2-z
-x,1/2+y,1/2-z
-x,-y,-z
1/2+x,1/2+y,-z
1/2-x,y,1/2+z
x,1/2-y,1/2+z
loop_
_atom_site_type_symbol
_atom_site_label
_atom_site_fract_x
_atom_site_fract_y
_atom_site_fract_z
Si Si1 0.623343 0.111559 0.366615
Si Si2 0.250000 0.750000 0.296269
Si Si3 0.250000 0.250000 0.953493
Si Si4 0.409529 0.546333 0.381904
Si Si5 0.421539 0.327670 0.037833
Si Si6 0.419137 0.392670 0.234700
O O1 0.750000 0.250000 0.350315
O O2 0.499508 0.298334 0.367613
O O3 0.606316 0.890348 0.324656
O O4 0.651542 0.007893 0.422648
O O5 0.364561 0.720888 0.335571
O O6 0.293960 0.510856 0.261015
O O7 0.215815 0.463797 0.911706
O O8 0.348619 0.163637 0.996725
O O9 0.491064 0.687374 0.423186
O O10 0.500000 0.500000 0.000000
O O11 0.477957 0.124293 0.254911
#
# Coordination Sequence:
#
# PCOD9433838 Si02
#       6
#     8   4   4   8   8   8
#     4  12  27  49  75 110 154 207 254 328 398 480
#     4  12  26  50  80 114 156 214 256 344 392 490
#     4  12  26  46  80 106 152 208 250 340 390 482
#     4  12  27  49  73 115 150 198 269 316 401 479
#     4  12  26  46  72 107 154 195 257 319 396 468
#     4  12  28  52  79 115 160 206 268 331 404 482
#
# _framework density 27.243119
#
# number of rings (size 3 to 8) (size 9 to 14) (size 15 to 20)
#    0.000    0.000    5.000    4.200    5.600    0.800 
#    0.000    0.000    0.000    0.000    0.000    0.000 
#    0.000    0.000    0.000    0.000    0.000    0.000 
#
# Total GULP energy -223088.525475 kJ/mol
# GULP energy per Si atom -5577.213137 kJ/mol
# Density = 2.718111 g / cm^3
# Si number density = 27.243119 Si / 1000 Ang^3
#
#
#
# Elastic Constant Matrix: (Units=GPa)
#
#
# Indices 1 2 3 4 5 6 
#
# 1 77.7673 27.6061 35.9256 0.0000 0.0000 0.0000
# 2 27.6061 70.7261 16.1046 0.0000 0.0000 0.0000
# 3 35.9256 16.1046 191.7911 0.0000 0.0000 0.0000
# 4 0.0000 0.0000 0.0000 31.1069 0.0000 0.0000
# 5 0.0000 0.0000 0.0000 0.0000 47.3493 0.0000
# 6 0.0000 0.0000 0.0000 0.0000 0.0000 51.6405
#
#
#
# Elastic Compliance Matrix: (Units=1/GPa)
#
#
# Indices 1 2 3 4 5 6 
#
# 1 0.016046 -0.005687 -0.002528 0.000000 0.000000 0.000000
# 2 -0.005687 0.016431 -0.000314 0.000000 0.000000 0.000000
# 3 -0.002528 -0.000314 0.005714 0.000000 0.000000 0.000000
# 4 0.000000 0.000000 0.000000 0.032147 0.000000 0.000000
# 5 0.000000 0.000000 0.000000 0.000000 0.021120 0.000000
# 6 0.000000 0.000000 0.000000 0.000000 0.000000 0.019365
#
#
# Mechanical properties :
#
#
# Convention : Reuss Voigt Hill
#
# Bulk Modulus (GPa) = 47.32456 55.50634 51.41545
# Shear Modulus (GPa) = 37.05771 43.39589 40.22680
#
# Velocity S-wave (km/s) = 3.69217 3.99546 3.84681
# Velocity P-wave (km/s) = 5.96532 6.45783 6.21646
#
# Compressibility (1/GPa) = 0.02113067
#
# Stress axis : x y z
#
# Youngs Moduli (GPa) = 62.32211 60.86224 175.01036
#
# Poissons Ratio (x) = 0.34615 0.44244
# Poissons Ratio (y) = 0.35445 0.05501
# Poissons Ratio (z) = 0.15755 0.01913
#
# Static dielectric constant tensor:
#      x y z
#    x 2.201070 0.000000 0.000000 
#    y 0.000000 1.955110 0.000000 
#    z 0.000000 0.000000 1.973560 
# 
# From -- ./inp_files/22203.got.cif
#   From: 2010.05.17/outbox.cif.g08.bks.cpg/sg56_12_cif.got.tgz:22203.got - 2010.06.03 13:42:01.
