data_PCOD9433226
_publ_section_title
;
Structure prediction by ZEFSAII (Michael W. Deem and Ramdas Pophale) SiO2 
 PCOD9433226
Probable space group: P C C N
;
_chemical_formula_sum "Si O2"
_cell_formula_units_Z 32
_cell_length_a 9.599580
_cell_length_b 9.860749
_cell_length_c 13.403806
_cell_angle_alpha 90.000000
_cell_angle_beta 90.000000
_cell_angle_gamma 90.000000
_cell_volume 1268.791527
_symmetry_space_group_name_H-M "P C C N"
_symmetry_group_IT_number 56
_symmetry_cell_setting 'orthorhombic'
loop_
_space_group_symop_operation_xyz
x,y,z
1/2-x,1/2-y,z
1/2+x,-y,1/2-z
-x,1/2+y,1/2-z
-x,-y,-z
1/2+x,1/2+y,-z
1/2-x,y,1/2+z
x,1/2-y,1/2+z
loop_
_atom_site_type_symbol
_atom_site_label
_atom_site_fract_x
_atom_site_fract_y
_atom_site_fract_z
Si Si1 0.737254 0.406532 0.854430
Si Si2 0.822399 0.929431 0.672588
Si Si3 0.611219 0.335409 0.552689
Si Si4 0.059526 0.171545 0.916591
O O1 0.750000 0.250000 0.814709
O O2 0.751351 0.523620 0.773612
O O3 0.840894 0.405457 0.948233
O O4 0.577006 0.412974 0.890716
O O5 0.700067 0.912497 0.590355
O O6 0.908936 0.791247 0.664800
O O7 0.913569 0.056410 0.637725
O O8 0.750000 0.250000 0.579142
O O9 0.480601 0.244453 0.520172
#
# Coordination Sequence:
#
# PCOD9433226 Si02
#       4
#     8   8   8   8
#     4   9  21  37  57  84 121 152 198 241 295 357
#     4  11  20  38  62  82 121 160 189 251 306 328
#     4   9  20  39  57  85 119 152 198 245 290 359
#     4   9  22  37  54  91 116 148 212 238 278 383
#
# _framework density 25.220846999999999
#
# number of rings (size 3 to 8) (size 9 to 14) (size 15 to 20)
#    0.000    3.000    0.000    1.500    7.000    4.000 
#    4.500    2.500    0.000    0.000    0.000    0.000 
#    0.000    0.000    0.000    0.000    0.000    0.000 
#
# Total GULP energy -178744.679555 kJ/mol
# GULP energy per Si atom -5585.771236 kJ/mol
# Density = 2.516344 g / cm^3
# Si number density = 25.220847 Si / 1000 Ang^3
#
#
#
# Elastic Constant Matrix: (Units=GPa)
#
#
# Indices 1 2 3 4 5 6 
#
# 1 80.7982 -21.6916 -14.9142 0.0000 0.0000 0.0000
# 2 -21.6916 57.8926 10.5308 0.0000 0.0000 0.0000
# 3 -14.9142 10.5308 48.6930 0.0000 0.0000 0.0000
# 4 0.0000 0.0000 0.0000 16.0904 0.0000 0.0000
# 5 0.0000 0.0000 0.0000 0.0000 8.4571 0.0000
# 6 0.0000 0.0000 0.0000 0.0000 0.0000 36.1387
#
#
#
# Elastic Compliance Matrix: (Units=1/GPa)
#
#
# Indices 1 2 3 4 5 6 
#
# 1 0.014266 0.004737 0.003345 0.000000 0.000000 0.000000
# 2 0.004737 0.019553 -0.002778 0.000000 0.000000 0.000000
# 3 0.003345 -0.002778 0.022162 0.000000 0.000000 0.000000
# 4 0.000000 0.000000 0.000000 0.062149 0.000000 0.000000
# 5 0.000000 0.000000 0.000000 0.000000 0.118245 0.000000
# 6 0.000000 0.000000 0.000000 0.000000 0.000000 0.027671
#
#
# Mechanical properties :
#
#
# Convention : Reuss Voigt Hill
#
# Bulk Modulus (GPa) = 15.01761 15.02599 15.02180
# Shear Modulus (GPa) = 18.13995 26.36781 22.25388
#
# Velocity S-wave (km/s) = 2.68478 3.23689 2.97368
# Velocity P-wave (km/s) = 3.94691 4.46550 4.21419
#
# Compressibility (1/GPa) = 0.06658849
#
# Stress axis : x y z
#
# Youngs Moduli (GPa) = 70.09879 51.14189 45.12191
#
# Poissons Ratio (x) = -0.24224 -0.15093
# Poissons Ratio (y) = -0.33203 0.12535
# Poissons Ratio (z) = -0.23448 0.14207
#
# Static dielectric constant tensor:
#      x y z
#    x 2.000280 0.000000 0.000000 
#    y 0.000000 2.044580 0.000000 
#    z 0.000000 0.000000 1.975360 
# 
# From -- ./inp_files/15349.got.cif
#   From: 2010.05.17/outbox.cif.g08.bks.cpg/sg56_8_cif.got.tgz:15349.got - 2010.06.03 13:42:01.
