data_PCOD9433697
_publ_section_title
;
Structure prediction by ZEFSAII (Michael W. Deem and Ramdas Pophale) SiO2 
 PCOD9433697
Probable space group: P C C N
;
_chemical_formula_sum "Si O2"
_cell_formula_units_Z 48
_cell_length_a 9.098492
_cell_length_b 20.864904
_cell_length_c 10.543832
_cell_angle_alpha 90.000000
_cell_angle_beta 90.000000
_cell_angle_gamma 90.000000
_cell_volume 2001.632232
_symmetry_space_group_name_H-M "P C C N"
_symmetry_group_IT_number 56
_symmetry_cell_setting 'orthorhombic'
loop_
_space_group_symop_operation_xyz
x,y,z
1/2-x,1/2-y,z
1/2+x,-y,1/2-z
-x,1/2+y,1/2-z
-x,-y,-z
1/2+x,1/2+y,-z
1/2-x,y,1/2+z
x,1/2-y,1/2+z
loop_
_atom_site_type_symbol
_atom_site_label
_atom_site_fract_x
_atom_site_fract_y
_atom_site_fract_z
Si Si1 0.067863 0.536820 0.619686
Si Si2 0.589330 0.239180 0.390414
Si Si3 0.563412 0.582127 0.720756
Si Si4 0.324251 0.870013 0.423518
Si Si5 0.486226 0.870653 0.978610
Si Si6 0.363483 0.143334 0.262016
O O1 0.942358 0.580299 0.681762
O O2 0.000000 0.500000 0.500000
O O3 0.123101 0.483643 0.717586
O O4 0.176707 0.585536 0.550366
O O5 0.750000 0.250000 0.324496
O O6 0.622715 0.197059 0.517118
O O7 0.542514 0.308774 0.435517
O O8 0.459625 0.202729 0.315311
O O9 0.507697 0.572512 0.577923
O O10 0.692905 0.634398 0.709127
O O11 0.434553 0.606122 0.815396
O O12 0.154520 0.872988 0.384796
O O13 0.623845 0.859644 0.889294
#
# Coordination Sequence:
#
# PCOD9433697 Si02
#       6
#     8   8   8   8   8   8
#     4   9  22  44  71  92 144 188 231 295 356 420
#     4   9  22  45  71  95 138 186 238 288 352 429
#     4  11  26  43  68 107 144 183 240 297 361 427
#     4   9  22  45  70  96 134 187 237 290 359 427
#     4  11  26  41  71 102 132 187 237 291 361 431
#     4  11  26  44  70 107 143 184 244 301 362 426
#
# _framework density 23.980429000000001
#
# number of rings (size 3 to 8) (size 9 to 14) (size 15 to 20)
#    0.000    2.000    0.000    0.000   18.667    3.333 
#    0.000    0.000    0.000    0.000    0.000    0.000 
#    0.000    0.000    0.000    0.000    0.000    0.000 
#
# Total GULP energy -268207.689411 kJ/mol
# GULP energy per Si atom -5587.660196 kJ/mol
# Density = 2.392585 g / cm^3
# Si number density = 23.980429 Si / 1000 Ang^3
#
#
#
# Elastic Constant Matrix: (Units=GPa)
#
#
# Indices 1 2 3 4 5 6 
#
# 1 121.7958 13.7490 26.9916 0.0000 0.0000 0.0000
# 2 13.7490 77.8767 18.9254 0.0000 0.0000 0.0000
# 3 26.9916 18.9254 83.2912 0.0000 0.0000 0.0000
# 4 0.0000 0.0000 0.0000 22.7803 0.0000 0.0000
# 5 0.0000 0.0000 0.0000 0.0000 31.7718 0.0000
# 6 0.0000 0.0000 0.0000 0.0000 0.0000 17.2536
#
#
#
# Elastic Compliance Matrix: (Units=1/GPa)
#
#
# Indices 1 2 3 4 5 6 
#
# 1 0.008908 -0.000922 -0.002677 0.000000 0.000000 0.000000
# 2 -0.000922 0.013687 -0.002811 0.000000 0.000000 0.000000
# 3 -0.002677 -0.002811 0.013512 0.000000 0.000000 0.000000
# 4 0.000000 0.000000 0.000000 0.043898 0.000000 0.000000
# 5 0.000000 0.000000 0.000000 0.000000 0.031474 0.000000
# 6 0.000000 0.000000 0.000000 0.000000 0.000000 0.057959
#
#
# Mechanical properties :
#
#
# Convention : Reuss Voigt Hill
#
# Bulk Modulus (GPa) = 42.94373 44.69951 43.82162
# Shear Modulus (GPa) = 26.31293 29.24766 27.78029
#
# Velocity S-wave (km/s) = 3.31610 3.49613 3.40730
# Velocity P-wave (km/s) = 5.71040 5.91420 5.81319
#
# Compressibility (1/GPa) = 0.02328629
#
# Stress axis : x y z
#
# Youngs Moduli (GPa) = 112.26048 73.06341 74.00618
#
# Poissons Ratio (x) = 0.06737 0.19813
# Poissons Ratio (y) = 0.10351 0.20804
# Poissons Ratio (z) = 0.30054 0.20539
#
# Static dielectric constant tensor:
#      x y z
#    x 1.916880 0.000000 0.000000 
#    y 0.000000 1.908920 0.000000 
#    z 0.000000 0.000000 1.954290 
# 
# From -- ./inp_files/6432.got.cif
#   From: 2010.05.17/outbox.cif.g08.bks.cpg/sg56_4_cif.got.tgz:6432.got - 2010.06.03 13:42:01.
