data_PCOD9433223
_publ_section_title
;
Structure prediction by ZEFSAII (Michael W. Deem and Ramdas Pophale) SiO2 
 PCOD9433223
Probable space group: P C C N
;
_chemical_formula_sum "Si O2"
_cell_formula_units_Z 52
_cell_length_a 5.964400
_cell_length_b 18.621010
_cell_length_c 19.983344
_cell_angle_alpha 90.000000
_cell_angle_beta 90.000000
_cell_angle_gamma 90.000000
_cell_volume 2219.413173
_symmetry_space_group_name_H-M "P C C N"
_symmetry_group_IT_number 56
_symmetry_cell_setting 'orthorhombic'
loop_
_space_group_symop_operation_xyz
x,y,z
1/2-x,1/2-y,z
1/2+x,-y,1/2-z
-x,1/2+y,1/2-z
-x,-y,-z
1/2+x,1/2+y,-z
1/2-x,y,1/2+z
x,1/2-y,1/2+z
loop_
_atom_site_type_symbol
_atom_site_label
_atom_site_fract_x
_atom_site_fract_y
_atom_site_fract_z
Si Si1 0.425726 0.812641 0.715507
Si Si2 0.314188 0.142327 0.567081
Si Si3 0.462779 0.640188 0.073844
Si Si4 0.098960 0.580865 0.999693
Si Si5 0.794835 0.034482 0.736247
Si Si6 0.750000 0.750000 0.322519
Si Si7 0.086928 0.521428 0.398620
O O1 0.250000 0.750000 0.726196
O O2 0.504625 0.811124 0.638453
O O3 0.313593 0.889919 0.726889
O O4 0.611238 0.800581 0.772492
O O5 0.429859 0.165712 0.496208
O O6 0.376783 0.198650 0.624724
O O7 0.356505 0.065002 0.605470
O O8 0.058408 0.132462 0.542889
O O9 0.571719 0.562875 0.092500
O O10 0.196025 0.622192 0.064223
O O11 0.330312 0.560529 0.964701
O O12 0.000000 0.500000 0.000000
O O13 0.764987 0.041557 0.657087
O O14 0.542841 0.001410 0.751878
#
# Coordination Sequence:
#
# PCOD9433223 Si02
#       7
#     8   8   8   8   8   4   8
#     4  12  30  51  75 109 167 218 272 343 421 509
#     4  11  24  45  73 109 149 200 265 332 414 487
#     4  11  24  43  72 114 147 199 266 337 412 488
#     4  11  20  37  72 106 146 186 244 337 403 481
#     4  12  29  48  82 119 160 218 284 347 413 501
#     4  12  30  50  72 102 154 222 270 326 410 510
#     4  11  22  40  70 111 150 188 261 327 410 473
#
# _framework density 23.429617
#
# number of rings (size 3 to 8) (size 9 to 14) (size 15 to 20)
#    0.000    0.615    4.615    2.769    8.615    4.308 
#    0.000    0.000    0.000    0.000    0.000    0.000 
#    0.000    0.000    0.000    0.000    0.000    0.000 
#
# Total GULP energy -289513.355662 kJ/mol
# GULP energy per Si atom -5567.564532 kJ/mol
# Density = 2.337629 g / cm^3
# Si number density = 23.429617 Si / 1000 Ang^3
#
#
#
# Elastic Constant Matrix: (Units=GPa)
#
#
# Indices 1 2 3 4 5 6 
#
# 1 77.5002 28.6284 29.7854 0.0000 0.0000 0.0000
# 2 28.6284 58.3720 30.4252 0.0000 0.0000 0.0000
# 3 29.7854 30.4252 129.8251 0.0000 0.0000 0.0000
# 4 0.0000 0.0000 0.0000 38.7439 0.0000 0.0000
# 5 0.0000 0.0000 0.0000 0.0000 45.8262 0.0000
# 6 0.0000 0.0000 0.0000 0.0000 0.0000 15.4205
#
#
#
# Elastic Compliance Matrix: (Units=1/GPa)
#
#
# Indices 1 2 3 4 5 6 
#
# 1 0.016255 -0.006867 -0.002120 0.000000 0.000000 0.000000
# 2 -0.006867 0.022416 -0.003678 0.000000 0.000000 0.000000
# 3 -0.002120 -0.003678 0.009051 0.000000 0.000000 0.000000
# 4 0.000000 0.000000 0.000000 0.025811 0.000000 0.000000
# 5 0.000000 0.000000 0.000000 0.000000 0.021822 0.000000
# 6 0.000000 0.000000 0.000000 0.000000 0.000000 0.064849
#
#
# Mechanical properties :
#
#
# Convention : Reuss Voigt Hill
#
# Bulk Modulus (GPa) = 44.65832 49.26391 46.96111
# Shear Modulus (GPa) = 25.90719 31.78869 28.84794
#
# Velocity S-wave (km/s) = 3.32888 3.68744 3.51274
# Velocity P-wave (km/s) = 5.82042 6.26112 6.04479
#
# Compressibility (1/GPa) = 0.02239225
#
# Stress axis : x y z
#
# Youngs Moduli (GPa) = 61.52103 44.61001 110.48534
#
# Poissons Ratio (x) = 0.30634 0.23422
# Poissons Ratio (y) = 0.42247 0.40636
# Poissons Ratio (z) = 0.13042 0.16407
#
# Static dielectric constant tensor:
#      x y z
#    x 1.741440 0.000000 0.000000 
#    y 0.000000 1.679510 0.000000 
#    z 0.000000 0.000000 1.974610 
# 
# From -- ./inp_files/17559.got.cif
#   From: 2010.05.17/outbox.cif.g08.bks.cpg/sg56_9_cif.got.tgz:17559.got - 2010.06.03 13:42:01.
