data_PCOD9433480
_publ_section_title
;
Structure prediction by ZEFSAII (Michael W. Deem and Ramdas Pophale) SiO2 
 PCOD9433480
Probable space group: P C C N
;
_chemical_formula_sum "Si O2"
_cell_formula_units_Z 48
_cell_length_a 8.574696
_cell_length_b 28.158070
_cell_length_c 8.911937
_cell_angle_alpha 90.000000
_cell_angle_beta 90.000000
_cell_angle_gamma 90.000000
_cell_volume 2151.759474
_symmetry_space_group_name_H-M "P C C N"
_symmetry_group_IT_number 56
_symmetry_cell_setting 'orthorhombic'
loop_
_space_group_symop_operation_xyz
x,y,z
1/2-x,1/2-y,z
1/2+x,-y,1/2-z
-x,1/2+y,1/2-z
-x,-y,-z
1/2+x,1/2+y,-z
1/2-x,y,1/2+z
x,1/2-y,1/2+z
loop_
_atom_site_type_symbol
_atom_site_label
_atom_site_fract_x
_atom_site_fract_y
_atom_site_fract_z
Si Si1 0.055427 0.710744 0.664755
Si Si2 0.082478 0.513723 0.152755
Si Si3 0.439674 0.541225 0.107737
Si Si4 0.107640 0.129610 0.994013
Si Si5 0.918764 0.611233 0.168732
Si Si6 0.108886 0.692863 0.020306
O O1 0.211049 0.696179 0.571032
O O2 0.028399 0.765253 0.618112
O O3 0.921579 0.677252 0.599507
O O4 0.085795 0.702916 0.842460
O O5 0.261360 0.529116 0.143712
O O6 0.051715 0.467262 0.251159
O O7 0.989497 0.560047 0.208497
O O8 0.000000 0.500000 0.000000
O O9 0.467451 0.593173 0.043322
O O10 0.500000 0.500000 0.000000
O O11 0.265294 0.106404 0.931970
O O12 0.114995 0.136285 0.172084
O O13 0.038264 0.642894 0.071925
#
# Coordination Sequence:
#
# PCOD9433480 Si02
#       6
#     8   8   8   8   8   8
#     4  11  23  43  71 102 136 181 225 289 342 422
#     4  12  27  43  73  98 140 182 233 286 351 416
#     4  12  25  47  67 102 136 184 231 288 346 417
#     4  12  26  44  69  97 141 177 235 285 353 415
#     4  12  26  45  67 101 135 183 229 291 348 421
#     4  11  23  43  71 101 138 177 231 280 354 408
#
# _framework density 22.307324999999999
#
# number of rings (size 3 to 8) (size 9 to 14) (size 15 to 20)
#    0.000    0.333    1.667    9.000    4.667    0.667 
#    0.000    3.333    0.000    0.000    0.000    0.000 
#    0.000    0.000    0.000    0.000    0.000    0.000 
#
# Total GULP energy -268552.903869 kJ/mol
# GULP energy per Si atom -5594.852164 kJ/mol
# Density = 2.225655 g / cm^3
# Si number density = 22.307325 Si / 1000 Ang^3
#
#
#
# Elastic Constant Matrix: (Units=GPa)
#
#
# Indices 1 2 3 4 5 6 
#
# 1 85.2182 -5.1599 -10.0520 0.0000 0.0000 0.0000
# 2 -5.1599 63.0926 -3.0541 0.0000 0.0000 0.0000
# 3 -10.0520 -3.0541 132.6805 0.0000 0.0000 0.0000
# 4 0.0000 0.0000 0.0000 38.5931 0.0000 0.0000
# 5 0.0000 0.0000 0.0000 0.0000 26.2916 0.0000
# 6 0.0000 0.0000 0.0000 0.0000 0.0000 41.0128
#
#
#
# Elastic Compliance Matrix: (Units=1/GPa)
#
#
# Indices 1 2 3 4 5 6 
#
# 1 0.011905 0.001018 0.000925 0.000000 0.000000 0.000000
# 2 0.001018 0.015955 0.000444 0.000000 0.000000 0.000000
# 3 0.000925 0.000444 0.007617 0.000000 0.000000 0.000000
# 4 0.000000 0.000000 0.000000 0.025911 0.000000 0.000000
# 5 0.000000 0.000000 0.000000 0.000000 0.038035 0.000000
# 6 0.000000 0.000000 0.000000 0.000000 0.000000 0.024383
#
#
# Mechanical properties :
#
#
# Convention : Reuss Voigt Hill
#
# Bulk Modulus (GPa) = 24.84242 27.16213 26.00227
# Shear Modulus (GPa) = 37.75081 41.12999 39.44040
#
# Velocity S-wave (km/s) = 4.11823 4.29859 4.20938
# Velocity P-wave (km/s) = 5.81151 6.06959 5.94195
#
# Compressibility (1/GPa) = 0.04025374
#
# Stress axis : x y z
#
# Youngs Moduli (GPa) = 83.99540 62.67816 131.28109
#
# Poissons Ratio (x) = -0.06384 -0.12149
# Poissons Ratio (y) = -0.08555 -0.05834
# Poissons Ratio (z) = -0.07773 -0.02785
#
# Static dielectric constant tensor:
#      x y z
#    x 1.810280 0.000000 0.000000 
#    y 0.000000 1.818860 0.000000 
#    z 0.000000 0.000000 1.822570 
# 
# From -- ./inp_files/2223.got.cif
#   From: 2010.05.17/outbox.cif.g08.bks.cpg/sg56_2_cif.got.tgz:2223.got - 2010.06.03 13:42:01.
