data_PCOD9433642
_publ_section_title
;
Structure prediction by ZEFSAII (Michael W. Deem and Ramdas Pophale) SiO2 
 PCOD9433642
Probable space group: P C C N
;
_chemical_formula_sum "Si O2"
_cell_formula_units_Z 48
_cell_length_a 26.603948
_cell_length_b 4.722492
_cell_length_c 14.018103
_cell_angle_alpha 90.000000
_cell_angle_beta 90.000000
_cell_angle_gamma 90.000000
_cell_volume 1761.191448
_symmetry_space_group_name_H-M "P C C N"
_symmetry_group_IT_number 56
_symmetry_cell_setting 'orthorhombic'
loop_
_space_group_symop_operation_xyz
x,y,z
1/2-x,1/2-y,z
1/2+x,-y,1/2-z
-x,1/2+y,1/2-z
-x,-y,-z
1/2+x,1/2+y,-z
1/2-x,y,1/2+z
x,1/2-y,1/2+z
loop_
_atom_site_type_symbol
_atom_site_label
_atom_site_fract_x
_atom_site_fract_y
_atom_site_fract_z
Si Si1 0.925972 0.719539 0.556085
Si Si2 0.250000 0.750000 0.824846
Si Si3 0.339246 0.996473 0.573678
Si Si4 0.930012 0.394642 0.228845
Si Si5 0.483194 0.201221 0.614425
Si Si6 0.250000 0.250000 0.456606
Si Si7 0.343330 0.995155 0.205866
O O1 0.880338 0.562224 0.506480
O O2 0.954414 0.874284 0.467578
O O3 0.970087 0.498299 0.583783
O O4 0.908641 0.914688 0.642692
O O5 0.227578 0.496208 0.889136
O O6 0.205438 0.896877 0.764606
O O7 0.288136 0.086790 0.524071
O O8 0.342423 0.180716 0.672289
O O9 0.340995 0.673927 0.605928
O O10 0.940555 0.521454 0.332920
O O11 0.894312 0.122138 0.243505
O O12 0.988008 0.386976 0.191183
#
# Coordination Sequence:
#
# PCOD9433642 Si02
#       7
#     8   4   8   8   8   4   8
#     4  11  26  44  69 104 147 197 251 305 372 438
#     4  12  26  50  78 112 144 190 246 304 372 448
#     4  12  27  48  74 109 149 194 244 306 371 443
#     4  12  25  42  73 102 148 199 247 309 365 444
#     4  11  25  44  68 105 146 195 256 306 369 430
#     4  12  26  48  80 108 148 190 248 302 376 444
#     4  12  28  47  77 108 151 191 248 304 373 442
#
# _framework density 27.254276999999998
#
# number of rings (size 3 to 8) (size 9 to 14) (size 15 to 20)
#    0.000    0.333    3.333    4.500    9.333    0.000 
#    0.000    0.000    0.000    0.000    0.000    0.000 
#    0.000    0.000    0.000    0.000    0.000    0.000 
#
# Total GULP energy -269032.770534 kJ/mol
# GULP energy per Si atom -5604.849386 kJ/mol
# Density = 2.719225 g / cm^3
# Si number density = 27.254277 Si / 1000 Ang^3
#
#
#
# Elastic Constant Matrix: (Units=GPa)
#
#
# Indices 1 2 3 4 5 6 
#
# 1 113.6549 -15.6199 25.9266 0.0000 0.0000 0.0000
# 2 -15.6199 61.6606 12.6813 0.0000 0.0000 0.0000
# 3 25.9266 12.6813 94.6104 0.0000 0.0000 0.0000
# 4 0.0000 0.0000 0.0000 29.5398 0.0000 0.0000
# 5 0.0000 0.0000 0.0000 0.0000 24.7467 0.0000
# 6 0.0000 0.0000 0.0000 0.0000 0.0000 39.9179
#
#
#
# Elastic Compliance Matrix: (Units=1/GPa)
#
#
# Indices 1 2 3 4 5 6 
#
# 1 0.009953 0.003170 -0.003152 0.000000 0.000000 0.000000
# 2 0.003170 0.017687 -0.003239 0.000000 0.000000 0.000000
# 3 -0.003152 -0.003239 0.011868 0.000000 0.000000 0.000000
# 4 0.000000 0.000000 0.000000 0.033853 0.000000 0.000000
# 5 0.000000 0.000000 0.000000 0.000000 0.040409 0.000000
# 6 0.000000 0.000000 0.000000 0.000000 0.000000 0.025051
#
#
# Mechanical properties :
#
#
# Convention : Reuss Voigt Hill
#
# Bulk Modulus (GPa) = 30.24442 35.10021 32.67232
# Shear Modulus (GPa) = 31.99243 35.30339 33.64791
#
# Velocity S-wave (km/s) = 3.42987 3.60298 3.51749
# Velocity P-wave (km/s) = 5.17750 5.49685 5.33956
#
# Compressibility (1/GPa) = 0.03306395
#
# Stress axis : x y z
#
# Youngs Moduli (GPa) = 100.46915 56.53878 84.26211
#
# Poissons Ratio (x) = -0.17921 0.26563
# Poissons Ratio (y) = -0.31846 0.27295
# Poissons Ratio (z) = 0.31672 0.18315
#
# Static dielectric constant tensor:
#      x y z
#    x 2.084400 0.000000 0.000000 
#    y 0.000000 2.171950 0.000000 
#    z 0.000000 0.000000 2.293960 
# 
# From -- ./inp_files/13377.got.cif
#   From: 2010.05.17/outbox.cif.g08.bks.cpg/sg56_7_cif.got.tgz:13377.got - 2010.06.03 13:42:01.
