data_PCOD9433440
_publ_section_title
;
Structure prediction by ZEFSAII (Michael W. Deem and Ramdas Pophale) SiO2 
 PCOD9433440
Probable space group: P C C N
;
_chemical_formula_sum "Si O2"
_cell_formula_units_Z 60
_cell_length_a 16.884097
_cell_length_b 6.660788
_cell_length_c 26.461326
_cell_angle_alpha 90.000000
_cell_angle_beta 90.000000
_cell_angle_gamma 90.000000
_cell_volume 2975.877521
_symmetry_space_group_name_H-M "P C C N"
_symmetry_group_IT_number 56
_symmetry_cell_setting 'orthorhombic'
loop_
_space_group_symop_operation_xyz
x,y,z
1/2-x,1/2-y,z
1/2+x,-y,1/2-z
-x,1/2+y,1/2-z
-x,-y,-z
1/2+x,1/2+y,-z
1/2-x,y,1/2+z
x,1/2-y,1/2+z
loop_
_atom_site_type_symbol
_atom_site_label
_atom_site_fract_x
_atom_site_fract_y
_atom_site_fract_z
Si Si1 0.180977 0.581710 0.141948
Si Si2 0.677100 0.910870 0.606706
Si Si3 0.118242 0.538180 0.034190
Si Si4 0.750000 0.250000 0.035459
Si Si5 0.917151 0.354544 0.292442
Si Si6 0.036924 0.304621 0.471211
Si Si7 0.082281 0.967027 0.795205
Si Si8 0.170840 0.253093 0.725506
O O1 0.250000 0.750000 0.142223
O O2 0.164172 0.506980 0.086171
O O3 0.105218 0.695699 0.165099
O O4 0.190090 0.392998 0.178896
O O5 0.750000 0.750000 0.614221
O O6 0.598153 0.837749 0.575520
O O7 0.714132 0.078821 0.570699
O O8 0.642778 0.011454 0.658244
O O9 0.040029 0.673123 0.043472
O O10 0.179265 0.654845 0.997725
O O11 0.087777 0.331066 0.010155
O O12 0.917819 0.234756 0.238847
O O13 0.850690 0.523006 0.287721
O O14 0.993337 0.478947 0.309713
O O15 0.000000 0.500000 0.500000
O O16 0.102927 0.148086 0.757040
O O17 0.250000 0.250000 0.758638
#
# Coordination Sequence:
#
# PCOD9433440 Si02
#       8
#     8   8   8   4   8   8   8   8
#     4  11  23  40  68  99 130 173 222 280 350 404
#     4  12  26  46  69 105 140 191 235 290 353 432
#     4  11  24  44  71 101 139 182 230 302 342 416
#     4  12  24  46  68 100 146 182 246 290 354 418
#     4  11  23  46  65  99 135 171 226 287 343 426
#     4  11  24  46  69  97 141 186 233 285 354 412
#     4  11  25  43  71  95 135 179 227 285 347 412
#     4  11  23  43  65  97 134 172 218 278 349 417
#
# _framework density 20.162120000000002
#
# number of rings (size 3 to 8) (size 9 to 14) (size 15 to 20)
#    0.000    0.800    6.000    1.200    0.000    4.267 
#    2.400    0.000    0.000    0.000    0.000    0.000 
#    0.000    0.000    0.000    0.000    0.000    0.000 
#
# Total GULP energy -334607.833698 kJ/mol
# GULP energy per Si atom -5576.797228 kJ/mol
# Density = 2.011623 g / cm^3
# Si number density = 20.162120 Si / 1000 Ang^3
#
#
#
# Elastic Constant Matrix: (Units=GPa)
#
#
# Indices 1 2 3 4 5 6 
#
# 1 105.2776 30.3044 38.7763 0.0000 0.0000 0.0000
# 2 30.3044 84.7452 24.2447 0.0000 0.0000 0.0000
# 3 38.7763 24.2447 100.8897 0.0000 0.0000 0.0000
# 4 0.0000 0.0000 0.0000 -130.6128 0.0000 0.0000
# 5 0.0000 0.0000 0.0000 0.0000 5.6743 0.0000
# 6 0.0000 0.0000 0.0000 0.0000 0.0000 42.6990
#
#
#
# Elastic Compliance Matrix: (Units=1/GPa)
#
#
# Indices 1 2 3 4 5 6 
#
# 1 0.011793 -0.003136 -0.003779 0.000000 0.000000 0.000000
# 2 -0.003136 0.013505 -0.002040 0.000000 0.000000 0.000000
# 3 -0.003779 -0.002040 0.011855 0.000000 0.000000 0.000000
# 4 0.000000 0.000000 0.000000 -0.007656 0.000000 0.000000
# 5 0.000000 0.000000 0.000000 0.000000 0.176233 0.000000
# 6 0.000000 0.000000 0.000000 0.000000 0.000000 0.023420
#
#
# Mechanical properties :
#
#
# Convention : Reuss Voigt Hill
#
# Bulk Modulus (GPa) = 51.96808 53.06258 52.51533
# Shear Modulus (GPa) = 19.72584 -3.27542 8.22521
#
# Velocity S-wave (km/s) = 3.13127 -1.27596 2.02198
# Velocity P-wave (km/s) = 6.23732 4.91979 5.61732
#
# Compressibility (1/GPa) = 0.01924258
#
# Stress axis : x y z
#
# Youngs Moduli (GPa) = 84.79360 74.04575 84.35597
#
# Poissons Ratio (x) = 0.23221 0.31879
# Poissons Ratio (y) = 0.26592 0.17209
# Poissons Ratio (z) = 0.32044 0.15106
#
# Static dielectric constant tensor:
#      x y z
#    x 1.764710 0.000000 0.000000 
#    y 0.000000 1.697610 0.000000 
#    z 0.000000 0.000000 1.697510 
# 
# From -- ./inp_files/22525.got.cif
#   From: 2010.05.17/outbox.cif.g08.bks.cpg/sg56_12_cif.got.tgz:22525.got - 2010.06.03 13:42:01.
