data_PCOD9433158
_publ_section_title
;
Structure prediction by ZEFSAII (Michael W. Deem and Ramdas Pophale) SiO2 
 PCOD9433158
Probable space group: P C C N
;
_chemical_formula_sum "Si O2"
_cell_formula_units_Z 44
_cell_length_a 11.816924
_cell_length_b 13.142024
_cell_length_c 12.184424
_cell_angle_alpha 90.000000
_cell_angle_beta 90.000000
_cell_angle_gamma 90.000000
_cell_volume 1892.220319
_symmetry_space_group_name_H-M "P C C N"
_symmetry_group_IT_number 56
_symmetry_cell_setting 'orthorhombic'
loop_
_space_group_symop_operation_xyz
x,y,z
1/2-x,1/2-y,z
1/2+x,-y,1/2-z
-x,1/2+y,1/2-z
-x,-y,-z
1/2+x,1/2+y,-z
1/2-x,y,1/2+z
x,1/2-y,1/2+z
loop_
_atom_site_type_symbol
_atom_site_label
_atom_site_fract_x
_atom_site_fract_y
_atom_site_fract_z
Si Si1 0.365012 0.112223 0.583761
Si Si2 0.892822 0.658575 0.872248
Si Si3 0.462323 0.439195 0.855875
Si Si4 0.750000 0.250000 0.808553
Si Si5 0.710397 0.118450 0.617991
Si Si6 0.902006 0.193087 0.496063
O O1 0.386494 0.218923 0.646580
O O2 0.228436 0.111431 0.593648
O O3 0.424689 0.008063 0.626115
O O4 0.425553 0.127076 0.463161
O O5 0.947411 0.612133 0.762124
O O6 0.978016 0.649143 0.974807
O O7 0.363630 0.522392 0.863401
O O8 0.763646 0.153143 0.731847
O O9 0.636891 0.233307 0.878736
O O10 0.807391 0.109554 0.527970
O O11 0.632165 0.212247 0.575979
#
# Coordination Sequence:
#
# PCOD9433158 Si02
#       6
#     8   8   8   4   8   8
#     4  10  26  48  69 101 143 196 231 294 372 420
#     4  11  24  44  73 102 138 186 238 284 363 436
#     4  11  24  47  72  96 145 187 242 290 358 446
#     4   8  18  36  64  98 144 168 224 292 354 398
#     4   9  19  38  64 100 130 189 222 282 353 412
#     4   9  19  38  63 100 139 172 229 288 346 417
#
# _framework density 23.253107
#
# number of rings (size 3 to 8) (size 9 to 14) (size 15 to 20)
#    0.000    2.545    1.818    0.000    2.545    8.727 
#    6.545    1.818    0.000    0.000    0.000    0.000 
#    0.000    0.000    0.000    0.000    0.000    0.000 
#
# Total GULP energy -245444.143396 kJ/mol
# GULP energy per Si atom -5578.275986 kJ/mol
# Density = 2.320018 g / cm^3
# Si number density = 23.253107 Si / 1000 Ang^3
#
#
#
# Elastic Constant Matrix: (Units=GPa)
#
#
# Indices 1 2 3 4 5 6 
#
# 1 170.0565 34.9551 26.8576 0.0000 0.0000 0.0000
# 2 34.9551 91.9388 36.0107 0.0000 0.0000 0.0000
# 3 26.8576 36.0107 80.3011 0.0000 0.0000 0.0000
# 4 0.0000 0.0000 0.0000 18.1976 0.0000 0.0000
# 5 0.0000 0.0000 0.0000 0.0000 34.7877 0.0000
# 6 0.0000 0.0000 0.0000 0.0000 0.0000 28.2876
#
#
#
# Elastic Compliance Matrix: (Units=1/GPa)
#
#
# Indices 1 2 3 4 5 6 
#
# 1 0.006487 -0.001961 -0.001290 0.000000 0.000000 0.000000
# 2 -0.001961 0.013787 -0.005527 0.000000 0.000000 0.000000
# 3 -0.001290 -0.005527 0.015363 0.000000 0.000000 0.000000
# 4 0.000000 0.000000 0.000000 0.054952 0.000000 0.000000
# 5 0.000000 0.000000 0.000000 0.000000 0.028746 0.000000
# 6 0.000000 0.000000 0.000000 0.000000 0.000000 0.035351
#
#
# Mechanical properties :
#
#
# Convention : Reuss Voigt Hill
#
# Bulk Modulus (GPa) = 55.30636 59.77146 57.53891
# Shear Modulus (GPa) = 28.04726 32.55279 30.30002
#
# Velocity S-wave (km/s) = 3.47677 3.74563 3.61370
# Velocity P-wave (km/s) = 6.32087 6.66834 6.49693
#
# Compressibility (1/GPa) = 0.01808110
#
# Stress axis : x y z
#
# Youngs Moduli (GPa) = 154.14782 72.53113 65.09059
#
# Poissons Ratio (x) = 0.14224 0.08399
# Poissons Ratio (y) = 0.30229 0.35975
# Poissons Ratio (z) = 0.19890 0.40087
#
# Static dielectric constant tensor:
#      x y z
#    x 1.930760 0.000000 0.000000 
#    y 0.000000 2.000690 0.000000 
#    z 0.000000 0.000000 1.903960 
# 
# From -- ./inp_files/7758.got.cif
#   From: 2010.05.17/outbox.cif.g08.bks.cpg/sg56_4_cif.got.tgz:7758.got - 2010.06.03 13:42:01.
