data_PCOD9433707
_publ_section_title
;
Structure prediction by ZEFSAII (Michael W. Deem and Ramdas Pophale) SiO2 
 PCOD9433707
Probable space group: P C C N
;
_chemical_formula_sum "Si O2"
_cell_formula_units_Z 32
_cell_length_a 8.964823
_cell_length_b 8.289371
_cell_length_c 18.967158
_cell_angle_alpha 90.000000
_cell_angle_beta 90.000000
_cell_angle_gamma 90.000000
_cell_volume 1409.501553
_symmetry_space_group_name_H-M "P C C N"
_symmetry_group_IT_number 56
_symmetry_cell_setting 'orthorhombic'
loop_
_space_group_symop_operation_xyz
x,y,z
1/2-x,1/2-y,z
1/2+x,-y,1/2-z
-x,1/2+y,1/2-z
-x,-y,-z
1/2+x,1/2+y,-z
1/2-x,y,1/2+z
x,1/2-y,1/2+z
loop_
_atom_site_type_symbol
_atom_site_label
_atom_site_fract_x
_atom_site_fract_y
_atom_site_fract_z
Si Si1 0.369874 0.638873 0.799741
Si Si2 0.332457 0.080784 0.420175
Si Si3 0.813324 0.070261 0.925438
Si Si4 0.630992 0.628682 0.308421
O O1 0.250000 0.750000 0.759907
O O2 0.283183 0.548857 0.862214
O O3 0.427421 0.504008 0.746163
O O4 0.498483 0.752513 0.830114
O O5 0.250000 0.250000 0.411170
O O6 0.511147 0.088348 0.407784
O O7 0.304584 0.015211 0.498490
O O8 0.750000 0.250000 0.929135
O O9 0.718402 0.962386 0.870749
O O10 0.750000 0.750000 0.272583
#
# Coordination Sequence:
#
# PCOD9433707 Si02
#       4
#     8   8   8   8
#     4  12  27  44  73 110 146 195 251 302 372 444
#     4  11  26  47  73 109 147 193 248 304 369 446
#     4  11  26  46  77 106 148 196 242 306 374 436
#     4  12  25  48  74 107 151 197 247 309 373 442
#
# _framework density 22.703061000000002
#
# number of rings (size 3 to 8) (size 9 to 14) (size 15 to 20)
#    0.000    0.500    2.500    4.500   10.500    1.000 
#    0.000    0.000    0.000    0.000    0.000    0.000 
#    0.000    0.000    0.000    0.000    0.000    0.000 
#
# Total GULP energy -179122.572942 kJ/mol
# GULP energy per Si atom -5597.580404 kJ/mol
# Density = 2.265139 g / cm^3
# Si number density = 22.703061 Si / 1000 Ang^3
#
#
#
# Elastic Constant Matrix: (Units=GPa)
#
#
# Indices 1 2 3 4 5 6 
#
# 1 87.9703 89.6329 46.0011 0.0000 0.0000 0.0000
# 2 89.6329 186.6663 62.9806 0.0000 0.0000 0.0000
# 3 46.0011 62.9806 115.7090 0.0000 0.0000 0.0000
# 4 0.0000 0.0000 0.0000 36.6312 0.0000 0.0000
# 5 0.0000 0.0000 0.0000 0.0000 27.6639 0.0000
# 6 0.0000 0.0000 0.0000 0.0000 0.0000 59.4657
#
#
#
# Elastic Compliance Matrix: (Units=1/GPa)
#
#
# Indices 1 2 3 4 5 6 
#
# 1 0.023640 -0.010021 -0.003944 0.000000 0.000000 0.000000
# 2 -0.010021 0.010810 -0.001900 0.000000 0.000000 0.000000
# 3 -0.003944 -0.001900 0.011245 0.000000 0.000000 0.000000
# 4 0.000000 0.000000 0.000000 0.027299 0.000000 0.000000
# 5 0.000000 0.000000 0.000000 0.000000 0.036148 0.000000
# 6 0.000000 0.000000 0.000000 0.000000 0.000000 0.016816
#
#
# Mechanical properties :
#
#
# Convention : Reuss Voigt Hill
#
# Bulk Modulus (GPa) = 71.60779 87.50831 79.55805
# Shear Modulus (GPa) = 30.79912 37.53424 34.16668
#
# Velocity S-wave (km/s) = 3.68721 4.07045 3.88356
# Velocity P-wave (km/s) = 7.05244 7.79229 7.43158
#
# Compressibility (1/GPa) = 0.01396496
#
# Stress axis : x y z
#
# Youngs Moduli (GPa) = 42.30144 92.50772 88.93208
#
# Poissons Ratio (x) = 0.92699 0.35075
# Poissons Ratio (y) = 0.42389 0.16898
# Poissons Ratio (z) = 0.16684 0.17577
#
# Static dielectric constant tensor:
#      x y z
#    x 1.887310 0.000000 0.000000 
#    y 0.000000 1.860420 0.000000 
#    z 0.000000 0.000000 1.802350 
# 
# From -- ./inp_files/17781.got.cif
#   From: 2010.05.17/outbox.cif.g08.bks.cpg/sg56_9_cif.got.tgz:17781.got - 2010.06.03 13:42:01.
