data_PCOD9433036
_publ_section_title
;
Structure prediction by ZEFSAII (Michael W. Deem and Ramdas Pophale) SiO2 
 PCOD9433036
Probable space group: P C C N
;
_chemical_formula_sum "Si O2"
_cell_formula_units_Z 48
_cell_length_a 11.454754
_cell_length_b 8.602448
_cell_length_c 21.726764
_cell_angle_alpha 90.000000
_cell_angle_beta 90.000000
_cell_angle_gamma 90.000000
_cell_volume 2140.931982
_symmetry_space_group_name_H-M "P C C N"
_symmetry_group_IT_number 56
_symmetry_cell_setting 'orthorhombic'
loop_
_space_group_symop_operation_xyz
x,y,z
1/2-x,1/2-y,z
1/2+x,-y,1/2-z
-x,1/2+y,1/2-z
-x,-y,-z
1/2+x,1/2+y,-z
1/2-x,y,1/2+z
x,1/2-y,1/2+z
loop_
_atom_site_type_symbol
_atom_site_label
_atom_site_fract_x
_atom_site_fract_y
_atom_site_fract_z
Si Si1 0.947050 0.866940 0.952700
Si Si2 0.935003 0.314389 0.844456
Si Si3 0.651077 0.628156 0.715925
Si Si4 0.588307 0.894692 0.038637
Si Si5 0.211903 0.997817 0.153007
Si Si6 0.641365 0.351927 0.618405
O O1 0.043171 0.764838 0.911804
O O2 0.850753 0.928504 0.905471
O O3 0.880926 0.745615 0.995983
O O4 0.000000 0.000000 0.000000
O O5 0.853983 0.166081 0.842945
O O6 0.849828 0.462719 0.849906
O O7 0.022122 0.299860 0.787083
O O8 0.017969 0.321137 0.903954
O O9 0.750000 0.750000 0.690855
O O10 0.687787 0.588745 0.784539
O O11 0.626951 0.469373 0.676555
O O12 0.675971 0.021560 0.065689
O O13 0.500000 0.000000 0.000000
O O14 0.750000 0.250000 0.635591
#
# Coordination Sequence:
#
# PCOD9433036 Si02
#       6
#     8   8   8   8   8   8
#     4  11  23  43  74 108 144 190 245 309 385 451
#     4  10  24  47  70 108 149 191 247 311 374 454
#     4  11  28  46  73 105 152 196 253 311 375 453
#     4   9  20  44  66  99 146 182 238 298 358 442
#     4  11  26  43  78 106 147 195 246 313 382 451
#     4  10  25  43  69 101 140 190 243 300 369 442
#
# _framework density 22.420142999999999
#
# number of rings (size 3 to 8) (size 9 to 14) (size 15 to 20)
#    0.000    1.667    1.667    0.000    9.333    5.333 
#    0.000    8.333    0.000    0.000    0.000    0.000 
#    0.000    0.000    0.000    0.000    0.000    0.000 
#
# Total GULP energy -267448.846921 kJ/mol
# GULP energy per Si atom -5571.850978 kJ/mol
# Density = 2.236911 g / cm^3
# Si number density = 22.420143 Si / 1000 Ang^3
#
#
#
# Elastic Constant Matrix: (Units=GPa)
#
#
# Indices 1 2 3 4 5 6 
#
# 1 115.4835 46.0992 36.8912 0.0000 0.0000 0.0000
# 2 46.0992 108.8675 43.4882 0.0000 0.0000 0.0000
# 3 36.8912 43.4882 100.1034 0.0000 0.0000 0.0000
# 4 0.0000 0.0000 0.0000 36.3283 0.0000 0.0000
# 5 0.0000 0.0000 0.0000 0.0000 13.2818 0.0000
# 6 0.0000 0.0000 0.0000 0.0000 0.0000 27.6834
#
#
#
# Elastic Compliance Matrix: (Units=1/GPa)
#
#
# Indices 1 2 3 4 5 6 
#
# 1 0.010889 -0.003639 -0.002432 0.000000 0.000000 0.000000
# 2 -0.003639 0.012331 -0.004016 0.000000 0.000000 0.000000
# 3 -0.002432 -0.004016 0.012630 0.000000 0.000000 0.000000
# 4 0.000000 0.000000 0.000000 0.027527 0.000000 0.000000
# 5 0.000000 0.000000 0.000000 0.000000 0.075291 0.000000
# 6 0.000000 0.000000 0.000000 0.000000 0.000000 0.036123
#
#
# Mechanical properties :
#
#
# Convention : Reuss Voigt Hill
#
# Bulk Modulus (GPa) = 63.79073 64.15682 63.97378
# Shear Modulus (GPa) = 24.97638 28.65711 26.81674
#
# Velocity S-wave (km/s) = 3.34131 3.57905 3.46222
# Velocity P-wave (km/s) = 6.58787 6.76441 6.67672
#
# Compressibility (1/GPa) = 0.01567626
#
# Stress axis : x y z
#
# Youngs Moduli (GPa) = 91.83680 81.09887 79.17427
#
# Poissons Ratio (x) = 0.29515 0.19254
# Poissons Ratio (y) = 0.33423 0.31793
# Poissons Ratio (z) = 0.22333 0.32566
#
# Static dielectric constant tensor:
#      x y z
#    x 1.850160 0.000000 0.000000 
#    y 0.000000 1.880850 0.000000 
#    z 0.000000 0.000000 1.868250 
# 
# From -- ./inp_files/20905.got.cif
#   From: 2010.05.17/outbox.cif.g08.bks.cpg/sg56_11_cif.got.tgz:20905.got - 2010.06.03 13:42:01.
