data_PCOD9433431
_publ_section_title
;
Structure prediction by ZEFSAII (Michael W. Deem and Ramdas Pophale) SiO2 
 PCOD9433431
Probable space group: P C C N
;
_chemical_formula_sum "Si O2"
_cell_formula_units_Z 56
_cell_length_a 6.405951
_cell_length_b 13.977001
_cell_length_c 30.043906
_cell_angle_alpha 90.000000
_cell_angle_beta 90.000000
_cell_angle_gamma 90.000000
_cell_volume 2690.010673
_symmetry_space_group_name_H-M "P C C N"
_symmetry_group_IT_number 56
_symmetry_cell_setting 'orthorhombic'
loop_
_space_group_symop_operation_xyz
x,y,z
1/2-x,1/2-y,z
1/2+x,-y,1/2-z
-x,1/2+y,1/2-z
-x,-y,-z
1/2+x,1/2+y,-z
1/2-x,y,1/2+z
x,1/2-y,1/2+z
loop_
_atom_site_type_symbol
_atom_site_label
_atom_site_fract_x
_atom_site_fract_y
_atom_site_fract_z
Si Si1 0.418162 0.883976 0.955191
Si Si2 0.924387 0.405103 0.472608
Si Si3 0.750000 0.750000 0.996858
Si Si4 0.273458 0.135454 0.242368
Si Si5 0.401271 0.511699 0.312832
Si Si6 0.995189 0.620858 0.344068
Si Si7 0.189573 0.507569 0.103862
Si Si8 0.250000 0.750000 0.385537
O O1 0.520660 0.977621 0.933818
O O2 0.272535 0.838965 0.917767
O O3 0.282399 0.882287 0.999343
O O4 0.607116 0.813934 0.965415
O O5 0.848163 0.422632 0.422167
O O6 0.000000 0.500000 0.500000
O O7 0.099735 0.323088 0.476457
O O8 0.250000 0.250000 0.250542
O O9 0.200821 0.074149 0.284790
O O10 0.110819 0.114625 0.203238
O O11 0.484580 0.087117 0.221192
O O12 0.214025 0.565715 0.338170
O O13 0.563001 0.472192 0.350487
O O14 0.049920 0.730249 0.355776
O O15 0.840419 0.578698 0.380751
#
# Coordination Sequence:
#
# PCOD9433431 Si02
#       8
#     8   8   4   8   8   8   8   4
#     4  12  23  41  65  99 135 169 229 287 350 405
#     4  12  25  42  67  97 133 189 227 285 351 409
#     4  12  24  40  66  92 134 180 228 286 332 414
#     4  11  24  43  71 101 133 179 224 279 359 417
#     4  11  23  44  70  98 141 177 228 288 340 436
#     4  11  23  40  65 103 135 167 214 286 350 413
#     4  11  25  40  68  96 135 179 225 280 351 407
#     4  12  20  36  64 104 132 162 218 290 348 400
#
# _framework density 20.81776
#
# number of rings (size 3 to 8) (size 9 to 14) (size 15 to 20)
#    0.000    0.571    5.714    3.000    2.000    0.000 
#    0.000    0.000    9.429    0.000    0.000    0.000 
#    0.000    0.000    0.000    0.000    0.000    0.000 
#
# Total GULP energy -312358.328402 kJ/mol
# GULP energy per Si atom -5577.827293 kJ/mol
# Density = 2.077038 g / cm^3
# Si number density = 20.817760 Si / 1000 Ang^3
#
#
#
# Elastic Constant Matrix: (Units=GPa)
#
#
# Indices 1 2 3 4 5 6 
#
# 1 75.0035 26.5262 31.6790 0.0000 0.0000 0.0000
# 2 26.5262 79.9942 47.2500 0.0000 0.0000 0.0000
# 3 31.6790 47.2500 70.5314 0.0000 0.0000 0.0000
# 4 0.0000 0.0000 0.0000 25.0156 0.0000 0.0000
# 5 0.0000 0.0000 0.0000 0.0000 7.7979 0.0000
# 6 0.0000 0.0000 0.0000 0.0000 0.0000 44.4287
#
#
#
# Elastic Compliance Matrix: (Units=1/GPa)
#
#
# Indices 1 2 3 4 5 6 
#
# 1 0.016613 -0.001823 -0.006241 0.000000 0.000000 0.000000
# 2 -0.001823 0.020886 -0.013173 0.000000 0.000000 0.000000
# 3 -0.006241 -0.013173 0.025806 0.000000 0.000000 0.000000
# 4 0.000000 0.000000 0.000000 0.039975 0.000000 0.000000
# 5 0.000000 0.000000 0.000000 0.000000 0.128240 0.000000
# 6 0.000000 0.000000 0.000000 0.000000 0.000000 0.022508
#
#
# Mechanical properties :
#
#
# Convention : Reuss Voigt Hill
#
# Bulk Modulus (GPa) = 48.00304 48.49327 48.24816
# Shear Modulus (GPa) = 16.47733 23.45336 19.96535
#
# Velocity S-wave (km/s) = 2.81642 3.36013 3.10022
# Velocity P-wave (km/s) = 5.80388 6.19667 6.00349
#
# Compressibility (1/GPa) = 0.02083202
#
# Stress axis : x y z
#
# Youngs Moduli (GPa) = 60.19299 47.87784 38.75047
#
# Poissons Ratio (x) = 0.08727 0.24183
# Poissons Ratio (y) = 0.10972 0.51048
# Poissons Ratio (z) = 0.37564 0.63072
#
# Static dielectric constant tensor:
#      x y z
#    x 1.971370 0.000000 0.000000 
#    y 0.000000 1.909700 0.000000 
#    z 0.000000 0.000000 1.752060 
# 
# From -- ./inp_files/22894.got.cif
#   From: 2010.05.17/outbox.cif.g08.bks.cpg/sg56_12_cif.got.tgz:22894.got - 2010.06.03 13:42:01.
