data_PCOD9433831
_publ_section_title
;
Structure prediction by ZEFSAII (Michael W. Deem and Ramdas Pophale) SiO2 
 PCOD9433831
Probable space group: P C C N
;
_chemical_formula_sum "Si O2"
_cell_formula_units_Z 40
_cell_length_a 13.489405
_cell_length_b 13.858427
_cell_length_c 8.522164
_cell_angle_alpha 90.000000
_cell_angle_beta 90.000000
_cell_angle_gamma 90.000000
_cell_volume 1593.149824
_symmetry_space_group_name_H-M "P C C N"
_symmetry_group_IT_number 56
_symmetry_cell_setting 'orthorhombic'
loop_
_space_group_symop_operation_xyz
x,y,z
1/2-x,1/2-y,z
1/2+x,-y,1/2-z
-x,1/2+y,1/2-z
-x,-y,-z
1/2+x,1/2+y,-z
1/2-x,y,1/2+z
x,1/2-y,1/2+z
loop_
_atom_site_type_symbol
_atom_site_label
_atom_site_fract_x
_atom_site_fract_y
_atom_site_fract_z
Si Si1 0.737665 0.549979 0.800713
Si Si2 0.873231 0.119245 0.207879
Si Si3 0.565717 0.310204 0.882775
Si Si4 0.162715 0.172408 0.923433
Si Si5 0.454951 0.995733 0.828059
O O1 0.787718 0.446271 0.782980
O O2 0.818667 0.628827 0.749671
O O3 0.649281 0.550547 0.673947
O O4 0.684364 0.583727 0.958515
O O5 0.891874 0.212312 0.313390
O O6 0.868467 0.152863 0.028199
O O7 0.970117 0.051915 0.215797
O O8 0.450830 0.294284 0.937757
O O9 0.561857 0.390834 0.746381
O O10 0.250000 0.250000 0.948615
O O11 0.500000 0.000000 0.000000
#
# Coordination Sequence:
#
# PCOD9433831 Si02
#       5
#     8   8   8   8   8
#     4  12  26  46  78 112 155 208 267 329 407 480
#     4  12  26  49  78 115 158 210 264 335 404 478
#     4  12  27  49  78 113 161 209 268 334 403 488
#     4  12  26  46  77 116 149 203 273 339 397 475
#     4  12  25  49  76 111 160 210 261 328 400 477
#
# _framework density 25.107493000000002
#
# number of rings (size 3 to 8) (size 9 to 14) (size 15 to 20)
#    0.000    0.000    4.000    6.000    2.800    0.800 
#    0.000    2.000    0.000    0.000    0.000    0.000 
#    0.000    0.000    0.000    0.000    0.000    0.000 
#
# Total GULP energy -224303.464015 kJ/mol
# GULP energy per Si atom -5607.586600 kJ/mol
# Density = 2.505035 g / cm^3
# Si number density = 25.107493 Si / 1000 Ang^3
#
#
#
# Elastic Constant Matrix: (Units=GPa)
#
#
# Indices 1 2 3 4 5 6 
#
# 1 77.8118 28.7437 29.8807 0.0000 0.0000 0.0000
# 2 28.7437 131.5109 50.8632 0.0000 0.0000 0.0000
# 3 29.8807 50.8632 113.9721 0.0000 0.0000 0.0000
# 4 0.0000 0.0000 0.0000 48.7167 0.0000 0.0000
# 5 0.0000 0.0000 0.0000 0.0000 40.3089 0.0000
# 6 0.0000 0.0000 0.0000 0.0000 0.0000 38.2535
#
#
#
# Elastic Compliance Matrix: (Units=1/GPa)
#
#
# Indices 1 2 3 4 5 6 
#
# 1 0.014750 -0.002089 -0.002935 0.000000 0.000000 0.000000
# 2 -0.002089 0.009486 -0.003686 0.000000 0.000000 0.000000
# 3 -0.002935 -0.003686 0.011188 0.000000 0.000000 0.000000
# 4 0.000000 0.000000 0.000000 0.020527 0.000000 0.000000
# 5 0.000000 0.000000 0.000000 0.000000 0.024808 0.000000
# 6 0.000000 0.000000 0.000000 0.000000 0.000000 0.026141
#
#
# Mechanical properties :
#
#
# Convention : Reuss Voigt Hill
#
# Bulk Modulus (GPa) = 55.53823 60.25223 57.89523
# Shear Modulus (GPa) = 38.36650 39.70964 39.03807
#
# Velocity S-wave (km/s) = 3.91332 3.98123 3.94742
# Velocity P-wave (km/s) = 6.52587 6.72186 6.62459
#
# Compressibility (1/GPa) = 0.01800561
#
# Stress axis : x y z
#
# Youngs Moduli (GPa) = 67.79576 105.41897 89.37808
#
# Poissons Ratio (x) = 0.22019 0.26232
# Poissons Ratio (y) = 0.14161 0.32943
# Poissons Ratio (z) = 0.19898 0.38855
#
# Static dielectric constant tensor:
#      x y z
#    x 1.988140 0.000000 0.000000 
#    y 0.000000 1.972650 0.000000 
#    z 0.000000 0.000000 2.059790 
# 
# From -- ./inp_files/3225.got.cif
#   From: 2010.05.17/outbox.cif.g08.bks.cpg/sg56_2_cif.got.tgz:3225.got - 2010.06.03 13:42:01.
