data_PCOD9433311
_publ_section_title
;
Structure prediction by ZEFSAII (Michael W. Deem and Ramdas Pophale) SiO2 
 PCOD9433311
Probable space group: P C C N
;
_chemical_formula_sum "Si O2"
_cell_formula_units_Z 48
_cell_length_a 18.307226
_cell_length_b 8.237846
_cell_length_c 15.633330
_cell_angle_alpha 90.000000
_cell_angle_beta 90.000000
_cell_angle_gamma 90.000000
_cell_volume 2357.695460
_symmetry_space_group_name_H-M "P C C N"
_symmetry_group_IT_number 56
_symmetry_cell_setting 'orthorhombic'
loop_
_space_group_symop_operation_xyz
x,y,z
1/2-x,1/2-y,z
1/2+x,-y,1/2-z
-x,1/2+y,1/2-z
-x,-y,-z
1/2+x,1/2+y,-z
1/2-x,y,1/2+z
x,1/2-y,1/2+z
loop_
_atom_site_type_symbol
_atom_site_label
_atom_site_fract_x
_atom_site_fract_y
_atom_site_fract_z
Si Si1 0.558080 0.352517 0.664945
Si Si2 0.930687 0.385605 0.827821
Si Si3 0.782089 0.429393 0.200492
Si Si4 0.443510 0.649043 0.006383
Si Si5 0.723625 0.934080 0.863548
Si Si6 0.720046 0.064670 0.534563
O O1 0.566554 0.223720 0.742295
O O2 0.495786 0.484752 0.678694
O O3 0.637436 0.435384 0.662131
O O4 0.543422 0.262704 0.575857
O O5 0.855455 0.490740 0.837060
O O6 0.942279 0.262437 0.908511
O O7 0.750000 0.250000 0.205789
O O8 0.779740 0.483764 0.297585
O O9 0.730447 0.511123 0.128814
O O10 0.363149 0.573586 0.994165
O O11 0.500000 0.500000 0.000000
O O12 0.750000 0.750000 0.854002
O O13 0.734178 0.977313 0.961980
O O14 0.750000 0.250000 0.536479
#
# Coordination Sequence:
#
# PCOD9433311 Si02
#       6
#     8   8   8   8   8   8
#     4  12  25  44  67  96 134 176 221 275 343 414
#     4  12  26  44  67 100 140 176 223 286 349 412
#     4  11  21  45  71  89 124 177 225 267 334 409
#     4  12  25  44  70  98 135 179 227 282 348 415
#     4  12  26  41  68 100 134 171 229 289 334 396
#     4  11  21  45  71  92 126 179 228 278 339 404
#
# _framework density 20.358865000000002
#
# number of rings (size 3 to 8) (size 9 to 14) (size 15 to 20)
#    0.000    0.333    6.667    3.000    4.667    0.667 
#    0.000    0.000    0.000    0.000    0.000    0.000 
#    0.000    0.000    0.000    0.000    0.000    0.000 
#
# Total GULP energy -267874.962975 kJ/mol
# GULP energy per Si atom -5580.728395 kJ/mol
# Density = 2.031253 g / cm^3
# Si number density = 20.358865 Si / 1000 Ang^3
#
#
#
# Elastic Constant Matrix: (Units=GPa)
#
#
# Indices 1 2 3 4 5 6 
#
# 1 100.8477 33.3394 -12.3582 0.0000 0.0000 0.0000
# 2 33.3394 54.0716 14.4561 0.0000 0.0000 0.0000
# 3 -12.3582 14.4561 106.6888 0.0000 0.0000 0.0000
# 4 0.0000 0.0000 0.0000 12.0492 0.0000 0.0000
# 5 0.0000 0.0000 0.0000 0.0000 30.6690 0.0000
# 6 0.0000 0.0000 0.0000 0.0000 0.0000 34.5965
#
#
#
# Elastic Compliance Matrix: (Units=1/GPa)
#
#
# Indices 1 2 3 4 5 6 
#
# 1 0.013177 -0.008853 0.002726 0.000000 0.000000 0.000000
# 2 -0.008853 0.025138 -0.004432 0.000000 0.000000 0.000000
# 3 0.002726 -0.004432 0.010289 0.000000 0.000000 0.000000
# 4 0.000000 0.000000 0.000000 0.082993 0.000000 0.000000
# 5 0.000000 0.000000 0.000000 0.000000 0.032606 0.000000
# 6 0.000000 0.000000 0.000000 0.000000 0.000000 0.028905
#
#
# Mechanical properties :
#
#
# Convention : Reuss Voigt Hill
#
# Bulk Modulus (GPa) = 36.38258 36.94251 36.66254
# Shear Modulus (GPa) = 22.38264 30.54099 26.46181
#
# Velocity S-wave (km/s) = 3.31932 3.87736 3.60914
# Velocity P-wave (km/s) = 5.70964 6.18306 5.95106
#
# Compressibility (1/GPa) = 0.02748568
#
# Stress axis : x y z
#
# Youngs Moduli (GPa) = 75.89083 39.78111 97.18854
#
# Poissons Ratio (x) = 0.35219 -0.26493
# Poissons Ratio (y) = 0.67189 0.43070
# Poissons Ratio (z) = -0.20687 0.17629
#
# Static dielectric constant tensor:
#      x y z
#    x 1.745550 0.000000 0.000000 
#    y 0.000000 1.578270 0.000000 
#    z 0.000000 0.000000 1.810110 
# 
# From -- ./inp_files/12702.got.cif
#   From: 2010.05.17/outbox.cif.g08.bks.cpg/sg56_7_cif.got.tgz:12702.got - 2010.06.03 13:42:01.
