data_PCOD9433669
_publ_section_title
;
Structure prediction by ZEFSAII (Michael W. Deem and Ramdas Pophale) SiO2 
 PCOD9433669
Probable space group: P C C N
;
_chemical_formula_sum "Si O2"
_cell_formula_units_Z 48
_cell_length_a 13.913601
_cell_length_b 5.794203
_cell_length_c 24.215691
_cell_angle_alpha 90.000000
_cell_angle_beta 90.000000
_cell_angle_gamma 90.000000
_cell_volume 1952.226114
_symmetry_space_group_name_H-M "P C C N"
_symmetry_group_IT_number 56
_symmetry_cell_setting 'orthorhombic'
loop_
_space_group_symop_operation_xyz
x,y,z
1/2-x,1/2-y,z
1/2+x,-y,1/2-z
-x,1/2+y,1/2-z
-x,-y,-z
1/2+x,1/2+y,-z
1/2-x,y,1/2+z
x,1/2-y,1/2+z
loop_
_atom_site_type_symbol
_atom_site_label
_atom_site_fract_x
_atom_site_fract_y
_atom_site_fract_z
Si Si1 0.250000 0.250000 0.233015
Si Si2 0.403694 0.975418 0.799837
Si Si3 0.500000 0.000000 0.500000
Si Si4 0.851835 0.868889 0.479942
Si Si5 0.116428 0.873943 0.709557
Si Si6 0.801662 0.008663 0.591764
Si Si7 0.133665 0.742694 0.592602
O O1 0.337046 0.331820 0.271595
O O2 0.204611 0.455673 0.198279
O O3 0.368251 0.746701 0.768377
O O4 0.514965 0.000167 0.787036
O O5 0.386907 0.997315 0.864522
O O6 0.571727 0.788948 0.511229
O O7 0.426281 0.926240 0.553174
O O8 0.750000 0.750000 0.467397
O O9 0.830400 0.053493 0.528515
O O10 0.893726 0.997897 0.427213
O O11 0.110403 0.705136 0.656915
O O12 0.750000 0.750000 0.593391
O O13 0.750000 0.250000 0.608537
O O14 0.250000 0.750000 0.584559
#
# Coordination Sequence:
#
# PCOD9433669 Si02
#       7
#     4   8   4   8   8   8   8
#     4  12  24  48  76 104 156 204 264 348 406 492
#     4  12  25  50  74 114 155 207 278 336 419 494
#     4  12  26  48  80 110 158 208 266 334 408 488
#     4  11  25  48  77 113 157 209 271 337 404 489
#     4  12  28  48  79 114 155 215 270 341 420 497
#     4  11  25  46  81 115 158 214 268 341 410 479
#     4  12  26  50  77 116 162 211 273 339 414 501
#
# _framework density 24.587318
#
# number of rings (size 3 to 8) (size 9 to 14) (size 15 to 20)
#    0.000    0.333    4.167    4.500    3.500    1.333 
#    3.000    0.000    0.000    0.000    0.000    0.000 
#    0.000    0.000    0.000    0.000    0.000    0.000 
#
# Total GULP energy -267253.524728 kJ/mol
# GULP energy per Si atom -5567.781765 kJ/mol
# Density = 2.453136 g / cm^3
# Si number density = 24.587318 Si / 1000 Ang^3
#
#
#
# Elastic Constant Matrix: (Units=GPa)
#
#
# Indices 1 2 3 4 5 6 
#
# 1 115.9656 23.2020 11.4652 0.0000 0.0000 0.0000
# 2 23.2020 57.6566 14.7949 0.0000 0.0000 0.0000
# 3 11.4652 14.7949 93.1334 0.0000 0.0000 0.0000
# 4 0.0000 0.0000 0.0000 17.6189 0.0000 0.0000
# 5 0.0000 0.0000 0.0000 0.0000 27.2825 0.0000
# 6 0.0000 0.0000 0.0000 0.0000 0.0000 38.9437
#
#
#
# Elastic Compliance Matrix: (Units=1/GPa)
#
#
# Indices 1 2 3 4 5 6 
#
# 1 0.009408 -0.003637 -0.000580 0.000000 0.000000 0.000000
# 2 -0.003637 0.019487 -0.002648 0.000000 0.000000 0.000000
# 3 -0.000580 -0.002648 0.011229 0.000000 0.000000 0.000000
# 4 0.000000 0.000000 0.000000 0.056757 0.000000 0.000000
# 5 0.000000 0.000000 0.000000 0.000000 0.036654 0.000000
# 6 0.000000 0.000000 0.000000 0.000000 0.000000 0.025678
#
#
# Mechanical properties :
#
#
# Convention : Reuss Voigt Hill
#
# Bulk Modulus (GPa) = 37.88751 40.63108 39.25929
# Shear Modulus (GPa) = 27.51139 31.25524 29.38332
#
# Velocity S-wave (km/s) = 3.34866 3.56925 3.46071
# Velocity P-wave (km/s) = 5.51310 5.79199 5.65426
#
# Compressibility (1/GPa) = 0.02639392
#
# Stress axis : x y z
#
# Youngs Moduli (GPa) = 106.28873 51.31579 89.05206
#
# Poissons Ratio (x) = 0.18664 0.05169
# Poissons Ratio (y) = 0.38659 0.23580
# Poissons Ratio (z) = 0.06169 0.13588
#
# Static dielectric constant tensor:
#      x y z
#    x 2.005020 0.000000 0.000000 
#    y 0.000000 2.175430 0.000000 
#    z 0.000000 0.000000 0.288300 
# 
# From -- ./inp_files/22449.got.cif
#   From: 2010.05.17/outbox.cif.g08.bks.cpg/sg56_12_cif.got.tgz:22449.got - 2010.06.03 13:42:01.
