data_PCOD9433564
_publ_section_title
;
Structure prediction by ZEFSAII (Michael W. Deem and Ramdas Pophale) SiO2 
 PCOD9433564
Probable space group: P C C N
;
_chemical_formula_sum "Si O2"
_cell_formula_units_Z 36
_cell_length_a 6.280050
_cell_length_b 11.782071
_cell_length_c 20.588151
_cell_angle_alpha 90.000000
_cell_angle_beta 90.000000
_cell_angle_gamma 90.000000
_cell_volume 1523.358366
_symmetry_space_group_name_H-M "P C C N"
_symmetry_group_IT_number 56
_symmetry_cell_setting 'orthorhombic'
loop_
_space_group_symop_operation_xyz
x,y,z
1/2-x,1/2-y,z
1/2+x,-y,1/2-z
-x,1/2+y,1/2-z
-x,-y,-z
1/2+x,1/2+y,-z
1/2-x,y,1/2+z
x,1/2-y,1/2+z
loop_
_atom_site_type_symbol
_atom_site_label
_atom_site_fract_x
_atom_site_fract_y
_atom_site_fract_z
Si Si1 0.888976 0.147738 0.897064
Si Si2 0.345156 0.133581 0.718777
Si Si3 0.101439 0.440848 0.088605
Si Si4 0.209690 0.519406 0.331893
Si Si5 0.250000 0.250000 0.989927
O O1 0.750000 0.250000 0.867573
O O2 0.028037 0.072734 0.848306
O O3 0.722470 0.057948 0.927345
O O4 0.058260 0.200385 0.946817
O O5 0.250000 0.250000 0.745743
O O6 0.198240 0.103879 0.656989
O O7 0.341016 0.037830 0.774062
O O8 0.585004 0.131169 0.691276
O O9 0.153962 0.348382 0.035105
O O10 0.855542 0.461677 0.105456
#
# Coordination Sequence:
#
# PCOD9433564 Si02
#       5
#     8   8   8   8   4
#     4  11  27  45  73 106 146 197 243 306 356 436
#     4  11  24  43  72 108 145 188 236 299 367 441
#     4  11  25  48  71 110 143 193 244 299 369 432
#     4  11  25  46  73 111 147 186 241 301 370 441
#     4  12  26  50  72 104 146 200 250 302 360 424
#
# _framework density 23.631997999999999
#
# number of rings (size 3 to 8) (size 9 to 14) (size 15 to 20)
#    0.000    0.889    3.333    2.000    4.667    8.000 
#    0.000    0.000    0.000    0.000    0.000    0.000 
#    0.000    0.000    0.000    0.000    0.000    0.000 
#
# Total GULP energy -201552.932675 kJ/mol
# GULP energy per Si atom -5598.692574 kJ/mol
# Density = 2.357821 g / cm^3
# Si number density = 23.631998 Si / 1000 Ang^3
#
#
#
# Elastic Constant Matrix: (Units=GPa)
#
#
# Indices 1 2 3 4 5 6 
#
# 1 133.2788 50.1958 21.3913 0.0000 0.0000 0.0000
# 2 50.1958 96.7291 10.1286 0.0000 0.0000 0.0000
# 3 21.3913 10.1286 52.7794 0.0000 0.0000 0.0000
# 4 0.0000 0.0000 0.0000 33.2340 0.0000 0.0000
# 5 0.0000 0.0000 0.0000 0.0000 20.9341 0.0000
# 6 0.0000 0.0000 0.0000 0.0000 0.0000 41.6249
#
#
#
# Elastic Compliance Matrix: (Units=1/GPa)
#
#
# Indices 1 2 3 4 5 6 
#
# 1 0.009785 -0.004758 -0.003053 0.000000 0.000000 0.000000
# 2 -0.004758 0.012864 -0.000540 0.000000 0.000000 0.000000
# 3 -0.003053 -0.000540 0.020288 0.000000 0.000000 0.000000
# 4 0.000000 0.000000 0.000000 0.030090 0.000000 0.000000
# 5 0.000000 0.000000 0.000000 0.000000 0.047769 0.000000
# 6 0.000000 0.000000 0.000000 0.000000 0.000000 0.024024
#
#
# Mechanical properties :
#
#
# Convention : Reuss Voigt Hill
#
# Bulk Modulus (GPa) = 38.11770 49.57986 43.84878
# Shear Modulus (GPa) = 29.36578 32.56339 30.96458
#
# Velocity S-wave (km/s) = 3.52892 3.71608 3.62371
# Velocity P-wave (km/s) = 5.72443 6.27996 6.00862
#
# Compressibility (1/GPa) = 0.02623453
#
# Stress axis : x y z
#
# Youngs Moduli (GPa) = 102.19678 77.73721 49.29091
#
# Poissons Ratio (x) = 0.36988 0.15047
# Poissons Ratio (y) = 0.48626 0.02663
# Poissons Ratio (z) = 0.31198 0.04199
#
# Static dielectric constant tensor:
#      x y z
#    x 1.936470 0.000000 0.000000 
#    y 0.000000 1.923720 0.000000 
#    z 0.000000 0.000000 1.833690 
# 
# From -- ./inp_files/19890.got.cif
#   From: 2010.05.17/outbox.cif.g08.bks.cpg/sg56_10_cif.got.tgz:19890.got - 2010.06.03 13:42:01.
