data_PCOD9433548
_publ_section_title
;
Structure prediction by ZEFSAII (Michael W. Deem and Ramdas Pophale) SiO2 
 PCOD9433548
Probable space group: P C C N
;
_chemical_formula_sum "Si O2"
_cell_formula_units_Z 48
_cell_length_a 8.585676
_cell_length_b 14.199975
_cell_length_c 18.601582
_cell_angle_alpha 90.000000
_cell_angle_beta 90.000000
_cell_angle_gamma 90.000000
_cell_volume 2267.837625
_symmetry_space_group_name_H-M "P C C N"
_symmetry_group_IT_number 56
_symmetry_cell_setting 'orthorhombic'
loop_
_space_group_symop_operation_xyz
x,y,z
1/2-x,1/2-y,z
1/2+x,-y,1/2-z
-x,1/2+y,1/2-z
-x,-y,-z
1/2+x,1/2+y,-z
1/2-x,y,1/2+z
x,1/2-y,1/2+z
loop_
_atom_site_type_symbol
_atom_site_label
_atom_site_fract_x
_atom_site_fract_y
_atom_site_fract_z
Si Si1 0.662175 0.350293 0.207019
Si Si2 0.177597 0.150876 0.983346
Si Si3 0.331130 0.527112 0.407426
Si Si4 0.658963 0.468949 0.345684
Si Si5 0.308512 0.853915 0.533794
Si Si6 0.317419 0.348414 0.151928
O O1 0.750000 0.250000 0.210474
O O2 0.767524 0.425815 0.165098
O O3 0.622575 0.392522 0.284901
O O4 0.501348 0.344255 0.163359
O O5 0.250000 0.250000 0.958008
O O6 0.223217 0.140991 0.067278
O O7 0.240958 0.064989 0.935941
O O8 0.990779 0.150147 0.983243
O O9 0.507924 0.498068 0.391654
O O10 0.295573 0.605334 0.468455
O O11 0.782620 0.422657 0.399426
O O12 0.735933 0.562182 0.312003
O O13 0.250000 0.750000 0.551552
O O14 0.250000 0.250000 0.178493
#
# Coordination Sequence:
#
# PCOD9433548 Si02
#       6
#     8   8   8   8   8   8
#     4  12  26  47  69  99 139 186 230 281 348 418
#     4  11  24  42  69 103 139 175 233 292 346 404
#     4  12  24  44  71 103 136 183 232 286 347 414
#     4  12  26  44  68 102 143 182 228 287 348 413
#     4  12  24  41  69 103 138 181 232 292 341 405
#     4  11  24  43  70 100 132 179 230 286 342 414
#
# _framework density 21.165538000000002
#
# number of rings (size 3 to 8) (size 9 to 14) (size 15 to 20)
#    0.000    0.333    3.333    6.000    4.667    0.000 
#    0.000    8.333    0.000    0.000    0.000    0.000 
#    0.000    0.000    0.000    0.000    0.000    0.000 
#
# Total GULP energy -268611.558370 kJ/mol
# GULP energy per Si atom -5596.074133 kJ/mol
# Density = 2.111736 g / cm^3
# Si number density = 21.165538 Si / 1000 Ang^3
#
#
#
# Elastic Constant Matrix: (Units=GPa)
#
#
# Indices 1 2 3 4 5 6 
#
# 1 91.7769 45.9284 11.2531 0.0000 0.0000 0.0000
# 2 45.9284 153.9942 22.6801 0.0000 0.0000 0.0000
# 3 11.2531 22.6801 51.0738 0.0000 0.0000 0.0000
# 4 0.0000 0.0000 0.0000 22.4247 0.0000 0.0000
# 5 0.0000 0.0000 0.0000 0.0000 0.4738 0.0000
# 6 0.0000 0.0000 0.0000 0.0000 0.0000 40.6541
#
#
#
# Elastic Compliance Matrix: (Units=1/GPa)
#
#
# Indices 1 2 3 4 5 6 
#
# 1 0.012877 -0.003662 -0.001211 0.000000 0.000000 0.000000
# 2 -0.003662 0.007990 -0.002741 0.000000 0.000000 0.000000
# 3 -0.001211 -0.002741 0.021064 0.000000 0.000000 0.000000
# 4 0.000000 0.000000 0.000000 0.044594 0.000000 0.000000
# 5 0.000000 0.000000 0.000000 0.000000 2.110702 0.000000
# 6 0.000000 0.000000 0.000000 0.000000 0.000000 0.024598
#
#
# Mechanical properties :
#
#
# Convention : Reuss Voigt Hill
#
# Bulk Modulus (GPa) = 37.45047 50.72977 44.09012
# Shear Modulus (GPa) = 2.22623 27.17608 14.70115
#
# Velocity S-wave (km/s) = 1.02669 3.58715 2.63835
# Velocity P-wave (km/s) = 4.37470 6.41693 5.49158
#
# Compressibility (1/GPa) = 0.02670194
#
# Stress axis : x y z
#
# Youngs Moduli (GPa) = 77.65674 125.16107 47.47543
#
# Poissons Ratio (x) = 0.45837 0.05749
# Poissons Ratio (y) = 0.28440 0.13013
# Poissons Ratio (z) = 0.09404 0.34307
#
# Static dielectric constant tensor:
#      x y z
#    x 1.748080 0.000000 0.000000 
#    y 0.000000 1.765470 0.000000 
#    z 0.000000 0.000000 1.759990 
# 
# From -- ./inp_files/14819.got.cif
#   From: 2010.05.17/outbox.cif.g08.bks.cpg/sg56_8_cif.got.tgz:14819.got - 2010.06.03 13:42:01.
