data_PCOD9433593
_publ_section_title
;
Structure prediction by ZEFSAII (Michael W. Deem and Ramdas Pophale) SiO2 
 PCOD9433593
Probable space group: P C C N
;
_chemical_formula_sum "Si O2"
_cell_formula_units_Z 28
_cell_length_a 7.672476
_cell_length_b 8.754229
_cell_length_c 17.948105
_cell_angle_alpha 90.000000
_cell_angle_beta 90.000000
_cell_angle_gamma 90.000000
_cell_volume 1205.513403
_symmetry_space_group_name_H-M "P C C N"
_symmetry_group_IT_number 56
_symmetry_cell_setting 'orthorhombic'
loop_
_space_group_symop_operation_xyz
x,y,z
1/2-x,1/2-y,z
1/2+x,-y,1/2-z
-x,1/2+y,1/2-z
-x,-y,-z
1/2+x,1/2+y,-z
1/2-x,y,1/2+z
x,1/2-y,1/2+z
loop_
_atom_site_type_symbol
_atom_site_label
_atom_site_fract_x
_atom_site_fract_y
_atom_site_fract_z
Si Si1 0.446165 0.819049 0.490812
Si Si2 0.203160 0.503287 0.775761
Si Si3 0.750000 0.750000 0.099481
Si Si4 0.010733 0.280025 0.683370
O O1 0.250000 0.750000 0.504506
O O2 0.579962 0.742524 0.548047
O O3 0.488036 0.780472 0.405116
O O4 0.500000 0.000000 0.500000
O O5 0.241321 0.395982 0.846812
O O6 0.357857 0.623527 0.776341
O O7 0.033824 0.610955 0.788201
O O8 0.171086 0.388335 0.707276
#
# Coordination Sequence:
#
# PCOD9433593 Si02
#       4
#     8   8   4   8
#     4  12  26  50  76 114 156 197 259 322 394 470
#     4  11  24  46  71 107 145 196 253 309 382 461
#     4  12  26  46  80 110 148 202 254 314 400 464
#     4  11  24  46  70 105 152 190 255 316 377 462
#
# _framework density 23.226618999999999
#
# number of rings (size 3 to 8) (size 9 to 14) (size 15 to 20)
#    0.000    0.571    5.714    1.714    0.000   10.286 
#    0.000    0.000    0.000    0.000    0.000    0.000 
#    0.000    0.000    0.000    0.000    0.000    0.000 
#
# Total GULP energy -156238.768276 kJ/mol
# GULP energy per Si atom -5579.956010 kJ/mol
# Density = 2.317375 g / cm^3
# Si number density = 23.226619 Si / 1000 Ang^3
#
#
#
# Elastic Constant Matrix: (Units=GPa)
#
#
# Indices 1 2 3 4 5 6 
#
# 1 123.2668 20.4652 29.9353 0.0000 0.0000 0.0000
# 2 20.4652 158.3318 43.1369 0.0000 0.0000 0.0000
# 3 29.9353 43.1369 83.6124 0.0000 0.0000 0.0000
# 4 0.0000 0.0000 0.0000 40.0042 0.0000 0.0000
# 5 0.0000 0.0000 0.0000 0.0000 34.8276 0.0000
# 6 0.0000 0.0000 0.0000 0.0000 0.0000 39.9770
#
#
#
# Elastic Compliance Matrix: (Units=1/GPa)
#
#
# Indices 1 2 3 4 5 6 
#
# 1 0.008900 -0.000328 -0.003017 0.000000 0.000000 0.000000
# 2 -0.000328 0.007361 -0.003680 0.000000 0.000000 0.000000
# 3 -0.003017 -0.003680 0.014939 0.000000 0.000000 0.000000
# 4 0.000000 0.000000 0.000000 0.024997 0.000000 0.000000
# 5 0.000000 0.000000 0.000000 0.000000 0.028713 0.000000
# 6 0.000000 0.000000 0.000000 0.000000 0.000000 0.025014
#
#
# Mechanical properties :
#
#
# Convention : Reuss Voigt Hill
#
# Bulk Modulus (GPa) = 58.31375 61.36509 59.83942
# Shear Modulus (GPa) = 38.55326 41.07331 39.81328
#
# Velocity S-wave (km/s) = 4.07857 4.20976 4.14469
# Velocity P-wave (km/s) = 6.88045 7.07863 6.98024
#
# Compressibility (1/GPa) = 0.01714861
#
# Stress axis : x y z
#
# Youngs Moduli (GPa) = 112.36389 135.85275 66.94043
#
# Poissons Ratio (x) = 0.04461 0.20195
# Poissons Ratio (y) = 0.03690 0.24634
# Poissons Ratio (z) = 0.33899 0.49994
#
# Static dielectric constant tensor:
#      x y z
#    x 2.147380 0.000000 0.000000 
#    y 0.000000 1.893210 0.000000 
#    z 0.000000 0.000000 1.792450 
# 
# From -- ./inp_files/14281.got.cif
#   From: 2010.05.17/outbox.cif.g08.bks.cpg/sg56_8_cif.got.tgz:14281.got - 2010.06.03 13:42:01.
