data_PCOD9433120
_publ_section_title
;
Structure prediction by ZEFSAII (Michael W. Deem and Ramdas Pophale) SiO2 
 PCOD9433120
Probable space group: P C C N
;
_chemical_formula_sum "Si O2"
_cell_formula_units_Z 40
_cell_length_a 7.011871
_cell_length_b 9.798979
_cell_length_c 25.258734
_cell_angle_alpha 90.000000
_cell_angle_beta 90.000000
_cell_angle_gamma 90.000000
_cell_volume 1735.506817
_symmetry_space_group_name_H-M "P C C N"
_symmetry_group_IT_number 56
_symmetry_cell_setting 'orthorhombic'
loop_
_space_group_symop_operation_xyz
x,y,z
1/2-x,1/2-y,z
1/2+x,-y,1/2-z
-x,1/2+y,1/2-z
-x,-y,-z
1/2+x,1/2+y,-z
1/2-x,y,1/2+z
x,1/2-y,1/2+z
loop_
_atom_site_type_symbol
_atom_site_label
_atom_site_fract_x
_atom_site_fract_y
_atom_site_fract_z
Si Si1 0.250000 0.250000 0.042252
Si Si2 0.063261 0.836820 0.636197
Si Si3 0.589925 0.157851 0.610899
Si Si4 0.250000 0.250000 0.785276
Si Si5 0.831501 0.956104 0.539478
Si Si6 0.219967 0.409703 0.685053
O O1 0.438910 0.248789 0.078307
O O2 0.206857 0.128465 0.001852
O O3 0.250000 0.750000 0.621759
O O4 0.936872 0.755438 0.678699
O O5 0.933304 0.869700 0.585725
O O6 0.134928 0.979522 0.662315
O O7 0.750000 0.250000 0.638637
O O8 0.478347 0.067484 0.654032
O O9 0.704129 0.067304 0.568768
O O10 0.234597 0.386136 0.748097
O O11 0.000000 0.000000 0.500000
O O12 0.250000 0.250000 0.670751
#
# Coordination Sequence:
#
# PCOD9433120 Si02
#       6
#     4   8   8   4   8   8
#     4  12  24  44  68 106 144 208 252 308 386 462
#     4  12  29  49  76 115 159 200 264 327 390 473
#     4  12  24  46  75 107 149 196 261 320 382 470
#     4  10  28  50  78 114 150 202 254 328 404 462
#     4  12  27  44  74 108 153 203 255 318 390 455
#     4  10  25  49  80 110 146 198 265 317 398 466
#
# _framework density 23.048024000000002
#
# number of rings (size 3 to 8) (size 9 to 14) (size 15 to 20)
#    0.600    0.000    3.000    3.600   11.200    0.800 
#    0.000    0.000    0.000    0.000    0.000    0.000 
#    0.000    0.000    0.000    0.000    0.000    0.000 
#
# Total GULP energy -223126.621155 kJ/mol
# GULP energy per Si atom -5578.165529 kJ/mol
# Density = 2.299557 g / cm^3
# Si number density = 23.048024 Si / 1000 Ang^3
#
#
#
# Elastic Constant Matrix: (Units=GPa)
#
#
# Indices 1 2 3 4 5 6 
#
# 1 126.4919 30.4664 54.3185 0.0000 0.0000 0.0000
# 2 30.4664 64.1187 17.4632 0.0000 0.0000 0.0000
# 3 54.3185 17.4632 123.4519 0.0000 0.0000 0.0000
# 4 0.0000 0.0000 0.0000 23.4074 0.0000 0.0000
# 5 0.0000 0.0000 0.0000 0.0000 49.3251 0.0000
# 6 0.0000 0.0000 0.0000 0.0000 0.0000 48.2233
#
#
#
# Elastic Compliance Matrix: (Units=1/GPa)
#
#
# Indices 1 2 3 4 5 6 
#
# 1 0.010619 -0.003924 -0.004117 0.000000 0.000000 0.000000
# 2 -0.003924 0.017671 -0.000773 0.000000 0.000000 0.000000
# 3 -0.004117 -0.000773 0.010021 0.000000 0.000000 0.000000
# 4 0.000000 0.000000 0.000000 0.042722 0.000000 0.000000
# 5 0.000000 0.000000 0.000000 0.000000 0.020274 0.000000
# 6 0.000000 0.000000 0.000000 0.000000 0.000000 0.020737
#
#
# Mechanical properties :
#
#
# Convention : Reuss Voigt Hill
#
# Bulk Modulus (GPa) = 48.35042 57.61765 52.98404
# Shear Modulus (GPa) = 34.11424 38.31212 36.21318
#
# Velocity S-wave (km/s) = 3.85143 4.08152 3.96814
# Velocity P-wave (km/s) = 6.38762 6.87495 6.63576
#
# Compressibility (1/GPa) = 0.02068234
#
# Stress axis : x y z
#
# Youngs Moduli (GPa) = 94.17242 56.58905 99.78843
#
# Poissons Ratio (x) = 0.22207 0.41084
# Poissons Ratio (y) = 0.36956 0.07714
# Poissons Ratio (z) = 0.38772 0.04375
#
# Static dielectric constant tensor:
#      x y z
#    x 1.874290 0.000000 0.000000 
#    y 0.000000 1.984530 0.000000 
#    z 0.000000 0.000000 1.882410 
# 
# From -- ./inp_files/21583.got.cif
#   From: 2010.05.17/outbox.cif.g08.bks.cpg/sg56_11_cif.got.tgz:21583.got - 2010.06.03 13:42:01.
