data_PCOD9433299
_publ_section_title
;
Structure prediction by ZEFSAII (Michael W. Deem and Ramdas Pophale) SiO2 
 PCOD9433299
Probable space group: P C C N
;
_chemical_formula_sum "Si O2"
_cell_formula_units_Z 40
_cell_length_a 8.558009
_cell_length_b 15.732986
_cell_length_c 13.233973
_cell_angle_alpha 90.000000
_cell_angle_beta 90.000000
_cell_angle_gamma 90.000000
_cell_volume 1781.862300
_symmetry_space_group_name_H-M "P C C N"
_symmetry_group_IT_number 56
_symmetry_cell_setting 'orthorhombic'
loop_
_space_group_symop_operation_xyz
x,y,z
1/2-x,1/2-y,z
1/2+x,-y,1/2-z
-x,1/2+y,1/2-z
-x,-y,-z
1/2+x,1/2+y,-z
1/2-x,y,1/2+z
x,1/2-y,1/2+z
loop_
_atom_site_type_symbol
_atom_site_label
_atom_site_fract_x
_atom_site_fract_y
_atom_site_fract_z
Si Si1 0.562786 0.923017 0.805504
Si Si2 0.257975 0.529999 0.402245
Si Si3 0.350536 0.670977 0.748650
Si Si4 0.677024 0.445151 0.875477
Si Si5 0.294028 0.336494 0.320196
O O1 0.432979 0.928724 0.893559
O O2 0.663551 0.842466 0.769377
O O3 0.465920 0.947962 0.703431
O O4 0.696940 0.986373 0.839594
O O5 0.170018 0.592461 0.324929
O O6 0.166329 0.539442 0.506583
O O7 0.280865 0.429551 0.374306
O O8 0.250000 0.750000 0.790315
O O9 0.256154 0.645291 0.647313
O O10 0.531187 0.675035 0.720749
O O11 0.250000 0.250000 0.379956
#
# Coordination Sequence:
#
# PCOD9433299 Si02
#       5
#     8   8   8   8   8
#     4  11  21  43  67 100 132 181 225 288 353 405
#     4  11  23  43  73  98 136 183 238 286 357 419
#     4  11  24  45  69  99 140 185 231 293 356 417
#     4  11  22  42  72  96 135 179 231 287 355 420
#     4  12  23  43  68  98 142 183 232 291 350 423
#
# _framework density 22.448423999999999
#
# number of rings (size 3 to 8) (size 9 to 14) (size 15 to 20)
#    0.000    0.800    6.000    3.000    0.000    1.600 
#    0.000    1.000    0.000    0.000    0.000    0.000 
#    0.000    0.000    0.000    0.000    0.000    0.000 
#
# Total GULP energy -222737.701740 kJ/mol
# GULP energy per Si atom -5568.442543 kJ/mol
# Density = 2.239733 g / cm^3
# Si number density = 22.448424 Si / 1000 Ang^3
#
#
#
# Elastic Constant Matrix: (Units=GPa)
#
#
# Indices 1 2 3 4 5 6 
#
# 1 157.1416 31.0748 16.9807 0.0000 0.0000 0.0000
# 2 31.0748 130.6873 33.3805 0.0000 0.0000 0.0000
# 3 16.9807 33.3805 93.4043 0.0000 0.0000 0.0000
# 4 0.0000 0.0000 0.0000 20.2508 0.0000 0.0000
# 5 0.0000 0.0000 0.0000 0.0000 8.7370 0.0000
# 6 0.0000 0.0000 0.0000 0.0000 0.0000 38.3651
#
#
#
# Elastic Compliance Matrix: (Units=1/GPa)
#
#
# Indices 1 2 3 4 5 6 
#
# 1 0.006721 -0.001415 -0.000716 0.000000 0.000000 0.000000
# 2 -0.001415 0.008718 -0.002859 0.000000 0.000000 0.000000
# 3 -0.000716 -0.002859 0.011858 0.000000 0.000000 0.000000
# 4 0.000000 0.000000 0.000000 0.049381 0.000000 0.000000
# 5 0.000000 0.000000 0.000000 0.000000 0.114455 0.000000
# 6 0.000000 0.000000 0.000000 0.000000 0.000000 0.026065
#
#
# Mechanical properties :
#
#
# Convention : Reuss Voigt Hill
#
# Bulk Modulus (GPa) = 57.74430 60.45612 59.10021
# Shear Modulus (GPa) = 21.46373 33.45705 27.46039
#
# Velocity S-wave (km/s) = 3.09550 3.86475 3.50132
# Velocity P-wave (km/s) = 6.20927 6.84870 6.53681
#
# Compressibility (1/GPa) = 0.01731773
#
# Stress axis : x y z
#
# Youngs Moduli (GPa) = 148.78903 114.69880 84.33201
#
# Poissons Ratio (x) = 0.16232 0.06039
# Poissons Ratio (y) = 0.21057 0.24106
# Poissons Ratio (z) = 0.10655 0.32787
#
# Static dielectric constant tensor:
#      x y z
#    x 1.908050 0.000000 0.000000 
#    y 0.000000 1.947580 0.000000 
#    z 0.000000 0.000000 1.921500 
# 
# From -- ./inp_files/10503.got.cif
#   From: 2010.05.17/outbox.cif.g08.bks.cpg/sg56_6_cif.got.tgz:10503.got - 2010.06.03 13:42:01.
