data_PCOD9433087
_publ_section_title
;
Structure prediction by ZEFSAII (Michael W. Deem and Ramdas Pophale) SiO2 
 PCOD9433087
Probable space group: P C C N
;
_chemical_formula_sum "Si O2"
_cell_formula_units_Z 60
_cell_length_a 6.259008
_cell_length_b 18.025061
_cell_length_c 22.756955
_cell_angle_alpha 90.000000
_cell_angle_beta 90.000000
_cell_angle_gamma 90.000000
_cell_volume 2567.416929
_symmetry_space_group_name_H-M "P C C N"
_symmetry_group_IT_number 56
_symmetry_cell_setting 'orthorhombic'
loop_
_space_group_symop_operation_xyz
x,y,z
1/2-x,1/2-y,z
1/2+x,-y,1/2-z
-x,1/2+y,1/2-z
-x,-y,-z
1/2+x,1/2+y,-z
1/2-x,y,1/2+z
x,1/2-y,1/2+z
loop_
_atom_site_type_symbol
_atom_site_label
_atom_site_fract_x
_atom_site_fract_y
_atom_site_fract_z
Si Si1 0.250000 0.250000 0.728152
Si Si2 0.948254 0.195765 0.127932
Si Si3 0.476888 0.522401 0.892790
Si Si4 0.105076 0.190197 0.004249
Si Si5 0.321907 0.980721 0.730604
Si Si6 0.608195 0.176593 0.299480
Si Si7 0.878080 0.558407 0.041309
Si Si8 0.698700 0.114351 0.425413
O O1 0.400374 0.203754 0.684181
O O2 0.385490 0.303316 0.769827
O O3 0.750000 0.250000 0.139903
O O4 0.922110 0.109207 0.110525
O O5 0.052204 0.223682 0.067406
O O6 0.615502 0.507833 0.834416
O O7 0.615010 0.469790 0.936891
O O8 0.251735 0.483219 0.907249
O O9 0.250000 0.250000 0.971111
O O10 0.237712 0.113557 0.999242
O O11 0.882430 0.168700 0.975290
O O12 0.292884 0.892094 0.735880
O O13 0.071407 0.007825 0.742152
O O14 0.750000 0.250000 0.298437
O O15 0.596855 0.146023 0.365798
O O16 0.049816 0.609239 0.074835
O O17 0.000000 0.500000 0.000000
#
# Coordination Sequence:
#
# PCOD9433087 Si02
#       8
#     4   8   8   8   8   8   8   8
#     4  12  28  48  66 106 150 196 258 310 394 454
#     4  12  27  45  72 105 146 196 243 309 384 465
#     4  10  25  45  70 103 145 187 249 305 376 456
#     4  11  26  43  67 110 141 185 239 304 378 465
#     4  11  27  49  78 110 149 204 262 322 387 467
#     4  11  28  46  76 109 151 201 259 330 392 468
#     4  11  24  44  76 105 143 190 240 307 384 464
#     4  10  25  46  75 105 145 193 244 314 385 468
#
# _framework density 23.369793000000001
#
# number of rings (size 3 to 8) (size 9 to 14) (size 15 to 20)
#    0.000    1.067    0.667    2.800   15.867    4.267 
#    0.000    0.000    0.000    0.000    0.000    0.000 
#    0.000    0.000    0.000    0.000    0.000    0.000 
#
# Total GULP energy -334125.346562 kJ/mol
# GULP energy per Si atom -5568.755776 kJ/mol
# Density = 2.331660 g / cm^3
# Si number density = 23.369793 Si / 1000 Ang^3
#
#
#
# Elastic Constant Matrix: (Units=GPa)
#
#
# Indices 1 2 3 4 5 6 
#
# 1 110.5113 47.5146 37.8803 0.0000 0.0000 0.0000
# 2 47.5146 134.1496 1.4754 0.0000 0.0000 0.0000
# 3 37.8803 1.4754 68.4018 0.0000 0.0000 0.0000
# 4 0.0000 0.0000 0.0000 25.0035 0.0000 0.0000
# 5 0.0000 0.0000 0.0000 0.0000 40.5531 0.0000
# 6 0.0000 0.0000 0.0000 0.0000 0.0000 44.3381
#
#
#
# Elastic Compliance Matrix: (Units=1/GPa)
#
#
# Indices 1 2 3 4 5 6 
#
# 1 0.013647 -0.004752 -0.007455 0.000000 0.000000 0.000000
# 2 -0.004752 0.009111 0.002435 0.000000 0.000000 0.000000
# 3 -0.007455 0.002435 0.018696 0.000000 0.000000 0.000000
# 4 0.000000 0.000000 0.000000 0.039994 0.000000 0.000000
# 5 0.000000 0.000000 0.000000 0.000000 0.024659 0.000000
# 6 0.000000 0.000000 0.000000 0.000000 0.000000 0.022554
#
#
# Mechanical properties :
#
#
# Convention : Reuss Voigt Hill
#
# Bulk Modulus (GPa) = 45.64242 54.08926 49.86584
# Shear Modulus (GPa) = 32.15264 37.05844 34.60554
#
# Velocity S-wave (km/s) = 3.71323 3.98646 3.85227
# Velocity P-wave (km/s) = 6.16093 6.66215 6.41644
#
# Compressibility (1/GPa) = 0.02190944
#
# Stress axis : x y z
#
# Youngs Moduli (GPa) = 73.27433 109.76197 53.48846
#
# Poissons Ratio (x) = 0.52156 0.39877
# Poissons Ratio (y) = 0.34818 -0.13024
# Poissons Ratio (z) = 0.54628 -0.26727
#
# Static dielectric constant tensor:
#      x y z
#    x 1.922330 0.000000 0.000000 
#    y 0.000000 1.895740 0.000000 
#    z 0.000000 0.000000 1.920390 
# 
# From -- ./inp_files/21794.got.cif
#   From: 2010.05.17/outbox.cif.g08.bks.cpg/sg56_11_cif.got.tgz:21794.got - 2010.06.03 13:42:01.
