data_PCOD9433537
_publ_section_title
;
Structure prediction by ZEFSAII (Michael W. Deem and Ramdas Pophale) SiO2 
 PCOD9433537
Probable space group: P C C N
;
_chemical_formula_sum "Si O2"
_cell_formula_units_Z 48
_cell_length_a 8.302457
_cell_length_b 16.592916
_cell_length_c 14.125354
_cell_angle_alpha 90.000000
_cell_angle_beta 90.000000
_cell_angle_gamma 90.000000
_cell_volume 1945.936617
_symmetry_space_group_name_H-M "P C C N"
_symmetry_group_IT_number 56
_symmetry_cell_setting 'orthorhombic'
loop_
_space_group_symop_operation_xyz
x,y,z
1/2-x,1/2-y,z
1/2+x,-y,1/2-z
-x,1/2+y,1/2-z
-x,-y,-z
1/2+x,1/2+y,-z
1/2-x,y,1/2+z
x,1/2-y,1/2+z
loop_
_atom_site_type_symbol
_atom_site_label
_atom_site_fract_x
_atom_site_fract_y
_atom_site_fract_z
Si Si1 0.421852 0.724009 0.931724
Si Si2 0.651820 0.420458 0.198831
Si Si3 0.647718 0.668967 0.097230
Si Si4 0.366832 0.171600 0.190172
Si Si5 0.825825 0.990848 0.546267
Si Si6 0.817923 0.995142 0.855744
O O1 0.250000 0.750000 0.971259
O O2 0.395409 0.666726 0.839951
O O3 0.524350 0.676963 0.010373
O O4 0.510815 0.802710 0.891649
O O5 0.498196 0.478177 0.179284
O O6 0.716536 0.435607 0.303206
O O7 0.798124 0.451800 0.134476
O O8 0.750000 0.750000 0.095231
O O9 0.774961 0.597287 0.081801
O O10 0.570887 0.662380 0.202043
O O11 0.250000 0.250000 0.191853
O O12 0.273729 0.089961 0.163706
O O13 0.694911 0.012243 0.466280
O O14 0.000000 0.000000 0.500000
#
# Coordination Sequence:
#
# PCOD9433537 Si02
#       6
#     8   8   8   8   8   8
#     4  12  28  47  72 108 151 192 249 311 372 446
#     4  12  27  47  71 112 144 194 243 304 369 442
#     4  11  25  47  76 103 147 195 247 302 378 447
#     4  11  23  48  75 101 139 197 245 298 371 439
#     4  12  26  45  74 109 148 194 244 303 372 444
#     4  12  25  45  76 102 151 186 247 300 369 439
#
# _framework density 24.666782999999999
#
# number of rings (size 3 to 8) (size 9 to 14) (size 15 to 20)
#    0.000    0.333    5.000    3.000    7.000    0.667 
#    0.000    0.000    0.000    0.000    0.000    0.000 
#    0.000    0.000    0.000    0.000    0.000    0.000 
#
# Total GULP energy -269086.686808 kJ/mol
# GULP energy per Si atom -5605.972642 kJ/mol
# Density = 2.461064 g / cm^3
# Si number density = 24.666783 Si / 1000 Ang^3
#
#
#
# Elastic Constant Matrix: (Units=GPa)
#
#
# Indices 1 2 3 4 5 6 
#
# 1 105.2288 16.3698 -2.9636 0.0000 0.0000 0.0000
# 2 16.3698 99.9745 2.1493 0.0000 0.0000 0.0000
# 3 -2.9636 2.1493 87.2705 0.0000 0.0000 0.0000
# 4 0.0000 0.0000 0.0000 30.5165 0.0000 0.0000
# 5 0.0000 0.0000 0.0000 0.0000 29.8339 0.0000
# 6 0.0000 0.0000 0.0000 0.0000 0.0000 42.1637
#
#
#
# Elastic Compliance Matrix: (Units=1/GPa)
#
#
# Indices 1 2 3 4 5 6 
#
# 1 0.009763 -0.001607 0.000371 0.000000 0.000000 0.000000
# 2 -0.001607 0.010272 -0.000308 0.000000 0.000000 0.000000
# 3 0.000371 -0.000308 0.011479 0.000000 0.000000 0.000000
# 4 0.000000 0.000000 0.000000 0.032769 0.000000 0.000000
# 5 0.000000 0.000000 0.000000 0.000000 0.033519 0.000000
# 6 0.000000 0.000000 0.000000 0.000000 0.000000 0.023717
#
#
# Mechanical properties :
#
#
# Convention : Reuss Voigt Hill
#
# Bulk Modulus (GPa) = 35.17610 35.95386 35.56498
# Shear Modulus (GPa) = 37.29063 38.96405 38.12734
#
# Velocity S-wave (km/s) = 3.89237 3.97875 3.93580
# Velocity P-wave (km/s) = 5.87301 5.97618 5.92482
#
# Compressibility (1/GPa) = 0.02842840
#
# Stress axis : x y z
#
# Youngs Moduli (GPa) = 102.42236 97.34984 87.11710
#
# Poissons Ratio (x) = 0.15641 -0.03233
# Poissons Ratio (y) = 0.16456 0.02679
# Poissons Ratio (z) = -0.03801 0.02994
#
# Static dielectric constant tensor:
#      x y z
#    x 1.969350 0.000000 0.000000 
#    y 0.000000 2.007000 0.000000 
#    z 0.000000 0.000000 1.933130 
# 
# From -- ./inp_files/10636.got.cif
#   From: 2010.05.17/outbox.cif.g08.bks.cpg/sg56_6_cif.got.tgz:10636.got - 2010.06.03 13:42:01.
