data_PCOD9433169
_publ_section_title
;
Structure prediction by ZEFSAII (Michael W. Deem and Ramdas Pophale) SiO2 
 PCOD9433169
Probable space group: P C C N
;
_chemical_formula_sum "Si O2"
_cell_formula_units_Z 24
_cell_length_a 7.146292
_cell_length_b 11.041711
_cell_length_c 10.208863
_cell_angle_alpha 90.000000
_cell_angle_beta 90.000000
_cell_angle_gamma 90.000000
_cell_volume 805.553723
_symmetry_space_group_name_H-M "P C C N"
_symmetry_group_IT_number 56
_symmetry_cell_setting 'orthorhombic'
loop_
_space_group_symop_operation_xyz
x,y,z
1/2-x,1/2-y,z
1/2+x,-y,1/2-z
-x,1/2+y,1/2-z
-x,-y,-z
1/2+x,1/2+y,-z
1/2-x,y,1/2+z
x,1/2-y,1/2+z
loop_
_atom_site_type_symbol
_atom_site_label
_atom_site_fract_x
_atom_site_fract_y
_atom_site_fract_z
Si Si1 0.766983 0.451890 0.231744
Si Si2 0.022233 0.259433 0.302766
Si Si3 0.663956 0.619210 0.982855
O O1 0.941167 0.362098 0.207606
O O2 0.599188 0.360279 0.275994
O O3 0.816347 0.538880 0.353841
O O4 0.250000 0.250000 0.307004
O O5 0.980652 0.321813 0.445375
O O6 0.267888 0.028537 0.400450
O O7 0.750000 0.750000 0.947180
#
# Coordination Sequence:
#
# PCOD9433169 Si02
#       3
#     8   8   8
#     4  11  26  55  76 116 162 198 262 320 378 461
#     4  10  26  49  80 117 151 215 251 321 385 456
#     4  11  26  50  82 113 157 209 253 318 389 454
#
# _framework density 29.793168000000001
#
# number of rings (size 3 to 8) (size 9 to 14) (size 15 to 20)
#    0.000    1.333    0.000    2.000    9.333   10.667 
#   24.000    0.000    0.000    4.000    0.000    0.000 
#    0.000    0.000    0.000    0.000    0.000    0.000 
#
# Total GULP energy -133780.977713 kJ/mol
# GULP energy per Si atom -5574.207405 kJ/mol
# Density = 2.972536 g / cm^3
# Si number density = 29.793168 Si / 1000 Ang^3
#
#
#
# Elastic Constant Matrix: (Units=GPa)
#
#
# Indices 1 2 3 4 5 6 
#
# 1 208.2165 112.9026 48.8143 0.0000 0.0000 0.0000
# 2 112.9026 324.7777 131.7276 0.0000 0.0000 0.0000
# 3 48.8143 131.7276 246.7131 0.0000 0.0000 0.0000
# 4 0.0000 0.0000 0.0000 26.5242 0.0000 0.0000
# 5 0.0000 0.0000 0.0000 0.0000 18.4375 0.0000
# 6 0.0000 0.0000 0.0000 0.0000 0.0000 68.3297
#
#
#
# Elastic Compliance Matrix: (Units=1/GPa)
#
#
# Indices 1 2 3 4 5 6 
#
# 1 0.005920 -0.002020 -0.000093 0.000000 0.000000 0.000000
# 2 -0.002020 0.004620 -0.002067 0.000000 0.000000 0.000000
# 3 -0.000093 -0.002067 0.005175 0.000000 0.000000 0.000000
# 4 0.000000 0.000000 0.000000 0.037701 0.000000 0.000000
# 5 0.000000 0.000000 0.000000 0.000000 0.054237 0.000000
# 6 0.000000 0.000000 0.000000 0.000000 0.000000 0.014635
#
#
# Mechanical properties :
#
#
# Convention : Reuss Voigt Hill
#
# Bulk Modulus (GPa) = 135.95874 151.84402 143.90138
# Shear Modulus (GPa) = 37.56586 55.07581 46.32083
#
# Velocity S-wave (km/s) = 3.55475 4.30421 3.94731
# Velocity P-wave (km/s) = 7.91085 8.70507 8.31745
#
# Compressibility (1/GPa) = 0.00735517
#
# Stress axis : x y z
#
# Youngs Moduli (GPa) = 168.92083 216.46535 193.23129
#
# Poissons Ratio (x) = 0.43735 0.01788
# Poissons Ratio (y) = 0.34129 0.39938
# Poissons Ratio (z) = 0.01563 0.44740
#
# Static dielectric constant tensor:
#      x y z
#    x 2.674130 0.000000 0.000000 
#    y 0.000000 2.433250 0.000000 
#    z 0.000000 0.000000 2.757850 
# 
# From -- ./inp_files/13589.got.cif
#   From: 2010.05.17/outbox.cif.g08.bks.cpg/sg56_7_cif.got.tgz:13589.got - 2010.06.03 13:42:01.
