data_PCOD9433030
_publ_section_title
;
Structure prediction by ZEFSAII (Michael W. Deem and Ramdas Pophale) SiO2 
 PCOD9433030
Probable space group: P C C N
;
_chemical_formula_sum "Si O2"
_cell_formula_units_Z 36
_cell_length_a 13.788013
_cell_length_b 14.286909
_cell_length_c 7.427604
_cell_angle_alpha 90.000000
_cell_angle_beta 90.000000
_cell_angle_gamma 90.000000
_cell_volume 1463.149503
_symmetry_space_group_name_H-M "P C C N"
_symmetry_group_IT_number 56
_symmetry_cell_setting 'orthorhombic'
loop_
_space_group_symop_operation_xyz
x,y,z
1/2-x,1/2-y,z
1/2+x,-y,1/2-z
-x,1/2+y,1/2-z
-x,-y,-z
1/2+x,1/2+y,-z
1/2-x,y,1/2+z
x,1/2-y,1/2+z
loop_
_atom_site_type_symbol
_atom_site_label
_atom_site_fract_x
_atom_site_fract_y
_atom_site_fract_z
Si Si1 0.951851 0.871982 0.813641
Si Si2 0.345200 0.620808 0.629097
Si Si3 0.615468 0.664849 0.189293
Si Si4 0.688229 0.928558 0.044838
Si Si5 0.250000 0.750000 0.896304
O O1 0.912816 0.771161 0.739077
O O2 0.871562 0.940062 0.729053
O O3 0.051709 0.897419 0.717478
O O4 0.955485 0.870175 0.030048
O O5 0.298564 0.530898 0.537662
O O6 0.277014 0.660633 0.782688
O O7 0.344157 0.713103 0.502446
O O8 0.624264 0.618708 0.385957
O O9 0.719321 0.636598 0.095190
#
# Coordination Sequence:
#
# PCOD9433030 Si02
#       5
#     8   8   8   8   4
#     4  12  25  43  69 105 143 183 235 290 352 424
#     4  11  25  49  68 102 133 189 239 294 350 424
#     4  12  25  41  72 106 144 187 233 286 364 416
#     4  12  25  43  69 105 143 183 235 290 352 424
#     4  10  24  46  76  86 138 186 236 284 364 422
#
# _framework density 24.604457
#
# number of rings (size 3 to 8) (size 9 to 14) (size 15 to 20)
#    0.000    0.444    4.444    4.000    0.000    0.889 
#    0.000    0.000    0.000    0.000    0.000    0.000 
#    0.000    0.000    0.000    0.000    0.000    0.000 
#
# Total GULP energy -200959.403172 kJ/mol
# GULP energy per Si atom -5582.205644 kJ/mol
# Density = 2.454846 g / cm^3
# Si number density = 24.604457 Si / 1000 Ang^3
#
#
#
# Elastic Constant Matrix: (Units=GPa)
#
#
# Indices 1 2 3 4 5 6 
#
# 1 48.1140 7.4613 -17.9143 0.0000 0.0000 0.0000
# 2 7.4613 77.4530 14.5820 0.0000 0.0000 0.0000
# 3 -17.9143 14.5820 95.4812 0.0000 0.0000 0.0000
# 4 0.0000 0.0000 0.0000 17.5468 0.0000 0.0000
# 5 0.0000 0.0000 0.0000 0.0000 -25.9328 0.0000
# 6 0.0000 0.0000 0.0000 0.0000 0.0000 21.6337
#
#
#
# Elastic Compliance Matrix: (Units=1/GPa)
#
#
# Indices 1 2 3 4 5 6 
#
# 1 0.023057 -0.003125 0.004803 0.000000 0.000000 0.000000
# 2 -0.003125 0.013717 -0.002681 0.000000 0.000000 0.000000
# 3 0.004803 -0.002681 0.011784 0.000000 0.000000 0.000000
# 4 0.000000 0.000000 0.000000 0.056991 0.000000 0.000000
# 5 0.000000 0.000000 0.000000 0.000000 -0.038561 0.000000
# 6 0.000000 0.000000 0.000000 0.000000 0.000000 0.046224
#
#
# Mechanical properties :
#
#
# Convention : Reuss Voigt Hill
#
# Bulk Modulus (GPa) = 21.48176 25.47846 23.48011
# Shear Modulus (GPa) = 38.24520 17.11082 27.67801
#
# Velocity S-wave (km/s) = 3.94687 2.63997 3.35762
# Velocity P-wave (km/s) = 5.43324 4.43512 4.95936
#
# Compressibility (1/GPa) = 0.04655113
#
# Stress axis : x y z
#
# Youngs Moduli (GPa) = 43.37065 72.90253 84.86120
#
# Poissons Ratio (x) = 0.22785 -0.40762
# Poissons Ratio (y) = 0.13555 0.22754
# Poissons Ratio (z) = -0.20832 0.19547
#
# Static dielectric constant tensor:
#      x y z
#    x 2.004780 0.000000 0.000000 
#    y 0.000000 2.056090 0.000000 
#    z 0.000000 0.000000 2.035700 
# 
# From -- ./inp_files/3154.got.cif
#   From: 2010.05.17/outbox.cif.g08.bks.cpg/sg56_2_cif.got.tgz:3154.got - 2010.06.03 13:42:01.
