data_PCOD9433959
_publ_section_title
;
Structure prediction by ZEFSAII (Michael W. Deem and Ramdas Pophale) SiO2 
 PCOD9433959
Probable space group: P C C N
;
_chemical_formula_sum "Si O2"
_cell_formula_units_Z 60
_cell_length_a 27.000000
_cell_length_b 9.000000
_cell_length_c 12.000000
_cell_angle_alpha 90.000000
_cell_angle_beta 90.000000
_cell_angle_gamma 90.000000
_cell_volume 2916.000000
_symmetry_space_group_name_H-M "P C C N"
_symmetry_group_IT_number 56
_symmetry_cell_setting 'orthorhombic'
loop_
_space_group_symop_operation_xyz
x,y,z
1/2-x,1/2-y,z
1/2+x,-y,1/2-z
-x,1/2+y,1/2-z
-x,-y,-z
1/2+x,1/2+y,-z
1/2-x,y,1/2+z
x,1/2-y,1/2+z
loop_
_atom_site_type_symbol
_atom_site_label
_atom_site_fract_x
_atom_site_fract_y
_atom_site_fract_z
Si Si1 0.896302 0.686085 0.163223
Si Si2 0.554371 0.247863 0.152254
Si Si3 0.750000 0.750000 0.220955
Si Si4 0.096233 0.554685 0.038362
Si Si5 0.179215 0.451689 0.398151
Si Si6 0.827178 0.966879 0.836630
Si Si7 0.844176 0.292868 0.778911
Si Si8 0.466700 0.065321 0.250428
O O1 0.875890 0.595515 0.271051
O O2 0.944705 0.784831 0.191719
O O3 0.897063 0.572350 0.057627
O O4 0.858929 0.821778 0.137046
O O5 0.602710 0.246716 0.229207
O O6 0.518329 0.122228 0.201521
O O7 0.534011 0.418295 0.169421
O O8 0.569764 0.191679 0.028095
O O9 0.712789 0.842402 0.300110
O O10 0.730216 0.624304 0.136856
O O11 0.144464 0.620600 0.104085
O O12 0.065002 0.483188 0.140568
O O13 0.170614 0.478109 0.529092
O O14 0.174445 0.593600 0.316394
O O15 0.816269 0.136182 0.795961
#
# Coordination Sequence:
#
# PCOD9433959 Si02
#       8
#     8   8   4   8   8   8   8   8
#     4  11  22  41  68  98 131 180 221 276 329 395
#     4  11  22  41  61  93 137 179 230 275 328 380
#     4  10  26  46  72 106 130 162 216 268 340 414
#     4  11  22  42  63  97 137 178 227 277 333 382
#     4  11  23  46  68 102 132 166 221 265 336 402
#     4  11  24  44  73  98 134 172 213 273 336 398
#     4  11  24  43  68 101 133 178 222 273 326 405
#     4  11  24  41  61  96 136 182 232 283 324 390
#
# _framework density 20.576132000000001
#
# number of rings (size 3 to 8) (size 9 to 14) (size 15 to 20)
#    0.000    1.067    4.000    3.200    1.867    1.600 
#    0.000    4.667    0.000    0.000    0.000    0.000 
#    0.000    0.000    0.000    0.000    0.000    0.000 
#
# Total GULP energy -334680.531899 kJ/mol
# GULP energy per Si atom -5578.008865 kJ/mol
# Density = 2.052930 g / cm^3
# Si number density = 20.576132 Si / 1000 Ang^3
#
#
#
# Elastic Constant Matrix: (Units=GPa)
#
#
# Indices 1 2 3 4 5 6 
#
# 1 19.1971 20.6156 5.2682 0.0000 0.0000 0.0000
# 2 20.6156 165.8243 57.2217 0.0000 0.0000 0.0000
# 3 5.2682 57.2217 124.8471 0.0000 0.0000 0.0000
# 4 0.0000 0.0000 0.0000 54.6761 0.0000 0.0000
# 5 0.0000 0.0000 0.0000 0.0000 16.9493 0.0000
# 6 0.0000 0.0000 0.0000 0.0000 0.0000 37.7309
#
#
#
# Elastic Compliance Matrix: (Units=1/GPa)
#
#
# Indices 1 2 3 4 5 6 
#
# 1 0.060235 -0.007854 0.001058 0.000000 0.000000 0.000000
# 2 -0.007854 0.008187 -0.003421 0.000000 0.000000 0.000000
# 3 0.001058 -0.003421 0.009533 0.000000 0.000000 0.000000
# 4 0.000000 0.000000 0.000000 0.018290 0.000000 0.000000
# 5 0.000000 0.000000 0.000000 0.000000 0.059000 0.000000
# 6 0.000000 0.000000 0.000000 0.000000 0.000000 0.026503
#
#
# Mechanical properties :
#
#
# Convention : Reuss Voigt Hill
#
# Bulk Modulus (GPa) = 17.38476 52.89772 35.14124
# Shear Modulus (GPa) = 22.58807 36.98878 29.78842
#
# Velocity S-wave (km/s) = 3.31687 4.24448 3.80902
# Velocity P-wave (km/s) = 4.81001 7.05584 6.03825
#
# Compressibility (1/GPa) = 0.05752166
#
# Stress axis : x y z
#
# Youngs Moduli (GPa) = 16.60168 122.13885 104.89656
#
# Poissons Ratio (x) = 0.95922 -0.11096
# Poissons Ratio (y) = 0.13038 0.35887
# Poissons Ratio (z) = -0.01756 0.41786
#
# Static dielectric constant tensor:
#      x y z
#    x 1.873010 0.000000 0.000000 
#    y 0.000000 1.756830 0.000000 
#    z 0.000000 0.000000 1.715330 
# 
# From -- ./inp_files/9087.got.cif
#   From: 2010.05.17/outbox.ucp.g08.bks.cvg/sg56_5_cif.got.tgz:9087.got - 2010.06.11 16:37:52.
