data_PCOD9433213
_publ_section_title
;
Structure prediction by ZEFSAII (Michael W. Deem and Ramdas Pophale) SiO2 
 PCOD9433213
Probable space group: P C C N
;
_chemical_formula_sum "Si O2"
_cell_formula_units_Z 48
_cell_length_a 12.821592
_cell_length_b 4.965702
_cell_length_c 30.577946
_cell_angle_alpha 90.000000
_cell_angle_beta 90.000000
_cell_angle_gamma 90.000000
_cell_volume 1946.842936
_symmetry_space_group_name_H-M "P C C N"
_symmetry_group_IT_number 56
_symmetry_cell_setting 'orthorhombic'
loop_
_space_group_symop_operation_xyz
x,y,z
1/2-x,1/2-y,z
1/2+x,-y,1/2-z
-x,1/2+y,1/2-z
-x,-y,-z
1/2+x,1/2+y,-z
1/2-x,y,1/2+z
x,1/2-y,1/2+z
loop_
_atom_site_type_symbol
_atom_site_label
_atom_site_fract_x
_atom_site_fract_y
_atom_site_fract_z
Si Si1 0.750000 0.750000 0.929619
Si Si2 0.834938 0.061510 0.350283
Si Si3 0.444526 0.069536 0.425994
Si Si4 0.067848 0.956522 0.267428
Si Si5 0.137482 0.887988 0.016797
Si Si6 0.250000 0.250000 0.221101
Si Si7 0.944488 0.029747 0.630614
O O1 0.781302 0.525409 0.895067
O O2 0.655365 0.678679 0.960706
O O3 0.750000 0.250000 0.328803
O O4 0.840076 0.831209 0.314142
O O5 0.949073 0.145481 0.362323
O O6 0.540621 0.208088 0.453686
O O7 0.386411 0.314271 0.400557
O O8 0.384534 0.928344 0.466238
O O9 0.465439 0.815061 0.393378
O O10 0.182168 0.047493 0.250283
O O11 0.983931 0.195981 0.256076
O O12 0.086311 0.916160 0.319422
O O13 0.250000 0.750000 0.022195
#
# Coordination Sequence:
#
# PCOD9433213 Si02
#       7
#     4   8   8   8   8   4   8
#     4  11  20  36  67 104 134 172 233 290 352 401
#     4  11  22  39  70 104 140 173 234 302 361 411
#     4  11  27  46  69 102 141 188 231 292 348 426
#     4  12  26  47  75 106 145 190 238 301 369 435
#     4  11  25  43  70  99 142 184 239 286 356 421
#     4  11  26  44  69 108 138 190 237 298 368 437
#     4  12  24  47  69 102 146 182 237 290 358 425
#
# _framework density 24.655301999999999
#
# number of rings (size 3 to 8) (size 9 to 14) (size 15 to 20)
#    0.000    0.667    3.333    4.500    4.667    1.333 
#    3.000    0.000    0.000    0.000    0.000    0.000 
#    0.000    0.000    0.000    0.000    0.000    0.000 
#
# Total GULP energy -267533.773089 kJ/mol
# GULP energy per Si atom -5573.620273 kJ/mol
# Density = 2.459919 g / cm^3
# Si number density = 24.655302 Si / 1000 Ang^3
#
#
#
# Elastic Constant Matrix: (Units=GPa)
#
#
# Indices 1 2 3 4 5 6 
#
# 1 57.9885 11.6094 35.1388 0.0000 0.0000 0.0000
# 2 11.6094 111.8851 54.3967 0.0000 0.0000 0.0000
# 3 35.1388 54.3967 218.5879 0.0000 0.0000 0.0000
# 4 0.0000 0.0000 0.0000 -44.1692 0.0000 0.0000
# 5 0.0000 0.0000 0.0000 0.0000 43.8596 0.0000
# 6 0.0000 0.0000 0.0000 0.0000 0.0000 26.7766
#
#
#
# Elastic Compliance Matrix: (Units=1/GPa)
#
#
# Indices 1 2 3 4 5 6 
#
# 1 0.019136 -0.000557 -0.002938 0.000000 0.000000 0.000000
# 2 -0.000557 0.010184 -0.002445 0.000000 0.000000 0.000000
# 3 -0.002938 -0.002445 0.005655 0.000000 0.000000 0.000000
# 4 0.000000 0.000000 0.000000 -0.022640 0.000000 0.000000
# 5 0.000000 0.000000 0.000000 0.000000 0.022800 0.000000
# 6 0.000000 0.000000 0.000000 0.000000 0.000000 0.037346
#
#
# Mechanical properties :
#
#
# Convention : Reuss Voigt Hill
#
# Bulk Modulus (GPa) = 43.29651 65.63903 54.46777
# Shear Modulus (GPa) = 54.31222 24.44783 39.38002
#
# Velocity S-wave (km/s) = 4.69856 3.15236 4.00086
# Velocity P-wave (km/s) = 6.85814 6.31904 6.59410
#
# Compressibility (1/GPa) = 0.02309655
#
# Stress axis : x y z
#
# Youngs Moduli (GPa) = 52.25636 98.19134 176.82111
#
# Poissons Ratio (x) = 0.05474 0.51942
# Poissons Ratio (y) = 0.02913 0.43229
# Poissons Ratio (z) = 0.15350 0.24006
#
# Static dielectric constant tensor:
#      x y z
#    x 2.093990 0.000000 0.000000 
#    y 0.000000 2.208240 0.000000 
#    z 0.000000 0.000000 1.917690 
# 
# From -- ./inp_files/22443.got.cif
#   From: 2010.05.17/outbox.cif.g08.bks.cpg/sg56_12_cif.got.tgz:22443.got - 2010.06.03 13:42:01.
