data_PCOD9433328
_publ_section_title
;
Structure prediction by ZEFSAII (Michael W. Deem and Ramdas Pophale) SiO2 
 PCOD9433328
Probable space group: P C C N
;
_chemical_formula_sum "Si O2"
_cell_formula_units_Z 32
_cell_length_a 6.278546
_cell_length_b 23.040306
_cell_length_c 8.730852
_cell_angle_alpha 90.000000
_cell_angle_beta 90.000000
_cell_angle_gamma 90.000000
_cell_volume 1263.001742
_symmetry_space_group_name_H-M "P C C N"
_symmetry_group_IT_number 56
_symmetry_cell_setting 'orthorhombic'
loop_
_space_group_symop_operation_xyz
x,y,z
1/2-x,1/2-y,z
1/2+x,-y,1/2-z
-x,1/2+y,1/2-z
-x,-y,-z
1/2+x,1/2+y,-z
1/2-x,y,1/2+z
x,1/2-y,1/2+z
loop_
_atom_site_type_symbol
_atom_site_label
_atom_site_fract_x
_atom_site_fract_y
_atom_site_fract_z
Si Si1 0.998411 0.316044 0.496672
Si Si2 0.305606 0.970900 0.088417
Si Si3 0.961892 0.924072 0.849076
Si Si4 0.911416 0.205290 0.668937
O O1 0.133231 0.364347 0.587026
O O2 0.031129 0.250445 0.557766
O O3 0.755969 0.328528 0.561472
O O4 0.023283 0.322869 0.314771
O O5 0.396929 0.921005 0.197361
O O6 0.119343 0.947170 0.981659
O O7 0.207556 0.025211 0.181988
O O8 0.500000 0.000000 0.000000
O O9 0.750000 0.250000 0.757693
#
# Coordination Sequence:
#
# PCOD9433328 Si02
#       4
#     8   8   8   8
#     4   9  15  27  50  82 113 150 195 232 299 352
#     4  11  23  40  58  85 126 154 205 255 295 360
#     4  11  22  37  61  88 121 164 201 249 302 363
#     4   8  13  26  45  78 115 143 194 238 276 366
#
# _framework density 25.336465
#
# number of rings (size 3 to 8) (size 9 to 14) (size 15 to 20)
#    1.500    0.500    5.000    1.500    0.000    0.000 
#    0.000    0.000    0.000    0.000    0.000   29.750 
#    0.000    0.000    0.000    0.000    0.000    0.000 
#
# Total GULP energy -178393.352863 kJ/mol
# GULP energy per Si atom -5574.792277 kJ/mol
# Density = 2.527880 g / cm^3
# Si number density = 25.336465 Si / 1000 Ang^3
#
#
#
# Elastic Constant Matrix: (Units=GPa)
#
#
# Indices 1 2 3 4 5 6 
#
# 1 49.8429 2.2775 31.5215 0.0000 0.0000 0.0000
# 2 2.2775 82.5895 22.0949 0.0000 0.0000 0.0000
# 3 31.5215 22.0949 136.8439 0.0000 0.0000 0.0000
# 4 0.0000 0.0000 0.0000 41.6368 0.0000 0.0000
# 5 0.0000 0.0000 0.0000 0.0000 29.6247 0.0000
# 6 0.0000 0.0000 0.0000 0.0000 0.0000 3.1113
#
#
#
# Elastic Compliance Matrix: (Units=1/GPa)
#
#
# Indices 1 2 3 4 5 6 
#
# 1 0.023539 0.000838 -0.005557 0.000000 0.000000 0.000000
# 2 0.000838 0.012685 -0.002241 0.000000 0.000000 0.000000
# 3 -0.005557 -0.002241 0.008950 0.000000 0.000000 0.000000
# 4 0.000000 0.000000 0.000000 0.024017 0.000000 0.000000
# 5 0.000000 0.000000 0.000000 0.000000 0.033756 0.000000
# 6 0.000000 0.000000 0.000000 0.000000 0.000000 0.321414
#
#
# Mechanical properties :
#
#
# Convention : Reuss Voigt Hill
#
# Bulk Modulus (GPa) = 31.99813 42.34046 37.16930
# Shear Modulus (GPa) = 11.14333 29.10004 20.12168
#
# Velocity S-wave (km/s) = 2.09945 3.39269 2.82117
# Velocity P-wave (km/s) = 4.30507 5.66522 5.03132
#
# Compressibility (1/GPa) = 0.03125183
#
# Stress axis : x y z
#
# Youngs Moduli (GPa) = 42.48200 78.83631 111.73720
#
# Poissons Ratio (x) = -0.06604 0.62097
# Poissons Ratio (y) = -0.03558 0.25040
# Poissons Ratio (z) = 0.23609 0.17667
#
# Static dielectric constant tensor:
#      x y z
#    x 2.050540 0.000000 0.000000 
#    y 0.000000 2.053010 0.000000 
#    z 0.000000 0.000000 1.948250 
# 
# From -- ./inp_files/1561.got.cif
#   From: 2010.05.17/outbox.cif.g08.bks.cpg/sg56_1_cif.got.tgz:1561.got - 2010.06.03 13:42:01.
