data_PCOD9433492
_publ_section_title
;
Structure prediction by ZEFSAII (Michael W. Deem and Ramdas Pophale) SiO2 
 PCOD9433492
Probable space group: P C C N
;
_chemical_formula_sum "Si O2"
_cell_formula_units_Z 48
_cell_length_a 9.586908
_cell_length_b 20.688872
_cell_length_c 9.757413
_cell_angle_alpha 90.000000
_cell_angle_beta 90.000000
_cell_angle_gamma 90.000000
_cell_volume 1935.307858
_symmetry_space_group_name_H-M "P C C N"
_symmetry_group_IT_number 56
_symmetry_cell_setting 'orthorhombic'
loop_
_space_group_symop_operation_xyz
x,y,z
1/2-x,1/2-y,z
1/2+x,-y,1/2-z
-x,1/2+y,1/2-z
-x,-y,-z
1/2+x,1/2+y,-z
1/2-x,y,1/2+z
x,1/2-y,1/2+z
loop_
_atom_site_type_symbol
_atom_site_label
_atom_site_fract_x
_atom_site_fract_y
_atom_site_fract_z
Si Si1 0.076293 0.116997 0.243027
Si Si2 0.681537 0.575569 0.455730
Si Si3 0.087462 0.249575 0.379688
Si Si4 0.197516 0.567361 0.142492
Si Si5 0.650074 0.306304 0.535631
Si Si6 0.544670 0.127350 0.260346
O O1 0.174308 0.099956 0.114449
O O2 0.153123 0.094998 0.386376
O O3 0.058994 0.194809 0.261861
O O4 0.926102 0.080498 0.246397
O O5 0.673646 0.498570 0.438053
O O6 0.560533 0.602497 0.355475
O O7 0.250000 0.250000 0.404718
O O8 0.002852 0.220006 0.504828
O O9 0.037981 0.177337 0.854406
O O10 0.181007 0.628780 0.044687
O O11 0.359173 0.569453 0.187830
O O12 0.750000 0.250000 0.492377
O O13 0.659967 0.325032 0.692742
#
# Coordination Sequence:
#
# PCOD9433492 Si02
#       6
#     8   8   8   8   8   8
#     4  11  26  47  71 105 142 196 241 305 360 440
#     4  12  25  49  72 103 149 194 248 294 374 431
#     4  11  23  44  68 101 140 181 241 289 364 426
#     4  11  25  45  72 100 142 188 243 301 365 433
#     4  11  25  43  68 100 140 181 242 302 365 422
#     4  12  25  44  73 105 141 195 238 304 363 440
#
# _framework density 24.802254999999999
#
# number of rings (size 3 to 8) (size 9 to 14) (size 15 to 20)
#    0.000    0.667    6.667    1.500    7.000    2.000 
#    3.000    1.667    0.000    0.000    0.000    0.000 
#    0.000    0.000    0.000    0.000    0.000    0.000 
#
# Total GULP energy -268592.391627 kJ/mol
# GULP energy per Si atom -5595.674826 kJ/mol
# Density = 2.474580 g / cm^3
# Si number density = 24.802255 Si / 1000 Ang^3
#
#
#
# Elastic Constant Matrix: (Units=GPa)
#
#
# Indices 1 2 3 4 5 6 
#
# 1 90.4641 21.3329 19.7951 0.0000 0.0000 0.0000
# 2 21.3329 140.6164 33.4790 0.0000 0.0000 0.0000
# 3 19.7951 33.4790 64.2611 0.0000 0.0000 0.0000
# 4 0.0000 0.0000 0.0000 8.4441 0.0000 0.0000
# 5 0.0000 0.0000 0.0000 0.0000 24.5180 0.0000
# 6 0.0000 0.0000 0.0000 0.0000 0.0000 38.5813
#
#
#
# Elastic Compliance Matrix: (Units=1/GPa)
#
#
# Indices 1 2 3 4 5 6 
#
# 1 0.011993 -0.001073 -0.003135 0.000000 0.000000 0.000000
# 2 -0.001073 0.008215 -0.003949 0.000000 0.000000 0.000000
# 3 -0.003135 -0.003949 0.018585 0.000000 0.000000 0.000000
# 4 0.000000 0.000000 0.000000 0.118426 0.000000 0.000000
# 5 0.000000 0.000000 0.000000 0.000000 0.040786 0.000000
# 6 0.000000 0.000000 0.000000 0.000000 0.000000 0.025919
#
#
# Mechanical properties :
#
#
# Convention : Reuss Voigt Hill
#
# Bulk Modulus (GPa) = 44.48892 49.39509 46.94200
# Shear Modulus (GPa) = 20.18313 29.02432 24.60372
#
# Velocity S-wave (km/s) = 2.85575 3.42457 3.15301
# Velocity P-wave (km/s) = 5.37123 5.96622 5.67652
#
# Compressibility (1/GPa) = 0.02247751
#
# Stress axis : x y z
#
# Youngs Moduli (GPa) = 83.38043 121.73496 53.80749
#
# Poissons Ratio (x) = 0.13062 0.16871
# Poissons Ratio (y) = 0.08947 0.21249
# Poissons Ratio (z) = 0.26143 0.48075
#
# Static dielectric constant tensor:
#      x y z
#    x 2.041020 0.000000 0.000000 
#    y 0.000000 1.948970 0.000000 
#    z 0.000000 0.000000 1.978640 
# 
# From -- ./inp_files/6409.got.cif
#   From: 2010.05.17/outbox.cif.g08.bks.cpg/sg56_4_cif.got.tgz:6409.got - 2010.06.03 13:42:01.
