data_PCOD9433651
_publ_section_title
;
Structure prediction by ZEFSAII (Michael W. Deem and Ramdas Pophale) SiO2 
 PCOD9433651
Probable space group: P C C N
;
_chemical_formula_sum "Si O2"
_cell_formula_units_Z 60
_cell_length_a 6.186163
_cell_length_b 17.193401
_cell_length_c 26.393887
_cell_angle_alpha 90.000000
_cell_angle_beta 90.000000
_cell_angle_gamma 90.000000
_cell_volume 2807.284995
_symmetry_space_group_name_H-M "P C C N"
_symmetry_group_IT_number 56
_symmetry_cell_setting 'orthorhombic'
loop_
_space_group_symop_operation_xyz
x,y,z
1/2-x,1/2-y,z
1/2+x,-y,1/2-z
-x,1/2+y,1/2-z
-x,-y,-z
1/2+x,1/2+y,-z
1/2-x,y,1/2+z
x,1/2-y,1/2+z
loop_
_atom_site_type_symbol
_atom_site_label
_atom_site_fract_x
_atom_site_fract_y
_atom_site_fract_z
Si Si1 0.201465 0.585708 0.806233
Si Si2 0.529161 0.576225 0.712876
Si Si3 0.452084 0.873281 0.027721
Si Si4 0.190179 0.331433 0.217275
Si Si5 0.798795 0.972585 0.966701
Si Si6 0.250000 0.750000 0.950157
Si Si7 0.501102 0.712278 0.631778
Si Si8 0.970110 0.642440 0.383148
O O1 0.352803 0.576476 0.757369
O O2 0.327417 0.599382 0.857608
O O3 0.057505 0.508744 0.810225
O O4 0.057701 0.660896 0.795875
O O5 0.744686 0.602199 0.743181
O O6 0.488207 0.640513 0.670703
O O7 0.511549 0.818169 0.074164
O O8 0.313294 0.946256 0.047971
O O9 0.650401 0.917040 0.001123
O O10 0.330318 0.820825 0.985662
O O11 0.250000 0.250000 0.241501
O O12 0.322339 0.337052 0.164977
O O13 0.858965 0.919726 0.919292
O O14 0.000000 0.000000 0.000000
O O15 0.441718 0.715682 0.915013
O O16 0.250000 0.750000 0.636287
O O17 0.750000 0.750000 0.639817
#
# Coordination Sequence:
#
# PCOD9433651 Si02
#       8
#     8   8   8   8   8   4   8   8
#     4  11  25  47  71 111 140 196 248 308 386 459
#     4  11  26  45  76 103 151 192 251 310 381 461
#     4  11  28  47  74 105 151 197 261 313 387 465
#     4  11  25  45  71 105 141 187 237 309 379 453
#     4  11  26  47  71 104 145 203 248 315 380 456
#     4  12  24  50  70 110 148 194 246 326 382 452
#     4  12  31  50  78 116 153 209 256 324 387 471
#     4  11  27  41  76 105 145 188 250 311 382 458
#
# _framework density 21.372962999999999
#
# number of rings (size 3 to 8) (size 9 to 14) (size 15 to 20)
#    0.000    0.800    3.333    1.200   14.933    1.067 
#    0.000    0.000    0.000    0.000    0.000    0.000 
#    0.000    0.000    0.000    0.000    0.000    0.000 
#
# Total GULP energy -334997.549656 kJ/mol
# GULP energy per Si atom -5583.292494 kJ/mol
# Density = 2.132432 g / cm^3
# Si number density = 21.372963 Si / 1000 Ang^3
#
#
#
# Elastic Constant Matrix: (Units=GPa)
#
#
# Indices 1 2 3 4 5 6 
#
# 1 71.0327 27.3153 0.6986 0.0000 0.0000 0.0000
# 2 27.3153 78.9523 16.5440 0.0000 0.0000 0.0000
# 3 0.6986 16.5440 71.1627 0.0000 0.0000 0.0000
# 4 0.0000 0.0000 0.0000 -6.8818 0.0000 0.0000
# 5 0.0000 0.0000 0.0000 0.0000 1.2961 0.0000
# 6 0.0000 0.0000 0.0000 0.0000 0.0000 25.8214
#
#
#
# Elastic Compliance Matrix: (Units=1/GPa)
#
#
# Indices 1 2 3 4 5 6 
#
# 1 0.016337 -0.005906 0.001213 0.000000 0.000000 0.000000
# 2 -0.005906 0.015450 -0.003534 0.000000 0.000000 0.000000
# 3 0.001213 -0.003534 0.014862 0.000000 0.000000 0.000000
# 4 0.000000 0.000000 0.000000 -0.145312 0.000000 0.000000
# 5 0.000000 0.000000 0.000000 0.000000 0.771547 0.000000
# 6 0.000000 0.000000 0.000000 0.000000 0.000000 0.038728
#
#
# Mechanical properties :
#
#
# Convention : Reuss Voigt Hill
#
# Bulk Modulus (GPa) = 33.11895 34.47373 33.79634
# Shear Modulus (GPa) = 6.77386 15.81981 11.29683
#
# Velocity S-wave (km/s) = 1.78220 2.72357 2.30153
# Velocity P-wave (km/s) = 4.44571 5.10442 4.78641
#
# Compressibility (1/GPa) = 0.03019419
#
# Stress axis : x y z
#
# Youngs Moduli (GPa) = 61.20939 64.72577 67.28596
#
# Poissons Ratio (x) = 0.38230 -0.08160
# Poissons Ratio (y) = 0.36153 0.23778
# Poissons Ratio (z) = -0.07423 0.22873
#
# Static dielectric constant tensor:
#      x y z
#    x 1.851250 0.000000 0.000000 
#    y 0.000000 1.697090 0.000000 
#    z 0.000000 0.000000 1.716270 
# 
# From -- ./inp_files/21796.got.cif
#   From: 2010.05.17/outbox.cif.g08.bks.cpg/sg56_11_cif.got.tgz:21796.got - 2010.06.03 13:42:01.
