data_PCOD9433826
_publ_section_title
;
Structure prediction by ZEFSAII (Michael W. Deem and Ramdas Pophale) SiO2 
 PCOD9433826
Probable space group: P C C N
;
_chemical_formula_sum "Si O2"
_cell_formula_units_Z 32
_cell_length_a 5.137637
_cell_length_b 21.324849
_cell_length_c 12.615636
_cell_angle_alpha 90.000000
_cell_angle_beta 90.000000
_cell_angle_gamma 90.000000
_cell_volume 1382.160669
_symmetry_space_group_name_H-M "P C C N"
_symmetry_group_IT_number 56
_symmetry_cell_setting 'orthorhombic'
loop_
_space_group_symop_operation_xyz
x,y,z
1/2-x,1/2-y,z
1/2+x,-y,1/2-z
-x,1/2+y,1/2-z
-x,-y,-z
1/2+x,1/2+y,-z
1/2-x,y,1/2+z
x,1/2-y,1/2+z
loop_
_atom_site_type_symbol
_atom_site_label
_atom_site_fract_x
_atom_site_fract_y
_atom_site_fract_z
Si Si1 0.524653 0.524724 0.119264
Si Si2 0.060716 0.099944 0.243887
Si Si3 0.741294 0.677822 0.954520
Si Si4 0.237788 0.643846 0.091509
O O1 0.554345 0.462684 0.189353
O O2 0.738862 0.572532 0.167779
O O3 0.273162 0.569632 0.115300
O O4 0.500000 0.500000 0.000000
O O5 0.206829 0.132572 0.145383
O O6 0.877822 0.155949 0.291244
O O7 0.750000 0.750000 0.922152
O O8 0.500694 0.669239 0.038211
O O9 0.009789 0.660238 0.011305
#
# Coordination Sequence:
#
# PCOD9433826 Si02
#       4
#     8   8   8   8
#     4  12  25  45  78 118 158 190 249 325 394 467
#     4  12  26  45  82 115 156 201 251 316 401 459
#     4  12  30  53  75 107 156 208 267 315 370 459
#     4  12  26  50  77 113 151 200 254 320 382 451
#
# _framework density 23.152158
#
# number of rings (size 3 to 8) (size 9 to 14) (size 15 to 20)
#    0.000    0.000    7.500    0.750    7.000    3.000 
#    4.500    0.000    0.000    0.000    0.000    0.000 
#    0.000    0.000    0.000    0.000    0.000    0.000 
#
# Total GULP energy -178193.609457 kJ/mol
# GULP energy per Si atom -5568.550296 kJ/mol
# Density = 2.309946 g / cm^3
# Si number density = 23.152158 Si / 1000 Ang^3
#
#
#
# Elastic Constant Matrix: (Units=GPa)
#
#
# Indices 1 2 3 4 5 6 
#
# 1 116.7210 16.1980 3.5680 0.0000 0.0000 0.0000
# 2 16.1980 90.0258 12.8624 0.0000 0.0000 0.0000
# 3 3.5680 12.8624 23.0808 0.0000 0.0000 0.0000
# 4 0.0000 0.0000 0.0000 70.1318 0.0000 0.0000
# 5 0.0000 0.0000 0.0000 0.0000 16.8249 0.0000
# 6 0.0000 0.0000 0.0000 0.0000 0.0000 20.8195
#
#
#
# Elastic Compliance Matrix: (Units=1/GPa)
#
#
# Indices 1 2 3 4 5 6 
#
# 1 0.008793 -0.001508 -0.000519 0.000000 0.000000 0.000000
# 2 -0.001508 0.012327 -0.006637 0.000000 0.000000 0.000000
# 3 -0.000519 -0.006637 0.047105 0.000000 0.000000 0.000000
# 4 0.000000 0.000000 0.000000 0.014259 0.000000 0.000000
# 5 0.000000 0.000000 0.000000 0.000000 0.059436 0.000000
# 6 0.000000 0.000000 0.000000 0.000000 0.000000 0.048032
#
#
# Mechanical properties :
#
#
# Convention : Reuss Voigt Hill
#
# Bulk Modulus (GPa) = 19.64725 32.78716 26.21721
# Shear Modulus (GPa) = 22.29713 34.70185 28.49949
#
# Velocity S-wave (km/s) = 3.10670 3.87571 3.51232
# Velocity P-wave (km/s) = 4.62313 5.84983 5.27228
#
# Compressibility (1/GPa) = 0.05089770
#
# Stress axis : x y z
#
# Youngs Moduli (GPa) = 113.73253 81.11977 21.22932
#
# Poissons Ratio (x) = 0.12232 0.01102
# Poissons Ratio (y) = 0.17149 0.14089
# Poissons Ratio (z) = 0.05902 0.53837
#
# Static dielectric constant tensor:
#      x y z
#    x -64.881530 0.000000 0.000000 
#    y 0.000000 2.037880 0.000000 
#    z 0.000000 0.000000 3.596530 
# 
# From -- ./inp_files/5423.got.cif
#   From: 2010.05.17/outbox.cif.g08.bks.cpg/sg56_3_cif.got.tgz:5423.got - 2010.06.03 13:42:01.
