data_PCOD9433692
_publ_section_title
;
Structure prediction by ZEFSAII (Michael W. Deem and Ramdas Pophale) SiO2 
 PCOD9433692
Probable space group: P C C N
;
_chemical_formula_sum "Si O2"
_cell_formula_units_Z 40
_cell_length_a 11.002606
_cell_length_b 8.137861
_cell_length_c 17.634421
_cell_angle_alpha 90.000000
_cell_angle_beta 90.000000
_cell_angle_gamma 90.000000
_cell_volume 1578.945114
_symmetry_space_group_name_H-M "P C C N"
_symmetry_group_IT_number 56
_symmetry_cell_setting 'orthorhombic'
loop_
_space_group_symop_operation_xyz
x,y,z
1/2-x,1/2-y,z
1/2+x,-y,1/2-z
-x,1/2+y,1/2-z
-x,-y,-z
1/2+x,1/2+y,-z
1/2-x,y,1/2+z
x,1/2-y,1/2+z
loop_
_atom_site_type_symbol
_atom_site_label
_atom_site_fract_x
_atom_site_fract_y
_atom_site_fract_z
Si Si1 0.672979 0.491697 0.535311
Si Si2 0.250000 0.250000 0.850478
Si Si3 0.750000 0.250000 0.408844
Si Si4 0.040105 0.216786 0.579473
Si Si5 0.871589 0.936211 0.266317
Si Si6 0.895996 0.478344 0.324985
O O1 0.747202 0.587444 0.598445
O O2 0.732610 0.404498 0.463707
O O3 0.598376 0.342539 0.573642
O O4 0.594545 0.641472 0.498034
O O5 0.141896 0.214706 0.792511
O O6 0.869019 0.296527 0.359612
O O7 0.094219 0.118710 0.650154
O O8 0.076354 0.400209 0.603239
O O9 0.989270 0.017559 0.228485
O O10 0.733580 0.001507 0.279839
#
# Coordination Sequence:
#
# PCOD9433692 Si02
#       6
#     8   4   4   8   8   8
#     4  11  27  47  78 113 160 211 270 324 410 480
#     4  12  26  48  78 114 160 212 266 330 406 486
#     4  12  28  48  74 122 158 214 264 344 394 494
#     4  11  25  50  76 107 161 214 257 331 400 487
#     4  12  27  50  80 117 153 217 258 341 400 482
#     4  12  28  49  81 114 165 205 279 327 413 481
#
# _framework density 25.333369000000001
#
# number of rings (size 3 to 8) (size 9 to 14) (size 15 to 20)
#    0.000    0.400    4.000    2.400   11.200    0.800 
#    0.000    0.000    0.000    0.000    0.000    0.000 
#    0.000    0.000    0.000    0.000    0.000    0.000 
#
# Total GULP energy -222992.368024 kJ/mol
# GULP energy per Si atom -5574.809201 kJ/mol
# Density = 2.527571 g / cm^3
# Si number density = 25.333369 Si / 1000 Ang^3
#
#
#
# Elastic Constant Matrix: (Units=GPa)
#
#
# Indices 1 2 3 4 5 6 
#
# 1 123.3294 39.2242 44.9651 0.0000 0.0000 0.0000
# 2 39.2242 93.0322 34.1183 0.0000 0.0000 0.0000
# 3 44.9651 34.1183 98.3486 0.0000 0.0000 0.0000
# 4 0.0000 0.0000 0.0000 44.2208 0.0000 0.0000
# 5 0.0000 0.0000 0.0000 0.0000 47.2318 0.0000
# 6 0.0000 0.0000 0.0000 0.0000 0.0000 -10.8894
#
#
#
# Elastic Compliance Matrix: (Units=1/GPa)
#
#
# Indices 1 2 3 4 5 6 
#
# 1 0.010428 -0.003034 -0.003715 0.000000 0.000000 0.000000
# 2 -0.003034 0.013199 -0.003192 0.000000 0.000000 0.000000
# 3 -0.003715 -0.003192 0.012974 0.000000 0.000000 0.000000
# 4 0.000000 0.000000 0.000000 0.022614 0.000000 0.000000
# 5 0.000000 0.000000 0.000000 0.000000 0.021172 0.000000
# 6 0.000000 0.000000 0.000000 0.000000 0.000000 -0.091833
#
#
# Mechanical properties :
#
#
# Convention : Reuss Voigt Hill
#
# Bulk Modulus (GPa) = 59.81344 61.25837 60.53591
# Shear Modulus (GPa) = 356.93896 29.20614 193.07255
#
# Velocity S-wave (km/s) = 11.88287 3.39908 8.73946
# Velocity P-wave (km/s) = 14.55788 6.29590 11.21540
#
# Compressibility (1/GPa) = 0.01671865
#
# Stress axis : x y z
#
# Youngs Moduli (GPa) = 95.89713 75.76514 77.07948
#
# Poissons Ratio (x) = 0.22988 0.28635
# Poissons Ratio (y) = 0.29097 0.24600
# Poissons Ratio (z) = 0.35626 0.24181
#
# Static dielectric constant tensor:
#      x y z
#    x 2.011550 0.000000 0.000000 
#    y 0.000000 1.892590 0.000000 
#    z 0.000000 0.000000 1.983810 
# 
# From -- ./inp_files/15455.got.cif
#   From: 2010.05.17/outbox.cif.g08.bks.cpg/sg56_8_cif.got.tgz:15455.got - 2010.06.03 13:42:01.
