data_PCOD9433909
_publ_section_title
;
Structure prediction by ZEFSAII (Michael W. Deem and Ramdas Pophale) SiO2 
 PCOD9433909
Probable space group: P C C N
;
_chemical_formula_sum "Si O2"
_cell_formula_units_Z 48
_cell_length_a 15.000000
_cell_length_b 18.000000
_cell_length_c 9.000000
_cell_angle_alpha 90.000000
_cell_angle_beta 90.000000
_cell_angle_gamma 90.000000
_cell_volume 2430.000000
_symmetry_space_group_name_H-M "P C C N"
_symmetry_group_IT_number 56
_symmetry_cell_setting 'orthorhombic'
loop_
_space_group_symop_operation_xyz
x,y,z
1/2-x,1/2-y,z
1/2+x,-y,1/2-z
-x,1/2+y,1/2-z
-x,-y,-z
1/2+x,1/2+y,-z
1/2-x,y,1/2+z
x,1/2-y,1/2+z
loop_
_atom_site_type_symbol
_atom_site_label
_atom_site_fract_x
_atom_site_fract_y
_atom_site_fract_z
Si Si1 0.226270 0.991034 0.845981
Si Si2 0.904936 0.079091 0.581722
Si Si3 0.094629 0.165173 0.206260
Si Si4 0.468271 0.969014 0.249878
Si Si5 0.057753 0.317482 0.053036
Si Si6 0.770178 0.592598 0.903711
O O1 0.299549 0.929543 0.890275
O O2 0.119544 0.980393 0.851788
O O3 0.243692 0.013940 0.676722
O O4 0.254383 0.067437 0.928307
O O5 0.929382 0.049983 0.415563
O O6 0.957041 0.156364 0.581419
O O7 0.958749 0.031464 0.706091
O O8 0.067316 0.237157 0.118066
O O9 0.084854 0.181205 0.380831
O O10 0.193722 0.146607 0.151755
O O11 0.027409 0.096870 0.182231
O O12 0.131581 0.374209 0.122022
#
# Coordination Sequence:
#
# PCOD9433909 Si02
#       6
#     8   8   8   8   8   8
#     4  12  21  38  65  94 118 156 203 253 309 356
#     4  10  19  39  62  85 122 163 196 251 309 358
#     4  11  25  41  59  89 124 166 202 246 308 370
#     4  10  20  39  62  87 123 157 204 251 302 363
#     4  11  24  41  60  85 126 166 200 246 312 367
#     4  12  22  37  63  93 122 155 197 253 309 368
#
# _framework density 19.753086
#
# number of rings (size 3 to 8) (size 9 to 14) (size 15 to 20)
#    0.000    1.000    6.667    1.500    2.333    2.000 
#    3.000    0.833    0.000    4.000    0.000    0.000 
#    0.000    0.000    0.000    0.000    0.000    0.000 
#
# Total GULP energy -267326.647457 kJ/mol
# GULP energy per Si atom -5569.305155 kJ/mol
# Density = 1.970813 g / cm^3
# Si number density = 19.753086 Si / 1000 Ang^3
#
#
#
# Elastic Constant Matrix: (Units=GPa)
#
#
# Indices 1 2 3 4 5 6 
#
# 1 -14.1448 6.2178 19.7615 0.0000 0.0000 0.0000
# 2 6.2178 54.3968 20.2751 0.0000 0.0000 0.0000
# 3 19.7615 20.2751 12.7312 0.0000 0.0000 0.0000
# 4 0.0000 0.0000 0.0000 17.4473 0.0000 0.0000
# 5 0.0000 0.0000 0.0000 0.0000 -274.8940 0.0000
# 6 0.0000 0.0000 0.0000 0.0000 0.0000 28.4805
#
#
#
# Elastic Compliance Matrix: (Units=1/GPa)
#
#
# Indices 1 2 3 4 5 6 
#
# 1 -0.013575 -0.015506 0.045766 0.000000 0.000000 0.000000
# 2 -0.015506 0.027520 -0.019758 0.000000 0.000000 0.000000
# 3 0.045766 -0.019758 0.038975 0.000000 0.000000 0.000000
# 4 0.000000 0.000000 0.000000 0.057316 0.000000 0.000000
# 5 0.000000 0.000000 0.000000 0.000000 -0.003638 0.000000
# 6 0.000000 0.000000 0.000000 0.000000 0.000000 0.035112
#
#
# Mechanical properties :
#
#
# Convention : Reuss Voigt Hill
#
# Bulk Modulus (GPa) = 13.52765 16.16578 14.84671
# Shear Modulus (GPa) = 34.40019 -45.34466 -5.47224
#
# Velocity S-wave (km/s) = 4.17767 -4.79641 -1.66623
# Velocity P-wave (km/s) = 5.48942 4.74051 1.95721
#
# Compressibility (1/GPa) = 0.07392269
#
# Stress axis : x y z
#
# Youngs Moduli (GPa) = -73.66578 36.33691 25.65764
#
# Poissons Ratio (x) = 0.56345 -1.17424
# Poissons Ratio (y) = -1.14229 0.50695
# Poissons Ratio (z) = 3.37137 0.71795
#
# Static dielectric constant tensor:
#      x y z
#    x 1.708390 0.000000 0.000000 
#    y 0.000000 1.696180 0.000000 
#    z 0.000000 0.000000 1.721830 
# 
# From -- ./inp_files/3365.got.cif
#   From: 2010.05.17/outbox.ucp.g08.bks.cvg/sg56_2_cif.got.tgz:3365.got - 2010.06.11 16:37:52.
