data_PCOD9433422
_publ_section_title
;
Structure prediction by ZEFSAII (Michael W. Deem and Ramdas Pophale) SiO2 
 PCOD9433422
Probable space group: P C C N
;
_chemical_formula_sum "Si O2"
_cell_formula_units_Z 64
_cell_length_a 14.403450
_cell_length_b 28.793252
_cell_length_c 9.279746
_cell_angle_alpha 90.000000
_cell_angle_beta 90.000000
_cell_angle_gamma 90.000000
_cell_volume 3848.516357
_symmetry_space_group_name_H-M "P C C N"
_symmetry_group_IT_number 56
_symmetry_cell_setting 'orthorhombic'
loop_
_space_group_symop_operation_xyz
x,y,z
1/2-x,1/2-y,z
1/2+x,-y,1/2-z
-x,1/2+y,1/2-z
-x,-y,-z
1/2+x,1/2+y,-z
1/2-x,y,1/2+z
x,1/2-y,1/2+z
loop_
_atom_site_type_symbol
_atom_site_label
_atom_site_fract_x
_atom_site_fract_y
_atom_site_fract_z
Si Si1 0.937151 0.381022 0.035342
Si Si2 0.540929 0.524181 0.860823
Si Si3 0.080451 0.614636 0.302737
Si Si4 0.453052 0.034270 0.114061
Si Si5 0.756875 0.503679 0.329304
Si Si6 0.349326 0.800129 0.460484
Si Si7 0.254263 0.940699 0.921256
Si Si8 0.851258 0.297746 0.188715
O O1 0.850613 0.414320 0.073770
O O2 0.924042 0.336009 0.133956
O O3 0.025728 0.412963 0.070355
O O4 0.927626 0.370683 0.864661
O O5 0.492800 0.573333 0.828252
O O6 0.510434 0.484105 0.749793
O O7 0.651031 0.531983 0.864082
O O8 0.500000 0.500000 0.000000
O O9 0.081997 0.659065 0.408047
O O10 0.177084 0.589415 0.342229
O O11 0.344043 0.023850 0.134237
O O12 0.500000 0.000000 0.000000
O O13 0.770857 0.455394 0.417014
O O14 0.759261 0.489307 0.162843
O O15 0.376152 0.751825 0.382709
O O16 0.247717 0.810047 0.388443
O O17 0.342673 0.796438 0.635810
#
# Coordination Sequence:
#
# PCOD9433422 Si02
#       8
#     8   8   8   8   8   8   8   8
#     4  12  23  35  56  77 112 152 196 227 285 338
#     4  12  23  34  53  81 115 149 197 240 285 331
#     4  12  23  36  52  82 111 152 192 234 281 341
#     4  12  21  38  53  77 111 157 197 230 279 342
#     4  12  22  36  52  76 112 156 196 238 272 329
#     4  11  23  38  58  82 113 142 190 232 291 341
#     4  12  20  32  53  74 108 150 191 226 271 325
#     4  11  23  38  58  83 110 147 184 240 283 350
#
# _framework density 16.629785999999999
#
# number of rings (size 3 to 8) (size 9 to 14) (size 15 to 20)
#    0.000    0.250    8.750    3.000    3.500    0.000 
#    0.000    0.000    0.000    0.000    0.000    0.875 
#    0.000    4.000    0.000    0.000    0.000    0.000 
#
# Total GULP energy -356870.191734 kJ/mol
# GULP energy per Si atom -5576.096746 kJ/mol
# Density = 1.659194 g / cm^3
# Si number density = 16.629786 Si / 1000 Ang^3
#
#
#
# Elastic Constant Matrix: (Units=GPa)
#
#
# Indices 1 2 3 4 5 6 
#
# 1 79.7511 19.5556 22.0545 0.0000 0.0000 0.0000
# 2 19.5556 83.6755 30.1949 0.0000 0.0000 0.0000
# 3 22.0545 30.1949 116.7432 0.0000 0.0000 0.0000
# 4 0.0000 0.0000 0.0000 26.4977 0.0000 0.0000
# 5 0.0000 0.0000 0.0000 0.0000 14.1803 0.0000
# 6 0.0000 0.0000 0.0000 0.0000 0.0000 25.3083
#
#
#
# Elastic Compliance Matrix: (Units=1/GPa)
#
#
# Indices 1 2 3 4 5 6 
#
# 1 0.013688 -0.002499 -0.001940 0.000000 0.000000 0.000000
# 2 -0.002499 0.013637 -0.003055 0.000000 0.000000 0.000000
# 3 -0.001940 -0.003055 0.009722 0.000000 0.000000 0.000000
# 4 0.000000 0.000000 0.000000 0.037739 0.000000 0.000000
# 5 0.000000 0.000000 0.000000 0.000000 0.070520 0.000000
# 6 0.000000 0.000000 0.000000 0.000000 0.000000 0.039513
#
#
# Mechanical properties :
#
#
# Convention : Reuss Voigt Hill
#
# Bulk Modulus (GPa) = 45.32992 47.08665 46.20828
# Shear Modulus (GPa) = 24.13578 27.08825 25.61201
#
# Velocity S-wave (km/s) = 3.81380 4.04034 3.92871
# Velocity P-wave (km/s) = 6.83454 7.08110 6.95891
#
# Compressibility (1/GPa) = 0.02206049
#
# Stress axis : x y z
#
# Youngs Moduli (GPa) = 73.05579 73.32746 102.85531
#
# Poissons Ratio (x) = 0.18326 0.19949
# Poissons Ratio (y) = 0.18258 0.31424
# Poissons Ratio (z) = 0.14169 0.22402
#
# Static dielectric constant tensor:
#      x y z
#    x 1.546870 0.000000 0.000000 
#    y 0.000000 1.590970 0.000000 
#    z 0.000000 0.000000 1.560590 
# 
# From -- ./inp_files/3772.got.cif
#   From: 2010.05.17/outbox.cif.g08.bks.cpg/sg56_2_cif.got.tgz:3772.got - 2010.06.03 13:42:01.
