data_PCOD9433475
_publ_section_title
;
Structure prediction by ZEFSAII (Michael W. Deem and Ramdas Pophale) SiO2 
 PCOD9433475
Probable space group: P C C N
;
_chemical_formula_sum "Si O2"
_cell_formula_units_Z 48
_cell_length_a 8.385787
_cell_length_b 29.129150
_cell_length_c 8.948204
_cell_angle_alpha 90.000000
_cell_angle_beta 90.000000
_cell_angle_gamma 90.000000
_cell_volume 2185.785374
_symmetry_space_group_name_H-M "P C C N"
_symmetry_group_IT_number 56
_symmetry_cell_setting 'orthorhombic'
loop_
_space_group_symop_operation_xyz
x,y,z
1/2-x,1/2-y,z
1/2+x,-y,1/2-z
-x,1/2+y,1/2-z
-x,-y,-z
1/2+x,1/2+y,-z
1/2-x,y,1/2+z
x,1/2-y,1/2+z
loop_
_atom_site_type_symbol
_atom_site_label
_atom_site_fract_x
_atom_site_fract_y
_atom_site_fract_z
Si Si1 0.929358 0.735344 0.148365
Si Si2 0.892095 0.863783 0.562088
Si Si3 0.929687 0.452540 0.067447
Si Si4 0.419731 0.544369 0.073084
Si Si5 0.937403 0.629158 0.408745
Si Si6 0.892958 0.284353 0.572081
O O1 0.750000 0.750000 0.120689
O O2 0.974708 0.686639 0.070589
O O3 0.958244 0.729368 0.323183
O O4 0.053322 0.773122 0.094174
O O5 0.720325 0.852175 0.491298
O O6 0.971997 0.906188 0.474394
O O7 0.889553 0.878928 0.736412
O O8 0.919761 0.456828 0.247138
O O9 0.757206 0.449032 0.991098
O O10 0.000000 0.500000 0.000000
O O11 0.522434 0.585459 0.006454
O O12 0.500000 0.500000 0.000000
O O13 0.097202 0.661081 0.408933
O O14 0.750000 0.250000 0.609058
#
# Coordination Sequence:
#
# PCOD9433475 Si02
#       6
#     8   8   8   8   8   8
#     4  11  23  43  68  97 137 187 241 292 357 428
#     4  11  24  42  68 102 136 186 238 292 352 426
#     4  12  26  47  74 104 143 185 232 292 354 429
#     4  12  26  47  73 105 144 183 233 288 360 430
#     4  11  24  44  67 103 140 186 238 296 359 428
#     4  11  25  42  66  99 140 184 240 296 361 424
#
# _framework density 21.960069000000001
#
# number of rings (size 3 to 8) (size 9 to 14) (size 15 to 20)
#    0.000    0.667    1.667    6.000    4.667    1.333 
#    0.000    0.000    0.000    0.000    0.000    0.000 
#    0.000    0.000    0.000    0.000    0.000    0.000 
#
# Total GULP energy -267883.895100 kJ/mol
# GULP energy per Si atom -5580.914481 kJ/mol
# Density = 2.191009 g / cm^3
# Si number density = 21.960069 Si / 1000 Ang^3
#
#
#
# Elastic Constant Matrix: (Units=GPa)
#
#
# Indices 1 2 3 4 5 6 
#
# 1 69.0060 28.7369 20.0174 0.0000 0.0000 0.0000
# 2 28.7369 90.7841 46.6633 0.0000 0.0000 0.0000
# 3 20.0174 46.6633 168.7691 0.0000 0.0000 0.0000
# 4 0.0000 0.0000 0.0000 37.2821 0.0000 0.0000
# 5 0.0000 0.0000 0.0000 0.0000 36.6298 0.0000
# 6 0.0000 0.0000 0.0000 0.0000 0.0000 40.2977
#
#
#
# Elastic Compliance Matrix: (Units=1/GPa)
#
#
# Indices 1 2 3 4 5 6 
#
# 1 0.016745 -0.004989 -0.000607 0.000000 0.000000 0.000000
# 2 -0.004989 0.014326 -0.003369 0.000000 0.000000 0.000000
# 3 -0.000607 -0.003369 0.006929 0.000000 0.000000 0.000000
# 4 0.000000 0.000000 0.000000 0.026822 0.000000 0.000000
# 5 0.000000 0.000000 0.000000 0.000000 0.027300 0.000000
# 6 0.000000 0.000000 0.000000 0.000000 0.000000 0.024815
#
#
# Mechanical properties :
#
#
# Convention : Reuss Voigt Hill
#
# Bulk Modulus (GPa) = 49.82456 57.71049 53.76753
# Shear Modulus (GPa) = 35.32136 38.38471 36.85304
#
# Velocity S-wave (km/s) = 4.01488 4.18536 4.10101
# Velocity P-wave (km/s) = 6.65059 7.04934 6.85286
#
# Compressibility (1/GPa) = 0.02007042
#
# Stress axis : x y z
#
# Youngs Moduli (GPa) = 59.71949 69.80270 144.32460
#
# Poissons Ratio (x) = 0.34822 0.08758
# Poissons Ratio (y) = 0.29791 0.48628
# Poissons Ratio (z) = 0.03624 0.23519
#
# Static dielectric constant tensor:
#      x y z
#    x 1.797550 0.000000 0.000000 
#    y 0.000000 1.929440 0.000000 
#    z 0.000000 0.000000 1.758810 
# 
# From -- ./inp_files/2215.got.cif
#   From: 2010.05.17/outbox.cif.g08.bks.cpg/sg56_2_cif.got.tgz:2215.got - 2010.06.03 13:42:01.
