data_PCOD9433077
_publ_section_title
;
Structure prediction by ZEFSAII (Michael W. Deem and Ramdas Pophale) SiO2 
 PCOD9433077
Probable space group: P C C N
;
_chemical_formula_sum "Si O2"
_cell_formula_units_Z 48
_cell_length_a 5.725111
_cell_length_b 15.960364
_cell_length_c 21.897565
_cell_angle_alpha 90.000000
_cell_angle_beta 90.000000
_cell_angle_gamma 90.000000
_cell_volume 2000.886838
_symmetry_space_group_name_H-M "P C C N"
_symmetry_group_IT_number 56
_symmetry_cell_setting 'orthorhombic'
loop_
_space_group_symop_operation_xyz
x,y,z
1/2-x,1/2-y,z
1/2+x,-y,1/2-z
-x,1/2+y,1/2-z
-x,-y,-z
1/2+x,1/2+y,-z
1/2-x,y,1/2+z
x,1/2-y,1/2+z
loop_
_atom_site_type_symbol
_atom_site_label
_atom_site_fract_x
_atom_site_fract_y
_atom_site_fract_z
Si Si1 0.877592 0.610838 0.217232
Si Si2 0.802695 0.071917 0.495440
Si Si3 0.415904 0.470396 0.095851
Si Si4 0.750000 0.250000 0.953648
Si Si5 0.750000 0.750000 0.618594
Si Si6 0.262192 0.574326 0.799722
Si Si7 0.866486 0.661717 0.844540
O O1 0.141748 0.622964 0.241139
O O2 0.802044 0.668115 0.161003
O O3 0.884442 0.510147 0.208369
O O4 0.715066 0.635374 0.275344
O O5 0.613518 0.050118 0.546799
O O6 0.829248 0.170925 0.494949
O O7 0.701542 0.054341 0.427183
O O8 0.000000 0.000000 0.500000
O O9 0.527459 0.466949 0.162000
O O10 0.224253 0.398417 0.102079
O O11 0.500078 0.264696 0.916993
O O12 0.139725 0.644365 0.840869
O O13 0.750000 0.750000 0.854956
#
# Coordination Sequence:
#
# PCOD9433077 Si02
#       7
#     8   8   8   4   4   8   8
#     4  11  24  41  72 103 153 197 246 305 374 462
#     4  11  26  50  77 109 148 198 258 333 394 474
#     4  10  25  43  74 104 141 191 252 312 392 452
#     4  12  32  50  82 116 156 206 268 326 406 472
#     4  12  30  48  78 118 162 202 268 324 388 478
#     4  11  23  42  70 104 143 198 241 302 383 462
#     4  11  24  43  66 106 143 192 248 310 373 462
#
# _framework density 23.989363999999998
#
# number of rings (size 3 to 8) (size 9 to 14) (size 15 to 20)
#    0.000    1.000    2.500    2.000   11.667    5.333 
#    0.000    0.000    0.000    0.000    0.000    0.000 
#    0.000    0.000    0.000    0.000    0.000    0.000 
#
# Total GULP energy -267524.857632 kJ/mol
# GULP energy per Si atom -5573.434534 kJ/mol
# Density = 2.393476 g / cm^3
# Si number density = 23.989364 Si / 1000 Ang^3
#
#
#
# Elastic Constant Matrix: (Units=GPa)
#
#
# Indices 1 2 3 4 5 6 
#
# 1 96.6879 22.1133 19.8627 0.0000 0.0000 0.0000
# 2 22.1133 119.0213 12.1926 0.0000 0.0000 0.0000
# 3 19.8627 12.1926 41.3110 0.0000 0.0000 0.0000
# 4 0.0000 0.0000 0.0000 34.7547 0.0000 0.0000
# 5 0.0000 0.0000 0.0000 0.0000 42.2938 0.0000
# 6 0.0000 0.0000 0.0000 0.0000 0.0000 16.9126
#
#
#
# Elastic Compliance Matrix: (Units=1/GPa)
#
#
# Indices 1 2 3 4 5 6 
#
# 1 0.011786 -0.001659 -0.005177 0.000000 0.000000 0.000000
# 2 -0.001659 0.008897 -0.001828 0.000000 0.000000 0.000000
# 3 -0.005177 -0.001828 0.027235 0.000000 0.000000 0.000000
# 4 0.000000 0.000000 0.000000 0.028773 0.000000 0.000000
# 5 0.000000 0.000000 0.000000 0.000000 0.023644 0.000000
# 6 0.000000 0.000000 0.000000 0.000000 0.000000 0.059127
#
#
# Mechanical properties :
#
#
# Convention : Reuss Voigt Hill
#
# Bulk Modulus (GPa) = 32.69097 40.59527 36.64312
# Shear Modulus (GPa) = 26.73966 32.31565 29.52766
#
# Velocity S-wave (km/s) = 3.34225 3.67424 3.51217
# Velocity P-wave (km/s) = 5.34332 5.91262 5.63516
#
# Compressibility (1/GPa) = 0.03058949
#
# Stress axis : x y z
#
# Youngs Moduli (GPa) = 84.84968 112.39198 36.71713
#
# Poissons Ratio (x) = 0.18650 0.19008
# Poissons Ratio (y) = 0.14080 0.06713
# Poissons Ratio (z) = 0.43925 0.20547
#
# Static dielectric constant tensor:
#      x y z
#    x 2.544010 0.000000 0.000000 
#    y 0.000000 1.980640 0.000000 
#    z 0.000000 0.000000 1.922060 
# 
# From -- ./inp_files/21717.got.cif
#   From: 2010.05.17/outbox.cif.g08.bks.cpg/sg56_11_cif.got.tgz:21717.got - 2010.06.03 13:42:01.
