data_PCOD9433887
_publ_section_title
;
Structure prediction by ZEFSAII (Michael W. Deem and Ramdas Pophale) SiO2 
 PCOD9433887
Probable space group: P C C N
;
_chemical_formula_sum "Si O2"
_cell_formula_units_Z 24
_cell_length_a 8.709031
_cell_length_b 12.362744
_cell_length_c 7.917037
_cell_angle_alpha 90.000000
_cell_angle_beta 90.000000
_cell_angle_gamma 90.000000
_cell_volume 852.407745
_symmetry_space_group_name_H-M "P C C N"
_symmetry_group_IT_number 56
_symmetry_cell_setting 'orthorhombic'
loop_
_space_group_symop_operation_xyz
x,y,z
1/2-x,1/2-y,z
1/2+x,-y,1/2-z
-x,1/2+y,1/2-z
-x,-y,-z
1/2+x,1/2+y,-z
1/2-x,y,1/2+z
x,1/2-y,1/2+z
loop_
_atom_site_type_symbol
_atom_site_label
_atom_site_fract_x
_atom_site_fract_y
_atom_site_fract_z
Si Si1 0.129141 0.843326 0.733042
Si Si2 0.435302 0.169616 0.442732
Si Si3 0.361583 0.059388 0.096359
O O1 0.250000 0.750000 0.769225
O O2 0.008641 0.788330 0.600632
O O3 0.216932 0.949547 0.669544
O O4 0.040098 0.871820 0.904162
O O5 0.431059 0.120802 0.256248
O O6 0.265702 0.135436 0.510176
O O7 0.500000 0.000000 0.000000
#
# Coordination Sequence:
#
# PCOD9433887 Si02
#       3
#     8   8   8
#     4  12  30  52  87 128 176 236 297 360 447 535
#     4  12  30  55  86 128 177 230 294 367 446 530
#     4  12  30  54  88 130 175 230 297 372 446 531
#
# _framework density 28.155539000000001
#
# number of rings (size 3 to 8) (size 9 to 14) (size 15 to 20)
#    0.000    0.000    0.000    6.000   18.667   10.667 
#    0.000    0.000    0.000    0.000    0.000    0.000 
#    0.000    0.000    0.000    0.000    0.000    0.000 
#
# Total GULP energy -134464.041500 kJ/mol
# GULP energy per Si atom -5602.668396 kJ/mol
# Density = 2.809146 g / cm^3
# Si number density = 28.155539 Si / 1000 Ang^3
#
#
#
# Elastic Constant Matrix: (Units=GPa)
#
#
# Indices 1 2 3 4 5 6 
#
# 1 203.1220 52.3010 78.0396 0.0000 0.0000 0.0000
# 2 52.3010 197.8282 40.8697 0.0000 0.0000 0.0000
# 3 78.0396 40.8697 154.8891 0.0000 0.0000 0.0000
# 4 0.0000 0.0000 0.0000 36.9338 0.0000 0.0000
# 5 0.0000 0.0000 0.0000 0.0000 41.9851 0.0000
# 6 0.0000 0.0000 0.0000 0.0000 0.0000 51.3990
#
#
#
# Elastic Compliance Matrix: (Units=1/GPa)
#
#
# Indices 1 2 3 4 5 6 
#
# 1 0.006312 -0.001070 -0.002898 0.000000 0.000000 0.000000
# 2 -0.001070 0.005528 -0.000919 0.000000 0.000000 0.000000
# 3 -0.002898 -0.000919 0.008159 0.000000 0.000000 0.000000
# 4 0.000000 0.000000 0.000000 0.027076 0.000000 0.000000
# 5 0.000000 0.000000 0.000000 0.000000 0.023818 0.000000
# 6 0.000000 0.000000 0.000000 0.000000 0.000000 0.019456
#
#
# Mechanical properties :
#
#
# Convention : Reuss Voigt Hill
#
# Bulk Modulus (GPa) = 97.81016 99.80666 98.80841
# Shear Modulus (GPa) = 48.29488 51.70551 50.00020
#
# Velocity S-wave (km/s) = 4.14610 4.29000 4.21866
# Velocity P-wave (km/s) = 7.59834 7.75010 7.67460
#
# Compressibility (1/GPa) = 0.01022389
#
# Stress axis : x y z
#
# Youngs Moduli (GPa) = 158.42686 180.90582 122.56510
#
# Poissons Ratio (x) = 0.19358 0.35518
# Poissons Ratio (y) = 0.16953 0.11269
# Poissons Ratio (z) = 0.45911 0.16633
#
# Static dielectric constant tensor:
#      x y z
#    x 2.299520 0.000000 0.000000 
#    y 0.000000 2.329940 0.000000 
#    z 0.000000 0.000000 2.174230 
# 
# From -- ./inp_files/1791.got.cif
#   From: 2010.05.17/outbox.cif.g08.bks.cpg/sg56_1_cif.got.tgz:1791.got - 2010.06.03 13:42:01.
