data_PCOD9433559
_publ_section_title
;
Structure prediction by ZEFSAII (Michael W. Deem and Ramdas Pophale) SiO2 
 PCOD9433559
Probable space group: P C C N
;
_chemical_formula_sum "Si O2"
_cell_formula_units_Z 48
_cell_length_a 4.964711
_cell_length_b 27.885435
_cell_length_c 14.813127
_cell_angle_alpha 90.000000
_cell_angle_beta 90.000000
_cell_angle_gamma 90.000000
_cell_volume 2050.775606
_symmetry_space_group_name_H-M "P C C N"
_symmetry_group_IT_number 56
_symmetry_cell_setting 'orthorhombic'
loop_
_space_group_symop_operation_xyz
x,y,z
1/2-x,1/2-y,z
1/2+x,-y,1/2-z
-x,1/2+y,1/2-z
-x,-y,-z
1/2+x,1/2+y,-z
1/2-x,y,1/2+z
x,1/2-y,1/2+z
loop_
_atom_site_type_symbol
_atom_site_label
_atom_site_fract_x
_atom_site_fract_y
_atom_site_fract_z
Si Si1 0.247324 0.535538 0.492893
Si Si2 0.728405 0.196963 0.580536
Si Si3 0.830492 0.902927 0.071487
Si Si4 0.723041 0.802616 0.046502
Si Si5 0.762135 0.534562 0.236042
Si Si6 0.512155 0.897971 0.878509
O O1 0.500000 0.500000 0.500000
O O2 0.137207 0.578850 0.557273
O O3 0.679724 0.599513 0.473762
O O4 0.303045 0.440153 0.360245
O O5 0.750000 0.250000 0.623098
O O6 0.426632 0.193385 0.540645
O O7 0.856007 0.152247 0.634802
O O8 0.921399 0.196178 0.492224
O O9 0.800734 0.848504 0.105183
O O10 0.000000 0.000000 0.000000
O O11 0.750000 0.750000 0.588234
O O12 0.003563 0.500184 0.264116
O O13 0.783526 0.437333 0.101128
O O14 0.694665 0.579274 0.301713
#
# Coordination Sequence:
#
# PCOD9433559 Si02
#       6
#     8   8   8   8   8   8
#     4  12  22  34  60  86 117 165 216 254 313 386
#     4   9  18  34  62  95 121 156 210 259 322 389
#     4  11  24  43  67  92 130 175 219 272 338 393
#     4   9  18  34  62  95 120 157 209 262 318 394
#     4  12  30  42  60  96 133 171 228 278 318 394
#     4  11  24  43  67  94 131 176 217 272 336 393
#
# _framework density 23.405777
#
# number of rings (size 3 to 8) (size 9 to 14) (size 15 to 20)
#    0.000    1.333    3.333    2.000    4.667    0.000 
#    0.000    0.000    0.000   13.000    0.000    0.000 
#    0.000    0.000    0.000    0.000    0.000    0.000 
#
# Total GULP energy -267786.313638 kJ/mol
# GULP energy per Si atom -5578.881534 kJ/mol
# Density = 2.335250 g / cm^3
# Si number density = 23.405777 Si / 1000 Ang^3
#
#
#
# Elastic Constant Matrix: (Units=GPa)
#
#
# Indices 1 2 3 4 5 6 
#
# 1 123.8831 46.6982 10.3407 0.0000 0.0000 0.0000
# 2 46.6982 233.1211 46.2487 0.0000 0.0000 0.0000
# 3 10.3407 46.2487 67.2216 0.0000 0.0000 0.0000
# 4 0.0000 0.0000 0.0000 25.2626 0.0000 0.0000
# 5 0.0000 0.0000 0.0000 0.0000 20.4443 0.0000
# 6 0.0000 0.0000 0.0000 0.0000 0.0000 46.6232
#
#
#
# Elastic Compliance Matrix: (Units=1/GPa)
#
#
# Indices 1 2 3 4 5 6 
#
# 1 0.008733 -0.001717 -0.000162 0.000000 0.000000 0.000000
# 2 -0.001717 0.005305 -0.003386 0.000000 0.000000 0.000000
# 3 -0.000162 -0.003386 0.017231 0.000000 0.000000 0.000000
# 4 0.000000 0.000000 0.000000 0.039584 0.000000 0.000000
# 5 0.000000 0.000000 0.000000 0.000000 0.048913 0.000000
# 6 0.000000 0.000000 0.000000 0.000000 0.000000 0.021449
#
#
# Mechanical properties :
#
#
# Convention : Reuss Voigt Hill
#
# Bulk Modulus (GPa) = 48.21901 70.08903 59.15402
# Shear Modulus (GPa) = 31.51427 39.86188 35.68807
#
# Velocity S-wave (km/s) = 3.67336 4.13131 3.90905
# Velocity P-wave (km/s) = 6.21590 7.26410 6.76035
#
# Compressibility (1/GPa) = 0.02073871
#
# Stress axis : x y z
#
# Youngs Moduli (GPa) = 114.50868 188.48932 58.03627
#
# Poissons Ratio (x) = 0.32368 0.00940
# Poissons Ratio (y) = 0.19664 0.19651
# Poissons Ratio (z) = 0.01854 0.63821
#
# Static dielectric constant tensor:
#      x y z
#    x 2.094340 0.000000 0.000000 
#    y 0.000000 2.024530 0.000000 
#    z 0.000000 0.000000 1.922640 
# 
# From -- ./inp_files/21818.got.cif
#   From: 2010.05.17/outbox.cif.g08.bks.cpg/sg56_11_cif.got.tgz:21818.got - 2010.06.03 13:42:01.
