data_PCOD9433883
_publ_section_title
;
Structure prediction by ZEFSAII (Michael W. Deem and Ramdas Pophale) SiO2 
 PCOD9433883
Probable space group: P C C N
;
_chemical_formula_sum "Si O2"
_cell_formula_units_Z 20
_cell_length_a 5.241275
_cell_length_b 7.595470
_cell_length_c 18.874420
_cell_angle_alpha 90.000000
_cell_angle_beta 90.000000
_cell_angle_gamma 90.000000
_cell_volume 751.389660
_symmetry_space_group_name_H-M "P C C N"
_symmetry_group_IT_number 56
_symmetry_cell_setting 'orthorhombic'
loop_
_space_group_symop_operation_xyz
x,y,z
1/2-x,1/2-y,z
1/2+x,-y,1/2-z
-x,1/2+y,1/2-z
-x,-y,-z
1/2+x,1/2+y,-z
1/2-x,y,1/2+z
x,1/2-y,1/2+z
loop_
_atom_site_type_symbol
_atom_site_label
_atom_site_fract_x
_atom_site_fract_y
_atom_site_fract_z
Si Si1 0.950452 0.112959 0.658786
Si Si2 0.751605 0.044936 0.954829
Si Si3 0.750000 0.750000 0.211592
O O1 0.750000 0.250000 0.625243
O O2 0.025839 0.189143 0.735298
O O3 0.821516 0.921587 0.667242
O O4 0.207127 0.069042 0.615544
O O5 0.750000 0.250000 0.936714
O O6 0.500000 0.000000 0.000000
O O7 0.000000 0.000000 0.000000
#
# Coordination Sequence:
#
# PCOD9433883 Si02
#       3
#     8   8   4
#     4  12  29  51  84 123 175 218 288 353 430 521
#     4  12  31  54  84 120 165 228 289 354 424 502
#     4  12  28  50  82 126 166 224 272 352 440 510
#
# _framework density 26.617349999999998
#
# number of rings (size 3 to 8) (size 9 to 14) (size 15 to 20)
#    0.000    0.000    4.000    2.400   22.400    0.000 
#    0.000    0.000    0.000    0.000    0.000    0.000 
#    0.000    0.000    0.000    0.000    0.000    0.000 
#
# Total GULP energy -112418.796948 kJ/mol
# GULP energy per Si atom -5620.939847 kJ/mol
# Density = 2.655677 g / cm^3
# Si number density = 26.617350 Si / 1000 Ang^3
#
#
#
# Elastic Constant Matrix: (Units=GPa)
#
#
# Indices 1 2 3 4 5 6 
#
# 1 193.8987 75.9131 51.7897 0.0000 0.0000 0.0000
# 2 75.9131 279.2744 56.8354 0.0000 0.0000 0.0000
# 3 51.7897 56.8354 87.3275 0.0000 0.0000 0.0000
# 4 0.0000 0.0000 0.0000 37.6577 0.0000 0.0000
# 5 0.0000 0.0000 0.0000 0.0000 58.1341 0.0000
# 6 0.0000 0.0000 0.0000 0.0000 0.0000 52.3615
#
#
#
# Elastic Compliance Matrix: (Units=1/GPa)
#
#
# Indices 1 2 3 4 5 6 
#
# 1 0.006417 -0.001118 -0.003078 0.000000 0.000000 0.000000
# 2 -0.001118 0.004322 -0.002150 0.000000 0.000000 0.000000
# 3 -0.003078 -0.002150 0.014676 0.000000 0.000000 0.000000
# 4 0.000000 0.000000 0.000000 0.026555 0.000000 0.000000
# 5 0.000000 0.000000 0.000000 0.000000 0.017202 0.000000
# 6 0.000000 0.000000 0.000000 0.000000 0.000000 0.019098
#
#
# Mechanical properties :
#
#
# Convention : Reuss Voigt Hill
#
# Bulk Modulus (GPa) = 78.59699 103.28634 90.94166
# Shear Modulus (GPa) = 47.52718 54.69482 51.11100
#
# Velocity S-wave (km/s) = 4.23019 4.53797 4.38678
# Velocity P-wave (km/s) = 7.31108 8.14530 7.73944
#
# Compressibility (1/GPa) = 0.01272313
#
# Stress axis : x y z
#
# Youngs Moduli (GPa) = 155.83216 231.36763 68.13872
#
# Poissons Ratio (x) = 0.25864 0.20974
# Poissons Ratio (y) = 0.17420 0.14650
# Poissons Ratio (z) = 0.47967 0.49744
#
# Static dielectric constant tensor:
#      x y z
#    x 2.171550 0.000000 0.000000 
#    y 0.000000 2.019800 0.000000 
#    z 0.000000 0.000000 2.138200 
# 
# From -- ./inp_files/13552.got.cif
#   From: 2010.05.17/outbox.cif.g08.bks.cpg/sg56_7_cif.got.tgz:13552.got - 2010.06.03 13:42:01.
