data_PCOD9433319
_publ_section_title
;
Structure prediction by ZEFSAII (Michael W. Deem and Ramdas Pophale) SiO2 
 PCOD9433319
Probable space group: P C C N
;
_chemical_formula_sum "Si O2"
_cell_formula_units_Z 48
_cell_length_a 17.566708
_cell_length_b 16.668135
_cell_length_c 8.680761
_cell_angle_alpha 90.000000
_cell_angle_beta 90.000000
_cell_angle_gamma 90.000000
_cell_volume 2541.763805
_symmetry_space_group_name_H-M "P C C N"
_symmetry_group_IT_number 56
_symmetry_cell_setting 'orthorhombic'
loop_
_space_group_symop_operation_xyz
x,y,z
1/2-x,1/2-y,z
1/2+x,-y,1/2-z
-x,1/2+y,1/2-z
-x,-y,-z
1/2+x,1/2+y,-z
1/2-x,y,1/2+z
x,1/2-y,1/2+z
loop_
_atom_site_type_symbol
_atom_site_label
_atom_site_fract_x
_atom_site_fract_y
_atom_site_fract_z
Si Si1 0.002609 0.637644 0.068726
Si Si2 0.432545 0.449625 0.918621
Si Si3 0.257460 0.435104 0.979205
Si Si4 0.205156 0.175538 0.228117
Si Si5 0.896539 0.508750 0.933152
Si Si6 0.462144 0.203146 0.614276
O O1 0.012048 0.667452 0.245145
O O2 0.071654 0.578656 0.026774
O O3 0.931327 0.576569 0.046614
O O4 0.989201 0.712940 0.956307
O O5 0.344729 0.464892 0.973132
O O6 0.427843 0.466104 0.736158
O O7 0.500000 0.500000 0.000000
O O8 0.451507 0.359076 0.972824
O O9 0.221729 0.406913 0.817889
O O10 0.259359 0.350137 0.066363
O O11 0.194196 0.490161 0.057336
O O12 0.250000 0.250000 0.293162
O O13 0.119833 0.204369 0.198451
#
# Coordination Sequence:
#
# PCOD9433319 Si02
#       6
#     8   8   8   8   8   8
#     4  11  23  37  63  88 129 165 208 257 313 381
#     4  11  23  42  65  93 126 166 215 266 322 383
#     4  11  22  36  60  88 122 166 209 256 319 381
#     4  11  22  33  53  87 130 162 196 251 319 390
#     4  11  22  42  60  91 126 168 216 257 315 380
#     4  11  23  37  58  93 125 167 206 255 320 382
#
# _framework density 18.884525
#
# number of rings (size 3 to 8) (size 9 to 14) (size 15 to 20)
#    0.000    1.000    5.000    2.500    4.667    0.000 
#    0.000    0.000    0.000    1.000    0.000    0.000 
#    0.000    0.000    0.000    0.000    0.000    0.000 
#
# Total GULP energy -267441.280913 kJ/mol
# GULP energy per Si atom -5571.693352 kJ/mol
# Density = 1.884154 g / cm^3
# Si number density = 18.884525 Si / 1000 Ang^3
#
#
#
# Elastic Constant Matrix: (Units=GPa)
#
#
# Indices 1 2 3 4 5 6 
#
# 1 120.2932 65.0276 27.0551 0.0000 0.0000 0.0000
# 2 65.0276 119.3939 36.6823 0.0000 0.0000 0.0000
# 3 27.0551 36.6823 73.3846 0.0000 0.0000 0.0000
# 4 0.0000 0.0000 0.0000 22.1054 0.0000 0.0000
# 5 0.0000 0.0000 0.0000 0.0000 22.7498 0.0000
# 6 0.0000 0.0000 0.0000 0.0000 0.0000 21.4571
#
#
#
# Elastic Compliance Matrix: (Units=1/GPa)
#
#
# Indices 1 2 3 4 5 6 
#
# 1 0.011895 -0.006062 -0.001355 0.000000 0.000000 0.000000
# 2 -0.006062 0.012985 -0.004256 0.000000 0.000000 0.000000
# 3 -0.001355 -0.004256 0.016254 0.000000 0.000000 0.000000
# 4 0.000000 0.000000 0.000000 0.045238 0.000000 0.000000
# 5 0.000000 0.000000 0.000000 0.000000 0.043956 0.000000
# 6 0.000000 0.000000 0.000000 0.000000 0.000000 0.046605
#
#
# Mechanical properties :
#
#
# Convention : Reuss Voigt Hill
#
# Bulk Modulus (GPa) = 56.21918 63.40021 59.80969
# Shear Modulus (GPa) = 24.24744 25.54958 24.89851
#
# Velocity S-wave (km/s) = 3.58716 3.68222 3.63500
# Velocity P-wave (km/s) = 6.85504 7.19192 7.02550
#
# Compressibility (1/GPa) = 0.01778752
#
# Stress axis : x y z
#
# Youngs Moduli (GPa) = 84.06991 77.01253 61.52450
#
# Poissons Ratio (x) = 0.46686 0.08337
# Poissons Ratio (y) = 0.50965 0.26183
# Poissons Ratio (z) = 0.11392 0.32774
#
# Static dielectric constant tensor:
#      x y z
#    x 1.693270 0.000000 0.000000 
#    y 0.000000 1.632670 0.000000 
#    z 0.000000 0.000000 1.740090 
# 
# From -- ./inp_files/3357.got.cif
#   From: 2010.05.17/outbox.cif.g08.bks.cpg/sg56_2_cif.got.tgz:3357.got - 2010.06.03 13:42:01.
