data_PCOD9433517
_publ_section_title
;
Structure prediction by ZEFSAII (Michael W. Deem and Ramdas Pophale) SiO2 
 PCOD9433517
Probable space group: P C C N
;
_chemical_formula_sum "Si O2"
_cell_formula_units_Z 56
_cell_length_a 19.360956
_cell_length_b 8.828917
_cell_length_c 14.835655
_cell_angle_alpha 90.000000
_cell_angle_beta 90.000000
_cell_angle_gamma 90.000000
_cell_volume 2535.951582
_symmetry_space_group_name_H-M "P C C N"
_symmetry_group_IT_number 56
_symmetry_cell_setting 'orthorhombic'
loop_
_space_group_symop_operation_xyz
x,y,z
1/2-x,1/2-y,z
1/2+x,-y,1/2-z
-x,1/2+y,1/2-z
-x,-y,-z
1/2+x,1/2+y,-z
1/2-x,y,1/2+z
x,1/2-y,1/2+z
loop_
_atom_site_type_symbol
_atom_site_label
_atom_site_fract_x
_atom_site_fract_y
_atom_site_fract_z
Si Si1 0.091529 0.413794 0.583218
Si Si2 0.239290 0.426220 0.320482
Si Si3 0.287878 0.587261 0.496060
Si Si4 0.470088 0.378853 0.896316
Si Si5 0.285567 0.585605 0.159808
Si Si6 0.397589 0.377984 0.710552
Si Si7 0.557975 0.093377 0.947788
O O1 0.088763 0.384782 0.474836
O O2 0.142546 0.552687 0.609056
O O3 0.111675 0.267249 0.643691
O O4 0.013074 0.464593 0.605824
O O5 0.250000 0.250000 0.330146
O O6 0.251776 0.502120 0.415300
O O7 0.293949 0.503712 0.254119
O O8 0.168460 0.442202 0.265322
O O9 0.250000 0.750000 0.499575
O O10 0.267979 0.507988 0.590379
O O11 0.370303 0.600216 0.496346
O O12 0.445702 0.337654 0.796157
O O13 0.523881 0.254171 0.930265
O O14 0.250000 0.750000 0.177622
O O15 0.426807 0.509041 0.646344
O O16 0.500000 0.000000 0.000000
#
# Coordination Sequence:
#
# PCOD9433517 Si02
#       7
#     8   8   8   8   8   8   8
#     4  11  24  45  69 101 145 187 244 302 369 437
#     4  12  26  43  71 106 139 192 248 314 383 435
#     4  11  26  48  73 104 147 194 249 311 377 459
#     4  11  25  45  71 105 146 198 239 296 373 459
#     4  11  23  46  71  97 138 189 244 308 361 441
#     4  12  25  46  69 109 143 191 250 306 376 451
#     4  12  26  47  76 108 152 198 248 311 387 460
#
# _framework density 22.082440999999999
#
# number of rings (size 3 to 8) (size 9 to 14) (size 15 to 20)
#    0.000    0.571    4.286    3.857    2.000    4.000 
#    2.571    0.000    0.000    0.000    0.000    0.000 
#    0.000    0.000    0.000    0.000    0.000    0.000 
#
# Total GULP energy -312551.640706 kJ/mol
# GULP energy per Si atom -5581.279298 kJ/mol
# Density = 2.203218 g / cm^3
# Si number density = 22.082441 Si / 1000 Ang^3
#
#
#
# Elastic Constant Matrix: (Units=GPa)
#
#
# Indices 1 2 3 4 5 6 
#
# 1 103.9081 19.0350 28.7361 0.0000 0.0000 0.0000
# 2 19.0350 85.3442 45.4781 0.0000 0.0000 0.0000
# 3 28.7361 45.4781 130.9628 0.0000 0.0000 0.0000
# 4 0.0000 0.0000 0.0000 32.5709 0.0000 0.0000
# 5 0.0000 0.0000 0.0000 0.0000 27.2660 0.0000
# 6 0.0000 0.0000 0.0000 0.0000 0.0000 32.0781
#
#
#
# Elastic Compliance Matrix: (Units=1/GPa)
#
#
# Indices 1 2 3 4 5 6 
#
# 1 0.010371 -0.001350 -0.001807 0.000000 0.000000 0.000000
# 2 -0.001350 0.014554 -0.004758 0.000000 0.000000 0.000000
# 3 -0.001807 -0.004758 0.009684 0.000000 0.000000 0.000000
# 4 0.000000 0.000000 0.000000 0.030702 0.000000 0.000000
# 5 0.000000 0.000000 0.000000 0.000000 0.036676 0.000000
# 6 0.000000 0.000000 0.000000 0.000000 0.000000 0.031174
#
#
# Mechanical properties :
#
#
# Convention : Reuss Voigt Hill
#
# Bulk Modulus (GPa) = 53.24932 56.30150 54.77541
# Shear Modulus (GPa) = 32.20614 33.51406 32.86010
#
# Velocity S-wave (km/s) = 3.82311 3.89997 3.86173
# Velocity P-wave (km/s) = 6.60715 6.76986 6.68900
#
# Compressibility (1/GPa) = 0.01877958
#
# Stress axis : x y z
#
# Youngs Moduli (GPa) = 96.42362 68.71120 103.25987
#
# Poissons Ratio (x) = 0.09279 0.18656
# Poissons Ratio (y) = 0.13021 0.49127
# Poissons Ratio (z) = 0.17421 0.32690
#
# Static dielectric constant tensor:
#      x y z
#    x 1.876920 0.000000 0.000000 
#    y 0.000000 1.841540 0.000000 
#    z 0.000000 0.000000 1.834620 
# 
# From -- ./inp_files/13086.got.cif
#   From: 2010.05.17/outbox.cif.g08.bks.cpg/sg56_7_cif.got.tgz:13086.got - 2010.06.03 13:42:01.
