data_PCOD9433282
_publ_section_title
;
Structure prediction by ZEFSAII (Michael W. Deem and Ramdas Pophale) SiO2 
 PCOD9433282
Probable space group: P C C N
;
_chemical_formula_sum "Si O2"
_cell_formula_units_Z 32
_cell_length_a 12.391625
_cell_length_b 6.879111
_cell_length_c 15.320140
_cell_angle_alpha 90.000000
_cell_angle_beta 90.000000
_cell_angle_gamma 90.000000
_cell_volume 1305.940268
_symmetry_space_group_name_H-M "P C C N"
_symmetry_group_IT_number 56
_symmetry_cell_setting 'orthorhombic'
loop_
_space_group_symop_operation_xyz
x,y,z
1/2-x,1/2-y,z
1/2+x,-y,1/2-z
-x,1/2+y,1/2-z
-x,-y,-z
1/2+x,1/2+y,-z
1/2-x,y,1/2+z
x,1/2-y,1/2+z
loop_
_atom_site_type_symbol
_atom_site_label
_atom_site_fract_x
_atom_site_fract_y
_atom_site_fract_z
Si Si1 0.914655 0.557406 0.590542
Si Si2 0.161494 0.050013 0.723829
Si Si3 0.653100 0.353814 0.846047
Si Si4 0.529426 0.811632 0.943358
O O1 0.853537 0.615177 0.677745
O O2 0.890268 0.684107 0.505228
O O3 0.040119 0.606078 0.612192
O O4 0.925572 0.327261 0.572997
O O5 0.213197 0.459736 0.694281
O O6 0.083965 0.128464 0.647751
O O7 0.134359 0.816349 0.724654
O O8 0.750000 0.250000 0.901539
O O9 0.500000 0.000000 0.000000
#
# Coordination Sequence:
#
# PCOD9433282 Si02
#       4
#     8   8   8   8
#     4  11  21  39  71  96 132 174 221 267 341 397
#     4   9  20  40  68  91 136 174 211 274 332 391
#     4   8  19  39  66  91 132 174 210 278 326 376
#     4  11  22  37  66  98 124 170 224 268 330 399
#
# _framework density 24.503416999999999
#
# number of rings (size 3 to 8) (size 9 to 14) (size 15 to 20)
#    1.500    0.500    2.500    1.500    0.000    1.000 
#    0.000    0.000   88.000    0.000    0.000    0.000 
#    0.000    0.000    0.000    0.000    0.000    0.000 
#
# Total GULP energy -178333.497621 kJ/mol
# GULP energy per Si atom -5572.921801 kJ/mol
# Density = 2.444765 g / cm^3
# Si number density = 24.503417 Si / 1000 Ang^3
#
#
#
# Elastic Constant Matrix: (Units=GPa)
#
#
# Indices 1 2 3 4 5 6 
#
# 1 65.9237 15.9857 17.8818 0.0000 0.0000 0.0000
# 2 15.9857 109.6933 47.6643 0.0000 0.0000 0.0000
# 3 17.8818 47.6643 161.9887 0.0000 0.0000 0.0000
# 4 0.0000 0.0000 0.0000 31.1630 0.0000 0.0000
# 5 0.0000 0.0000 0.0000 0.0000 12.4135 0.0000
# 6 0.0000 0.0000 0.0000 0.0000 0.0000 32.1524
#
#
#
# Elastic Compliance Matrix: (Units=1/GPa)
#
#
# Indices 1 2 3 4 5 6 
#
# 1 0.015937 -0.001786 -0.001234 0.000000 0.000000 0.000000
# 2 -0.001786 0.010653 -0.002937 0.000000 0.000000 0.000000
# 3 -0.001234 -0.002937 0.007174 0.000000 0.000000 0.000000
# 4 0.000000 0.000000 0.000000 0.032089 0.000000 0.000000
# 5 0.000000 0.000000 0.000000 0.000000 0.080557 0.000000
# 6 0.000000 0.000000 0.000000 0.000000 0.000000 0.031102
#
#
# Mechanical properties :
#
#
# Convention : Reuss Voigt Hill
#
# Bulk Modulus (GPa) = 45.76922 55.62991 50.69957
# Shear Modulus (GPa) = 25.41816 32.21740 28.81778
#
# Velocity S-wave (km/s) = 3.22426 3.62997 3.43311
# Velocity P-wave (km/s) = 5.70792 6.34989 6.03744
#
# Compressibility (1/GPa) = 0.02184874
#
# Stress axis : x y z
#
# Youngs Moduli (GPa) = 62.74763 93.87002 139.39698
#
# Poissons Ratio (x) = 0.16770 0.17196
# Poissons Ratio (y) = 0.11210 0.40946
# Poissons Ratio (z) = 0.07741 0.27573
#
# Static dielectric constant tensor:
#      x y z
#    x 1.982730 0.000000 0.000000 
#    y 0.000000 2.167860 0.000000 
#    z 0.000000 0.000000 1.949800 
# 
# From -- ./inp_files/12506.got.cif
#   From: 2010.05.17/outbox.cif.g08.bks.cpg/sg56_7_cif.got.tgz:12506.got - 2010.06.03 13:42:01.
