data_PCOD9433284
_publ_section_title
;
Structure prediction by ZEFSAII (Michael W. Deem and Ramdas Pophale) SiO2 
 PCOD9433284
Probable space group: P C C N
;
_chemical_formula_sum "Si O2"
_cell_formula_units_Z 36
_cell_length_a 5.802548
_cell_length_b 13.353258
_cell_length_c 21.972793
_cell_angle_alpha 90.000000
_cell_angle_beta 90.000000
_cell_angle_gamma 90.000000
_cell_volume 1702.516173
_symmetry_space_group_name_H-M "P C C N"
_symmetry_group_IT_number 56
_symmetry_cell_setting 'orthorhombic'
loop_
_space_group_symop_operation_xyz
x,y,z
1/2-x,1/2-y,z
1/2+x,-y,1/2-z
-x,1/2+y,1/2-z
-x,-y,-z
1/2+x,1/2+y,-z
1/2-x,y,1/2+z
x,1/2-y,1/2+z
loop_
_atom_site_type_symbol
_atom_site_label
_atom_site_fract_x
_atom_site_fract_y
_atom_site_fract_z
Si Si1 0.255091 0.129707 0.999069
Si Si2 0.536567 0.496241 0.598628
Si Si3 0.107644 0.844892 0.912543
Si Si4 0.337910 0.467398 0.722531
Si Si5 0.750000 0.750000 0.317980
O O1 0.250000 0.250000 0.000774
O O2 0.419816 0.074989 0.047906
O O3 0.005680 0.105045 0.028029
O O4 0.346225 0.089684 0.934863
O O5 0.742438 0.426371 0.622228
O O6 0.362674 0.511280 0.653666
O O7 0.250000 0.750000 0.935081
O O8 0.933808 0.798570 0.863972
O O9 0.581589 0.502472 0.753310
O O10 0.341780 0.345465 0.719135
#
# Coordination Sequence:
#
# PCOD9433284 Si02
#       5
#     8   8   8   8   4
#     4  11  21  40  65 104 141 176 228 292 370 429
#     4  11  24  39  69 101 137 184 237 293 356 424
#     4  12  18  38  70 101 131 183 239 291 340 428
#     4  12  27  47  74 104 141 189 248 300 356 421
#     4  12  24  44  76  98 136 184 258 290 344 432
#
# _framework density 21.145173
#
# number of rings (size 3 to 8) (size 9 to 14) (size 15 to 20)
#    0.000    0.444    7.778    2.000    0.000    0.000 
#    2.000    0.000    4.889    0.000    0.000    0.000 
#    0.000    0.000    0.000    0.000    0.000    0.000 
#
# Total GULP energy -200700.595826 kJ/mol
# GULP energy per Si atom -5575.016551 kJ/mol
# Density = 2.109705 g / cm^3
# Si number density = 21.145173 Si / 1000 Ang^3
#
#
#
# Elastic Constant Matrix: (Units=GPa)
#
#
# Indices 1 2 3 4 5 6 
#
# 1 107.6160 49.2827 40.4321 0.0000 0.0000 0.0000
# 2 49.2827 107.3791 52.0879 0.0000 0.0000 0.0000
# 3 40.4321 52.0879 80.1464 0.0000 0.0000 0.0000
# 4 0.0000 0.0000 0.0000 19.1073 0.0000 0.0000
# 5 0.0000 0.0000 0.0000 0.0000 25.7666 0.0000
# 6 0.0000 0.0000 0.0000 0.0000 0.0000 26.2300
#
#
#
# Elastic Compliance Matrix: (Units=1/GPa)
#
#
# Indices 1 2 3 4 5 6 
#
# 1 0.012497 -0.003910 -0.003763 0.000000 0.000000 0.000000
# 2 -0.003910 0.014824 -0.007662 0.000000 0.000000 0.000000
# 3 -0.003763 -0.007662 0.019355 0.000000 0.000000 0.000000
# 4 0.000000 0.000000 0.000000 0.052336 0.000000 0.000000
# 5 0.000000 0.000000 0.000000 0.000000 0.038810 0.000000
# 6 0.000000 0.000000 0.000000 0.000000 0.000000 0.038124
#
#
# Mechanical properties :
#
#
# Convention : Reuss Voigt Hill
#
# Bulk Modulus (GPa) = 62.47697 64.30522 63.39110
# Shear Modulus (GPa) = 23.59035 24.44335 24.01685
#
# Velocity S-wave (km/s) = 3.34374 3.40366 3.37383
# Velocity P-wave (km/s) = 6.67220 6.77671 6.72466
#
# Compressibility (1/GPa) = 0.01600590
#
# Stress axis : x y z
#
# Youngs Moduli (GPa) = 80.02071 67.45861 51.66627
#
# Poissons Ratio (x) = 0.26377 0.19443
# Poissons Ratio (y) = 0.31289 0.39585
# Poissons Ratio (z) = 0.30113 0.51684
#
# Static dielectric constant tensor:
#      x y z
#    x 1.899650 0.000000 0.000000 
#    y 0.000000 1.760960 0.000000 
#    z 0.000000 0.000000 1.793000 
# 
# From -- ./inp_files/19874.got.cif
#   From: 2010.05.17/outbox.cif.g08.bks.cpg/sg56_10_cif.got.tgz:19874.got - 2010.06.03 13:42:01.
