data_PCOD9433119
_publ_section_title
;
Structure prediction by ZEFSAII (Michael W. Deem and Ramdas Pophale) SiO2 
 PCOD9433119
Probable space group: P C C N
;
_chemical_formula_sum "Si O2"
_cell_formula_units_Z 60
_cell_length_a 29.016540
_cell_length_b 11.086518
_cell_length_c 8.805047
_cell_angle_alpha 90.000000
_cell_angle_beta 90.000000
_cell_angle_gamma 90.000000
_cell_volume 2832.516640
_symmetry_space_group_name_H-M "P C C N"
_symmetry_group_IT_number 56
_symmetry_cell_setting 'orthorhombic'
loop_
_space_group_symop_operation_xyz
x,y,z
1/2-x,1/2-y,z
1/2+x,-y,1/2-z
-x,1/2+y,1/2-z
-x,-y,-z
1/2+x,1/2+y,-z
1/2-x,y,1/2+z
x,1/2-y,1/2+z
loop_
_atom_site_type_symbol
_atom_site_label
_atom_site_fract_x
_atom_site_fract_y
_atom_site_fract_z
Si Si1 0.395141 0.640905 0.802982
Si Si2 0.778064 0.488123 0.201149
Si Si3 0.843191 0.157326 0.883218
Si Si4 0.250000 0.750000 0.981566
Si Si5 0.111844 0.116933 0.653993
Si Si6 0.444422 0.294378 0.370671
Si Si7 0.284787 0.360652 0.591078
Si Si8 0.500697 0.374253 0.090345
O O1 0.375802 0.757660 0.716354
O O2 0.388349 0.523256 0.699084
O O3 0.448334 0.652549 0.848999
O O4 0.366834 0.624510 0.958737
O O5 0.824771 0.456873 0.290222
O O6 0.760287 0.368180 0.117447
O O7 0.738305 0.532492 0.312667
O O8 0.787147 0.591755 0.079843
O O9 0.795919 0.227718 0.921951
O O10 0.087625 0.136981 0.491274
O O11 0.083992 0.191254 0.781359
O O12 0.164029 0.164407 0.647942
O O13 0.467386 0.373975 0.237873
O O14 0.482811 0.227813 0.474047
O O15 0.250000 0.250000 0.601669
O O16 0.500000 0.500000 0.000000
#
# Coordination Sequence:
#
# PCOD9433119 Si02
#       8
#     8   8   8   4   8   8   8   8
#     4  12  26  46  72 110 146 183 247 298 367 452
#     4  12  26  44  71  99 143 192 236 297 362 420
#     4  12  26  42  70 106 146 191 232 296 361 434
#     4  12  22  44  68  98 146 182 234 288 362 424
#     4  11  26  47  73 105 140 192 248 297 358 441
#     4  10  25  49  76 100 143 190 241 303 372 441
#     4  12  29  47  69 102 144 195 246 298 349 428
#     4  11  23  50  74 108 143 187 236 308 377 438
#
# _framework density 21.182577999999999
#
# number of rings (size 3 to 8) (size 9 to 14) (size 15 to 20)
#    0.000    0.533    4.000    3.200    3.733    1.600 
#    2.400    0.000    0.000    0.000    0.000    0.000 
#    0.000    0.000    0.000    0.000    0.000    0.000 
#
# Total GULP energy -336009.353940 kJ/mol
# GULP energy per Si atom -5600.155899 kJ/mol
# Density = 2.113437 g / cm^3
# Si number density = 21.182578 Si / 1000 Ang^3
#
#
#
# Elastic Constant Matrix: (Units=GPa)
#
#
# Indices 1 2 3 4 5 6 
#
# 1 125.9318 36.9516 41.1767 0.0000 0.0000 0.0000
# 2 36.9516 52.3102 28.2097 0.0000 0.0000 0.0000
# 3 41.1767 28.2097 113.6032 0.0000 0.0000 0.0000
# 4 0.0000 0.0000 0.0000 14.1829 0.0000 0.0000
# 5 0.0000 0.0000 0.0000 0.0000 1.6506 0.0000
# 6 0.0000 0.0000 0.0000 0.0000 0.0000 17.1035
#
#
#
# Elastic Compliance Matrix: (Units=1/GPa)
#
#
# Indices 1 2 3 4 5 6 
#
# 1 0.010500 -0.006194 -0.002268 0.000000 0.000000 0.000000
# 2 -0.006194 0.025727 -0.004143 0.000000 0.000000 0.000000
# 3 -0.002268 -0.004143 0.010653 0.000000 0.000000 0.000000
# 4 0.000000 0.000000 0.000000 0.070508 0.000000 0.000000
# 5 0.000000 0.000000 0.000000 0.000000 0.605831 0.000000
# 6 0.000000 0.000000 0.000000 0.000000 0.000000 0.058467
#
#
# Mechanical properties :
#
#
# Convention : Reuss Voigt Hill
#
# Bulk Modulus (GPa) = 46.14738 56.05792 51.10265
# Shear Modulus (GPa) = 6.14161 18.95455 12.54808
#
# Velocity S-wave (km/s) = 1.70460 2.99460 2.43652
# Velocity P-wave (km/s) = 5.07021 6.20310 5.66504
#
# Compressibility (1/GPa) = 0.02166970
#
# Stress axis : x y z
#
# Youngs Moduli (GPa) = 95.24012 38.87030 93.86721
#
# Poissons Ratio (x) = 0.24077 0.21286
# Poissons Ratio (y) = 0.58993 0.38892
# Poissons Ratio (z) = 0.21597 0.16105
#
# Static dielectric constant tensor:
#      x y z
#    x 1.740860 0.000000 0.000000 
#    y 0.000000 1.727950 0.000000 
#    z 0.000000 0.000000 1.774630 
# 
# From -- ./inp_files/4979.got.cif
#   From: 2010.05.17/outbox.cif.g08.bks.cpg/sg56_3_cif.got.tgz:4979.got - 2010.06.03 13:42:01.
