data_PCOD9433268
_publ_section_title
;
Structure prediction by ZEFSAII (Michael W. Deem and Ramdas Pophale) SiO2 
 PCOD9433268
Probable space group: P C C N
;
_chemical_formula_sum "Si O2"
_cell_formula_units_Z 40
_cell_length_a 7.698966
_cell_length_b 14.101900
_cell_length_c 18.691440
_cell_angle_alpha 90.000000
_cell_angle_beta 90.000000
_cell_angle_gamma 90.000000
_cell_volume 2029.330550
_symmetry_space_group_name_H-M "P C C N"
_symmetry_group_IT_number 56
_symmetry_cell_setting 'orthorhombic'
loop_
_space_group_symop_operation_xyz
x,y,z
1/2-x,1/2-y,z
1/2+x,-y,1/2-z
-x,1/2+y,1/2-z
-x,-y,-z
1/2+x,1/2+y,-z
1/2-x,y,1/2+z
x,1/2-y,1/2+z
loop_
_atom_site_type_symbol
_atom_site_label
_atom_site_fract_x
_atom_site_fract_y
_atom_site_fract_z
Si Si1 0.243146 0.455473 0.134990
Si Si2 0.533746 0.890648 0.479418
Si Si3 0.574669 0.356501 0.170551
Si Si4 0.952765 0.357056 0.222222
Si Si5 0.622772 0.338880 0.879128
O O1 0.282336 0.393332 0.062905
O O2 0.412035 0.425916 0.182605
O O3 0.261587 0.565329 0.115761
O O4 0.074483 0.425227 0.176995
O O5 0.402693 0.861328 0.415569
O O6 0.497863 0.832980 0.550857
O O7 0.500000 0.000000 0.500000
O O8 0.750479 0.383142 0.210569
O O9 0.527301 0.249790 0.192124
O O10 0.986485 0.351335 0.306578
O O11 0.750000 0.250000 0.872057
#
# Coordination Sequence:
#
# PCOD9433268 Si02
#       5
#     8   8   8   8   8
#     4   9  22  40  67  84 127 170 208 251 315 383
#     4   8  19  39  63  83 124 165 198 260 309 360
#     4   9  20  40  63  89 123 162 208 255 310 378
#     4  11  21  37  67  93 120 168 213 248 319 385
#     4  11  22  37  64 100 127 163 212 269 320 363
#
# _framework density 19.710934000000002
#
# number of rings (size 3 to 8) (size 9 to 14) (size 15 to 20)
#    1.200    1.200    2.000    0.600    5.600    0.000 
#    0.000    4.000   17.600    0.000    0.000    0.000 
#    0.000    0.000    0.000    0.000    0.000    0.000 
#
# Total GULP energy -222705.861794 kJ/mol
# GULP energy per Si atom -5567.646545 kJ/mol
# Density = 1.966607 g / cm^3
# Si number density = 19.710934 Si / 1000 Ang^3
#
#
#
# Elastic Constant Matrix: (Units=GPa)
#
#
# Indices 1 2 3 4 5 6 
#
# 1 37.6688 27.2240 5.5725 0.0000 0.0000 0.0000
# 2 27.2240 64.1481 1.5339 0.0000 0.0000 0.0000
# 3 5.5725 1.5339 132.8856 0.0000 0.0000 0.0000
# 4 0.0000 0.0000 0.0000 28.3482 0.0000 0.0000
# 5 0.0000 0.0000 0.0000 0.0000 17.3065 0.0000
# 6 0.0000 0.0000 0.0000 0.0000 0.0000 26.0235
#
#
#
# Elastic Compliance Matrix: (Units=1/GPa)
#
#
# Indices 1 2 3 4 5 6 
#
# 1 0.038561 -0.016331 -0.001429 0.000000 0.000000 0.000000
# 2 -0.016331 0.022510 0.000425 0.000000 0.000000 0.000000
# 3 -0.001429 0.000425 0.007580 0.000000 0.000000 0.000000
# 4 0.000000 0.000000 0.000000 0.035276 0.000000 0.000000
# 5 0.000000 0.000000 0.000000 0.000000 0.057782 0.000000
# 6 0.000000 0.000000 0.000000 0.000000 0.000000 0.038427
#
#
# Mechanical properties :
#
#
# Convention : Reuss Voigt Hill
#
# Bulk Modulus (GPa) = 29.42732 33.70702 31.56717
# Shear Modulus (GPa) = 20.31433 27.69378 24.00405
#
# Velocity S-wave (km/s) = 3.21380 3.75239 3.49349
# Velocity P-wave (km/s) = 5.36033 5.99264 5.68528
#
# Compressibility (1/GPa) = 0.03398203
#
# Stress axis : x y z
#
# Youngs Moduli (GPa) = 25.93275 44.42561 131.92142
#
# Poissons Ratio (x) = 0.72551 0.18845
# Poissons Ratio (y) = 0.42351 -0.05607
# Poissons Ratio (z) = 0.03705 -0.01888
#
# Static dielectric constant tensor:
#      x y z
#    x 1.683530 0.000000 0.000000 
#    y 0.000000 1.688920 0.000000 
#    z 0.000000 0.000000 1.739130 
# 
# From -- ./inp_files/10345.got.cif
#   From: 2010.05.17/outbox.cif.g08.bks.cpg/sg56_6_cif.got.tgz:10345.got - 2010.06.03 13:42:01.
