data_PCOD9433064
_publ_section_title
;
Structure prediction by ZEFSAII (Michael W. Deem and Ramdas Pophale) SiO2 
 PCOD9433064
Probable space group: P C C N
;
_chemical_formula_sum "Si O2"
_cell_formula_units_Z 32
_cell_length_a 10.423211
_cell_length_b 13.953275
_cell_length_c 9.394987
_cell_angle_alpha 90.000000
_cell_angle_beta 90.000000
_cell_angle_gamma 90.000000
_cell_volume 1366.387457
_symmetry_space_group_name_H-M "P C C N"
_symmetry_group_IT_number 56
_symmetry_cell_setting 'orthorhombic'
loop_
_space_group_symop_operation_xyz
x,y,z
1/2-x,1/2-y,z
1/2+x,-y,1/2-z
-x,1/2+y,1/2-z
-x,-y,-z
1/2+x,1/2+y,-z
1/2-x,y,1/2+z
x,1/2-y,1/2+z
loop_
_atom_site_type_symbol
_atom_site_label
_atom_site_fract_x
_atom_site_fract_y
_atom_site_fract_z
Si Si1 0.331369 0.431764 0.815118
Si Si2 0.750000 0.750000 0.313982
Si Si3 0.985251 0.321894 0.158988
Si Si4 0.697401 0.438385 0.458656
Si Si5 0.750000 0.250000 0.299628
O O1 0.231125 0.345659 0.780637
O O2 0.464994 0.374723 0.803458
O O3 0.338814 0.499999 0.678205
O O4 0.288749 0.494555 0.946674
O O5 0.617752 0.726169 0.395542
O O6 0.876479 0.246941 0.202393
O O7 0.919727 0.398206 0.054262
O O8 0.759714 0.343020 0.395899
#
# Coordination Sequence:
#
# PCOD9433064 Si02
#       5
#     8   4   8   8   4
#     4  10  25  46  77 107 149 193 249 303 370 443
#     4   8  24  48  72 110 150 188 246 308 372 428
#     4  10  24  50  72 109 147 199 240 316 360 447
#     4  12  24  47  75 112 145 200 246 307 374 442
#     4  12  26  46  76 110 156 190 252 306 376 444
#
# _framework density 23.419419999999999
#
# number of rings (size 3 to 8) (size 9 to 14) (size 15 to 20)
#    1.500    0.000    2.500    1.500    0.000    8.000 
#    0.000    0.000    0.000    0.000    0.000    0.000 
#    0.000    0.000    0.000    0.000    0.000    0.000 
#
# Total GULP energy -178522.902510 kJ/mol
# GULP energy per Si atom -5578.840703 kJ/mol
# Density = 2.336612 g / cm^3
# Si number density = 23.419420 Si / 1000 Ang^3
#
#
#
# Elastic Constant Matrix: (Units=GPa)
#
#
# Indices 1 2 3 4 5 6 
#
# 1 129.8536 20.4464 20.8072 0.0000 0.0000 0.0000
# 2 20.4464 103.3773 5.5656 0.0000 0.0000 0.0000
# 3 20.8072 5.5656 41.1151 0.0000 0.0000 0.0000
# 4 0.0000 0.0000 0.0000 -6.6697 0.0000 0.0000
# 5 0.0000 0.0000 0.0000 0.0000 -0.9623 0.0000
# 6 0.0000 0.0000 0.0000 0.0000 0.0000 45.4479
#
#
#
# Elastic Compliance Matrix: (Units=1/GPa)
#
#
# Indices 1 2 3 4 5 6 
#
# 1 0.008599 -0.001477 -0.004152 0.000000 0.000000 0.000000
# 2 -0.001477 0.009998 -0.000606 0.000000 0.000000 0.000000
# 3 -0.004152 -0.000606 0.026505 0.000000 0.000000 0.000000
# 4 0.000000 0.000000 0.000000 -0.149931 0.000000 0.000000
# 5 0.000000 0.000000 0.000000 0.000000 -1.039156 0.000000
# 6 0.000000 0.000000 0.000000 0.000000 0.000000 0.022003
#
#
# Mechanical properties :
#
#
# Convention : Reuss Voigt Hill
#
# Bulk Modulus (GPa) = 30.64429 40.88715 35.76572
# Shear Modulus (GPa) = -4.55110 22.73163 9.09026
#
# Velocity S-wave (km/s) = -1.39554 3.11888 1.97229
# Velocity P-wave (km/s) = 3.24295 5.51964 4.52676
#
# Compressibility (1/GPa) = 0.03263251
#
# Stress axis : x y z
#
# Youngs Moduli (GPa) = 116.29505 100.01918 37.72875
#
# Poissons Ratio (x) = 0.14775 0.15664
# Poissons Ratio (y) = 0.17179 0.02286
# Poissons Ratio (z) = 0.48282 0.06060
#
# Static dielectric constant tensor:
#      x y z
#    x 1.927770 0.000000 0.000000 
#    y 0.000000 1.971030 0.000000 
#    z 0.000000 0.000000 1.896540 
# 
# From -- ./inp_files/2455.got.cif
#   From: 2010.05.17/outbox.cif.g08.bks.cpg/sg56_2_cif.got.tgz:2455.got - 2010.06.03 13:42:01.
