data_PCOD9433433
_publ_section_title
;
Structure prediction by ZEFSAII (Michael W. Deem and Ramdas Pophale) SiO2 
 PCOD9433433
Probable space group: P C C N
;
_chemical_formula_sum "Si O2"
_cell_formula_units_Z 32
_cell_length_a 9.991832
_cell_length_b 12.412485
_cell_length_c 10.200725
_cell_angle_alpha 90.000000
_cell_angle_beta 90.000000
_cell_angle_gamma 90.000000
_cell_volume 1265.129258
_symmetry_space_group_name_H-M "P C C N"
_symmetry_group_IT_number 56
_symmetry_cell_setting 'orthorhombic'
loop_
_space_group_symop_operation_xyz
x,y,z
1/2-x,1/2-y,z
1/2+x,-y,1/2-z
-x,1/2+y,1/2-z
-x,-y,-z
1/2+x,1/2+y,-z
1/2-x,y,1/2+z
x,1/2-y,1/2+z
loop_
_atom_site_type_symbol
_atom_site_label
_atom_site_fract_x
_atom_site_fract_y
_atom_site_fract_z
Si Si1 0.960880 0.783548 0.782048
Si Si2 0.973892 0.563866 0.869194
Si Si3 0.295794 0.000246 0.713880
Si Si4 0.618411 0.177741 0.461746
O O1 0.014739 0.733447 0.644057
O O2 0.123391 0.574767 0.813877
O O3 0.859440 0.882091 0.761250
O O4 0.068691 0.820917 0.889803
O O5 0.906741 0.680571 0.864689
O O6 0.863570 0.498952 0.786043
O O7 0.000000 0.500000 0.000000
O O8 0.345425 0.944780 0.579235
O O9 0.750000 0.250000 0.447725
#
# Coordination Sequence:
#
# PCOD9433433 Si02
#       4
#     8   8   8   8
#     4  11  23  41  64  96 132 175 222 277 336 401
#     4  11  25  44  68  97 136 176 223 279 338 403
#     4  11  24  43  67  98 130 175 224 275 335 403
#     4  11  23  40  65  95 133 176 224 277 335 401
#
# _framework density 25.293858
#
# number of rings (size 3 to 8) (size 9 to 14) (size 15 to 20)
#    0.000    1.000    0.000    6.750    0.000   10.000 
#    0.000    7.500    0.000    0.000    0.000    0.000 
#    0.000    0.000    0.000    0.000    0.000    0.000 
#
# Total GULP energy -178603.716189 kJ/mol
# GULP energy per Si atom -5581.366131 kJ/mol
# Density = 2.523629 g / cm^3
# Si number density = 25.293858 Si / 1000 Ang^3
#
#
#
# Elastic Constant Matrix: (Units=GPa)
#
#
# Indices 1 2 3 4 5 6 
#
# 1 107.2072 6.8015 24.0106 0.0000 0.0000 0.0000
# 2 6.8015 130.7183 24.4156 0.0000 0.0000 0.0000
# 3 24.0106 24.4156 82.8501 0.0000 0.0000 0.0000
# 4 0.0000 0.0000 0.0000 43.5383 0.0000 0.0000
# 5 0.0000 0.0000 0.0000 0.0000 22.4124 0.0000
# 6 0.0000 0.0000 0.0000 0.0000 0.0000 23.3520
#
#
#
# Elastic Compliance Matrix: (Units=1/GPa)
#
#
# Indices 1 2 3 4 5 6 
#
# 1 0.009975 0.000022 -0.002897 0.000000 0.000000 0.000000
# 2 0.000022 0.008096 -0.002392 0.000000 0.000000 0.000000
# 3 -0.002897 -0.002392 0.013615 0.000000 0.000000 0.000000
# 4 0.000000 0.000000 0.000000 0.022968 0.000000 0.000000
# 5 0.000000 0.000000 0.000000 0.000000 0.044618 0.000000
# 6 0.000000 0.000000 0.000000 0.000000 0.000000 0.042823
#
#
# Mechanical properties :
#
#
# Convention : Reuss Voigt Hill
#
# Bulk Modulus (GPa) = 47.27982 47.91455 47.59719
# Shear Modulus (GPa) = 31.31261 35.56374 33.43817
#
# Velocity S-wave (km/s) = 3.52227 3.75376 3.63986
# Velocity P-wave (km/s) = 5.93925 6.14589 6.04345
#
# Compressibility (1/GPa) = 0.02115067
#
# Stress axis : x y z
#
# Youngs Moduli (GPa) = 100.24816 123.52232 73.45021
#
# Poissons Ratio (x) = -0.00274 0.21282
# Poissons Ratio (y) = -0.00222 0.17571
# Poissons Ratio (z) = 0.29046 0.29549
#
# Static dielectric constant tensor:
#      x y z
#    x 1.735220 0.000000 0.000000 
#    y 0.000000 2.143550 0.000000 
#    z 0.000000 0.000000 2.058080 
# 
# From -- ./inp_files/6786.got.cif
#   From: 2010.05.17/outbox.cif.g08.bks.cpg/sg56_4_cif.got.tgz:6786.got - 2010.06.03 13:42:01.
