data_PCOD9433355
_publ_section_title
;
Structure prediction by ZEFSAII (Michael W. Deem and Ramdas Pophale) SiO2 
 PCOD9433355
Probable space group: P C C N
;
_chemical_formula_sum "Si O2"
_cell_formula_units_Z 48
_cell_length_a 27.338680
_cell_length_b 9.345914
_cell_length_c 8.927693
_cell_angle_alpha 90.000000
_cell_angle_beta 90.000000
_cell_angle_gamma 90.000000
_cell_volume 2281.069773
_symmetry_space_group_name_H-M "P C C N"
_symmetry_group_IT_number 56
_symmetry_cell_setting 'orthorhombic'
loop_
_space_group_symop_operation_xyz
x,y,z
1/2-x,1/2-y,z
1/2+x,-y,1/2-z
-x,1/2+y,1/2-z
-x,-y,-z
1/2+x,1/2+y,-z
1/2-x,y,1/2+z
x,1/2-y,1/2+z
loop_
_atom_site_type_symbol
_atom_site_label
_atom_site_fract_x
_atom_site_fract_y
_atom_site_fract_z
Si Si1 0.875175 0.180137 0.000395
Si Si2 0.559321 0.699654 0.694643
Si Si3 0.357117 0.960462 0.828730
Si Si4 0.803389 0.682056 0.988409
Si Si5 0.354674 0.090085 0.318899
Si Si6 0.508280 0.333478 0.025829
O O1 0.857803 0.338458 0.044012
O O2 0.933627 0.185533 0.027481
O O3 0.854811 0.071226 0.125627
O O4 0.860740 0.116558 0.835470
O O5 0.595971 0.567806 0.663751
O O6 0.591366 0.844562 0.701965
O O7 0.513350 0.718636 0.587823
O O8 0.531323 0.687057 0.846646
O O9 0.312056 0.064643 0.878472
O O10 0.750000 0.750000 0.974650
O O11 0.823634 0.621537 0.830961
O O12 0.835613 0.816008 0.041692
O O13 0.500000 0.500000 0.000000
#
# Coordination Sequence:
#
# PCOD9433355 Si02
#       6
#     8   8   8   8   8   8
#     4  12  24  42  65 103 145 188 229 286 344 399
#     4  11  22  41  61  93 133 191 235 279 322 393
#     4  11  24  42  66  98 140 182 229 284 352 405
#     4  11  24  44  72 101 126 171 222 281 351 434
#     4  11  22  42  69  96 137 172 225 281 344 413
#     4  12  23  39  61  96 140 188 247 278 318 393
#
# _framework density 21.042759
#
# number of rings (size 3 to 8) (size 9 to 14) (size 15 to 20)
#    0.000    0.667    3.333    6.500    0.000    0.667 
#    0.000    1.667    0.000    6.000    0.000    0.000 
#    0.000    0.000    0.000    0.000    0.000    0.000 
#
# Total GULP energy -267589.875794 kJ/mol
# GULP energy per Si atom -5574.789079 kJ/mol
# Density = 2.099487 g / cm^3
# Si number density = 21.042759 Si / 1000 Ang^3
#
#
#
# Elastic Constant Matrix: (Units=GPa)
#
#
# Indices 1 2 3 4 5 6 
#
# 1 95.8516 27.8604 46.2100 0.0000 0.0000 0.0000
# 2 27.8604 112.4476 61.2641 0.0000 0.0000 0.0000
# 3 46.2100 61.2641 110.3546 0.0000 0.0000 0.0000
# 4 0.0000 0.0000 0.0000 52.7800 0.0000 0.0000
# 5 0.0000 0.0000 0.0000 0.0000 26.9001 0.0000
# 6 0.0000 0.0000 0.0000 0.0000 0.0000 28.4659
#
#
#
# Elastic Compliance Matrix: (Units=1/GPa)
#
#
# Indices 1 2 3 4 5 6 
#
# 1 0.013082 -0.000368 -0.005274 0.000000 0.000000 0.000000
# 2 -0.000368 0.012760 -0.006929 0.000000 0.000000 0.000000
# 3 -0.005274 -0.006929 0.015117 0.000000 0.000000 0.000000
# 4 0.000000 0.000000 0.000000 0.018947 0.000000 0.000000
# 5 0.000000 0.000000 0.000000 0.000000 0.037175 0.000000
# 6 0.000000 0.000000 0.000000 0.000000 0.000000 0.035130
#
#
# Mechanical properties :
#
#
# Convention : Reuss Voigt Hill
#
# Bulk Modulus (GPa) = 63.22595 65.48032 64.35314
# Shear Modulus (GPa) = 30.74572 33.85047 32.29810
#
# Velocity S-wave (km/s) = 3.82659 4.01515 3.92200
# Velocity P-wave (km/s) = 7.04524 7.25814 7.15248
#
# Compressibility (1/GPa) = 0.01581629
#
# Stress axis : x y z
#
# Youngs Moduli (GPa) = 76.43953 78.37275 66.15088
#
# Poissons Ratio (x) = 0.02884 0.34886
# Poissons Ratio (y) = 0.02813 0.45839
# Poissons Ratio (z) = 0.40312 0.54308
#
# Static dielectric constant tensor:
#      x y z
#    x 1.703870 0.000000 0.000000 
#    y 0.000000 1.742480 0.000000 
#    z 0.000000 0.000000 2.077020 
# 
# From -- ./inp_files/5141.got.cif
#   From: 2010.05.17/outbox.cif.g08.bks.cpg/sg56_3_cif.got.tgz:5141.got - 2010.06.03 13:42:01.
