data_PCOD9433075
_publ_section_title
;
Structure prediction by ZEFSAII (Michael W. Deem and Ramdas Pophale) SiO2 
 PCOD9433075
Probable space group: P C C N
;
_chemical_formula_sum "Si O2"
_cell_formula_units_Z 48
_cell_length_a 24.862773
_cell_length_b 8.169892
_cell_length_c 8.960921
_cell_angle_alpha 90.000000
_cell_angle_beta 90.000000
_cell_angle_gamma 90.000000
_cell_volume 1820.197564
_symmetry_space_group_name_H-M "P C C N"
_symmetry_group_IT_number 56
_symmetry_cell_setting 'orthorhombic'
loop_
_space_group_symop_operation_xyz
x,y,z
1/2-x,1/2-y,z
1/2+x,-y,1/2-z
-x,1/2+y,1/2-z
-x,-y,-z
1/2+x,1/2+y,-z
1/2-x,y,1/2+z
x,1/2-y,1/2+z
loop_
_atom_site_type_symbol
_atom_site_label
_atom_site_fract_x
_atom_site_fract_y
_atom_site_fract_z
Si Si1 0.247732 0.567734 0.484868
Si Si2 0.934207 0.239461 0.338398
Si Si3 0.370988 0.568666 0.910570
Si Si4 0.103961 0.254388 0.092571
Si Si5 0.044368 0.426102 0.845204
Si Si6 0.206127 0.134749 0.260935
O O1 0.250000 0.750000 0.547287
O O2 0.192722 0.575543 0.388033
O O3 0.298181 0.508070 0.385120
O O4 0.233912 0.447986 0.619188
O O5 0.893830 0.308363 0.463056
O O6 0.950672 0.397125 0.234831
O O7 0.987084 0.146441 0.397828
O O8 0.902690 0.111344 0.236851
O O9 0.386512 0.394055 0.977145
O O10 0.058639 0.197201 0.207986
O O11 0.157294 0.240493 0.195909
O O12 0.085833 0.398329 0.982079
O O13 0.250000 0.250000 0.336180
#
# Coordination Sequence:
#
# PCOD9433075 Si02
#       6
#     8   8   8   8   8   8
#     4  11  26  44  72 104 142 185 236 299 361 432
#     4  11  24  44  70 102 142 185 239 291 362 430
#     4  10  25  43  66 100 138 181 232 289 354 427
#     4  10  25  43  66 100 136 183 231 288 357 424
#     4  11  24  43  69  99 142 181 233 293 354 431
#     4  11  26  45  71 104 141 187 237 296 360 435
#
# _framework density 26.370764999999999
#
# number of rings (size 3 to 8) (size 9 to 14) (size 15 to 20)
#    0.000    1.333    0.000    3.000   16.333    6.667 
#    0.000    0.000    0.000    0.000    0.000    0.000 
#    0.000    0.000    0.000    0.000    0.000    0.000 
#
# Total GULP energy -268800.405912 kJ/mol
# GULP energy per Si atom -5600.008457 kJ/mol
# Density = 2.631074 g / cm^3
# Si number density = 26.370765 Si / 1000 Ang^3
#
#
#
# Elastic Constant Matrix: (Units=GPa)
#
#
# Indices 1 2 3 4 5 6 
#
# 1 129.5294 40.6534 34.9311 0.0000 0.0000 0.0000
# 2 40.6534 67.2789 11.8744 0.0000 0.0000 0.0000
# 3 34.9311 11.8744 106.5894 0.0000 0.0000 0.0000
# 4 0.0000 0.0000 0.0000 49.0466 0.0000 0.0000
# 5 0.0000 0.0000 0.0000 0.0000 47.9102 0.0000
# 6 0.0000 0.0000 0.0000 0.0000 0.0000 33.7315
#
#
#
# Elastic Compliance Matrix: (Units=1/GPa)
#
#
# Indices 1 2 3 4 5 6 
#
# 1 0.010247 -0.005711 -0.002722 0.000000 0.000000 0.000000
# 2 -0.005711 0.018345 -0.000172 0.000000 0.000000 0.000000
# 3 -0.002722 -0.000172 0.010293 0.000000 0.000000 0.000000
# 4 0.000000 0.000000 0.000000 0.020389 0.000000 0.000000
# 5 0.000000 0.000000 0.000000 0.000000 0.020872 0.000000
# 6 0.000000 0.000000 0.000000 0.000000 0.000000 0.029646
#
#
# Mechanical properties :
#
#
# Convention : Reuss Voigt Hill
#
# Bulk Modulus (GPa) = 46.13715 53.14616 49.64165
# Shear Modulus (GPa) = 37.25046 40.53358 38.89202
#
# Velocity S-wave (km/s) = 3.76249 3.92480 3.84450
# Velocity P-wave (km/s) = 6.03396 6.38247 6.21066
#
# Compressibility (1/GPa) = 0.02167451
#
# Stress axis : x y z
#
# Youngs Moduli (GPa) = 97.59193 54.51109 97.15412
#
# Poissons Ratio (x) = 0.31133 0.26443
# Poissons Ratio (y) = 0.55737 0.01671
# Poissons Ratio (z) = 0.26562 0.00938
#
# Static dielectric constant tensor:
#      x y z
#    x 2.112090 0.000000 0.000000 
#    y 0.000000 2.133320 0.000000 
#    z 0.000000 0.000000 1.991640 
# 
# From -- ./inp_files/5140.got.cif
#   From: 2010.05.17/outbox.cif.g08.bks.cpg/sg56_3_cif.got.tgz:5140.got - 2010.06.03 13:42:01.
