data_PCOD9433211
_publ_section_title
;
Structure prediction by ZEFSAII (Michael W. Deem and Ramdas Pophale) SiO2 
 PCOD9433211
Probable space group: P C C N
;
_chemical_formula_sum "Si O2"
_cell_formula_units_Z 40
_cell_length_a 5.376508
_cell_length_b 20.795811
_cell_length_c 17.442901
_cell_angle_alpha 90.000000
_cell_angle_beta 90.000000
_cell_angle_gamma 90.000000
_cell_volume 1950.270600
_symmetry_space_group_name_H-M "P C C N"
_symmetry_group_IT_number 56
_symmetry_cell_setting 'orthorhombic'
loop_
_space_group_symop_operation_xyz
x,y,z
1/2-x,1/2-y,z
1/2+x,-y,1/2-z
-x,1/2+y,1/2-z
-x,-y,-z
1/2+x,1/2+y,-z
1/2-x,y,1/2+z
x,1/2-y,1/2+z
loop_
_atom_site_type_symbol
_atom_site_label
_atom_site_fract_x
_atom_site_fract_y
_atom_site_fract_z
Si Si1 0.681311 0.929163 0.679005
Si Si2 0.260075 0.177446 0.448292
Si Si3 0.031813 0.935443 0.339670
Si Si4 0.696044 0.014110 0.433948
Si Si5 0.784707 0.132546 0.524714
O O1 0.770201 0.872160 0.623163
O O2 0.601672 0.909340 0.764216
O O3 0.431611 0.954158 0.638766
O O4 0.853589 0.993482 0.678926
O O5 0.250000 0.250000 0.417649
O O6 0.522370 0.159097 0.490986
O O7 0.024277 0.175607 0.506236
O O8 0.221463 0.889904 0.386273
O O9 0.824544 0.951249 0.403003
O O10 0.853004 0.068664 0.474944
O O11 0.500000 0.000000 0.500000
#
# Coordination Sequence:
#
# PCOD9433211 Si02
#       5
#     8   8   8   8   8
#     4  11  23  36  63  98 134 175 203 275 346 410
#     4  11  25  46  67  92 125 183 239 268 316 392
#     4  12  21  37  60 101 137 161 212 273 363 400
#     4  11  20  35  59  93 134 169 207 261 335 410
#     4  11  23  39  68  94 130 171 218 281 322 387
#
# _framework density 20.509974
#
# number of rings (size 3 to 8) (size 9 to 14) (size 15 to 20)
#    0.000    0.800    6.000    3.600    0.000    0.000 
#    0.000    1.000    0.000    7.200    0.000    0.000 
#    0.000    0.000    0.000    0.000    0.000    0.000 
#
# Total GULP energy -222981.249523 kJ/mol
# GULP energy per Si atom -5574.531238 kJ/mol
# Density = 2.046329 g / cm^3
# Si number density = 20.509974 Si / 1000 Ang^3
#
#
#
# Elastic Constant Matrix: (Units=GPa)
#
#
# Indices 1 2 3 4 5 6 
#
# 1 78.4501 19.3615 63.4682 0.0000 0.0000 0.0000
# 2 19.3615 83.7622 30.5446 0.0000 0.0000 0.0000
# 3 63.4682 30.5446 123.7976 0.0000 0.0000 0.0000
# 4 0.0000 0.0000 0.0000 15.5690 0.0000 0.0000
# 5 0.0000 0.0000 0.0000 0.0000 25.3859 0.0000
# 6 0.0000 0.0000 0.0000 0.0000 0.0000 15.5867
#
#
#
# Elastic Compliance Matrix: (Units=1/GPa)
#
#
# Indices 1 2 3 4 5 6 
#
# 1 0.021867 -0.001062 -0.010949 0.000000 0.000000 0.000000
# 2 -0.001062 0.013170 -0.002705 0.000000 0.000000 0.000000
# 3 -0.010949 -0.002705 0.014358 0.000000 0.000000 0.000000
# 4 0.000000 0.000000 0.000000 0.064230 0.000000 0.000000
# 5 0.000000 0.000000 0.000000 0.000000 0.039392 0.000000
# 6 0.000000 0.000000 0.000000 0.000000 0.000000 0.064157
#
#
# Mechanical properties :
#
#
# Convention : Reuss Voigt Hill
#
# Bulk Modulus (GPa) = 50.08983 56.97319 53.53151
# Shear Modulus (GPa) = 19.74249 22.81735 21.27992
#
# Velocity S-wave (km/s) = 3.10591 3.33904 3.22458
# Velocity P-wave (km/s) = 6.11044 6.53484 6.32620
#
# Compressibility (1/GPa) = 0.01996413
#
# Stress axis : x y z
#
# Youngs Moduli (GPa) = 45.73166 75.92745 69.64666
#
# Poissons Ratio (x) = 0.08063 0.76253
# Poissons Ratio (y) = 0.04857 0.18840
# Poissons Ratio (z) = 0.50069 0.20539
#
# Static dielectric constant tensor:
#      x y z
#    x 1.799370 0.000000 0.000000 
#    y 0.000000 1.807620 0.000000 
#    z 0.000000 0.000000 1.719210 
# 
# From -- ./inp_files/9556.got.cif
#   From: 2010.05.17/outbox.cif.g08.bks.cpg/sg56_5_cif.got.tgz:9556.got - 2010.06.03 13:42:01.
