data_PCOD9433975
_publ_section_title
;
Structure prediction by ZEFSAII (Michael W. Deem and Ramdas Pophale) SiO2 
 PCOD9433975
Probable space group: P B C M
;
_chemical_formula_sum "Si O2"
_cell_formula_units_Z 32
_cell_length_a 16.419394
_cell_length_b 14.984836
_cell_length_c 5.559291
_cell_angle_alpha 90.000000
_cell_angle_beta 90.000000
_cell_angle_gamma 90.000000
_cell_volume 1367.818667
_symmetry_space_group_name_H-M "P B C M"
_symmetry_group_IT_number 57
_symmetry_cell_setting 'orthorhombic'
loop_
_space_group_symop_operation_xyz
x,y,z
-x,-y,1/2+z
x,1/2-y,-z
-x,1/2+y,1/2-z
-x,-y,-z
x,y,1/2-z
-x,1/2+y,z
x,1/2-y,1/2+z
loop_
_atom_site_type_symbol
_atom_site_label
_atom_site_fract_x
_atom_site_fract_y
_atom_site_fract_z
Si Si1 0.413332 0.050550 0.250000
Si Si2 0.042725 0.856932 0.250000
Si Si3 0.704856 0.304819 0.750000
Si Si4 0.395808 0.981821 0.750000
Si Si5 0.137031 0.307916 0.250000
Si Si6 0.688906 0.804550 0.250000
Si Si7 0.520321 0.747014 0.250000
Si Si8 0.107416 0.648761 0.250000
O O1 0.505333 0.010623 0.250000
O O2 0.431002 0.154804 0.250000
O O3 0.368701 0.021745 0.493554
O O4 0.070677 0.751052 0.250000
O O5 0.077475 0.893613 0.500396
O O6 0.945547 0.863345 0.250000
O O7 0.700713 0.250000 0.500000
O O8 0.636283 0.381240 0.750000
O O9 0.795375 0.346404 0.750000
O O10 0.132915 0.250000 0.500000
O O11 0.225291 0.357215 0.250000
O O12 0.696187 0.750000 0.500000
O O13 0.590791 0.822933 0.250000
O O14 0.474828 0.750000 0.500000
#
# Coordination Sequence:
#
# PCOD9433975 Si02
#       8
#     4   4   4   4   4   4   4   4
#     4  10  21  41  57  74 106 135 175 215 247 319
#     4  10  14  23  36  56  88 135 153 184 248 297
#     4  12  21  33  51  76 109 137 166 221 256 299
#     4  10  23  38  56  77 101 142 176 208 258 302
#     4  10  14  20  34  53  87 130 154 182 232 309
#     4   8  16  25  37  65  97 124 149 200 247 297
#     4  10  19  33  56  81 104 134 163 216 270 306
#     4  10  16  25  37  60  92 129 154 198 246 291
#
# _framework density 23.394915999999998
#
# number of rings (size 3 to 8) (size 9 to 14) (size 15 to 20)
#    0.000    2.000    5.000    1.500    0.000    1.000 
#    0.000    0.000    0.000    0.000    0.000    0.000 
#    0.000    2.000    0.000    0.750    0.000    0.000 
#
# Total GULP energy -178308.391736 kJ/mol
# GULP energy per Si atom -5572.137242 kJ/mol
# Density = 2.334167 g / cm^3
# Si number density = 23.394916 Si / 1000 Ang^3
#
#
#
# Elastic Constant Matrix: (Units=GPa)
#
#
# Indices 1 2 3 4 5 6 
#
# 1 136.9720 -6.2426 45.1037 0.0000 0.0000 0.0000
# 2 -6.2426 45.3121 41.5524 0.0000 0.0000 0.0000
# 3 45.1037 41.5524 283.2322 0.0000 0.0000 0.0000
# 4 0.0000 0.0000 0.0000 23.9933 0.0000 0.0000
# 5 0.0000 0.0000 0.0000 0.0000 156.0112 0.0000
# 6 0.0000 0.0000 0.0000 0.0000 0.0000 -0.3036
#
#
#
# Elastic Compliance Matrix: (Units=1/GPa)
#
#
# Indices 1 2 3 4 5 6 
#
# 1 0.007964 0.002611 -0.001651 0.000000 0.000000 0.000000
# 2 0.002611 0.026356 -0.004283 0.000000 0.000000 0.000000
# 3 -0.001651 -0.004283 0.004422 0.000000 0.000000 0.000000
# 4 0.000000 0.000000 0.000000 0.041678 0.000000 0.000000
# 5 0.000000 0.000000 0.000000 0.000000 0.006410 0.000000
# 6 0.000000 0.000000 0.000000 0.000000 0.000000 -3.293595
#
#
# Mechanical properties :
#
#
# Convention : Reuss Voigt Hill
#
# Bulk Modulus (GPa) = 31.15580 69.59372 50.37476
# Shear Modulus (GPa) = -1.56768 61.61368 30.02300
#
# Velocity S-wave (km/s) = -0.81948 5.13746 3.58622
# Velocity P-wave (km/s) = 3.52858 8.06246 6.22311
#
# Compressibility (1/GPa) = 0.03209675
#
# Stress axis : x y z
#
# Youngs Moduli (GPa) = 125.57244 37.94189 226.14660
#
# Poissons Ratio (x) = -0.09908 0.37343
# Poissons Ratio (y) = -0.32792 0.96847
# Poissons Ratio (z) = 0.20735 0.16249
#
# Static dielectric constant tensor:
#      x y z
#    x 1.883830 0.000000 0.000000 
#    y 0.000000 1.890490 0.000000 
#    z 0.000000 0.000000 1.906720 
# 
# From -- ./inp_files/521.got.cif
#   From: 2010.05.17/outbox.cif.g08.bks.cpg/sg57_1_cif.got.tgz:521.got - 2010.06.03 13:58:18.
