data_PCOD9433057
_publ_section_title
;
Structure prediction by ZEFSAII (Michael W. Deem and Ramdas Pophale) SiO2 
 PCOD9433057
Probable space group: P C C N
;
_chemical_formula_sum "Si O2"
_cell_formula_units_Z 56
_cell_length_a 12.333639
_cell_length_b 13.998748
_cell_length_c 13.532446
_cell_angle_alpha 90.000000
_cell_angle_beta 90.000000
_cell_angle_gamma 90.000000
_cell_volume 2336.451288
_symmetry_space_group_name_H-M "P C C N"
_symmetry_group_IT_number 56
_symmetry_cell_setting 'orthorhombic'
loop_
_space_group_symop_operation_xyz
x,y,z
1/2-x,1/2-y,z
1/2+x,-y,1/2-z
-x,1/2+y,1/2-z
-x,-y,-z
1/2+x,1/2+y,-z
1/2-x,y,1/2+z
x,1/2-y,1/2+z
loop_
_atom_site_type_symbol
_atom_site_label
_atom_site_fract_x
_atom_site_fract_y
_atom_site_fract_z
Si Si1 0.958752 0.819811 0.773868
Si Si2 0.750000 0.750000 0.652350
Si Si3 0.579016 0.019183 0.356444
Si Si4 0.941167 0.842726 0.430699
Si Si5 0.046278 0.726554 0.597133
Si Si6 0.652723 0.071420 0.150815
Si Si7 0.250000 0.750000 0.458265
Si Si8 0.730122 0.919680 0.512855
O O1 0.843755 0.799675 0.717942
O O2 0.979746 0.928291 0.805943
O O3 0.948819 0.754394 0.869472
O O4 0.051157 0.774114 0.705087
O O5 0.699547 0.828337 0.578545
O O6 0.640123 0.975617 0.450959
O O7 0.515379 0.115263 0.385296
O O8 0.657799 0.053765 0.267491
O O9 0.821099 0.883821 0.435145
O O10 0.977640 0.807396 0.538555
O O11 0.026975 0.915966 0.383135
O O12 0.153737 0.719444 0.531310
O O13 0.708309 0.988342 0.088767
O O14 0.709823 0.166008 0.111500
#
# Coordination Sequence:
#
# PCOD9433057 Si02
#       8
#     8   4   8   8   8   8   4   8
#     4  12  25  46  69 104 146 190 242 302 358 436
#     4  12  24  46  72 102 150 192 242 304 372 424
#     4  12  25  46  74 109 140 191 253 296 369 439
#     4  11  24  45  72 102 148 193 232 303 374 429
#     4  11  24  49  70 106 148 186 244 302 366 436
#     4  11  23  46  70 106 140 187 246 295 367 448
#     4  10  24  48  74  98 146 192 232 306 372 424
#     4  12  24  45  74 103 146 191 240 305 359 447
#
# _framework density 23.967972
#
# number of rings (size 3 to 8) (size 9 to 14) (size 15 to 20)
#    0.000    0.571    5.714    2.143    0.000    2.286 
#    0.000    0.000    0.000    0.000    0.000    0.000 
#    0.000    0.000    0.000    0.000    0.000    0.000 
#
# Total GULP energy -313370.872901 kJ/mol
# GULP energy per Si atom -5595.908445 kJ/mol
# Density = 2.391342 g / cm^3
# Si number density = 23.967972 Si / 1000 Ang^3
#
#
#
# Elastic Constant Matrix: (Units=GPa)
#
#
# Indices 1 2 3 4 5 6 
#
# 1 48.6788 22.0362 6.1701 0.0000 0.0000 0.0000
# 2 22.0362 146.3824 39.9392 0.0000 0.0000 0.0000
# 3 6.1701 39.9392 56.2220 0.0000 0.0000 0.0000
# 4 0.0000 0.0000 0.0000 49.8191 0.0000 0.0000
# 5 0.0000 0.0000 0.0000 0.0000 7.4186 0.0000
# 6 0.0000 0.0000 0.0000 0.0000 0.0000 31.1635
#
#
#
# Elastic Compliance Matrix: (Units=1/GPa)
#
#
# Indices 1 2 3 4 5 6 
#
# 1 0.022045 -0.003298 -0.000077 0.000000 0.000000 0.000000
# 2 -0.003298 0.008967 -0.006008 0.000000 0.000000 0.000000
# 3 -0.000077 -0.006008 0.022063 0.000000 0.000000 0.000000
# 4 0.000000 0.000000 0.000000 0.020073 0.000000 0.000000
# 5 0.000000 0.000000 0.000000 0.000000 0.134797 0.000000
# 6 0.000000 0.000000 0.000000 0.000000 0.000000 0.032089
#
#
# Mechanical properties :
#
#
# Convention : Reuss Voigt Hill
#
# Bulk Modulus (GPa) = 29.14565 43.06380 36.10472
# Shear Modulus (GPa) = 18.50236 29.88943 24.19589
#
# Velocity S-wave (km/s) = 2.78143 3.53520 3.18072
# Velocity P-wave (km/s) = 4.74361 5.88810 5.34657
#
# Compressibility (1/GPa) = 0.03431044
#
# Stress axis : x y z
#
# Youngs Moduli (GPa) = 45.36090 111.51813 45.32437
#
# Poissons Ratio (x) = 0.36776 0.00348
# Poissons Ratio (y) = 0.14959 0.27232
# Poissons Ratio (z) = 0.00348 0.67002
#
# Static dielectric constant tensor:
#      x y z
#    x 1.973530 0.000000 0.000000 
#    y 0.000000 1.894350 0.000000 
#    z 0.000000 0.000000 1.872250 
# 
# From -- ./inp_files/7931.got.cif
#   From: 2010.05.17/outbox.cif.g08.bks.cpg/sg56_4_cif.got.tgz:7931.got - 2010.06.03 13:42:01.
