data_PCOD9433756
_publ_section_title
;
Structure prediction by ZEFSAII (Michael W. Deem and Ramdas Pophale) SiO2 
 PCOD9433756
Probable space group: P C C N
;
_chemical_formula_sum "Si O2"
_cell_formula_units_Z 60
_cell_length_a 16.749408
_cell_length_b 14.235588
_cell_length_c 10.987931
_cell_angle_alpha 90.000000
_cell_angle_beta 90.000000
_cell_angle_gamma 90.000000
_cell_volume 2619.936683
_symmetry_space_group_name_H-M "P C C N"
_symmetry_group_IT_number 56
_symmetry_cell_setting 'orthorhombic'
loop_
_space_group_symop_operation_xyz
x,y,z
1/2-x,1/2-y,z
1/2+x,-y,1/2-z
-x,1/2+y,1/2-z
-x,-y,-z
1/2+x,1/2+y,-z
1/2-x,y,1/2+z
x,1/2-y,1/2+z
loop_
_atom_site_type_symbol
_atom_site_label
_atom_site_fract_x
_atom_site_fract_y
_atom_site_fract_z
Si Si1 0.875206 0.607552 0.884672
Si Si2 0.645539 0.918860 0.514360
Si Si3 0.986581 0.645939 0.660195
Si Si4 0.506201 0.636969 0.611484
Si Si5 0.110287 0.998258 0.235881
Si Si6 0.750000 0.750000 0.971862
Si Si7 0.259416 0.916821 0.368975
Si Si8 0.320062 0.897194 0.108325
O O1 0.925565 0.611528 0.762816
O O2 0.815145 0.694265 0.894621
O O3 0.825509 0.511348 0.893177
O O4 0.939765 0.618657 0.992797
O O5 0.553938 0.891574 0.537631
O O6 0.701855 0.829978 0.544896
O O7 0.650294 0.944694 0.373129
O O8 0.673975 0.008189 0.590849
O O9 0.984262 0.757582 0.659033
O O10 0.070763 0.597142 0.684691
O O11 0.540457 0.561066 0.705969
O O12 0.412271 0.628412 0.587478
O O13 0.178410 0.971202 0.331006
O O14 0.289094 0.868696 0.243276
O O15 0.234658 0.865259 0.494772
#
# Coordination Sequence:
#
# PCOD9433756 Si02
#       8
#     8   8   8   8   8   4   8   8
#     4  12  22  42  66 105 142 183 226 284 368 433
#     4  12  24  41  66 105 143 178 226 296 364 426
#     4  12  27  43  70 102 140 189 241 288 359 433
#     4  12  25  46  71 102 143 192 240 295 355 440
#     4  12  24  46  70  99 146 191 238 293 360 431
#     4  12  22  38  64 106 142 168 222 294 364 436
#     4  12  23  44  73 100 138 192 231 294 365 416
#     4  12  24  44  73 100 141 189 235 293 361 425
#
# _framework density 22.901316999999999
#
# number of rings (size 3 to 8) (size 9 to 14) (size 15 to 20)
#    0.000    0.000    8.000    2.400    0.000    0.533 
#    0.000    0.667    2.933    0.000    0.000    0.000 
#    0.000    0.000    0.000    0.000    0.000    0.000 
#
# Total GULP energy -335737.330109 kJ/mol
# GULP energy per Si atom -5595.622168 kJ/mol
# Density = 2.284919 g / cm^3
# Si number density = 22.901317 Si / 1000 Ang^3
#
#
#
# Elastic Constant Matrix: (Units=GPa)
#
#
# Indices 1 2 3 4 5 6 
#
# 1 78.0540 3.6686 10.7257 0.0000 0.0000 0.0000
# 2 3.6686 41.0753 -0.3999 0.0000 0.0000 0.0000
# 3 10.7257 -0.3999 98.2743 0.0000 0.0000 0.0000
# 4 0.0000 0.0000 0.0000 -6.4649 0.0000 0.0000
# 5 0.0000 0.0000 0.0000 0.0000 110.2822 0.0000
# 6 0.0000 0.0000 0.0000 0.0000 0.0000 39.3900
#
#
#
# Elastic Compliance Matrix: (Units=1/GPa)
#
#
# Indices 1 2 3 4 5 6 
#
# 1 0.013064 -0.001181 -0.001431 0.000000 0.000000 0.000000
# 2 -0.001181 0.024453 0.000228 0.000000 0.000000 0.000000
# 3 -0.001431 0.000228 0.010333 0.000000 0.000000 0.000000
# 4 0.000000 0.000000 0.000000 -0.154681 0.000000 0.000000
# 5 0.000000 0.000000 0.000000 0.000000 0.009068 0.000000
# 6 0.000000 0.000000 0.000000 0.000000 0.000000 0.025387
#
#
# Mechanical properties :
#
#
# Convention : Reuss Voigt Hill
#
# Bulk Modulus (GPa) = 23.21062 27.26583 25.23822
# Shear Modulus (GPa) = -93.89729 42.20208 -25.84760
#
# Velocity S-wave (km/s) = -6.41014 4.29742 -3.36319
# Velocity P-wave (km/s) = 6.68052 6.04610 2.00923
#
# Compressibility (1/GPa) = 0.04308373
#
# Stress axis : x y z
#
# Youngs Moduli (GPa) = 76.54791 40.89444 96.78045
#
# Poissons Ratio (x) = 0.04828 0.13845
# Poissons Ratio (y) = 0.09038 -0.02210
# Poissons Ratio (z) = 0.10951 -0.00934
#
# Static dielectric constant tensor:
#      x y z
#    x 1.839840 0.000000 0.000000 
#    y 0.000000 1.835660 0.000000 
#    z 0.000000 0.000000 1.949970 
# 
# From -- ./inp_files/8032.got.cif
#   From: 2010.05.17/outbox.cif.g08.bks.cpg/sg56_5_cif.got.tgz:8032.got - 2010.06.03 13:42:01.
