data_PCOD9433506
_publ_section_title
;
Structure prediction by ZEFSAII (Michael W. Deem and Ramdas Pophale) SiO2 
 PCOD9433506
Probable space group: P C C N
;
_chemical_formula_sum "Si O2"
_cell_formula_units_Z 48
_cell_length_a 8.304953
_cell_length_b 27.743943
_cell_length_c 9.982987
_cell_angle_alpha 90.000000
_cell_angle_beta 90.000000
_cell_angle_gamma 90.000000
_cell_volume 2300.201425
_symmetry_space_group_name_H-M "P C C N"
_symmetry_group_IT_number 56
_symmetry_cell_setting 'orthorhombic'
loop_
_space_group_symop_operation_xyz
x,y,z
1/2-x,1/2-y,z
1/2+x,-y,1/2-z
-x,1/2+y,1/2-z
-x,-y,-z
1/2+x,1/2+y,-z
1/2-x,y,1/2+z
x,1/2-y,1/2+z
loop_
_atom_site_type_symbol
_atom_site_label
_atom_site_fract_x
_atom_site_fract_y
_atom_site_fract_z
Si Si1 0.572875 0.736769 0.456800
Si Si2 0.364887 0.131249 0.987971
Si Si3 0.423048 0.984150 0.641357
Si Si4 0.047147 0.538701 0.112537
Si Si5 0.565743 0.881682 0.706274
Si Si6 0.100787 0.785314 0.185868
O O1 0.750000 0.750000 0.406526
O O2 0.572726 0.685393 0.531117
O O3 0.458745 0.733492 0.329415
O O4 0.522167 0.775137 0.566084
O O5 0.489823 0.091044 0.936375
O O6 0.197825 0.125611 0.909612
O O7 0.351994 0.126180 0.148865
O O8 0.236792 0.969564 0.630906
O O9 0.509582 0.936330 0.694909
O O10 0.500000 0.000000 0.500000
O O11 0.454626 0.025522 0.750575
O O12 0.000000 0.500000 0.000000
O O13 0.415249 0.843715 0.697596
O O14 0.250000 0.750000 0.151798
#
# Coordination Sequence:
#
# PCOD9433506 Si02
#       6
#     8   8   8   8   8   8
#     4  11  23  45  69  99 136 187 235 288 355 419
#     4  11  25  43  72 102 140 179 238 291 353 436
#     4  12  27  46  73 100 143 187 235 297 353 422
#     4  12  25  48  69 100 140 182 237 291 354 419
#     4  11  25  46  70 107 137 186 236 288 367 419
#     4  11  25  44  69 100 146 181 237 293 347 419
#
# _framework density 20.867737999999999
#
# number of rings (size 3 to 8) (size 9 to 14) (size 15 to 20)
#    0.000    0.667    3.333    4.000    7.000    0.000 
#    0.000    0.000    0.000    0.000    0.000    0.000 
#    0.000    0.000    0.000    0.000    0.000    0.000 
#
# Total GULP energy -268182.414906 kJ/mol
# GULP energy per Si atom -5587.133644 kJ/mol
# Density = 2.082024 g / cm^3
# Si number density = 20.867738 Si / 1000 Ang^3
#
#
#
# Elastic Constant Matrix: (Units=GPa)
#
#
# Indices 1 2 3 4 5 6 
#
# 1 87.4290 10.3443 -3.5098 0.0000 0.0000 0.0000
# 2 10.3443 76.4883 19.6150 0.0000 0.0000 0.0000
# 3 -3.5098 19.6150 55.7328 0.0000 0.0000 0.0000
# 4 0.0000 0.0000 0.0000 33.4493 0.0000 0.0000
# 5 0.0000 0.0000 0.0000 0.0000 24.7816 0.0000
# 6 0.0000 0.0000 0.0000 0.0000 0.0000 29.4783
#
#
#
# Elastic Compliance Matrix: (Units=1/GPa)
#
#
# Indices 1 2 3 4 5 6 
#
# 1 0.011726 -0.001951 0.001425 0.000000 0.000000 0.000000
# 2 -0.001951 0.014696 -0.005295 0.000000 0.000000 0.000000
# 3 0.001425 -0.005295 0.019896 0.000000 0.000000 0.000000
# 4 0.000000 0.000000 0.000000 0.029896 0.000000 0.000000
# 5 0.000000 0.000000 0.000000 0.000000 0.040353 0.000000
# 6 0.000000 0.000000 0.000000 0.000000 0.000000 0.033923
#
#
# Mechanical properties :
#
#
# Convention : Reuss Voigt Hill
#
# Bulk Modulus (GPa) = 28.83881 30.28324 29.56103
# Shear Modulus (GPa) = 28.78688 30.42185 29.60437
#
# Velocity S-wave (km/s) = 3.71818 3.82231 3.77061
# Velocity P-wave (km/s) = 5.68181 5.83297 5.75789
#
# Compressibility (1/GPa) = 0.03467549
#
# Stress axis : x y z
#
# Youngs Moduli (GPa) = 85.28099 68.04726 50.26115
#
# Poissons Ratio (x) = 0.13278 -0.07163
# Poissons Ratio (y) = 0.16641 0.26613
# Poissons Ratio (z) = -0.12154 0.36031
#
# Static dielectric constant tensor:
#      x y z
#    x 1.782200 0.000000 0.000000 
#    y 0.000000 2.001540 0.000000 
#    z 0.000000 0.000000 1.706890 
# 
# From -- ./inp_files/2225.got.cif
#   From: 2010.05.17/outbox.cif.g08.bks.cpg/sg56_2_cif.got.tgz:2225.got - 2010.06.03 13:42:01.
