data_PCOD9433596
_publ_section_title
;
Structure prediction by ZEFSAII (Michael W. Deem and Ramdas Pophale) SiO2 
 PCOD9433596
Probable space group: P C C N
;
_chemical_formula_sum "Si O2"
_cell_formula_units_Z 40
_cell_length_a 12.094202
_cell_length_b 4.804547
_cell_length_c 25.923014
_cell_angle_alpha 90.000000
_cell_angle_beta 90.000000
_cell_angle_gamma 90.000000
_cell_volume 1506.312772
_symmetry_space_group_name_H-M "P C C N"
_symmetry_group_IT_number 56
_symmetry_cell_setting 'orthorhombic'
loop_
_space_group_symop_operation_xyz
x,y,z
1/2-x,1/2-y,z
1/2+x,-y,1/2-z
-x,1/2+y,1/2-z
-x,-y,-z
1/2+x,1/2+y,-z
1/2-x,y,1/2+z
x,1/2-y,1/2+z
loop_
_atom_site_type_symbol
_atom_site_label
_atom_site_fract_x
_atom_site_fract_y
_atom_site_fract_z
Si Si1 0.750000 0.250000 0.194997
Si Si2 0.965549 0.854683 0.076190
Si Si3 0.750000 0.750000 0.626829
Si Si4 0.072449 0.099280 0.738487
Si Si5 0.363789 0.899952 0.134564
Si Si6 0.121759 0.182406 0.524030
O O1 0.802315 0.495577 0.159533
O O2 0.834178 0.065031 0.229205
O O3 0.842414 0.918365 0.094723
O O4 0.028538 0.790583 0.129352
O O5 0.934074 0.624004 0.032062
O O6 0.046958 0.068845 0.047691
O O7 0.113697 0.117015 0.679423
O O8 0.965743 0.899513 0.743299
O O9 0.250000 0.750000 0.146139
O O10 0.361357 0.993443 0.074748
O O11 0.250000 0.250000 0.511517
#
# Coordination Sequence:
#
# PCOD9433596 Si02
#       6
#     4   8   4   8   8   8
#     4  12  26  52  70 116 150 204 258 318 378 470
#     4  11  25  47  71 108 148 200 250 319 381 475
#     4  12  28  48  80 108 156 206 260 312 400 458
#     4  12  28  49  78 109 154 201 257 320 383 457
#     4  12  25  45  74 109 147 198 251 320 390 463
#     4  11  24  46  72 106 151 189 260 313 395 460
#
# _framework density 26.554912999999999
#
# number of rings (size 3 to 8) (size 9 to 14) (size 15 to 20)
#    0.000    0.400    4.000    4.200    8.400    0.000 
#    3.600    0.000    0.000    0.000    0.000    0.000 
#    0.000    0.000    0.000    0.000    0.000    0.000 
#
# Total GULP energy -223298.493317 kJ/mol
# GULP energy per Si atom -5582.462333 kJ/mol
# Density = 2.649447 g / cm^3
# Si number density = 26.554913 Si / 1000 Ang^3
#
#
#
# Elastic Constant Matrix: (Units=GPa)
#
#
# Indices 1 2 3 4 5 6 
#
# 1 142.2923 13.5157 29.2001 0.0000 0.0000 0.0000
# 2 13.5157 86.2711 14.2278 0.0000 0.0000 0.0000
# 3 29.2001 14.2278 101.1029 0.0000 0.0000 0.0000
# 4 0.0000 0.0000 0.0000 351.4765 0.0000 0.0000
# 5 0.0000 0.0000 0.0000 0.0000 38.1305 0.0000
# 6 0.0000 0.0000 0.0000 0.0000 0.0000 34.2287
#
#
#
# Elastic Compliance Matrix: (Units=1/GPa)
#
#
# Indices 1 2 3 4 5 6 
#
# 1 0.007530 -0.000840 -0.002056 0.000000 0.000000 0.000000
# 2 -0.000840 0.011961 -0.001440 0.000000 0.000000 0.000000
# 3 -0.002056 -0.001440 0.010688 0.000000 0.000000 0.000000
# 4 0.000000 0.000000 0.000000 0.002845 0.000000 0.000000
# 5 0.000000 0.000000 0.000000 0.000000 0.026226 0.000000
# 6 0.000000 0.000000 0.000000 0.000000 0.000000 0.029215
#
#
# Mechanical properties :
#
#
# Convention : Reuss Voigt Hill
#
# Bulk Modulus (GPa) = 46.50483 49.28372 47.89427
# Shear Modulus (GPa) = 47.93580 102.94866 75.44223
#
# Velocity S-wave (km/s) = 4.25332 6.23317 5.33588
# Velocity P-wave (km/s) = 6.45537 8.39063 7.48580
#
# Compressibility (1/GPa) = 0.02150314
#
# Stress axis : x y z
#
# Youngs Moduli (GPa) = 132.80892 83.60786 93.56698
#
# Poissons Ratio (x) = 0.07027 0.19241
# Poissons Ratio (y) = 0.11162 0.13478
# Poissons Ratio (z) = 0.27311 0.12043
#
# Static dielectric constant tensor:
#      x y z
#    x 2.086250 0.000000 0.000000 
#    y 0.000000 2.221540 0.000000 
#    z 0.000000 0.000000 2.125900 
# 
# From -- ./inp_files/21535.got.cif
#   From: 2010.05.17/outbox.cif.g08.bks.cpg/sg56_11_cif.got.tgz:21535.got - 2010.06.03 13:42:01.
