data_PCOD9433678
_publ_section_title
;
Structure prediction by ZEFSAII (Michael W. Deem and Ramdas Pophale) SiO2 
 PCOD9433678
Probable space group: P C C N
;
_chemical_formula_sum "Si O2"
_cell_formula_units_Z 40
_cell_length_a 8.685225
_cell_length_b 13.426233
_cell_length_c 12.672395
_cell_angle_alpha 90.000000
_cell_angle_beta 90.000000
_cell_angle_gamma 90.000000
_cell_volume 1477.726137
_symmetry_space_group_name_H-M "P C C N"
_symmetry_group_IT_number 56
_symmetry_cell_setting 'orthorhombic'
loop_
_space_group_symop_operation_xyz
x,y,z
1/2-x,1/2-y,z
1/2+x,-y,1/2-z
-x,1/2+y,1/2-z
-x,-y,-z
1/2+x,1/2+y,-z
1/2-x,y,1/2+z
x,1/2-y,1/2+z
loop_
_atom_site_type_symbol
_atom_site_label
_atom_site_fract_x
_atom_site_fract_y
_atom_site_fract_z
Si Si1 0.941487 0.115115 0.938128
Si Si2 0.979261 0.821380 0.655142
Si Si3 0.658936 0.836705 0.369327
Si Si4 0.831725 0.505664 0.049031
Si Si5 0.846218 0.503999 0.738102
O O1 0.935125 0.230955 0.902270
O O2 0.957711 0.880466 0.954437
O O3 0.035787 0.057653 0.844726
O O4 0.787442 0.057464 0.976119
O O5 0.915588 0.784158 0.767292
O O6 0.844075 0.876898 0.587567
O O7 0.080335 0.912868 0.699890
O O8 0.750000 0.750000 0.424447
O O9 0.772558 0.918262 0.319311
O O10 0.790589 0.460849 0.163798
O O11 0.000000 0.500000 0.000000
#
# Coordination Sequence:
#
# PCOD9433678 Si02
#       5
#     8   8   8   8   8
#     4  12  27  53  92 133 189 247 317 390 482 575
#     4  11  27  51  86 134 184 249 316 386 488 558
#     4  11  25  47  87 132 180 244 311 385 478 570
#     4  11  28  50  85 127 178 241 309 385 465 566
#     4  11  26  52  87 131 182 238 310 390 462 581
#
# _framework density 27.068612999999999
#
# number of rings (size 3 to 8) (size 9 to 14) (size 15 to 20)
#    0.000    0.800    4.000    0.600    8.400    2.400 
#    0.000    2.000    4.400    0.000    0.000    0.000 
#    0.000    0.000    0.000    0.000    0.000    0.000 
#
# Total GULP energy -223473.226686 kJ/mol
# GULP energy per Si atom -5586.830667 kJ/mol
# Density = 2.700700 g / cm^3
# Si number density = 27.068613 Si / 1000 Ang^3
#
#
#
# Elastic Constant Matrix: (Units=GPa)
#
#
# Indices 1 2 3 4 5 6 
#
# 1 201.7200 104.5822 113.6727 0.0000 0.0000 0.0000
# 2 104.5822 168.7873 124.0264 0.0000 0.0000 0.0000
# 3 113.6727 124.0264 185.1489 0.0000 0.0000 0.0000
# 4 0.0000 0.0000 0.0000 76.0206 0.0000 0.0000
# 5 0.0000 0.0000 0.0000 0.0000 74.9226 0.0000
# 6 0.0000 0.0000 0.0000 0.0000 0.0000 58.3709
#
#
#
# Elastic Compliance Matrix: (Units=1/GPa)
#
#
# Indices 1 2 3 4 5 6 
#
# 1 0.008164 -0.002709 -0.003198 0.000000 0.000000 0.000000
# 2 -0.002709 0.012567 -0.006755 0.000000 0.000000 0.000000
# 3 -0.003198 -0.006755 0.011889 0.000000 0.000000 0.000000
# 4 0.000000 0.000000 0.000000 0.013154 0.000000 0.000000
# 5 0.000000 0.000000 0.000000 0.000000 0.013347 0.000000
# 6 0.000000 0.000000 0.000000 0.000000 0.000000 0.017132
#
#
# Mechanical properties :
#
#
# Convention : Reuss Voigt Hill
#
# Bulk Modulus (GPa) = 137.04530 137.80208 137.42369
# Shear Modulus (GPa) = 48.07343 56.08780 52.08061
#
# Velocity S-wave (km/s) = 4.21881 4.55693 4.39113
# Velocity P-wave (km/s) = 8.62960 8.87166 8.75147
#
# Compressibility (1/GPa) = 0.00729686
#
# Stress axis : x y z
#
# Youngs Moduli (GPa) = 122.49566 79.57630 84.10910
#
# Poissons Ratio (x) = 0.21554 0.26895
# Poissons Ratio (y) = 0.33179 0.56816
# Poissons Ratio (z) = 0.39170 0.53754
#
# Static dielectric constant tensor:
#      x y z
#    x 2.323090 0.000000 0.000000 
#    y 0.000000 2.121950 0.000000 
#    z 0.000000 0.000000 2.179120 
# 
# From -- ./inp_files/11481.got.cif
#   From: 2010.05.17/outbox.cif.g08.bks.cpg/sg56_6_cif.got.tgz:11481.got - 2010.06.03 13:42:01.
