data_PCOD9433078
_publ_section_title
;
Structure prediction by ZEFSAII (Michael W. Deem and Ramdas Pophale) SiO2 
 PCOD9433078
Probable space group: P C C N
;
_chemical_formula_sum "Si O2"
_cell_formula_units_Z 40
_cell_length_a 7.784544
_cell_length_b 19.176920
_cell_length_c 12.846954
_cell_angle_alpha 90.000000
_cell_angle_beta 90.000000
_cell_angle_gamma 90.000000
_cell_volume 1917.839253
_symmetry_space_group_name_H-M "P C C N"
_symmetry_group_IT_number 56
_symmetry_cell_setting 'orthorhombic'
loop_
_space_group_symop_operation_xyz
x,y,z
1/2-x,1/2-y,z
1/2+x,-y,1/2-z
-x,1/2+y,1/2-z
-x,-y,-z
1/2+x,1/2+y,-z
1/2-x,y,1/2+z
x,1/2-y,1/2+z
loop_
_atom_site_type_symbol
_atom_site_label
_atom_site_fract_x
_atom_site_fract_y
_atom_site_fract_z
Si Si1 0.665838 0.417348 0.733871
Si Si2 0.508292 0.806387 0.912016
Si Si3 0.101906 0.169604 0.161554
Si Si4 0.458161 0.516878 0.880050
Si Si5 0.609963 0.186375 0.856742
O O1 0.599599 0.352074 0.667764
O O2 0.526690 0.457979 0.801679
O O3 0.761721 0.468376 0.652819
O O4 0.796930 0.383191 0.815834
O O5 0.704261 0.820699 0.876893
O O6 0.484416 0.722909 0.904668
O O7 0.461832 0.825125 0.028763
O O8 0.051635 0.090023 0.145000
O O9 0.051339 0.194899 0.277717
O O10 0.500000 0.500000 0.000000
O O11 0.750000 0.250000 0.853412
#
# Coordination Sequence:
#
# PCOD9433078 Si02
#       5
#     8   8   8   8   8
#     4  11  24  44  67 103 137 183 235 286 342 426
#     4  11  24  42  71  97 136 179 230 293 341 407
#     4  10  25  44  64 102 136 173 235 278 345 412
#     4  11  25  42  67  95 138 183 223 286 348 414
#     4  11  24  42  72  99 135 180 231 289 348 404
#
# _framework density 20.856805999999999
#
# number of rings (size 3 to 8) (size 9 to 14) (size 15 to 20)
#    0.000    1.200    2.000    2.400    8.400    8.000 
#    0.000    7.000    0.000    0.000    0.000    0.000 
#    0.000    0.000    0.000    0.000    0.000    0.000 
#
# Total GULP energy -223334.438918 kJ/mol
# GULP energy per Si atom -5583.360973 kJ/mol
# Density = 2.080934 g / cm^3
# Si number density = 20.856806 Si / 1000 Ang^3
#
#
#
# Elastic Constant Matrix: (Units=GPa)
#
#
# Indices 1 2 3 4 5 6 
#
# 1 74.0771 14.9784 44.4097 0.0000 0.0000 0.0000
# 2 14.9784 59.8409 21.8939 0.0000 0.0000 0.0000
# 3 44.4097 21.8939 149.0252 0.0000 0.0000 0.0000
# 4 0.0000 0.0000 0.0000 25.5093 0.0000 0.0000
# 5 0.0000 0.0000 0.0000 0.0000 81.1672 0.0000
# 6 0.0000 0.0000 0.0000 0.0000 0.0000 26.6937
#
#
#
# Elastic Compliance Matrix: (Units=1/GPa)
#
#
# Indices 1 2 3 4 5 6 
#
# 1 0.016784 -0.002506 -0.004633 0.000000 0.000000 0.000000
# 2 -0.002506 0.018034 -0.001903 0.000000 0.000000 0.000000
# 3 -0.004633 -0.001903 0.008371 0.000000 0.000000 0.000000
# 4 0.000000 0.000000 0.000000 0.039201 0.000000 0.000000
# 5 0.000000 0.000000 0.000000 0.000000 0.012320 0.000000
# 6 0.000000 0.000000 0.000000 0.000000 0.000000 0.037462
#
#
# Mechanical properties :
#
#
# Convention : Reuss Voigt Hill
#
# Bulk Modulus (GPa) = 39.83311 49.50078 44.66694
# Shear Modulus (GPa) = 31.52088 40.11812 35.81950
#
# Velocity S-wave (km/s) = 3.89176 4.39053 4.14865
# Velocity P-wave (km/s) = 6.27170 7.03474 6.66415
#
# Compressibility (1/GPa) = 0.02510474
#
# Stress axis : x y z
#
# Youngs Moduli (GPa) = 59.58083 55.44973 119.46576
#
# Poissons Ratio (x) = 0.13895 0.55354
# Poissons Ratio (y) = 0.14930 0.22731
# Poissons Ratio (z) = 0.27607 0.10551
#
# Static dielectric constant tensor:
#      x y z
#    x 1.805350 0.000000 0.000000 
#    y 0.000000 1.766820 0.000000 
#    z 0.000000 0.000000 1.735590 
# 
# From -- ./inp_files/6166.got.cif
#   From: 2010.05.17/outbox.cif.g08.bks.cpg/sg56_4_cif.got.tgz:6166.got - 2010.06.03 13:42:01.
