data_PCOD9433629
_publ_section_title
;
Structure prediction by ZEFSAII (Michael W. Deem and Ramdas Pophale) SiO2 
 PCOD9433629
Probable space group: P C C N
;
_chemical_formula_sum "Si O2"
_cell_formula_units_Z 40
_cell_length_a 8.642083
_cell_length_b 11.961218
_cell_length_c 17.282392
_cell_angle_alpha 90.000000
_cell_angle_beta 90.000000
_cell_angle_gamma 90.000000
_cell_volume 1786.478074
_symmetry_space_group_name_H-M "P C C N"
_symmetry_group_IT_number 56
_symmetry_cell_setting 'orthorhombic'
loop_
_space_group_symop_operation_xyz
x,y,z
1/2-x,1/2-y,z
1/2+x,-y,1/2-z
-x,1/2+y,1/2-z
-x,-y,-z
1/2+x,1/2+y,-z
1/2-x,y,1/2+z
x,1/2-y,1/2+z
loop_
_atom_site_type_symbol
_atom_site_label
_atom_site_fract_x
_atom_site_fract_y
_atom_site_fract_z
Si Si1 0.936502 0.730845 0.553344
Si Si2 0.873874 0.040262 0.859842
Si Si3 0.922292 0.708036 0.376078
Si Si4 0.862455 0.146503 0.695105
Si Si5 0.473600 0.529748 0.588575
O O1 0.750000 0.750000 0.556395
O O2 0.989226 0.728908 0.462759
O O3 0.012207 0.621159 0.592097
O O4 0.002241 0.838406 0.597399
O O5 0.831182 0.097404 0.778694
O O6 0.707892 0.010172 0.896718
O O7 0.951839 0.919192 0.852482
O O8 0.750000 0.750000 0.387217
O O9 0.978424 0.785828 0.306735
O O10 0.750000 0.250000 0.671238
O O11 0.904326 0.043958 0.637823
O O12 0.500000 0.500000 0.500000
#
# Coordination Sequence:
#
# PCOD9433629 Si02
#       5
#     8   8   8   8   8
#     4  11  25  44  74 114 146 198 256 315 385 463
#     4  12  28  47  77 109 155 200 262 315 400 466
#     4  11  24  49  72 104 149 197 253 316 383 468
#     4  12  29  45  73 112 149 200 253 319 396 457
#     4  12  25  49  75 106 151 204 254 320 386 476
#
# _framework density 22.390422999999998
#
# number of rings (size 3 to 8) (size 9 to 14) (size 15 to 20)
#    0.000    0.400    4.000    3.600   11.200    0.800 
#    0.000    0.000    0.000    0.000    0.000    0.000 
#    0.000    0.000    0.000    0.000    0.000    0.000 
#
# Total GULP energy -223163.073612 kJ/mol
# GULP energy per Si atom -5579.076840 kJ/mol
# Density = 2.233946 g / cm^3
# Si number density = 22.390423 Si / 1000 Ang^3
#
#
#
# Elastic Constant Matrix: (Units=GPa)
#
#
# Indices 1 2 3 4 5 6 
#
# 1 45.1584 4.4983 34.1083 0.0000 0.0000 0.0000
# 2 4.4983 159.4535 19.5919 0.0000 0.0000 0.0000
# 3 34.1083 19.5919 89.4557 0.0000 0.0000 0.0000
# 4 0.0000 0.0000 0.0000 7.7221 0.0000 0.0000
# 5 0.0000 0.0000 0.0000 0.0000 19.2496 0.0000
# 6 0.0000 0.0000 0.0000 0.0000 0.0000 42.1213
#
#
#
# Elastic Compliance Matrix: (Units=1/GPa)
#
#
# Indices 1 2 3 4 5 6 
#
# 1 0.031156 0.000597 -0.012010 0.000000 0.000000 0.000000
# 2 0.000597 0.006456 -0.001642 0.000000 0.000000 0.000000
# 3 -0.012010 -0.001642 0.016118 0.000000 0.000000 0.000000
# 4 0.000000 0.000000 0.000000 0.129499 0.000000 0.000000
# 5 0.000000 0.000000 0.000000 0.000000 0.051949 0.000000
# 6 0.000000 0.000000 0.000000 0.000000 0.000000 0.023741
#
#
# Mechanical properties :
#
#
# Convention : Reuss Voigt Hill
#
# Bulk Modulus (GPa) = 36.20552 45.60717 40.90635
# Shear Modulus (GPa) = 16.99320 29.54320 23.26820
#
# Velocity S-wave (km/s) = 2.75789 3.63637 3.22716
# Velocity P-wave (km/s) = 5.13288 6.16800 5.67410
#
# Compressibility (1/GPa) = 0.02762010
#
# Stress axis : x y z
#
# Youngs Moduli (GPa) = 32.09648 154.88792 62.04426
#
# Poissons Ratio (x) = -0.09243 0.74516
# Poissons Ratio (y) = -0.01915 0.10185
# Poissons Ratio (z) = 0.38548 0.25425
#
# Static dielectric constant tensor:
#      x y z
#    x 1.794740 0.000000 0.000000 
#    y 0.000000 1.959420 0.000000 
#    z 0.000000 0.000000 1.809390 
# 
# From -- ./inp_files/14464.got.cif
#   From: 2010.05.17/outbox.cif.g08.bks.cpg/sg56_8_cif.got.tgz:14464.got - 2010.06.03 13:42:01.
