data_PCOD9433476
_publ_section_title
;
Structure prediction by ZEFSAII (Michael W. Deem and Ramdas Pophale) SiO2 
 PCOD9433476
Probable space group: P C C N
;
_chemical_formula_sum "Si O2"
_cell_formula_units_Z 40
_cell_length_a 18.790122
_cell_length_b 10.414614
_cell_length_c 8.921577
_cell_angle_alpha 90.000000
_cell_angle_beta 90.000000
_cell_angle_gamma 90.000000
_cell_volume 1745.880065
_symmetry_space_group_name_H-M "P C C N"
_symmetry_group_IT_number 56
_symmetry_cell_setting 'orthorhombic'
loop_
_space_group_symop_operation_xyz
x,y,z
1/2-x,1/2-y,z
1/2+x,-y,1/2-z
-x,1/2+y,1/2-z
-x,-y,-z
1/2+x,1/2+y,-z
1/2-x,y,1/2+z
x,1/2-y,1/2+z
loop_
_atom_site_type_symbol
_atom_site_label
_atom_site_fract_x
_atom_site_fract_y
_atom_site_fract_z
Si Si1 0.422920 0.974526 0.428701
Si Si2 0.575759 0.991731 0.920418
Si Si3 0.690570 0.999452 0.333767
Si Si4 0.701466 0.629805 0.523403
Si Si5 0.667056 0.290228 0.586813
O O1 0.383097 0.835797 0.409752
O O2 0.500000 0.000000 0.500000
O O3 0.427643 0.019363 0.257650
O O4 0.370468 0.037927 0.550100
O O5 0.620163 0.868166 0.975104
O O6 0.500000 0.000000 0.000000
O O7 0.620937 0.114319 0.980673
O O8 0.761148 0.986108 0.431914
O O9 0.701595 0.902246 0.197572
O O10 0.673899 0.132853 0.246675
O O11 0.750000 0.750000 0.492069
O O12 0.750000 0.250000 0.551572
#
# Coordination Sequence:
#
# PCOD9433476 Si02
#       5
#     8   8   8   8   8
#     4  12  25  43  69 104 144 187 237 295 359 429
#     4  11  25  46  71 103 143 186 238 294 358 428
#     4  11  24  42  68 103 137 180 239 292 353 430
#     4  11  23  43  70 100 138 184 235 295 358 425
#     4  11  24  46  75 104 137 185 238 296 358 430
#
# _framework density 22.911080999999999
#
# number of rings (size 3 to 8) (size 9 to 14) (size 15 to 20)
#    0.000    0.800    0.000    9.000    0.000    4.800 
#    0.000    7.000    0.000    0.000    0.000    0.000 
#    0.000    0.000    0.000    0.000    0.000    0.000 
#
# Total GULP energy -223233.346712 kJ/mol
# GULP energy per Si atom -5580.833668 kJ/mol
# Density = 2.285893 g / cm^3
# Si number density = 22.911081 Si / 1000 Ang^3
#
#
#
# Elastic Constant Matrix: (Units=GPa)
#
#
# Indices 1 2 3 4 5 6 
#
# 1 222.2711 59.6972 84.5649 0.0000 0.0000 0.0000
# 2 59.6972 97.8066 31.2239 0.0000 0.0000 0.0000
# 3 84.5649 31.2239 210.3162 0.0000 0.0000 0.0000
# 4 0.0000 0.0000 0.0000 18.3086 0.0000 0.0000
# 5 0.0000 0.0000 0.0000 0.0000 29.6257 0.0000
# 6 0.0000 0.0000 0.0000 0.0000 0.0000 31.2669
#
#
#
# Elastic Compliance Matrix: (Units=1/GPa)
#
#
# Indices 1 2 3 4 5 6 
#
# 1 0.006082 -0.003077 -0.001989 0.000000 0.000000 0.000000
# 2 -0.003077 0.012290 -0.000587 0.000000 0.000000 0.000000
# 3 -0.001989 -0.000587 0.005642 0.000000 0.000000 0.000000
# 4 0.000000 0.000000 0.000000 0.054619 0.000000 0.000000
# 5 0.000000 0.000000 0.000000 0.000000 0.033755 0.000000
# 6 0.000000 0.000000 0.000000 0.000000 0.000000 0.031983
#
#
# Mechanical properties :
#
#
# Convention : Reuss Voigt Hill
#
# Bulk Modulus (GPa) = 78.69598 97.92956 88.31277
# Shear Modulus (GPa) = 31.26715 39.50077 35.38396
#
# Velocity S-wave (km/s) = 3.69822 4.15672 3.93415
# Velocity P-wave (km/s) = 7.25663 8.11627 7.69846
#
# Compressibility (1/GPa) = 0.01270713
#
# Stress axis : x y z
#
# Youngs Moduli (GPa) = 164.41567 81.36655 177.25680
#
# Poissons Ratio (x) = 0.25040 0.35250
# Poissons Ratio (y) = 0.50598 0.10409
# Poissons Ratio (z) = 0.32697 0.04778
#
# Static dielectric constant tensor:
#      x y z
#    x 1.855990 0.000000 0.000000 
#    y 0.000000 1.217970 0.000000 
#    z 0.000000 0.000000 1.898950 
# 
# From -- ./inp_files/3880.got.cif
#   From: 2010.05.17/outbox.cif.g08.bks.cpg/sg56_2_cif.got.tgz:3880.got - 2010.06.03 13:42:01.
