data_PCOD9433386
_publ_section_title
;
Structure prediction by ZEFSAII (Michael W. Deem and Ramdas Pophale) SiO2 
 PCOD9433386
Probable space group: P C C N
;
_chemical_formula_sum "Si O2"
_cell_formula_units_Z 40
_cell_length_a 9.764038
_cell_length_b 14.354257
_cell_length_c 14.631953
_cell_angle_alpha 90.000000
_cell_angle_beta 90.000000
_cell_angle_gamma 90.000000
_cell_volume 2050.748847
_symmetry_space_group_name_H-M "P C C N"
_symmetry_group_IT_number 56
_symmetry_cell_setting 'orthorhombic'
loop_
_space_group_symop_operation_xyz
x,y,z
1/2-x,1/2-y,z
1/2+x,-y,1/2-z
-x,1/2+y,1/2-z
-x,-y,-z
1/2+x,1/2+y,-z
1/2-x,y,1/2+z
x,1/2-y,1/2+z
loop_
_atom_site_type_symbol
_atom_site_label
_atom_site_fract_x
_atom_site_fract_y
_atom_site_fract_z
Si Si1 0.923752 0.420321 0.938918
Si Si2 0.427746 0.011200 0.406024
Si Si3 0.188432 0.978049 0.209383
Si Si4 0.232674 0.855570 0.382918
Si Si5 0.696576 0.855788 0.158202
O O1 0.813729 0.454527 0.861000
O O2 0.045494 0.364872 0.886874
O O3 0.841840 0.365555 0.018957
O O4 0.000000 0.500000 0.000000
O O5 0.376719 0.907511 0.386841
O O6 0.500000 0.000000 0.500000
O O7 0.544746 0.039510 0.337741
O O8 0.302450 0.083471 0.403786
O O9 0.171735 0.914608 0.299758
O O10 0.199896 0.083817 0.247763
O O11 0.250000 0.750000 0.357418
O O12 0.750000 0.750000 0.166705
#
# Coordination Sequence:
#
# PCOD9433386 Si02
#       5
#     8   8   8   8   8
#     4  12  23  48  69  95 140 183 222 285 343 399
#     4  11  22  44  67  94 132 182 223 276 335 400
#     4  11  24  46  71  94 143 179 225 283 341 408
#     4  11  26  42  70 105 134 181 233 277 344 407
#     4  11  25  41  68 103 135 176 228 282 340 400
#
# _framework density 19.505071000000001
#
# number of rings (size 3 to 8) (size 9 to 14) (size 15 to 20)
#    0.000    0.800    6.000    2.400    2.800    4.000 
#    0.000    1.000    0.000    0.000    0.000    0.000 
#    0.000    0.000    0.000    0.000    0.000    0.000 
#
# Total GULP energy -222834.696428 kJ/mol
# GULP energy per Si atom -5570.867411 kJ/mol
# Density = 1.946068 g / cm^3
# Si number density = 19.505071 Si / 1000 Ang^3
#
#
#
# Elastic Constant Matrix: (Units=GPa)
#
#
# Indices 1 2 3 4 5 6 
#
# 1 119.8128 21.8094 51.2531 0.0000 0.0000 0.0000
# 2 21.8094 110.6545 30.2223 0.0000 0.0000 0.0000
# 3 51.2531 30.2223 123.0870 0.0000 0.0000 0.0000
# 4 0.0000 0.0000 0.0000 -10.9530 0.0000 0.0000
# 5 0.0000 0.0000 0.0000 0.0000 94.3536 0.0000
# 6 0.0000 0.0000 0.0000 0.0000 0.0000 6.0421
#
#
#
# Elastic Compliance Matrix: (Units=1/GPa)
#
#
# Indices 1 2 3 4 5 6 
#
# 1 0.010241 -0.000915 -0.004040 0.000000 0.000000 0.000000
# 2 -0.000915 0.009769 -0.002017 0.000000 0.000000 0.000000
# 3 -0.004040 -0.002017 0.010302 0.000000 0.000000 0.000000
# 4 0.000000 0.000000 0.000000 -0.091299 0.000000 0.000000
# 5 0.000000 0.000000 0.000000 0.000000 0.010598 0.000000
# 6 0.000000 0.000000 0.000000 0.000000 0.000000 0.165505
#
#
# Mechanical properties :
#
#
# Convention : Reuss Voigt Hill
#
# Bulk Modulus (GPa) = 61.09908 62.23598 61.66753
# Shear Modulus (GPa) = 37.17038 34.57320 35.87179
#
# Velocity S-wave (km/s) = 4.37014 4.21470 4.29313
# Velocity P-wave (km/s) = 7.54035 7.46068 7.50062
#
# Compressibility (1/GPa) = 0.01636686
#
# Stress axis : x y z
#
# Youngs Moduli (GPa) = 97.64690 102.36969 97.07066
#
# Poissons Ratio (x) = 0.09368 0.39213
# Poissons Ratio (y) = 0.08936 0.19584
# Poissons Ratio (z) = 0.39446 0.20653
#
# Static dielectric constant tensor:
#      x y z
#    x 1.675650 0.000000 0.000000 
#    y 0.000000 1.676230 0.000000 
#    z 0.000000 0.000000 1.652180 
# 
# From -- ./inp_files/10349.got.cif
#   From: 2010.05.17/outbox.cif.g08.bks.cpg/sg56_6_cif.got.tgz:10349.got - 2010.06.03 13:42:01.
