data_PCOD9433915
_publ_section_title
;
Structure prediction by ZEFSAII (Michael W. Deem and Ramdas Pophale) SiO2 
 PCOD9433915
Probable space group: P C C N
;
_chemical_formula_sum "Si O2"
_cell_formula_units_Z 64
_cell_length_a 12.000000
_cell_length_b 30.000000
_cell_length_c 9.000000
_cell_angle_alpha 90.000000
_cell_angle_beta 90.000000
_cell_angle_gamma 90.000000
_cell_volume 3240.000000
_symmetry_space_group_name_H-M "P C C N"
_symmetry_group_IT_number 56
_symmetry_cell_setting 'orthorhombic'
loop_
_space_group_symop_operation_xyz
x,y,z
1/2-x,1/2-y,z
1/2+x,-y,1/2-z
-x,1/2+y,1/2-z
-x,-y,-z
1/2+x,1/2+y,-z
1/2-x,y,1/2+z
x,1/2-y,1/2+z
loop_
_atom_site_type_symbol
_atom_site_label
_atom_site_fract_x
_atom_site_fract_y
_atom_site_fract_z
Si Si1 0.207141 0.389133 0.591899
Si Si2 0.029150 0.457902 0.599660
Si Si3 0.441960 0.309951 0.992425
Si Si4 0.379055 0.878048 0.532352
Si Si5 0.122391 0.233890 0.300727
Si Si6 0.303270 0.913766 0.832496
Si Si7 0.597171 0.863659 0.094701
Si Si8 0.092912 0.565148 0.124257
O O1 0.153615 0.438377 0.575577
O O2 0.143310 0.351966 0.490432
O O3 0.335197 0.383362 0.545790
O O4 0.170682 0.376293 0.759031
O O5 0.000000 0.500000 0.500000
O O6 0.952564 0.417619 0.538702
O O7 0.992724 0.463607 0.772721
O O8 0.405082 0.281192 0.134346
O O9 0.561133 0.332568 0.008653
O O10 0.442324 0.277442 0.853387
O O11 0.373646 0.887423 0.708638
O O12 0.261753 0.881926 0.448276
O O13 0.250000 0.250000 0.314098
O O14 0.095959 0.190089 0.400792
O O15 0.206552 0.934871 0.725011
O O16 0.371429 0.944061 0.952181
O O17 0.477521 0.887968 0.114131
#
# Coordination Sequence:
#
# PCOD9433915 Si02
#       8
#     8   8   8   8   8   8   8   8
#     4   9  19  34  50  75 113 147 181 225 278 346
#     4   9  18  36  57  82 117 150 184 234 291 352
#     4  10  21  34  50  79 109 147 186 229 280 337
#     4   9  19  36  59  81 106 144 192 243 293 342
#     4  11  20  31  51  76 111 146 185 221 269 352
#     4   9  17  36  61  79  99 141 200 242 283 338
#     4  10  20  33  52  78 115 147 182 227 290 340
#     4   9  19  35  57  83 108 147 189 244 289 344
#
# _framework density 19.753086
#
# number of rings (size 3 to 8) (size 9 to 14) (size 15 to 20)
#    0.000    2.500    1.250    2.625    1.750    3.000 
#    0.000   10.625    0.000   12.750    0.000    0.000 
#    0.000    0.000    0.000    0.000    0.000    0.000 
#
# Total GULP energy -356362.436445 kJ/mol
# GULP energy per Si atom -5568.163069 kJ/mol
# Density = 1.970813 g / cm^3
# Si number density = 19.753086 Si / 1000 Ang^3
#
#
#
# Elastic Constant Matrix: (Units=GPa)
#
#
# Indices 1 2 3 4 5 6 
#
# 1 38.1821 1.5611 8.2456 0.0000 0.0000 0.0000
# 2 1.5611 44.1348 -5.2593 0.0000 0.0000 0.0000
# 3 8.2456 -5.2593 72.0055 0.0000 0.0000 0.0000
# 4 0.0000 0.0000 0.0000 13.8630 0.0000 0.0000
# 5 0.0000 0.0000 0.0000 0.0000 30.7053 0.0000
# 6 0.0000 0.0000 0.0000 0.0000 0.0000 12.9479
#
#
#
# Elastic Compliance Matrix: (Units=1/GPa)
#
#
# Indices 1 2 3 4 5 6 
#
# 1 0.026932 -0.001332 -0.003181 0.000000 0.000000 0.000000
# 2 -0.001332 0.022923 0.001827 0.000000 0.000000 0.000000
# 3 -0.003181 0.001827 0.014386 0.000000 0.000000 0.000000
# 4 0.000000 0.000000 0.000000 0.072134 0.000000 0.000000
# 5 0.000000 0.000000 0.000000 0.000000 0.032568 0.000000
# 6 0.000000 0.000000 0.000000 0.000000 0.000000 0.077233
#
#
# Mechanical properties :
#
#
# Convention : Reuss Voigt Hill
#
# Bulk Modulus (GPa) = 16.98733 18.15748 17.57241
# Shear Modulus (GPa) = 18.43863 21.48825 19.96344
#
# Velocity S-wave (km/s) = 3.05857 3.30182 3.18252
# Velocity P-wave (km/s) = 4.59256 4.87322 4.73497
#
# Compressibility (1/GPa) = 0.05886740
#
# Stress axis : x y z
#
# Youngs Moduli (GPa) = 37.13094 43.62501 69.51416
#
# Poissons Ratio (x) = 0.05810 0.22115
# Poissons Ratio (y) = 0.04945 -0.12699
# Poissons Ratio (z) = 0.11813 -0.07969
#
# Static dielectric constant tensor:
#      x y z
#    x 1.768330 0.000000 0.000000 
#    y 0.000000 1.696710 0.000000 
#    z 0.000000 0.000000 1.744530 
# 
# From -- ./inp_files/2971.got.cif
#   From: 2010.05.17/outbox.ucp.g08.bks.cvg/sg56_2_cif.got.tgz:2971.got - 2010.06.11 16:37:52.
