data_PCOD9433228
_publ_section_title
;
Structure prediction by ZEFSAII (Michael W. Deem and Ramdas Pophale) SiO2 
 PCOD9433228
Probable space group: P C C N
;
_chemical_formula_sum "Si O2"
_cell_formula_units_Z 48
_cell_length_a 16.927604
_cell_length_b 8.415053
_cell_length_c 16.528352
_cell_angle_alpha 90.000000
_cell_angle_beta 90.000000
_cell_angle_gamma 90.000000
_cell_volume 2354.408948
_symmetry_space_group_name_H-M "P C C N"
_symmetry_group_IT_number 56
_symmetry_cell_setting 'orthorhombic'
loop_
_space_group_symop_operation_xyz
x,y,z
1/2-x,1/2-y,z
1/2+x,-y,1/2-z
-x,1/2+y,1/2-z
-x,-y,-z
1/2+x,1/2+y,-z
1/2-x,y,1/2+z
x,1/2-y,1/2+z
loop_
_atom_site_type_symbol
_atom_site_label
_atom_site_fract_x
_atom_site_fract_y
_atom_site_fract_z
Si Si1 0.194540 0.097161 0.719093
Si Si2 0.324904 0.673299 0.846916
Si Si3 0.719843 0.434812 0.907019
Si Si4 0.405675 0.572668 0.235711
Si Si5 0.587768 0.539096 0.035335
Si Si6 0.441239 0.257562 0.817190
O O1 0.250000 0.250000 0.732535
O O2 0.108695 0.153455 0.747211
O O3 0.209096 0.956650 0.784034
O O4 0.205159 0.033969 0.627636
O O5 0.250000 0.750000 0.892146
O O6 0.367762 0.807264 0.797613
O O7 0.391979 0.596106 0.900250
O O8 0.750000 0.250000 0.916996
O O9 0.661606 0.458789 0.830281
O O10 0.664255 0.514324 0.976156
O O11 0.473366 0.664790 0.187505
O O12 0.436698 0.422699 0.286702
O O13 0.589274 0.698412 0.091961
O O14 0.500000 0.500000 0.000000
#
# Coordination Sequence:
#
# PCOD9433228 Si02
#       6
#     8   8   8   8   8   8
#     4  11  20  38  66  97 131 169 230 276 330 413
#     4  11  21  41  67  96 128 178 227 281 339 414
#     4  12  23  43  69  99 140 181 230 287 350 423
#     4  12  22  42  74  98 129 178 237 285 339 418
#     4  11  25  42  63  97 146 177 218 287 362 413
#     4  11  24  40  70  98 134 176 228 291 344 415
#
# _framework density 20.387283
#
# number of rings (size 3 to 8) (size 9 to 14) (size 15 to 20)
#    0.000    0.667    6.667    2.500    0.000    0.000 
#    0.000    7.500    0.000    0.000    0.000    0.000 
#    0.000    0.000    0.000    0.000    0.000    0.000 
#
# Total GULP energy -267233.644774 kJ/mol
# GULP energy per Si atom -5567.367599 kJ/mol
# Density = 2.034088 g / cm^3
# Si number density = 20.387283 Si / 1000 Ang^3
#
#
#
# Elastic Constant Matrix: (Units=GPa)
#
#
# Indices 1 2 3 4 5 6 
#
# 1 68.3826 24.3532 24.3554 0.0000 0.0000 0.0000
# 2 24.3532 119.9327 48.0602 0.0000 0.0000 0.0000
# 3 24.3554 48.0602 98.3803 0.0000 0.0000 0.0000
# 4 0.0000 0.0000 0.0000 23.2406 0.0000 0.0000
# 5 0.0000 0.0000 0.0000 0.0000 29.3774 0.0000
# 6 0.0000 0.0000 0.0000 0.0000 0.0000 25.5486
#
#
#
# Elastic Compliance Matrix: (Units=1/GPa)
#
#
# Indices 1 2 3 4 5 6 
#
# 1 0.016462 -0.002126 -0.003037 0.000000 0.000000 0.000000
# 2 -0.002126 0.010642 -0.004673 0.000000 0.000000 0.000000
# 3 -0.003037 -0.004673 0.013199 0.000000 0.000000 0.000000
# 4 0.000000 0.000000 0.000000 0.043028 0.000000 0.000000
# 5 0.000000 0.000000 0.000000 0.000000 0.034040 0.000000
# 6 0.000000 0.000000 0.000000 0.000000 0.000000 0.039141
#
#
# Mechanical properties :
#
#
# Convention : Reuss Voigt Hill
#
# Bulk Modulus (GPa) = 48.46642 53.35925 50.91284
# Shear Modulus (GPa) = 27.31333 28.29510 27.80421
#
# Velocity S-wave (km/s) = 3.66419 3.72947 3.69698
# Velocity P-wave (km/s) = 6.45959 6.69140 6.57652
#
# Compressibility (1/GPa) = 0.02063284
#
# Stress axis : x y z
#
# Youngs Moduli (GPa) = 60.74469 93.96665 75.76277
#
# Poissons Ratio (x) = 0.19975 0.23009
# Poissons Ratio (y) = 0.12913 0.35400
# Poissons Ratio (z) = 0.18448 0.43906
#
# Static dielectric constant tensor:
#      x y z
#    x 1.981670 0.000000 0.000000 
#    y 0.000000 1.619710 0.000000 
#    z 0.000000 0.000000 1.830880 
# 
# From -- ./inp_files/12662.got.cif
#   From: 2010.05.17/outbox.cif.g08.bks.cpg/sg56_7_cif.got.tgz:12662.got - 2010.06.03 13:42:01.
