data_PCOD9433955
_publ_section_title
;
Structure prediction by ZEFSAII (Michael W. Deem and Ramdas Pophale) SiO2 
 PCOD9433955
Probable space group: P C C N
;
_chemical_formula_sum "Si O2"
_cell_formula_units_Z 60
_cell_length_a 18.000000
_cell_length_b 18.000000
_cell_length_c 9.000000
_cell_angle_alpha 90.000000
_cell_angle_beta 90.000000
_cell_angle_gamma 90.000000
_cell_volume 2916.000000
_symmetry_space_group_name_H-M "P C C N"
_symmetry_group_IT_number 56
_symmetry_cell_setting 'orthorhombic'
loop_
_space_group_symop_operation_xyz
x,y,z
1/2-x,1/2-y,z
1/2+x,-y,1/2-z
-x,1/2+y,1/2-z
-x,-y,-z
1/2+x,1/2+y,-z
1/2-x,y,1/2+z
x,1/2-y,1/2+z
loop_
_atom_site_type_symbol
_atom_site_label
_atom_site_fract_x
_atom_site_fract_y
_atom_site_fract_z
Si Si1 0.419406 0.967910 0.460827
Si Si2 0.652402 0.315011 0.931553
Si Si3 0.750000 0.250000 0.695493
Si Si4 0.829170 0.608743 0.500045
Si Si5 0.170503 0.120064 0.649463
Si Si6 0.963220 0.192186 0.411546
Si Si7 0.071717 0.976596 0.600010
Si Si8 0.066746 0.233187 0.142056
O O1 0.395253 0.888403 0.528513
O O2 0.424318 0.969167 0.280699
O O3 0.500000 0.000000 0.500000
O O4 0.360737 0.026534 0.529240
O O5 0.716004 0.314125 0.803721
O O6 0.599097 0.251023 0.868677
O O7 0.690837 0.287135 0.083372
O O8 0.818403 0.608075 0.676089
O O9 0.750825 0.626988 0.425235
O O10 0.891059 0.668444 0.448472
O O11 0.123913 0.197177 0.648784
O O12 0.128037 0.047598 0.579290
O O13 0.925808 0.111888 0.439559
O O14 0.030614 0.196186 0.290202
O O15 0.998533 0.228561 0.557715
O O16 0.000000 0.000000 0.500000
#
# Coordination Sequence:
#
# PCOD9433955 Si02
#       8
#     8   8   4   8   8   8   8   8
#     4  11  25  44  67  98 138 178 232 291 349 411
#     4  11  24  44  70 102 137 184 234 289 353 423
#     4  10  24  44  70 100 138 184 232 292 352 424
#     4  11  26  44  65  98 140 181 234 282 351 421
#     4  11  26  44  68  99 139 186 230 287 349 427
#     4  12  24  42  72 103 138 179 234 295 351 416
#     4  11  24  43  66 101 136 178 234 289 349 416
#     4  12  24  43  68 101 137 183 231 289 355 416
#
# _framework density 20.576132000000001
#
# number of rings (size 3 to 8) (size 9 to 14) (size 15 to 20)
#    0.000    0.800    2.667    4.400    3.733    7.467 
#    0.000    0.000    0.000    0.000    0.000    0.000 
#    0.000    0.000    0.000    0.000    0.000    0.000 
#
# Total GULP energy -334541.124863 kJ/mol
# GULP energy per Si atom -5575.685414 kJ/mol
# Density = 2.052930 g / cm^3
# Si number density = 20.576132 Si / 1000 Ang^3
#
#
#
# Elastic Constant Matrix: (Units=GPa)
#
#
# Indices 1 2 3 4 5 6 
#
# 1 81.9963 33.8860 26.3193 0.0000 0.0000 0.0000
# 2 33.8860 147.7645 20.7189 0.0000 0.0000 0.0000
# 3 26.3193 20.7189 70.7084 0.0000 0.0000 0.0000
# 4 0.0000 0.0000 0.0000 23.2329 0.0000 0.0000
# 5 0.0000 0.0000 0.0000 0.0000 44.8138 0.0000
# 6 0.0000 0.0000 0.0000 0.0000 0.0000 28.2192
#
#
#
# Elastic Compliance Matrix: (Units=1/GPa)
#
#
# Indices 1 2 3 4 5 6 
#
# 1 0.014845 -0.002742 -0.004722 0.000000 0.000000 0.000000
# 2 -0.002742 0.007564 -0.001196 0.000000 0.000000 0.000000
# 3 -0.004722 -0.001196 0.016251 0.000000 0.000000 0.000000
# 4 0.000000 0.000000 0.000000 0.043042 0.000000 0.000000
# 5 0.000000 0.000000 0.000000 0.000000 0.022315 0.000000
# 6 0.000000 0.000000 0.000000 0.000000 0.000000 0.035437
#
#
# Mechanical properties :
#
#
# Convention : Reuss Voigt Hill
#
# Bulk Modulus (GPa) = 46.86145 51.36862 49.11504
# Shear Modulus (GPa) = 30.50907 33.88953 32.19930
#
# Velocity S-wave (km/s) = 3.85481 4.06277 3.96016
# Velocity P-wave (km/s) = 6.52969 6.85766 6.69568
#
# Compressibility (1/GPa) = 0.02133950
#
# Stress axis : x y z
#
# Youngs Moduli (GPa) = 67.36478 132.20481 61.53622
#
# Poissons Ratio (x) = 0.36252 0.29057
# Poissons Ratio (y) = 0.18472 0.07358
# Poissons Ratio (z) = 0.31810 0.15808
#
# Static dielectric constant tensor:
#      x y z
#    x 1.774580 0.000000 0.000000 
#    y 0.000000 1.757660 0.000000 
#    z 0.000000 0.000000 1.758640 
# 
# From -- ./inp_files/4128.got.cif
#   From: 2010.05.17/outbox.ucp.g08.bks.cvg/sg56_3_cif.got.tgz:4128.got - 2010.06.11 16:37:52.
