data_PCOD9433698
_publ_section_title
;
Structure prediction by ZEFSAII (Michael W. Deem and Ramdas Pophale) SiO2 
 PCOD9433698
Probable space group: P C C N
;
_chemical_formula_sum "Si O2"
_cell_formula_units_Z 40
_cell_length_a 4.888661
_cell_length_b 11.483621
_cell_length_c 28.275025
_cell_angle_alpha 90.000000
_cell_angle_beta 90.000000
_cell_angle_gamma 90.000000
_cell_volume 1587.346618
_symmetry_space_group_name_H-M "P C C N"
_symmetry_group_IT_number 56
_symmetry_cell_setting 'orthorhombic'
loop_
_space_group_symop_operation_xyz
x,y,z
1/2-x,1/2-y,z
1/2+x,-y,1/2-z
-x,1/2+y,1/2-z
-x,-y,-z
1/2+x,1/2+y,-z
1/2-x,y,1/2+z
x,1/2-y,1/2+z
loop_
_atom_site_type_symbol
_atom_site_label
_atom_site_fract_x
_atom_site_fract_y
_atom_site_fract_z
Si Si1 0.593490 0.127137 0.638810
Si Si2 0.250000 0.250000 0.341280
Si Si3 0.671800 0.525841 0.720518
Si Si4 0.427463 0.416573 0.581790
Si Si5 0.250000 0.250000 0.005555
Si Si6 0.433453 0.859580 0.570763
O O1 0.750000 0.250000 0.638933
O O2 0.278486 0.125780 0.624005
O O3 0.769348 0.056611 0.599453
O O4 0.665142 0.061859 0.686495
O O5 0.371251 0.351481 0.307108
O O6 0.450096 0.179704 0.377445
O O7 0.387555 0.467772 0.736321
O O8 0.445050 0.317189 0.542429
O O9 0.265792 0.531621 0.567850
O O10 0.346358 0.352418 0.970774
O O11 0.250000 0.750000 0.556863
#
# Coordination Sequence:
#
# PCOD9433698 Si02
#       6
#     8   4   8   8   4   8
#     4  12  25  48  75 104 145 192 232 298 376 428
#     4  11  26  50  71 106 150 186 241 298 374 437
#     4  12  29  47  77 109 140 185 241 302 361 443
#     4  12  25  47  73 105 149 188 247 294 360 437
#     4  11  26  44  67 114 142 196 245 308 352 431
#     4  11  26  45  75 101 147 200 242 300 363 437
#
# _framework density 25.199283999999999
#
# number of rings (size 3 to 8) (size 9 to 14) (size 15 to 20)
#    0.000    0.400    4.000    3.000   11.200    0.800 
#    0.000    0.000    0.000    0.000    0.000    0.000 
#    0.000    0.000    0.000    0.000    0.000    0.000 
#
# Total GULP energy -223685.766629 kJ/mol
# GULP energy per Si atom -5592.144166 kJ/mol
# Density = 2.514193 g / cm^3
# Si number density = 25.199284 Si / 1000 Ang^3
#
#
#
# Elastic Constant Matrix: (Units=GPa)
#
#
# Indices 1 2 3 4 5 6 
#
# 1 115.7508 1.4313 29.8991 0.0000 0.0000 0.0000
# 2 1.4313 104.2368 25.6795 0.0000 0.0000 0.0000
# 3 29.8991 25.6795 110.9603 0.0000 0.0000 0.0000
# 4 0.0000 0.0000 0.0000 34.1636 0.0000 0.0000
# 5 0.0000 0.0000 0.0000 0.0000 7.2879 0.0000
# 6 0.0000 0.0000 0.0000 0.0000 0.0000 35.4859
#
#
#
# Elastic Compliance Matrix: (Units=1/GPa)
#
#
# Indices 1 2 3 4 5 6 
#
# 1 0.009312 0.000520 -0.002630 0.000000 0.000000 0.000000
# 2 0.000520 0.010203 -0.002501 0.000000 0.000000 0.000000
# 3 -0.002630 -0.002501 0.010300 0.000000 0.000000 0.000000
# 4 0.000000 0.000000 0.000000 0.029271 0.000000 0.000000
# 5 0.000000 0.000000 0.000000 0.000000 0.137213 0.000000
# 6 0.000000 0.000000 0.000000 0.000000 0.000000 0.028180
#
#
# Mechanical properties :
#
#
# Convention : Reuss Voigt Hill
#
# Bulk Modulus (GPa) = 48.56126 49.44086 49.00106
# Shear Modulus (GPa) = 20.78446 33.65001 27.21724
#
# Velocity S-wave (km/s) = 2.87505 3.65822 3.29002
# Velocity P-wave (km/s) = 5.50763 6.12421 5.82408
#
# Compressibility (1/GPa) = 0.02059255
#
# Stress axis : x y z
#
# Youngs Moduli (GPa) = 107.38781 98.01408 97.09064
#
# Poissons Ratio (x) = -0.05096 0.25530
# Poissons Ratio (y) = -0.05584 0.24285
# Poissons Ratio (z) = 0.28238 0.24516
#
# Static dielectric constant tensor:
#      x y z
#    x 1.997100 0.000000 0.000000 
#    y 0.000000 2.053140 0.000000 
#    z 0.000000 0.000000 2.018990 
# 
# From -- ./inp_files/21540.got.cif
#   From: 2010.05.17/outbox.cif.g08.bks.cpg/sg56_11_cif.got.tgz:21540.got - 2010.06.03 13:42:01.
