data_PCOD9433432
_publ_section_title
;
Structure prediction by ZEFSAII (Michael W. Deem and Ramdas Pophale) SiO2 
 PCOD9433432
Probable space group: P C C N
;
_chemical_formula_sum "Si O2"
_cell_formula_units_Z 24
_cell_length_a 4.860318
_cell_length_b 15.032783
_cell_length_c 13.373570
_cell_angle_alpha 90.000000
_cell_angle_beta 90.000000
_cell_angle_gamma 90.000000
_cell_volume 977.127933
_symmetry_space_group_name_H-M "P C C N"
_symmetry_group_IT_number 56
_symmetry_cell_setting 'orthorhombic'
loop_
_space_group_symop_operation_xyz
x,y,z
1/2-x,1/2-y,z
1/2+x,-y,1/2-z
-x,1/2+y,1/2-z
-x,-y,-z
1/2+x,1/2+y,-z
1/2-x,y,1/2+z
x,1/2-y,1/2+z
loop_
_atom_site_type_symbol
_atom_site_label
_atom_site_fract_x
_atom_site_fract_y
_atom_site_fract_z
Si Si1 0.793395 0.857720 0.659038
Si Si2 0.488260 0.691170 0.857551
Si Si3 0.183422 0.919459 0.044830
O O1 0.750000 0.750000 0.644852
O O2 0.491446 0.894450 0.641952
O O3 0.899528 0.872908 0.771292
O O4 0.001641 0.907621 0.581842
O O5 0.250000 0.750000 0.807932
O O6 0.353749 0.649962 0.954894
O O7 0.750000 0.750000 0.887761
O O8 0.000000 0.000000 0.000000
#
# Coordination Sequence:
#
# PCOD9433432 Si02
#       3
#     8   8   8
#     4  11  23  42  65  90 122 166 216 261 308 376
#     4  11  23  40  65  91 118 163 216 259 306 374
#     4  12  25  40  63  95 131 165 202 262 329 382
#
# _framework density 24.561779999999999
#
# number of rings (size 3 to 8) (size 9 to 14) (size 15 to 20)
#    0.000    0.667    0.000   11.000    0.000    2.667 
#    0.000    0.000    0.000    0.000    0.000    0.000 
#    0.000    0.000    0.000    0.000    0.000    0.000 
#
# Total GULP energy -133956.671456 kJ/mol
# GULP energy per Si atom -5581.527977 kJ/mol
# Density = 2.450588 g / cm^3
# Si number density = 24.561780 Si / 1000 Ang^3
#
#
#
# Elastic Constant Matrix: (Units=GPa)
#
#
# Indices 1 2 3 4 5 6 
#
# 1 143.5571 9.8471 16.0355 0.0000 0.0000 0.0000
# 2 9.8471 34.3882 -21.7129 0.0000 0.0000 0.0000
# 3 16.0355 -21.7129 105.1630 0.0000 0.0000 0.0000
# 4 0.0000 0.0000 0.0000 -3.2105 0.0000 0.0000
# 5 0.0000 0.0000 0.0000 0.0000 24.5897 0.0000
# 6 0.0000 0.0000 0.0000 0.0000 0.0000 38.9549
#
#
#
# Elastic Compliance Matrix: (Units=1/GPa)
#
#
# Indices 1 2 3 4 5 6 
#
# 1 0.007390 -0.003251 -0.001798 0.000000 0.000000 0.000000
# 2 -0.003251 0.034870 0.007695 0.000000 0.000000 0.000000
# 3 -0.001798 0.007695 0.011372 0.000000 0.000000 0.000000
# 4 0.000000 0.000000 0.000000 -0.311475 0.000000 0.000000
# 5 0.000000 0.000000 0.000000 0.000000 0.040668 0.000000
# 6 0.000000 0.000000 0.000000 0.000000 0.000000 0.025671
#
#
# Mechanical properties :
#
#
# Convention : Reuss Voigt Hill
#
# Bulk Modulus (GPa) = 16.97131 32.38307 24.67719
# Shear Modulus (GPa) = -28.22368 30.66270 1.21951
#
# Velocity S-wave (km/s) = -3.39350 3.53709 0.70540
# Velocity P-wave (km/s) = 2.90341 5.46757 3.27601
#
# Compressibility (1/GPa) = 0.05892298
#
# Stress axis : x y z
#
# Youngs Moduli (GPa) = 135.32258 28.67824 87.93473
#
# Poissons Ratio (x) = 0.09324 0.15812
# Poissons Ratio (y) = 0.43999 -0.67668
# Poissons Ratio (z) = 0.24333 -0.22069
#
# Static dielectric constant tensor:
#      x y z
#    x 1.947270 0.000000 0.000000 
#    y 0.000000 2.026130 0.000000 
#    z 0.000000 0.000000 1.940600 
# 
# From -- ./inp_files/5345.got.cif
#   From: 2010.05.17/outbox.cif.g08.bks.cpg/sg56_3_cif.got.tgz:5345.got - 2010.06.03 13:42:01.
