data_PCOD9433166
_publ_section_title
;
Structure prediction by ZEFSAII (Michael W. Deem and Ramdas Pophale) SiO2 
 PCOD9433166
Probable space group: P C C N
;
_chemical_formula_sum "Si O2"
_cell_formula_units_Z 40
_cell_length_a 12.047435
_cell_length_b 15.726718
_cell_length_c 8.049766
_cell_angle_alpha 90.000000
_cell_angle_beta 90.000000
_cell_angle_gamma 90.000000
_cell_volume 1525.161898
_symmetry_space_group_name_H-M "P C C N"
_symmetry_group_IT_number 56
_symmetry_cell_setting 'orthorhombic'
loop_
_space_group_symop_operation_xyz
x,y,z
1/2-x,1/2-y,z
1/2+x,-y,1/2-z
-x,1/2+y,1/2-z
-x,-y,-z
1/2+x,1/2+y,-z
1/2-x,y,1/2+z
x,1/2-y,1/2+z
loop_
_atom_site_type_symbol
_atom_site_label
_atom_site_fract_x
_atom_site_fract_y
_atom_site_fract_z
Si Si1 0.250000 0.250000 0.102876
Si Si2 0.605037 0.089633 0.431053
Si Si3 0.640782 0.865338 0.634552
Si Si4 0.425451 0.601335 0.687397
Si Si5 0.348962 0.023139 0.887068
Si Si6 0.250000 0.750000 0.128938
O O1 0.306190 0.175328 0.203985
O O2 0.151942 0.209311 0.998306
O O3 0.485555 0.111093 0.352907
O O4 0.581100 0.066233 0.623428
O O5 0.681653 0.172735 0.448465
O O6 0.654304 0.030746 0.284219
O O7 0.729966 0.935799 0.583501
O O8 0.378028 0.538442 0.542620
O O9 0.556778 0.595768 0.640898
O O10 0.356307 0.690216 0.691245
#
# Coordination Sequence:
#
# PCOD9433166 Si02
#       6
#     4   8   8   8   8   4
#     4  10  26  48  82 116 164 210 278 342 414 496
#     4  12  30  53  87 118 164 225 274 348 424 495
#     4  11  27  52  82 121 161 219 277 345 417 507
#     4  11  29  55  80 124 164 221 275 347 413 506
#     4  11  29  54  85 123 172 212 284 344 420 504
#     4  12  32  52  86 120 174 214 290 344 420 500
#
# _framework density 26.226724999999998
#
# number of rings (size 3 to 8) (size 9 to 14) (size 15 to 20)
#    0.000    0.800    0.000    2.400   22.400    1.600 
#    7.200    0.000    0.000    0.000    0.000    0.000 
#    0.000    0.000    0.000    0.000    0.000    0.000 
#
# Total GULP energy -223586.347889 kJ/mol
# GULP energy per Si atom -5589.658697 kJ/mol
# Density = 2.616703 g / cm^3
# Si number density = 26.226725 Si / 1000 Ang^3
#
#
#
# Elastic Constant Matrix: (Units=GPa)
#
#
# Indices 1 2 3 4 5 6 
#
# 1 140.8264 26.2201 4.5295 0.0000 0.0000 0.0000
# 2 26.2201 58.1213 10.8206 0.0000 0.0000 0.0000
# 3 4.5295 10.8206 125.0409 0.0000 0.0000 0.0000
# 4 0.0000 0.0000 0.0000 34.6898 0.0000 0.0000
# 5 0.0000 0.0000 0.0000 0.0000 1.9121 0.0000
# 6 0.0000 0.0000 0.0000 0.0000 0.0000 60.0261
#
#
#
# Elastic Compliance Matrix: (Units=1/GPa)
#
#
# Indices 1 2 3 4 5 6 
#
# 1 0.007752 -0.003501 0.000022 0.000000 0.000000 0.000000
# 2 -0.003501 0.019069 -0.001523 0.000000 0.000000 0.000000
# 3 0.000022 -0.001523 0.008128 0.000000 0.000000 0.000000
# 4 0.000000 0.000000 0.000000 0.028827 0.000000 0.000000
# 5 0.000000 0.000000 0.000000 0.000000 0.522977 0.000000
# 6 0.000000 0.000000 0.000000 0.000000 0.000000 0.016659
#
#
# Mechanical properties :
#
#
# Convention : Reuss Voigt Hill
#
# Bulk Modulus (GPa) = 40.08952 45.23658 42.66305
# Shear Modulus (GPa) = 8.04205 38.15348 23.09776
#
# Velocity S-wave (km/s) = 1.75300 3.81826 2.97087
# Velocity P-wave (km/s) = 4.40639 6.06008 5.29815
#
# Compressibility (1/GPa) = 0.02494418
#
# Stress axis : x y z
#
# Youngs Moduli (GPa) = 128.99677 52.44238 123.02547
#
# Poissons Ratio (x) = 0.18362 -0.00273
# Poissons Ratio (y) = 0.45166 0.18740
# Poissons Ratio (z) = -0.00286 0.07989
#
# Static dielectric constant tensor:
#      x y z
#    x 1.996470 0.000000 0.000000 
#    y 0.000000 2.113700 0.000000 
#    z 0.000000 0.000000 2.046110 
# 
# From -- ./inp_files/2605.got.cif
#   From: 2010.05.17/outbox.cif.g08.bks.cpg/sg56_2_cif.got.tgz:2605.got - 2010.06.03 13:42:01.
