data_PCOD9433741
_publ_section_title
;
Structure prediction by ZEFSAII (Michael W. Deem and Ramdas Pophale) SiO2 
 PCOD9433741
Probable space group: P C C N
;
_chemical_formula_sum "Si O2"
_cell_formula_units_Z 52
_cell_length_a 9.345172
_cell_length_b 23.899370
_cell_length_c 8.101175
_cell_angle_alpha 90.000000
_cell_angle_beta 90.000000
_cell_angle_gamma 90.000000
_cell_volume 1809.346588
_symmetry_space_group_name_H-M "P C C N"
_symmetry_group_IT_number 56
_symmetry_cell_setting 'orthorhombic'
loop_
_space_group_symop_operation_xyz
x,y,z
1/2-x,1/2-y,z
1/2+x,-y,1/2-z
-x,1/2+y,1/2-z
-x,-y,-z
1/2+x,1/2+y,-z
1/2-x,y,1/2+z
x,1/2-y,1/2+z
loop_
_atom_site_type_symbol
_atom_site_label
_atom_site_fract_x
_atom_site_fract_y
_atom_site_fract_z
Si Si1 0.932909 0.202145 0.352043
Si Si2 0.705217 0.140070 0.150473
Si Si3 0.460041 0.324467 0.854175
Si Si4 0.293858 0.351299 0.236925
Si Si5 0.935167 0.534898 0.252270
Si Si6 0.711738 0.476024 0.454962
Si Si7 0.750000 0.750000 0.418797
O O1 0.867763 0.181927 0.520931
O O2 0.851549 0.168517 0.209989
O O3 0.937363 0.267729 0.335852
O O4 0.100919 0.185000 0.351414
O O5 0.596314 0.135963 0.303275
O O6 0.636142 0.006350 0.382948
O O7 0.711433 0.081755 0.054903
O O8 0.339056 0.375938 0.835518
O O9 0.367530 0.204748 0.518630
O O10 0.388856 0.403251 0.188128
O O11 0.172416 0.298131 0.194145
O O12 0.099939 0.530292 0.198770
O O13 0.855703 0.522427 0.076814
#
# Coordination Sequence:
#
# PCOD9433741 Si02
#       7
#     8   8   8   8   8   8   4
#     4  12  26  50  75 113 165 214 266 331 416 500
#     4  12  29  51  79 116 167 220 271 337 421 498
#     4  12  27  46  80 113 163 209 266 334 413 513
#     4  12  26  48  78 117 156 212 272 339 413 490
#     4  11  28  51  83 116 162 213 281 354 417 492
#     4  11  27  56  79 119 162 219 288 347 417 496
#     4  12  24  48  80 118 162 204 276 336 416 516
#
# _framework density 28.739660000000001
#
# number of rings (size 3 to 8) (size 9 to 14) (size 15 to 20)
#    0.000    0.308    4.615    2.308    8.615    1.846 
#    0.000    0.000    0.000    0.000    0.000    0.000 
#    0.000    0.000    0.000    0.000    0.000    0.000 
#
# Total GULP energy -289918.085309 kJ/mol
# GULP energy per Si atom -5575.347794 kJ/mol
# Density = 2.867425 g / cm^3
# Si number density = 28.739660 Si / 1000 Ang^3
#
#
#
# Elastic Constant Matrix: (Units=GPa)
#
#
# Indices 1 2 3 4 5 6 
#
# 1 211.2505 94.1118 97.0944 0.0000 0.0000 0.0000
# 2 94.1118 221.2218 120.8492 0.0000 0.0000 0.0000
# 3 97.0944 120.8492 204.9468 0.0000 0.0000 0.0000
# 4 0.0000 0.0000 0.0000 60.0988 0.0000 0.0000
# 5 0.0000 0.0000 0.0000 0.0000 65.2689 0.0000
# 6 0.0000 0.0000 0.0000 0.0000 0.0000 30.6572
#
#
#
# Elastic Compliance Matrix: (Units=1/GPa)
#
#
# Indices 1 2 3 4 5 6 
#
# 1 0.006402 -0.001574 -0.002105 0.000000 0.000000 0.000000
# 2 -0.001574 0.007055 -0.003415 0.000000 0.000000 0.000000
# 3 -0.002105 -0.003415 0.007890 0.000000 0.000000 0.000000
# 4 0.000000 0.000000 0.000000 0.016639 0.000000 0.000000
# 5 0.000000 0.000000 0.000000 0.000000 0.015321 0.000000
# 6 0.000000 0.000000 0.000000 0.000000 0.000000 0.032619
#
#
# Mechanical properties :
#
#
# Convention : Reuss Voigt Hill
#
# Bulk Modulus (GPa) = 139.65181 140.17001 139.91091
# Shear Modulus (GPa) = 48.78009 52.89589 50.83799
#
# Velocity S-wave (km/s) = 4.12431 4.29478 4.21041
# Velocity P-wave (km/s) = 8.44852 8.57157 8.51026
#
# Compressibility (1/GPa) = 0.00716067
#
# Stress axis : x y z
#
# Youngs Moduli (GPa) = 156.19205 141.74039 126.74015
#
# Poissons Ratio (x) = 0.22305 0.26682
# Poissons Ratio (y) = 0.24579 0.43277
# Poissons Ratio (z) = 0.32882 0.48399
#
# Static dielectric constant tensor:
#      x y z
#    x 1.866310 0.000000 0.000000 
#    y 0.000000 1.962920 0.000000 
#    z 0.000000 0.000000 1.767260 
# 
# From -- ./inp_files/7984.got.cif
#   From: 2010.05.17/outbox.cif.g08.bks.cpg/sg56_4_cif.got.tgz:7984.got - 2010.06.03 13:42:01.
