data_PCOD9433044
_publ_section_title
;
Structure prediction by ZEFSAII (Michael W. Deem and Ramdas Pophale) SiO2 
 PCOD9433044
Probable space group: P C C N
;
_chemical_formula_sum "Si O2"
_cell_formula_units_Z 56
_cell_length_a 32.060479
_cell_length_b 5.295073
_cell_length_c 13.985301
_cell_angle_alpha 90.000000
_cell_angle_beta 90.000000
_cell_angle_gamma 90.000000
_cell_volume 2374.180734
_symmetry_space_group_name_H-M "P C C N"
_symmetry_group_IT_number 56
_symmetry_cell_setting 'orthorhombic'
loop_
_space_group_symop_operation_xyz
x,y,z
1/2-x,1/2-y,z
1/2+x,-y,1/2-z
-x,1/2+y,1/2-z
-x,-y,-z
1/2+x,1/2+y,-z
1/2-x,y,1/2+z
x,1/2-y,1/2+z
loop_
_atom_site_type_symbol
_atom_site_label
_atom_site_fract_x
_atom_site_fract_y
_atom_site_fract_z
Si Si1 0.878575 0.179124 0.970925
Si Si2 0.750000 0.750000 0.902014
Si Si3 0.667874 0.519729 0.331051
Si Si4 0.610555 0.901251 0.263793
Si Si5 0.170439 0.734942 0.853919
Si Si6 0.250000 0.750000 0.474371
Si Si7 0.474616 0.751395 0.027092
Si Si8 0.519765 0.058146 0.265525
O O1 0.848665 0.400654 0.929338
O O2 0.925769 0.250453 0.000659
O O3 0.882884 0.012479 0.872938
O O4 0.855110 0.094700 0.068022
O O5 0.793969 0.707973 0.848264
O O6 0.741620 0.494647 0.961244
O O7 0.625389 0.618794 0.281199
O O8 0.684759 0.342254 0.248131
O O9 0.639863 0.016505 0.182478
O O10 0.563948 0.953165 0.231536
O O11 0.211979 0.665611 0.908575
O O12 0.473553 0.730968 0.141426
O O13 0.500000 0.500000 0.000000
O O14 0.500000 0.000000 0.000000
O O15 0.502369 0.292911 0.202653
#
# Coordination Sequence:
#
# PCOD9433044 Si02
#       8
#     8   4   8   8   8   4   8   8
#     4  10  24  48  68 101 150 190 245 306 377 438
#     4  12  28  50  80 110 154 200 240 310 376 444
#     4  11  26  46  77 104 149 199 248 307 374 446
#     4  10  26  44  71 105 145 195 246 302 376 439
#     4  11  26  45  75 109 145 193 249 306 362 453
#     4  12  28  50  76 114 152 192 248 296 382 434
#     4  11  26  44  71 106 141 193 247 305 368 442
#     4  11  26  45  72 103 148 190 243 307 373 439
#
# _framework density 23.587083
#
# number of rings (size 3 to 8) (size 9 to 14) (size 15 to 20)
#    0.000    1.143    1.429    1.714   20.000    1.143 
#    0.000    0.000    0.000    0.000    0.000    0.000 
#    0.000    0.000    0.000    0.000    0.000    0.000 
#
# Total GULP energy -312175.127152 kJ/mol
# GULP energy per Si atom -5574.555842 kJ/mol
# Density = 2.353340 g / cm^3
# Si number density = 23.587083 Si / 1000 Ang^3
#
#
#
# Elastic Constant Matrix: (Units=GPa)
#
#
# Indices 1 2 3 4 5 6 
#
# 1 123.1381 20.7769 31.7485 0.0000 0.0000 0.0000
# 2 20.7769 83.1090 14.7113 0.0000 0.0000 0.0000
# 3 31.7485 14.7113 72.0575 0.0000 0.0000 0.0000
# 4 0.0000 0.0000 0.0000 73.9615 0.0000 0.0000
# 5 0.0000 0.0000 0.0000 0.0000 31.0107 0.0000
# 6 0.0000 0.0000 0.0000 0.0000 0.0000 30.0800
#
#
#
# Elastic Compliance Matrix: (Units=1/GPa)
#
#
# Indices 1 2 3 4 5 6 
#
# 1 0.009381 -0.001674 -0.003791 0.000000 0.000000 0.000000
# 2 -0.001674 0.012782 -0.001872 0.000000 0.000000 0.000000
# 3 -0.003791 -0.001872 0.015931 0.000000 0.000000 0.000000
# 4 0.000000 0.000000 0.000000 0.013521 0.000000 0.000000
# 5 0.000000 0.000000 0.000000 0.000000 0.032247 0.000000
# 6 0.000000 0.000000 0.000000 0.000000 0.000000 0.033245
#
#
# Mechanical properties :
#
#
# Convention : Reuss Voigt Hill
#
# Bulk Modulus (GPa) = 42.70109 45.86421 44.28265
# Shear Modulus (GPa) = 35.81988 41.08164 38.45076
#
# Velocity S-wave (km/s) = 3.90118 4.17790 4.04191
# Velocity P-wave (km/s) = 6.19961 6.53911 6.37162
#
# Compressibility (1/GPa) = 0.02341861
#
# Stress axis : x y z
#
# Youngs Moduli (GPa) = 106.59869 78.23331 62.77258
#
# Poissons Ratio (x) = 0.13097 0.23800
# Poissons Ratio (y) = 0.17845 0.11751
# Poissons Ratio (z) = 0.40417 0.14646
#
# Static dielectric constant tensor:
#      x y z
#    x 1.981950 0.000000 0.000000 
#    y 0.000000 2.014830 0.000000 
#    z 0.000000 0.000000 1.990050 
# 
# From -- ./inp_files/13483.got.cif
#   From: 2010.05.17/outbox.cif.g08.bks.cpg/sg56_7_cif.got.tgz:13483.got - 2010.06.03 13:42:01.
