data_PCOD9433295
_publ_section_title
;
Structure prediction by ZEFSAII (Michael W. Deem and Ramdas Pophale) SiO2 
 PCOD9433295
Probable space group: P C C N
;
_chemical_formula_sum "Si O2"
_cell_formula_units_Z 48
_cell_length_a 17.691405
_cell_length_b 8.507223
_cell_length_c 14.693238
_cell_angle_alpha 90.000000
_cell_angle_beta 90.000000
_cell_angle_gamma 90.000000
_cell_volume 2211.401782
_symmetry_space_group_name_H-M "P C C N"
_symmetry_group_IT_number 56
_symmetry_cell_setting 'orthorhombic'
loop_
_space_group_symop_operation_xyz
x,y,z
1/2-x,1/2-y,z
1/2+x,-y,1/2-z
-x,1/2+y,1/2-z
-x,-y,-z
1/2+x,1/2+y,-z
1/2-x,y,1/2+z
x,1/2-y,1/2+z
loop_
_atom_site_type_symbol
_atom_site_label
_atom_site_fract_x
_atom_site_fract_y
_atom_site_fract_z
Si Si1 0.099932 0.598906 0.252922
Si Si2 0.735444 0.437313 0.454840
Si Si3 0.353680 0.944493 0.699513
Si Si4 0.516355 0.601502 0.909438
Si Si5 0.435972 0.448950 0.571782
Si Si6 0.245913 0.943881 0.845730
O O1 0.131338 0.758153 0.207508
O O2 0.051995 0.508558 0.176085
O O3 0.174589 0.507013 0.285125
O O4 0.056851 0.637047 0.347106
O O5 0.750000 0.250000 0.457065
O O6 0.787326 0.488533 0.371181
O O7 0.647476 0.483072 0.449069
O O8 0.763539 0.499395 0.551940
O O9 0.323164 0.997038 0.797698
O O10 0.429704 0.010219 0.659264
O O11 0.559067 0.761842 0.932281
O O12 0.500000 0.500000 0.000000
O O13 0.500000 0.500000 0.500000
O O14 0.250000 0.750000 0.845759
#
# Coordination Sequence:
#
# PCOD9433295 Si02
#       6
#     8   8   8   8   8   8
#     4  11  22  46  71 104 135 194 246 290 373 452
#     4  11  21  42  74 101 138 184 245 299 357 444
#     4  11  21  44  70  99 140 185 236 305 369 435
#     4  12  28  44  68 104 156 190 234 316 383 444
#     4  12  27  43  72 107 138 194 254 297 373 457
#     4   9  20  35  69  99 126 176 232 289 352 426
#
# _framework density 21.705690000000001
#
# number of rings (size 3 to 8) (size 9 to 14) (size 15 to 20)
#    0.000    1.000    3.333    3.500    9.333    0.667 
#    0.000    0.000    0.000    0.000    0.000    0.000 
#    0.000    0.000    0.000    0.000    0.000    0.000 
#
# Total GULP energy -267940.197104 kJ/mol
# GULP energy per Si atom -5582.087440 kJ/mol
# Density = 2.165629 g / cm^3
# Si number density = 21.705690 Si / 1000 Ang^3
#
#
#
# Elastic Constant Matrix: (Units=GPa)
#
#
# Indices 1 2 3 4 5 6 
#
# 1 107.0728 23.4154 43.2182 0.0000 0.0000 0.0000
# 2 23.4154 57.9106 32.5870 0.0000 0.0000 0.0000
# 3 43.2182 32.5870 132.7251 0.0000 0.0000 0.0000
# 4 0.0000 0.0000 0.0000 4.2847 0.0000 0.0000
# 5 0.0000 0.0000 0.0000 0.0000 46.7638 0.0000
# 6 0.0000 0.0000 0.0000 0.0000 0.0000 25.6711
#
#
#
# Elastic Compliance Matrix: (Units=1/GPa)
#
#
# Indices 1 2 3 4 5 6 
#
# 1 0.011146 -0.002860 -0.002927 0.000000 0.000000 0.000000
# 2 -0.002860 0.020770 -0.004168 0.000000 0.000000 0.000000
# 3 -0.002927 -0.004168 0.009511 0.000000 0.000000 0.000000
# 4 0.000000 0.000000 0.000000 0.233389 0.000000 0.000000
# 5 0.000000 0.000000 0.000000 0.000000 0.021384 0.000000
# 6 0.000000 0.000000 0.000000 0.000000 0.000000 0.038954
#
#
# Mechanical properties :
#
#
# Convention : Reuss Voigt Hill
#
# Bulk Modulus (GPa) = 46.47583 55.12774 50.80178
# Shear Modulus (GPa) = 13.80309 28.57643 21.18976
#
# Velocity S-wave (km/s) = 2.52448 3.63235 3.12786
# Velocity P-wave (km/s) = 5.47318 6.56087 6.04155
#
# Compressibility (1/GPa) = 0.02151656
#
# Stress axis : x y z
#
# Youngs Moduli (GPa) = 89.71506 48.14678 105.14126
#
# Poissons Ratio (x) = 0.13768 0.30779
# Poissons Ratio (y) = 0.25655 0.43826
# Poissons Ratio (z) = 0.26263 0.20069
#
# Static dielectric constant tensor:
#      x y z
#    x 1.787300 0.000000 0.000000 
#    y 0.000000 1.513270 0.000000 
#    z 0.000000 0.000000 1.823550 
# 
# From -- ./inp_files/12706.got.cif
#   From: 2010.05.17/outbox.cif.g08.bks.cpg/sg56_7_cif.got.tgz:12706.got - 2010.06.03 13:42:01.
