data_PCOD9433806
_publ_section_title
;
Structure prediction by ZEFSAII (Michael W. Deem and Ramdas Pophale) SiO2 
 PCOD9433806
Probable space group: P C C N
;
_chemical_formula_sum "Si O2"
_cell_formula_units_Z 28
_cell_length_a 5.186792
_cell_length_b 12.753639
_cell_length_c 18.624659
_cell_angle_alpha 90.000000
_cell_angle_beta 90.000000
_cell_angle_gamma 90.000000
_cell_volume 1232.029997
_symmetry_space_group_name_H-M "P C C N"
_symmetry_group_IT_number 56
_symmetry_cell_setting 'orthorhombic'
loop_
_space_group_symop_operation_xyz
x,y,z
1/2-x,1/2-y,z
1/2+x,-y,1/2-z
-x,1/2+y,1/2-z
-x,-y,-z
1/2+x,1/2+y,-z
1/2-x,y,1/2+z
x,1/2-y,1/2+z
loop_
_atom_site_type_symbol
_atom_site_label
_atom_site_fract_x
_atom_site_fract_y
_atom_site_fract_z
Si Si1 0.233781 0.020930 0.704208
Si Si2 0.750000 0.750000 0.013138
Si Si3 0.436877 0.664189 0.881081
Si Si4 0.905038 0.536611 0.077593
O O1 0.328261 0.130387 0.669844
O O2 0.483708 0.974435 0.744477
O O3 0.133424 0.957100 0.635324
O O4 0.530935 0.714249 0.956141
O O5 0.705998 0.849542 0.063099
O O6 0.250000 0.750000 0.846812
O O7 0.287190 0.555328 0.896703
O O8 0.000000 0.500000 0.000000
#
# Coordination Sequence:
#
# PCOD9433806 Si02
#       4
#     8   4   8   8
#     4  12  27  52  80 113 168 217 265 334 406 489
#     4  12  26  44  82 128 152 208 268 348 394 486
#     4  12  24  47  84 118 158 212 266 328 414 475
#     4  12  25  48  83 118 159 207 278 333 400 480
#
# _framework density 22.726717000000001
#
# number of rings (size 3 to 8) (size 9 to 14) (size 15 to 20)
#    0.000    0.000    8.571    0.857    0.000    0.000 
#    0.000    7.143    0.000    0.000    0.000    0.000 
#    0.000    0.000    0.000    0.000    0.000    0.000 
#
# Total GULP energy -156613.196693 kJ/mol
# GULP energy per Si atom -5593.328453 kJ/mol
# Density = 2.267499 g / cm^3
# Si number density = 22.726717 Si / 1000 Ang^3
#
#
#
# Elastic Constant Matrix: (Units=GPa)
#
#
# Indices 1 2 3 4 5 6 
#
# 1 152.5518 57.7074 63.7807 0.0000 0.0000 0.0000
# 2 57.7074 158.7005 26.6815 0.0000 0.0000 0.0000
# 3 63.7807 26.6815 123.4704 0.0000 0.0000 0.0000
# 4 0.0000 0.0000 0.0000 0.2200 0.0000 0.0000
# 5 0.0000 0.0000 0.0000 0.0000 29.5995 0.0000
# 6 0.0000 0.0000 0.0000 0.0000 0.0000 47.5654
#
#
#
# Elastic Compliance Matrix: (Units=1/GPa)
#
#
# Indices 1 2 3 4 5 6 
#
# 1 0.009347 -0.002684 -0.004248 0.000000 0.000000 0.000000
# 2 -0.002684 0.007310 -0.000193 0.000000 0.000000 0.000000
# 3 -0.004248 -0.000193 0.010335 0.000000 0.000000 0.000000
# 4 0.000000 0.000000 0.000000 4.546273 0.000000 0.000000
# 5 0.000000 0.000000 0.000000 0.000000 0.033784 0.000000
# 6 0.000000 0.000000 0.000000 0.000000 0.000000 0.021024
#
#
# Mechanical properties :
#
#
# Convention : Reuss Voigt Hill
#
# Bulk Modulus (GPa) = 78.48841 81.22911 79.85876
# Shear Modulus (GPa) = 1.07606 34.58052 17.82829
#
# Velocity S-wave (km/s) = 0.68884 3.90498 2.80387
# Velocity P-wave (km/s) = 5.93661 7.49340 6.75997
#
# Compressibility (1/GPa) = 0.01274073
#
# Stress axis : x y z
#
# Youngs Moduli (GPa) = 106.98918 136.80353 96.75650
#
# Poissons Ratio (x) = 0.36725 0.41103
# Poissons Ratio (y) = 0.28721 0.01866
# Poissons Ratio (z) = 0.45450 0.02639
#
# Static dielectric constant tensor:
#      x y z
#    x 1.946570 0.000000 0.000000 
#    y 0.000000 1.757950 0.000000 
#    z 0.000000 0.000000 1.826980 
# 
# From -- ./inp_files/15308.got.cif
#   From: 2010.05.17/outbox.cif.g08.bks.cpg/sg56_8_cif.got.tgz:15308.got - 2010.06.03 13:42:01.
