data_PCOD9433743
_publ_section_title
;
Structure prediction by ZEFSAII (Michael W. Deem and Ramdas Pophale) SiO2 
 PCOD9433743
Probable space group: P C C N
;
_chemical_formula_sum "Si O2"
_cell_formula_units_Z 40
_cell_length_a 22.597335
_cell_length_b 7.977257
_cell_length_c 9.232185
_cell_angle_alpha 90.000000
_cell_angle_beta 90.000000
_cell_angle_gamma 90.000000
_cell_volume 1664.237510
_symmetry_space_group_name_H-M "P C C N"
_symmetry_group_IT_number 56
_symmetry_cell_setting 'orthorhombic'
loop_
_space_group_symop_operation_xyz
x,y,z
1/2-x,1/2-y,z
1/2+x,-y,1/2-z
-x,1/2+y,1/2-z
-x,-y,-z
1/2+x,1/2+y,-z
1/2-x,y,1/2+z
x,1/2-y,1/2+z
loop_
_atom_site_type_symbol
_atom_site_label
_atom_site_fract_x
_atom_site_fract_y
_atom_site_fract_z
Si Si1 0.298111 0.886259 0.369138
Si Si2 0.773913 0.934042 0.412619
Si Si3 0.095936 0.053528 0.491911
Si Si4 0.947341 0.870004 0.829199
Si Si5 0.426974 0.818456 0.460519
O O1 0.250000 0.750000 0.323128
O O2 0.365175 0.827224 0.375479
O O3 0.291371 0.032516 0.252385
O O4 0.277140 0.945742 0.526868
O O5 0.750000 0.750000 0.431151
O O6 0.833043 0.963730 0.505799
O O7 0.080226 0.200582 0.603940
O O8 0.071850 0.109011 0.335664
O O9 0.069261 0.869831 0.523157
O O10 0.927633 0.034807 0.919454
O O11 0.017321 0.852344 0.857208
#
# Coordination Sequence:
#
# PCOD9433743 Si02
#       5
#     8   8   8   8   8
#     4  12  27  49  77 110 150 205 259 320 391 476
#     4  12  29  47  77 112 153 201 259 324 394 472
#     4  12  29  49  83 113 162 210 263 335 400 473
#     4  11  30  50  79 121 154 213 271 332 399 477
#     4  11  28  52  81 112 164 208 269 326 404 475
#
# _framework density 24.035031
#
# number of rings (size 3 to 8) (size 9 to 14) (size 15 to 20)
#    0.000    0.400    2.000    3.000   19.600    0.000 
#    0.000    0.000    0.000    0.000    0.000    0.000 
#    0.000    0.000    0.000    0.000    0.000    0.000 
#
# Total GULP energy -224390.295588 kJ/mol
# GULP energy per Si atom -5609.757390 kJ/mol
# Density = 2.398033 g / cm^3
# Si number density = 24.035031 Si / 1000 Ang^3
#
#
#
# Elastic Constant Matrix: (Units=GPa)
#
#
# Indices 1 2 3 4 5 6 
#
# 1 126.2342 12.8999 15.9130 0.0000 0.0000 0.0000
# 2 12.8999 124.8993 28.2883 0.0000 0.0000 0.0000
# 3 15.9130 28.2883 71.6301 0.0000 0.0000 0.0000
# 4 0.0000 0.0000 0.0000 41.7406 0.0000 0.0000
# 5 0.0000 0.0000 0.0000 0.0000 20.6251 0.0000
# 6 0.0000 0.0000 0.0000 0.0000 0.0000 42.3673
#
#
#
# Elastic Compliance Matrix: (Units=1/GPa)
#
#
# Indices 1 2 3 4 5 6 
#
# 1 0.008176 -0.000476 -0.001628 0.000000 0.000000 0.000000
# 2 -0.000476 0.008821 -0.003378 0.000000 0.000000 0.000000
# 3 -0.001628 -0.003378 0.015656 0.000000 0.000000 0.000000
# 4 0.000000 0.000000 0.000000 0.023958 0.000000 0.000000
# 5 0.000000 0.000000 0.000000 0.000000 0.048485 0.000000
# 6 0.000000 0.000000 0.000000 0.000000 0.000000 0.023603
#
#
# Mechanical properties :
#
#
# Convention : Reuss Voigt Hill
#
# Bulk Modulus (GPa) = 46.10640 48.55178 47.32909
# Shear Modulus (GPa) = 34.03881 38.65742 36.34812
#
# Velocity S-wave (km/s) = 3.76735 4.01481 3.89305
# Velocity P-wave (km/s) = 6.17645 6.46033 6.31998
#
# Compressibility (1/GPa) = 0.02168896
#
# Stress axis : x y z
#
# Youngs Moduli (GPa) = 122.31424 113.37100 63.87191
#
# Poissons Ratio (x) = 0.05392 0.10401
# Poissons Ratio (y) = 0.05817 0.21575
# Poissons Ratio (z) = 0.19918 0.38294
#
# Static dielectric constant tensor:
#      x y z
#    x 1.884840 0.000000 0.000000 
#    y 0.000000 1.957110 0.000000 
#    z 0.000000 0.000000 1.855810 
# 
# From -- ./inp_files/4685.got.cif
#   From: 2010.05.17/outbox.cif.g08.bks.cpg/sg56_3_cif.got.tgz:4685.got - 2010.06.03 13:42:01.
