data_PCOD9433061
_publ_section_title
;
Structure prediction by ZEFSAII (Michael W. Deem and Ramdas Pophale) SiO2 
 PCOD9433061
Probable space group: P C C N
;
_chemical_formula_sum "Si O2"
_cell_formula_units_Z 32
_cell_length_a 9.620617
_cell_length_b 5.029216
_cell_length_c 22.860957
_cell_angle_alpha 90.000000
_cell_angle_beta 90.000000
_cell_angle_gamma 90.000000
_cell_volume 1106.108223
_symmetry_space_group_name_H-M "P C C N"
_symmetry_group_IT_number 56
_symmetry_cell_setting 'orthorhombic'
loop_
_space_group_symop_operation_xyz
x,y,z
1/2-x,1/2-y,z
1/2+x,-y,1/2-z
-x,1/2+y,1/2-z
-x,-y,-z
1/2+x,1/2+y,-z
1/2-x,y,1/2+z
x,1/2-y,1/2+z
loop_
_atom_site_type_symbol
_atom_site_label
_atom_site_fract_x
_atom_site_fract_y
_atom_site_fract_z
Si Si1 0.625565 0.089651 0.382837
Si Si2 0.972311 0.893111 0.766747
Si Si3 0.362754 0.439475 0.414174
Si Si4 0.750000 0.250000 0.694642
Si Si5 0.750000 0.250000 0.992797
O O1 0.750000 0.250000 0.351486
O O2 0.571756 0.878896 0.335775
O O3 0.501867 0.291854 0.397146
O O4 0.692912 0.034484 0.445693
O O5 0.883144 0.159121 0.735848
O O6 0.094180 0.131723 0.765243
O O7 0.250000 0.250000 0.443649
O O8 0.285417 0.534255 0.356089
O O9 0.373634 0.670085 0.462706
#
# Coordination Sequence:
#
# PCOD9433061 Si02
#       5
#     8   8   8   4   4
#     4  10  24  49  71 117 151 194 261 325 383 465
#     4  12  28  52  80 111 152 207 267 329 396 451
#     4  11  21  46  76 107 153 205 251 308 399 478
#     4  11  26  49  76 104 150 203 262 317 392 480
#     4   9  24  43  76 112 152 201 254 319 394 462
#
# _framework density 28.930260000000001
#
# number of rings (size 3 to 8) (size 9 to 14) (size 15 to 20)
#    0.750    0.500    2.500    2.250    1.750    1.000 
#   13.500    0.000    0.000    0.000    0.000    0.000 
#    0.000    0.000    0.000    0.000    0.000    0.000 
#
# Total GULP energy -178176.019477 kJ/mol
# GULP energy per Si atom -5568.000609 kJ/mol
# Density = 2.886441 g / cm^3
# Si number density = 28.930260 Si / 1000 Ang^3
#
#
#
# Elastic Constant Matrix: (Units=GPa)
#
#
# Indices 1 2 3 4 5 6 
#
# 1 121.5422 1.3236 15.1053 0.0000 0.0000 0.0000
# 2 1.3236 160.1574 21.5127 0.0000 0.0000 0.0000
# 3 15.1053 21.5127 220.3634 0.0000 0.0000 0.0000
# 4 0.0000 0.0000 0.0000 82.2106 0.0000 0.0000
# 5 0.0000 0.0000 0.0000 0.0000 14.5557 0.0000
# 6 0.0000 0.0000 0.0000 0.0000 0.0000 14.9640
#
#
#
# Elastic Compliance Matrix: (Units=1/GPa)
#
#
# Indices 1 2 3 4 5 6 
#
# 1 0.008298 0.000008 -0.000570 0.000000 0.000000 0.000000
# 2 0.000008 0.006327 -0.000618 0.000000 0.000000 0.000000
# 3 -0.000570 -0.000618 0.004637 0.000000 0.000000 0.000000
# 4 0.000000 0.000000 0.000000 0.012164 0.000000 0.000000
# 5 0.000000 0.000000 0.000000 0.000000 0.068702 0.000000
# 6 0.000000 0.000000 0.000000 0.000000 0.000000 0.066827
#
#
# Mechanical properties :
#
#
# Convention : Reuss Voigt Hill
#
# Bulk Modulus (GPa) = 59.16194 64.21625 61.68909
# Shear Modulus (GPa) = 28.57977 53.28748 40.93363
#
# Velocity S-wave (km/s) = 3.14647 4.29643 3.76561
# Velocity P-wave (km/s) = 5.80471 6.84525 6.34634
#
# Compressibility (1/GPa) = 0.01690276
#
# Stress axis : x y z
#
# Youngs Moduli (GPa) = 120.50662 158.05701 215.64027
#
# Poissons Ratio (x) = -0.00125 0.12283
# Poissons Ratio (y) = -0.00096 0.13331
# Poissons Ratio (z) = 0.06864 0.09771
#
# Static dielectric constant tensor:
#      x y z
#    x 2.185910 0.000000 0.000000 
#    y 0.000000 2.438390 0.000000 
#    z 0.000000 0.000000 2.052810 
# 
# From -- ./inp_files/20759.got.cif
#   From: 2010.05.17/outbox.cif.g08.bks.cpg/sg56_11_cif.got.tgz:20759.got - 2010.06.03 13:42:01.
