data_PCOD9433051
_publ_section_title
;
Structure prediction by ZEFSAII (Michael W. Deem and Ramdas Pophale) SiO2 
 PCOD9433051
Probable space group: P C C N
;
_chemical_formula_sum "Si O2"
_cell_formula_units_Z 48
_cell_length_a 8.206061
_cell_length_b 8.268064
_cell_length_c 31.019297
_cell_angle_alpha 90.000000
_cell_angle_beta 90.000000
_cell_angle_gamma 90.000000
_cell_volume 2104.604631
_symmetry_space_group_name_H-M "P C C N"
_symmetry_group_IT_number 56
_symmetry_cell_setting 'orthorhombic'
loop_
_space_group_symop_operation_xyz
x,y,z
1/2-x,1/2-y,z
1/2+x,-y,1/2-z
-x,1/2+y,1/2-z
-x,-y,-z
1/2+x,1/2+y,-z
1/2-x,y,1/2+z
x,1/2-y,1/2+z
loop_
_atom_site_type_symbol
_atom_site_label
_atom_site_fract_x
_atom_site_fract_y
_atom_site_fract_z
Si Si1 0.981830 0.044771 0.950442
Si Si2 0.848935 0.917374 0.799256
Si Si3 0.419050 0.288952 0.110350
Si Si4 0.724896 0.433185 0.220755
Si Si5 0.546616 0.548988 0.647861
Si Si6 0.250000 0.250000 0.914210
Si Si7 0.250000 0.750000 0.107141
O O1 0.820266 0.113720 0.926145
O O2 0.104221 0.190662 0.942859
O O3 0.029590 0.887464 0.922154
O O4 0.000000 0.000000 0.000000
O O5 0.750000 0.750000 0.786986
O O6 0.861929 0.904361 0.850356
O O7 0.035197 0.959210 0.787657
O O8 0.750784 0.046169 0.771675
O O9 0.250000 0.250000 0.086247
O O10 0.492503 0.130198 0.132859
O O11 0.750000 0.250000 0.206663
O O12 0.861277 0.536717 0.194399
O O13 0.689299 0.608505 0.616678
O O14 0.396211 0.672817 0.636834
#
# Coordination Sequence:
#
# PCOD9433051 Si02
#       7
#     8   8   8   8   8   4   4
#     4  11  25  44  72 105 144 192 247 307 376 451
#     4  11  26  46  67 105 144 190 250 303 368 438
#     4  11  23  46  74 100 142 196 248 297 383 443
#     4  12  25  46  70 105 143 194 251 304 367 439
#     4  11  24  48  74 106 149 193 251 306 375 459
#     4  10  26  42  66 108 146 184 240 310 380 434
#     4  10  24  48  70 112 148 198 248 314 384 440
#
# _framework density 22.807134999999999
#
# number of rings (size 3 to 8) (size 9 to 14) (size 15 to 20)
#    0.000    1.000    3.333    2.000    4.667    1.333 
#    9.000    3.333    0.000    0.000    0.000    0.000 
#    0.000    0.000    0.000    0.000    0.000    0.000 
#
# Total GULP energy -267606.359882 kJ/mol
# GULP energy per Si atom -5575.132498 kJ/mol
# Density = 2.275523 g / cm^3
# Si number density = 22.807135 Si / 1000 Ang^3
#
#
#
# Elastic Constant Matrix: (Units=GPa)
#
#
# Indices 1 2 3 4 5 6 
#
# 1 103.0934 21.9781 37.3723 0.0000 0.0000 0.0000
# 2 21.9781 58.6035 50.3427 0.0000 0.0000 0.0000
# 3 37.3723 50.3427 129.0814 0.0000 0.0000 0.0000
# 4 0.0000 0.0000 0.0000 18.3940 0.0000 0.0000
# 5 0.0000 0.0000 0.0000 0.0000 48.9198 0.0000
# 6 0.0000 0.0000 0.0000 0.0000 0.0000 41.7850
#
#
#
# Elastic Compliance Matrix: (Units=1/GPa)
#
#
# Indices 1 2 3 4 5 6 
#
# 1 0.011005 -0.002091 -0.002371 0.000000 0.000000 0.000000
# 2 -0.002091 0.026058 -0.009558 0.000000 0.000000 0.000000
# 3 -0.002371 -0.009558 0.012161 0.000000 0.000000 0.000000
# 4 0.000000 0.000000 0.000000 0.054365 0.000000 0.000000
# 5 0.000000 0.000000 0.000000 0.000000 0.020442 0.000000
# 6 0.000000 0.000000 0.000000 0.000000 0.000000 0.023932
#
#
# Mechanical properties :
#
#
# Convention : Reuss Voigt Hill
#
# Bulk Modulus (GPa) = 47.20059 56.68495 51.94277
# Shear Modulus (GPa) = 27.31288 33.89211 30.60249
#
# Velocity S-wave (km/s) = 3.46433 3.85909 3.66703
# Velocity P-wave (km/s) = 6.06157 6.69065 6.38386
#
# Compressibility (1/GPa) = 0.02118617
#
# Stress axis : x y z
#
# Youngs Moduli (GPa) = 90.86693 38.37556 82.22977
#
# Poissons Ratio (x) = 0.08023 0.19496
# Poissons Ratio (y) = 0.18996 0.78592
# Poissons Ratio (z) = 0.21544 0.36678
#
# Static dielectric constant tensor:
#      x y z
#    x 1.969890 0.000000 0.000000 
#    y 0.000000 1.751030 0.000000 
#    z 0.000000 0.000000 1.824080 
# 
# From -- ./inp_files/23261.got.cif
#   From: 2010.05.17/outbox.cif.g08.bks.cpg/sg56_12_cif.got.tgz:23261.got - 2010.06.03 13:42:01.
