data_PCOD9433946
_publ_section_title
;
Structure prediction by ZEFSAII (Michael W. Deem and Ramdas Pophale) SiO2 
 PCOD9433946
Probable space group: P C C N
;
_chemical_formula_sum "Si O2"
_cell_formula_units_Z 60
_cell_length_a 12.000000
_cell_length_b 27.000000
_cell_length_c 9.000000
_cell_angle_alpha 90.000000
_cell_angle_beta 90.000000
_cell_angle_gamma 90.000000
_cell_volume 2916.000000
_symmetry_space_group_name_H-M "P C C N"
_symmetry_group_IT_number 56
_symmetry_cell_setting 'orthorhombic'
loop_
_space_group_symop_operation_xyz
x,y,z
1/2-x,1/2-y,z
1/2+x,-y,1/2-z
-x,1/2+y,1/2-z
-x,-y,-z
1/2+x,1/2+y,-z
1/2-x,y,1/2+z
x,1/2-y,1/2+z
loop_
_atom_site_type_symbol
_atom_site_label
_atom_site_fract_x
_atom_site_fract_y
_atom_site_fract_z
Si Si1 0.713994 0.363306 0.686678
Si Si2 0.077716 0.277869 0.968320
Si Si3 0.250000 0.250000 0.216649
Si Si4 0.706005 0.962484 0.065022
Si Si5 0.448912 0.089970 0.388626
Si Si6 0.517010 0.614207 0.450029
Si Si7 0.683632 0.035096 0.335987
Si Si8 0.411696 0.680116 0.025678
O O1 0.617876 0.385316 0.575693
O O2 0.742491 0.414598 0.774026
O O3 0.814589 0.334472 0.598406
O O4 0.652064 0.328631 0.813390
O O5 0.158849 0.274060 0.826243
O O6 0.982538 0.233040 0.978612
O O7 0.165019 0.277538 0.105811
O O8 0.029193 0.332823 0.971480
O O9 0.826258 0.932688 0.075475
O O10 0.672769 0.992256 0.212766
O O11 0.599906 0.927094 0.023797
O O12 0.737892 0.007422 0.954024
O O13 0.441314 0.110919 0.220945
O O14 0.557855 0.052505 0.387939
O O15 0.493382 0.136994 0.483701
#
# Coordination Sequence:
#
# PCOD9433946 Si02
#       8
#     8   8   4   8   8   8   8   8
#     4  10  23  47  69 101 141 180 242 298 345 439
#     4  11  24  44  70 100 140 190 227 298 357 416
#     4  10  24  40  68 100 134 180 230 282 360 418
#     4  12  22  42  66 101 139 187 230 292 358 425
#     4  10  23  44  66 102 141 178 242 291 350 433
#     4  10  24  41  67 101 141 178 240 287 349 430
#     4  10  22  40  69 100 139 182 230 288 356 420
#     4  10  23  46  70 101 141 183 235 295 357 421
#
# _framework density 20.576132000000001
#
# number of rings (size 3 to 8) (size 9 to 14) (size 15 to 20)
#    0.000    1.867    1.333    3.600    5.600    3.733 
#    7.200    2.667    0.000    0.000    0.000    0.000 
#    0.000    0.000    0.000    0.000    0.000    0.000 
#
# Total GULP energy -334044.168563 kJ/mol
# GULP energy per Si atom -5567.402809 kJ/mol
# Density = 2.052930 g / cm^3
# Si number density = 20.576132 Si / 1000 Ang^3
#
#
#
# Elastic Constant Matrix: (Units=GPa)
#
#
# Indices 1 2 3 4 5 6 
#
# 1 98.1244 41.6100 16.3198 0.0000 0.0000 0.0000
# 2 41.6100 117.0266 19.9124 0.0000 0.0000 0.0000
# 3 16.3198 19.9124 64.7696 0.0000 0.0000 0.0000
# 4 0.0000 0.0000 0.0000 -26.6229 0.0000 0.0000
# 5 0.0000 0.0000 0.0000 0.0000 38.2764 0.0000
# 6 0.0000 0.0000 0.0000 0.0000 0.0000 17.2884
#
#
#
# Elastic Compliance Matrix: (Units=1/GPa)
#
#
# Indices 1 2 3 4 5 6 
#
# 1 0.012204 -0.004027 -0.001837 0.000000 0.000000 0.000000
# 2 -0.004027 0.010345 -0.002166 0.000000 0.000000 0.000000
# 3 -0.001837 -0.002166 0.016568 0.000000 0.000000 0.000000
# 4 0.000000 0.000000 0.000000 -0.037562 0.000000 0.000000
# 5 0.000000 0.000000 0.000000 0.000000 0.026126 0.000000
# 6 0.000000 0.000000 0.000000 0.000000 0.000000 0.057842
#
#
# Mechanical properties :
#
#
# Convention : Reuss Voigt Hill
#
# Bulk Modulus (GPa) = 43.36857 48.40055 45.88456
# Shear Modulus (GPa) = 45.75839 19.26029 32.50934
#
# Velocity S-wave (km/s) = 4.72090 3.06281 3.97918
# Velocity P-wave (km/s) = 7.13013 6.00679 6.59243
#
# Compressibility (1/GPa) = 0.02305817
#
# Stress axis : x y z
#
# Youngs Moduli (GPa) = 81.93868 96.66177 60.35694
#
# Poissons Ratio (x) = 0.38923 0.11088
# Poissons Ratio (y) = 0.32995 0.13073
# Poissons Ratio (z) = 0.15053 0.20936
#
# Static dielectric constant tensor:
#      x y z
#    x 1.742730 0.000000 0.000000 
#    y 0.000000 1.753080 0.000000 
#    z 0.000000 0.000000 1.843120 
# 
# From -- ./inp_files/2911.got.cif
#   From: 2010.05.17/outbox.ucp.g08.bks.cvg/sg56_2_cif.got.tgz:2911.got - 2010.06.11 16:37:52.
