data_PCOD9433546
_publ_section_title
;
Structure prediction by ZEFSAII (Michael W. Deem and Ramdas Pophale) SiO2 
 PCOD9433546
Probable space group: P C C N
;
_chemical_formula_sum "Si O2"
_cell_formula_units_Z 40
_cell_length_a 8.516512
_cell_length_b 8.035482
_cell_length_c 28.003229
_cell_angle_alpha 90.000000
_cell_angle_beta 90.000000
_cell_angle_gamma 90.000000
_cell_volume 1916.380783
_symmetry_space_group_name_H-M "P C C N"
_symmetry_group_IT_number 56
_symmetry_cell_setting 'orthorhombic'
loop_
_space_group_symop_operation_xyz
x,y,z
1/2-x,1/2-y,z
1/2+x,-y,1/2-z
-x,1/2+y,1/2-z
-x,-y,-z
1/2+x,1/2+y,-z
1/2-x,y,1/2+z
x,1/2-y,1/2+z
loop_
_atom_site_type_symbol
_atom_site_label
_atom_site_fract_x
_atom_site_fract_y
_atom_site_fract_z
Si Si1 0.815795 0.019680 0.578071
Si Si2 0.504801 0.174983 0.413734
Si Si3 0.003221 0.803711 0.339836
Si Si4 0.293427 0.976659 0.667260
Si Si5 0.250000 0.750000 0.507424
Si Si6 0.250000 0.750000 0.256659
O O1 0.636484 0.958934 0.586257
O O2 0.920681 0.853545 0.581739
O O3 0.881577 0.146779 0.617366
O O4 0.824157 0.111458 0.527277
O O5 0.621314 0.163557 0.458745
O O6 0.613911 0.152014 0.367077
O O7 0.103032 0.765470 0.292338
O O8 0.883318 0.959201 0.340263
O O9 0.896512 0.640650 0.343030
O O10 0.281646 0.902753 0.720442
#
# Coordination Sequence:
#
# PCOD9433546 Si02
#       6
#     8   8   8   8   4   4
#     4  11  24  42  66  96 132 174 220 272 326 386
#     4  11  24  42  66  96 132 174 220 272 326 386
#     4  11  24  42  65  93 129 172 216 267 325 387
#     4  11  24  42  65  93 129 172 216 267 325 387
#     4  12  22  40  64  94 132 172 222 272 324 390
#     4  12  22  40  64  94 128 164 214 266 316 388
#
# _framework density 20.872678000000001
#
# number of rings (size 3 to 8) (size 9 to 14) (size 15 to 20)
#    0.000    0.800    0.000    8.400    0.000    0.000 
#    0.000    8.000    0.000    0.000    0.000    0.000 
#    0.000    0.000    0.000    0.000    0.000    0.000 
#
# Total GULP energy -223152.641146 kJ/mol
# GULP energy per Si atom -5578.816029 kJ/mol
# Density = 2.082517 g / cm^3
# Si number density = 20.872678 Si / 1000 Ang^3
#
#
#
# Elastic Constant Matrix: (Units=GPa)
#
#
# Indices 1 2 3 4 5 6 
#
# 1 136.9401 46.8139 81.5822 0.0000 0.0000 0.0000
# 2 46.8139 91.2192 31.3363 0.0000 0.0000 0.0000
# 3 81.5822 31.3363 128.0589 0.0000 0.0000 0.0000
# 4 0.0000 0.0000 0.0000 5.6765 0.0000 0.0000
# 5 0.0000 0.0000 0.0000 0.0000 15.8691 0.0000
# 6 0.0000 0.0000 0.0000 0.0000 0.0000 46.4929
#
#
#
# Elastic Compliance Matrix: (Units=1/GPa)
#
#
# Indices 1 2 3 4 5 6 
#
# 1 0.013100 -0.004210 -0.007315 0.000000 0.000000 0.000000
# 2 -0.004210 0.013322 -0.000578 0.000000 0.000000 0.000000
# 3 -0.007315 -0.000578 0.012611 0.000000 0.000000 0.000000
# 4 0.000000 0.000000 0.000000 0.176166 0.000000 0.000000
# 5 0.000000 0.000000 0.000000 0.000000 0.063015 0.000000
# 6 0.000000 0.000000 0.000000 0.000000 0.000000 0.021509
#
#
# Mechanical properties :
#
#
# Convention : Reuss Voigt Hill
#
# Bulk Modulus (GPa) = 67.44890 75.07589 71.26240
# Shear Modulus (GPa) = 15.20360 26.70675 20.95518
#
# Velocity S-wave (km/s) = 2.70181 3.58090 3.17196
# Velocity P-wave (km/s) = 6.48981 7.28997 6.90150
#
# Compressibility (1/GPa) = 0.01482604
#
# Stress axis : x y z
#
# Youngs Moduli (GPa) = 76.33774 75.06598 79.29820
#
# Poissons Ratio (x) = 0.31601 0.58009
# Poissons Ratio (y) = 0.32137 0.04583
# Poissons Ratio (z) = 0.55843 0.04338
#
# Static dielectric constant tensor:
#      x y z
#    x 1.307500 0.000000 0.000000 
#    y 0.000000 1.865620 0.000000 
#    z 0.000000 0.000000 1.711850 
# 
# From -- ./inp_files/20354.got.cif
#   From: 2010.05.17/outbox.cif.g08.bks.cpg/sg56_11_cif.got.tgz:20354.got - 2010.06.03 13:42:01.
