data_PCOD9433638
_publ_section_title
;
Structure prediction by ZEFSAII (Michael W. Deem and Ramdas Pophale) SiO2 
 PCOD9433638
Probable space group: P C C N
;
_chemical_formula_sum "Si O2"
_cell_formula_units_Z 56
_cell_length_a 18.985750
_cell_length_b 14.780914
_cell_length_c 8.456029
_cell_angle_alpha 90.000000
_cell_angle_beta 90.000000
_cell_angle_gamma 90.000000
_cell_volume 2372.987834
_symmetry_space_group_name_H-M "P C C N"
_symmetry_group_IT_number 56
_symmetry_cell_setting 'orthorhombic'
loop_
_space_group_symop_operation_xyz
x,y,z
1/2-x,1/2-y,z
1/2+x,-y,1/2-z
-x,1/2+y,1/2-z
-x,-y,-z
1/2+x,1/2+y,-z
1/2-x,y,1/2+z
x,1/2-y,1/2+z
loop_
_atom_site_type_symbol
_atom_site_label
_atom_site_fract_x
_atom_site_fract_y
_atom_site_fract_z
Si Si1 0.357805 0.191814 0.584984
Si Si2 0.896985 0.328587 0.379483
Si Si3 0.940534 0.354151 0.034841
Si Si4 0.915060 0.639386 0.110418
Si Si5 0.686294 0.435242 0.093122
Si Si6 0.250000 0.250000 0.854410
Si Si7 0.250000 0.750000 0.759127
Si Si8 0.675464 0.005987 0.932266
O O1 0.402645 0.265417 0.485831
O O2 0.291661 0.177338 0.464190
O O3 0.411270 0.135248 0.697172
O O4 0.311176 0.220491 0.736943
O O5 0.940496 0.353162 0.223991
O O6 0.932018 0.247911 0.474852
O O7 0.882356 0.412599 0.492821
O O8 0.818927 0.291444 0.327412
O O9 0.008945 0.393238 0.950102
O O10 0.871142 0.407848 0.982287
O O11 0.856670 0.575628 0.030760
O O12 0.717789 0.338072 0.152713
O O13 0.671823 0.497783 0.243581
O O14 0.744667 0.476853 0.979992
#
# Coordination Sequence:
#
# PCOD9433638 Si02
#       8
#     8   8   8   8   8   4   4   8
#     4   9  19  39  60  88 104 149 219 260 314 366
#     4  12  21  36  68  95 126 169 210 266 310 376
#     4  12  22  40  59  92 131 173 211 246 315 394
#     4  11  25  41  63  86 126 173 213 265 310 389
#     4  12  22  38  64 100 128 160 206 266 331 383
#     4   8  16  34  66  82 106 124 188 284 314 334
#     4  12  18  34  64  94 128 148 204 260 312 364
#     4  12  24  40  59  93 134 161 205 263 337 386
#
# _framework density 23.598942000000001
#
# number of rings (size 3 to 8) (size 9 to 14) (size 15 to 20)
#    0.000    0.857    5.714    1.714    0.000    4.571 
#    0.000    5.000    0.000    0.000    0.000    0.000 
#    0.000    0.000    0.000    0.000    0.000    0.000 
#
# Total GULP energy -312431.784737 kJ/mol
# GULP energy per Si atom -5579.139013 kJ/mol
# Density = 2.354523 g / cm^3
# Si number density = 23.598942 Si / 1000 Ang^3
#
#
#
# Elastic Constant Matrix: (Units=GPa)
#
#
# Indices 1 2 3 4 5 6 
#
# 1 29.9909 4.4309 -14.5797 0.0000 0.0000 0.0000
# 2 4.4309 38.6480 0.6762 0.0000 0.0000 0.0000
# 3 -14.5797 0.6762 82.5776 0.0000 0.0000 0.0000
# 4 0.0000 0.0000 0.0000 16.3719 0.0000 0.0000
# 5 0.0000 0.0000 0.0000 0.0000 18.5762 0.0000
# 6 0.0000 0.0000 0.0000 0.0000 0.0000 6.3087
#
#
#
# Elastic Compliance Matrix: (Units=1/GPa)
#
#
# Indices 1 2 3 4 5 6 
#
# 1 0.037201 -0.004381 0.006604 0.000000 0.000000 0.000000
# 2 -0.004381 0.026394 -0.000990 0.000000 0.000000 0.000000
# 3 0.006604 -0.000990 0.013284 0.000000 0.000000 0.000000
# 4 0.000000 0.000000 0.000000 0.061080 0.000000 0.000000
# 5 0.000000 0.000000 0.000000 0.000000 0.053832 0.000000
# 6 0.000000 0.000000 0.000000 0.000000 0.000000 0.158510
#
#
# Mechanical properties :
#
#
# Convention : Reuss Voigt Hill
#
# Bulk Modulus (GPa) = 12.60291 14.69684 13.64987
# Shear Modulus (GPa) = 13.35886 18.96397 16.16142
#
# Velocity S-wave (km/s) = 2.38182 2.83785 2.61978
# Velocity P-wave (km/s) = 3.59390 4.12057 3.86622
#
# Compressibility (1/GPa) = 0.07934676
#
# Stress axis : x y z
#
# Youngs Moduli (GPa) = 26.88090 37.88727 75.27908
#
# Poissons Ratio (x) = 0.16597 -0.49714
# Poissons Ratio (y) = 0.11775 0.07449
# Poissons Ratio (z) = -0.17752 0.03749
#
# Static dielectric constant tensor:
#      x y z
#    x 2.020790 0.000000 0.000000 
#    y 0.000000 1.972410 0.000000 
#    z 0.000000 0.000000 1.915900 
# 
# From -- ./inp_files/4507.got.cif
#   From: 2010.05.17/outbox.cif.g08.bks.cpg/sg56_3_cif.got.tgz:4507.got - 2010.06.03 13:42:01.
