data_PCOD9433154
_publ_section_title
;
Structure prediction by ZEFSAII (Michael W. Deem and Ramdas Pophale) SiO2 
 PCOD9433154
Probable space group: P C C N
;
_chemical_formula_sum "Si O2"
_cell_formula_units_Z 32
_cell_length_a 5.172211
_cell_length_b 23.228228
_cell_length_c 9.683145
_cell_angle_alpha 90.000000
_cell_angle_beta 90.000000
_cell_angle_gamma 90.000000
_cell_volume 1163.345593
_symmetry_space_group_name_H-M "P C C N"
_symmetry_group_IT_number 56
_symmetry_cell_setting 'orthorhombic'
loop_
_space_group_symop_operation_xyz
x,y,z
1/2-x,1/2-y,z
1/2+x,-y,1/2-z
-x,1/2+y,1/2-z
-x,-y,-z
1/2+x,1/2+y,-z
1/2-x,y,1/2+z
x,1/2-y,1/2+z
loop_
_atom_site_type_symbol
_atom_site_label
_atom_site_fract_x
_atom_site_fract_y
_atom_site_fract_z
Si Si1 0.750000 0.750000 0.977396
Si Si2 0.284271 0.377609 0.032883
Si Si3 0.943434 0.036625 0.226053
Si Si4 0.579698 0.370295 0.759380
Si Si5 0.250000 0.750000 0.160574
O O1 0.671386 0.688557 0.910368
O O2 0.498097 0.765087 0.067924
O O3 0.461088 0.429145 0.091077
O O4 0.015663 0.390161 0.109553
O O5 0.351584 0.372576 0.872417
O O6 0.805904 0.087881 0.310501
O O7 0.702381 0.992390 0.211910
O O8 0.671641 0.305196 0.753175
#
# Coordination Sequence:
#
# PCOD9433154 Si02
#       5
#     4   8   8   8   4
#     4  10  26  46  80 122 158 204 254 330 404 486
#     4  11  28  50  84 118 160 206 267 331 404 471
#     4  12  28  52  75 118 160 219 272 327 387 471
#     4  11  28  50  86 117 164 208 268 332 405 475
#     4  10  26  46  82 120 162 202 258 324 412 478
#
# _framework density 27.506871
#
# number of rings (size 3 to 8) (size 9 to 14) (size 15 to 20)
#    0.000    1.000    2.500    0.000   17.500    3.000 
#    0.000    0.000    0.000    0.000    0.000    0.000 
#    0.000    0.000    0.000    0.000    0.000    0.000 
#
# Total GULP energy -178990.703824 kJ/mol
# GULP energy per Si atom -5593.459495 kJ/mol
# Density = 2.744426 g / cm^3
# Si number density = 27.506871 Si / 1000 Ang^3
#
#
#
# Elastic Constant Matrix: (Units=GPa)
#
#
# Indices 1 2 3 4 5 6 
#
# 1 204.4168 57.0476 59.9323 0.0000 0.0000 0.0000
# 2 57.0476 176.7570 15.6495 0.0000 0.0000 0.0000
# 3 59.9323 15.6495 104.5250 0.0000 0.0000 0.0000
# 4 0.0000 0.0000 0.0000 12.8784 0.0000 0.0000
# 5 0.0000 0.0000 0.0000 0.0000 45.6329 0.0000
# 6 0.0000 0.0000 0.0000 0.0000 0.0000 65.6985
#
#
#
# Elastic Compliance Matrix: (Units=1/GPa)
#
#
# Indices 1 2 3 4 5 6 
#
# 1 0.006377 -0.001758 -0.003394 0.000000 0.000000 0.000000
# 2 -0.001758 0.006218 0.000077 0.000000 0.000000 0.000000
# 3 -0.003394 0.000077 0.011501 0.000000 0.000000 0.000000
# 4 0.000000 0.000000 0.000000 0.077649 0.000000 0.000000
# 5 0.000000 0.000000 0.000000 0.000000 0.021914 0.000000
# 6 0.000000 0.000000 0.000000 0.000000 0.000000 0.015221
#
#
# Mechanical properties :
#
#
# Convention : Reuss Voigt Hill
#
# Bulk Modulus (GPa) = 71.69491 83.43972 77.56732
# Shear Modulus (GPa) = 32.53525 48.37992 40.45759
#
# Velocity S-wave (km/s) = 3.44292 4.19839 3.83928
# Velocity P-wave (km/s) = 6.47502 7.34180 6.92199
#
# Compressibility (1/GPa) = 0.01394799
#
# Stress axis : x y z
#
# Youngs Moduli (GPa) = 156.80195 160.82315 86.94644
#
# Poissons Ratio (x) = 0.28270 0.29505
# Poissons Ratio (y) = 0.27563 -0.00669
# Poissons Ratio (z) = 0.53211 -0.01238
#
# Static dielectric constant tensor:
#      x y z
#    x 2.172440 0.000000 0.000000 
#    y 0.000000 2.234900 0.000000 
#    z 0.000000 0.000000 2.108810 
# 
# From -- ./inp_files/5519.got.cif
#   From: 2010.05.17/outbox.cif.g08.bks.cpg/sg56_3_cif.got.tgz:5519.got - 2010.06.03 13:42:01.
