data_PCOD9433760
_publ_section_title
;
Structure prediction by ZEFSAII (Michael W. Deem and Ramdas Pophale) SiO2 
 PCOD9433760
Probable space group: P C C N
;
_chemical_formula_sum "Si O2"
_cell_formula_units_Z 32
_cell_length_a 4.875455
_cell_length_b 18.634163
_cell_length_c 15.780223
_cell_angle_alpha 90.000000
_cell_angle_beta 90.000000
_cell_angle_gamma 90.000000
_cell_volume 1433.633625
_symmetry_space_group_name_H-M "P C C N"
_symmetry_group_IT_number 56
_symmetry_cell_setting 'orthorhombic'
loop_
_space_group_symop_operation_xyz
x,y,z
1/2-x,1/2-y,z
1/2+x,-y,1/2-z
-x,1/2+y,1/2-z
-x,-y,-z
1/2+x,1/2+y,-z
1/2-x,y,1/2+z
x,1/2-y,1/2+z
loop_
_atom_site_type_symbol
_atom_site_label
_atom_site_fract_x
_atom_site_fract_y
_atom_site_fract_z
Si Si1 0.492635 0.418820 0.964747
Si Si2 0.003277 0.559711 0.140197
Si Si3 0.625678 0.828452 0.371567
Si Si4 0.120628 0.597807 0.802047
O O1 0.803624 0.409782 0.934358
O O2 0.295061 0.409987 0.883287
O O3 0.500000 0.500000 0.000000
O O4 0.377379 0.368978 0.038569
O O5 0.194993 0.572733 0.222348
O O6 0.934942 0.474548 0.143784
O O7 0.750000 0.750000 0.380399
O O8 0.313402 0.841190 0.342999
O O9 0.818948 0.868013 0.302126
#
# Coordination Sequence:
#
# PCOD9433760 Si02
#       4
#     8   8   8   8
#     4  12  22  42  68 102 134 172 229 292 339 396
#     4  12  23  40  70 102 130 168 230 296 337 381
#     4  12  26  44  66  96 140 188 224 275 354 432
#     4  12  23  43  67 101 135 173 229 287 345 410
#
# _framework density 22.320905
#
# number of rings (size 3 to 8) (size 9 to 14) (size 15 to 20)
#    0.000    0.000    5.000    7.500    0.000    0.000 
#    0.000    7.500    0.000    0.000    0.000    0.000 
#    0.000    0.000    0.000    0.000    0.000    0.000 
#
# Total GULP energy -178340.915877 kJ/mol
# GULP energy per Si atom -5573.153621 kJ/mol
# Density = 2.227010 g / cm^3
# Si number density = 22.320905 Si / 1000 Ang^3
#
#
#
# Elastic Constant Matrix: (Units=GPa)
#
#
# Indices 1 2 3 4 5 6 
#
# 1 170.5330 19.6120 37.0523 0.0000 0.0000 0.0000
# 2 19.6120 71.6998 32.3107 0.0000 0.0000 0.0000
# 3 37.0523 32.3107 80.5511 0.0000 0.0000 0.0000
# 4 0.0000 0.0000 0.0000 10.2954 0.0000 0.0000
# 5 0.0000 0.0000 0.0000 0.0000 33.3653 0.0000
# 6 0.0000 0.0000 0.0000 0.0000 0.0000 24.2572
#
#
#
# Elastic Compliance Matrix: (Units=1/GPa)
#
#
# Indices 1 2 3 4 5 6 
#
# 1 0.006531 -0.000528 -0.002793 0.000000 0.000000 0.000000
# 2 -0.000528 0.017067 -0.006603 0.000000 0.000000 0.000000
# 3 -0.002793 -0.006603 0.016348 0.000000 0.000000 0.000000
# 4 0.000000 0.000000 0.000000 0.097131 0.000000 0.000000
# 5 0.000000 0.000000 0.000000 0.000000 0.029971 0.000000
# 6 0.000000 0.000000 0.000000 0.000000 0.000000 0.041225
#
#
# Mechanical properties :
#
#
# Convention : Reuss Voigt Hill
#
# Bulk Modulus (GPa) = 49.75426 55.63710 52.69568
# Shear Modulus (GPa) = 21.29289 29.17084 25.23186
#
# Velocity S-wave (km/s) = 3.09195 3.61901 3.36581
# Velocity P-wave (km/s) = 5.92332 6.51483 6.22610
#
# Compressibility (1/GPa) = 0.02009878
#
# Stress axis : x y z
#
# Youngs Moduli (GPa) = 153.10540 58.59234 61.17098
#
# Poissons Ratio (x) = 0.03094 0.17082
# Poissons Ratio (y) = 0.08086 0.40391
# Poissons Ratio (z) = 0.42755 0.38689
#
# Static dielectric constant tensor:
#      x y z
#    x 1.802500 0.000000 0.000000 
#    y 0.000000 1.775180 0.000000 
#    z 0.000000 0.000000 2.641920 
# 
# From -- ./inp_files/9435.got.cif
#   From: 2010.05.17/outbox.cif.g08.bks.cpg/sg56_5_cif.got.tgz:9435.got - 2010.06.03 13:42:01.
