data_PCOD9433287
_publ_section_title
;
Structure prediction by ZEFSAII (Michael W. Deem and Ramdas Pophale) SiO2 
 PCOD9433287
Probable space group: P C C N
;
_chemical_formula_sum "Si O2"
_cell_formula_units_Z 48
_cell_length_a 4.982665
_cell_length_b 27.636622
_cell_length_c 17.151148
_cell_angle_alpha 90.000000
_cell_angle_beta 90.000000
_cell_angle_gamma 90.000000
_cell_volume 2361.782184
_symmetry_space_group_name_H-M "P C C N"
_symmetry_group_IT_number 56
_symmetry_cell_setting 'orthorhombic'
loop_
_space_group_symop_operation_xyz
x,y,z
1/2-x,1/2-y,z
1/2+x,-y,1/2-z
-x,1/2+y,1/2-z
-x,-y,-z
1/2+x,1/2+y,-z
1/2-x,y,1/2+z
x,1/2-y,1/2+z
loop_
_atom_site_type_symbol
_atom_site_label
_atom_site_fract_x
_atom_site_fract_y
_atom_site_fract_z
Si Si1 0.272824 0.367824 0.944555
Si Si2 0.718102 0.382868 0.343979
Si Si3 0.290776 0.638320 0.832807
Si Si4 0.051407 0.991126 0.697690
Si Si5 0.713620 0.582479 0.396755
Si Si6 0.496903 0.717384 0.949196
O O1 0.486554 0.383519 0.879916
O O2 0.392816 0.321078 0.988091
O O3 0.987788 0.358743 0.904436
O O4 0.240350 0.408599 0.011270
O O5 0.717490 0.357755 0.259896
O O6 0.614588 0.437408 0.330624
O O7 0.505756 0.597014 0.856922
O O8 0.005015 0.620837 0.865102
O O9 0.384734 0.686250 0.876982
O O10 0.115587 0.030305 0.631051
O O11 0.252605 0.003603 0.769086
O O12 0.750000 0.750000 0.926145
O O13 0.250000 0.750000 0.978508
#
# Coordination Sequence:
#
# PCOD9433287 Si02
#       6
#     8   8   8   8   8   8
#     4  11  25  40  63  95 131 168 203 264 338 369
#     4  12  23  40  63  98 133 167 208 267 318 364
#     4  11  22  40  68  91 123 165 214 261 312 372
#     4  12  22  38  63  95 128 177 224 255 296 361
#     4  11  21  41  62  91 129 178 217 250 298 381
#     4  11  23  45  69  91 118 164 216 259 320 407
#
# _framework density 20.323637000000002
#
# number of rings (size 3 to 8) (size 9 to 14) (size 15 to 20)
#    0.000    0.667    3.333    7.000    0.000    1.333 
#    0.000    5.000    0.000    0.000    0.000    0.000 
#    0.000    0.000    0.000    0.000    0.000    0.000 
#
# Total GULP energy -268625.889025 kJ/mol
# GULP energy per Si atom -5596.372688 kJ/mol
# Density = 2.027738 g / cm^3
# Si number density = 20.323637 Si / 1000 Ang^3
#
#
#
# Elastic Constant Matrix: (Units=GPa)
#
#
# Indices 1 2 3 4 5 6 
#
# 1 64.5191 -14.4493 -11.2570 0.0000 0.0000 0.0000
# 2 -14.4493 82.2014 -3.3704 0.0000 0.0000 0.0000
# 3 -11.2570 -3.3704 67.2290 0.0000 0.0000 0.0000
# 4 0.0000 0.0000 0.0000 15.5313 0.0000 0.0000
# 5 0.0000 0.0000 0.0000 0.0000 33.7313 0.0000
# 6 0.0000 0.0000 0.0000 0.0000 0.0000 27.4067
#
#
#
# Elastic Compliance Matrix: (Units=1/GPa)
#
#
# Indices 1 2 3 4 5 6 
#
# 1 0.016698 0.003056 0.002949 0.000000 0.000000 0.000000
# 2 0.003056 0.012750 0.001151 0.000000 0.000000 0.000000
# 3 0.002949 0.001151 0.015426 0.000000 0.000000 0.000000
# 4 0.000000 0.000000 0.000000 0.064386 0.000000 0.000000
# 5 0.000000 0.000000 0.000000 0.000000 0.029646 0.000000
# 6 0.000000 0.000000 0.000000 0.000000 0.000000 0.036487
#
#
# Mechanical properties :
#
#
# Convention : Reuss Voigt Hill
#
# Bulk Modulus (GPa) = 16.89574 17.31067 17.10321
# Shear Modulus (GPa) = 27.65334 31.53560 29.59447
#
# Velocity S-wave (km/s) = 3.69270 3.94340 3.82011
# Velocity P-wave (km/s) = 5.14905 5.41016 5.28122
#
# Compressibility (1/GPa) = 0.05918652
#
# Stress axis : x y z
#
# Youngs Moduli (GPa) = 59.88640 78.43360 64.82537
#
# Poissons Ratio (x) = -0.23970 -0.19118
# Poissons Ratio (y) = -0.18302 -0.07461
# Poissons Ratio (z) = -0.17662 -0.09027
#
# Static dielectric constant tensor:
#      x y z
#    x 1.703560 0.000000 0.000000 
#    y 0.000000 1.719930 0.000000 
#    z 0.000000 0.000000 1.704530 
# 
# From -- ./inp_files/9668.got.cif
#   From: 2010.05.17/outbox.cif.g08.bks.cpg/sg56_5_cif.got.tgz:9668.got - 2010.06.03 13:42:01.
