data_PCOD9433770
_publ_section_title
;
Structure prediction by ZEFSAII (Michael W. Deem and Ramdas Pophale) SiO2 
 PCOD9433770
Probable space group: P C C N
;
_chemical_formula_sum "Si O2"
_cell_formula_units_Z 44
_cell_length_a 10.299850
_cell_length_b 18.060245
_cell_length_c 10.176225
_cell_angle_alpha 90.000000
_cell_angle_beta 90.000000
_cell_angle_gamma 90.000000
_cell_volume 1892.959134
_symmetry_space_group_name_H-M "P C C N"
_symmetry_group_IT_number 56
_symmetry_cell_setting 'orthorhombic'
loop_
_space_group_symop_operation_xyz
x,y,z
1/2-x,1/2-y,z
1/2+x,-y,1/2-z
-x,1/2+y,1/2-z
-x,-y,-z
1/2+x,1/2+y,-z
1/2-x,y,1/2+z
x,1/2-y,1/2+z
loop_
_atom_site_type_symbol
_atom_site_label
_atom_site_fract_x
_atom_site_fract_y
_atom_site_fract_z
Si Si1 0.902757 0.119410 0.133383
Si Si2 0.500000 0.000000 0.000000
Si Si3 0.216975 0.487683 0.789739
Si Si4 0.750000 0.250000 0.997771
Si Si5 0.842324 0.906831 0.972758
Si Si6 0.000664 0.332118 0.897693
Si Si7 0.750000 0.750000 0.003631
O O1 0.819302 0.187223 0.083088
O O2 0.001595 0.090321 0.022612
O O3 0.999976 0.142985 0.247785
O O4 0.809760 0.057837 0.193121
O O5 0.581264 0.005777 0.139607
O O6 0.501712 0.907246 0.015810
O O7 0.209486 0.463990 0.637804
O O8 0.282463 0.426542 0.885657
O O9 0.635293 0.210278 0.918488
O O10 0.793295 0.825303 0.933427
O O11 0.119986 0.277129 0.922772
#
# Coordination Sequence:
#
# PCOD9433770 Si02
#       7
#     8   4   8   4   8   8   4
#     4  12  26  47  73 108 151 203 264 324 396 476
#     4  12  22  48  76 102 152 206 252 320 400 468
#     4  12  27  47  78 109 156 207 260 330 395 482
#     4  12  26  48  72 108 150 204 270 318 402 470
#     4  12  26  48  74 114 152 201 263 321 399 479
#     4  12  26  51  74 112 158 210 264 333 403 483
#     4  12  26  48  80 112 160 204 268 330 410 468
#
# _framework density 23.244032000000001
#
# number of rings (size 3 to 8) (size 9 to 14) (size 15 to 20)
#    0.000    0.000    7.273    2.182    0.000    2.909 
#    0.000    0.000    0.000    0.000    0.000    0.000 
#    0.000    0.000    0.000    0.000    0.000    0.000 
#
# Total GULP energy -245150.247103 kJ/mol
# GULP energy per Si atom -5571.596525 kJ/mol
# Density = 2.319113 g / cm^3
# Si number density = 23.244032 Si / 1000 Ang^3
#
#
#
# Elastic Constant Matrix: (Units=GPa)
#
#
# Indices 1 2 3 4 5 6 
#
# 1 79.0129 18.1494 12.8841 0.0000 0.0000 0.0000
# 2 18.1494 104.6346 0.6905 0.0000 0.0000 0.0000
# 3 12.8841 0.6905 47.3794 0.0000 0.0000 0.0000
# 4 0.0000 0.0000 0.0000 18.2297 0.0000 0.0000
# 5 0.0000 0.0000 0.0000 0.0000 28.1235 0.0000
# 6 0.0000 0.0000 0.0000 0.0000 0.0000 39.2706
#
#
#
# Elastic Compliance Matrix: (Units=1/GPa)
#
#
# Indices 1 2 3 4 5 6 
#
# 1 0.013807 -0.002370 -0.003720 0.000000 0.000000 0.000000
# 2 -0.002370 0.009965 0.000499 0.000000 0.000000 0.000000
# 3 -0.003720 0.000499 0.022111 0.000000 0.000000 0.000000
# 4 0.000000 0.000000 0.000000 0.054855 0.000000 0.000000
# 5 0.000000 0.000000 0.000000 0.000000 0.035557 0.000000
# 6 0.000000 0.000000 0.000000 0.000000 0.000000 0.025464
#
#
# Mechanical properties :
#
#
# Convention : Reuss Voigt Hill
#
# Bulk Modulus (GPa) = 28.81804 32.71942 30.76873
# Shear Modulus (GPa) = 27.09892 30.41161 28.75526
#
# Velocity S-wave (km/s) = 3.41815 3.62105 3.52106
# Velocity P-wave (km/s) = 5.29181 5.62047 5.45862
#
# Compressibility (1/GPa) = 0.03470048
#
# Stress axis : x y z
#
# Youngs Moduli (GPa) = 72.42563 100.35193 45.22721
#
# Poissons Ratio (x) = 0.23787 0.16825
# Poissons Ratio (y) = 0.17168 -0.02258
# Poissons Ratio (z) = 0.26943 -0.05011
#
# Static dielectric constant tensor:
#      x y z
#    x 2.003000 0.000000 0.000000 
#    y 0.000000 1.854660 0.000000 
#    z 0.000000 0.000000 1.741970 
# 
# From -- ./inp_files/7115.got.cif
#   From: 2010.05.17/outbox.cif.g08.bks.cpg/sg56_4_cif.got.tgz:7115.got - 2010.06.03 13:42:01.
