data_PCOD9433886
_publ_section_title
;
Structure prediction by ZEFSAII (Michael W. Deem and Ramdas Pophale) SiO2 
 PCOD9433886
Probable space group: P C C N
;
_chemical_formula_sum "Si O2"
_cell_formula_units_Z 20
_cell_length_a 6.352838
_cell_length_b 4.869228
_cell_length_c 24.921586
_cell_angle_alpha 90.000000
_cell_angle_beta 90.000000
_cell_angle_gamma 90.000000
_cell_volume 770.909804
_symmetry_space_group_name_H-M "P C C N"
_symmetry_group_IT_number 56
_symmetry_cell_setting 'orthorhombic'
loop_
_space_group_symop_operation_xyz
x,y,z
1/2-x,1/2-y,z
1/2+x,-y,1/2-z
-x,1/2+y,1/2-z
-x,-y,-z
1/2+x,1/2+y,-z
1/2-x,y,1/2+z
x,1/2-y,1/2+z
loop_
_atom_site_type_symbol
_atom_site_label
_atom_site_fract_x
_atom_site_fract_y
_atom_site_fract_z
Si Si1 0.592821 0.999045 0.439966
Si Si2 0.250000 0.750000 0.364249
Si Si3 0.472591 0.867119 0.212576
O O1 0.750000 0.250000 0.431919
O O2 0.750000 0.750000 0.433805
O O3 0.500000 0.000000 0.500000
O O4 0.400003 0.944618 0.399890
O O5 0.399335 0.544247 0.330407
O O6 0.250000 0.750000 0.191758
O O7 0.567193 0.592596 0.240264
#
# Coordination Sequence:
#
# PCOD9433886 Si02
#       3
#     8   4   8
#     4  12  29  57  92 130 178 233 297 368 451 534
#     4  12  32  60  92 130 188 234 302 374 456 522
#     4  12  29  60  88 125 182 239 298 374 446 537
#
# _framework density 25.943373000000001
#
# number of rings (size 3 to 8) (size 9 to 14) (size 15 to 20)
#    0.000    0.000    4.000    2.400    0.000   11.200 
#   10.800    0.000    0.000    0.000    0.000    0.000 
#    0.000    0.000    0.000    0.000    0.000    0.000 
#
# Total GULP energy -112259.745761 kJ/mol
# GULP energy per Si atom -5612.987288 kJ/mol
# Density = 2.588432 g / cm^3
# Si number density = 25.943373 Si / 1000 Ang^3
#
#
#
# Elastic Constant Matrix: (Units=GPa)
#
#
# Indices 1 2 3 4 5 6 
#
# 1 231.0220 118.0307 128.5631 0.0000 0.0000 0.0000
# 2 118.0307 261.3812 82.6681 0.0000 0.0000 0.0000
# 3 128.5631 82.6681 185.8998 0.0000 0.0000 0.0000
# 4 0.0000 0.0000 0.0000 44.1197 0.0000 0.0000
# 5 0.0000 0.0000 0.0000 0.0000 76.2700 0.0000
# 6 0.0000 0.0000 0.0000 0.0000 0.0000 83.0012
#
#
#
# Elastic Compliance Matrix: (Units=1/GPa)
#
#
# Indices 1 2 3 4 5 6 
#
# 1 0.007960 -0.002157 -0.004546 0.000000 0.000000 0.000000
# 2 -0.002157 0.005036 -0.000748 0.000000 0.000000 0.000000
# 3 -0.004546 -0.000748 0.008856 0.000000 0.000000 0.000000
# 4 0.000000 0.000000 0.000000 0.022666 0.000000 0.000000
# 5 0.000000 0.000000 0.000000 0.000000 0.013111 0.000000
# 6 0.000000 0.000000 0.000000 0.000000 0.000000 0.012048
#
#
# Mechanical properties :
#
#
# Convention : Reuss Voigt Hill
#
# Bulk Modulus (GPa) = 143.86973 148.53631 146.20302
# Shear Modulus (GPa) = 57.53985 63.94759 60.74372
#
# Velocity S-wave (km/s) = 4.71457 4.97015 4.84405
# Velocity P-wave (km/s) = 9.23103 9.50342 9.36821
#
# Compressibility (1/GPa) = 0.00695073
#
# Stress axis : x y z
#
# Youngs Moduli (GPa) = 125.62167 198.55589 112.92016
#
# Poissons Ratio (x) = 0.42825 0.51334
# Poissons Ratio (y) = 0.27095 0.08447
# Poissons Ratio (z) = 0.57108 0.14852
#
# Static dielectric constant tensor:
#      x y z
#    x 2.108170 0.000000 0.000000 
#    y 0.000000 1.941970 0.000000 
#    z 0.000000 0.000000 2.051350 
# 
# From -- ./inp_files/22617.got.cif
#   From: 2010.05.17/outbox.cif.g08.bks.cpg/sg56_12_cif.got.tgz:22617.got - 2010.06.03 13:42:01.
