data_PCOD9433531
_publ_section_title
;
Structure prediction by ZEFSAII (Michael W. Deem and Ramdas Pophale) SiO2 
 PCOD9433531
Probable space group: P C C N
;
_chemical_formula_sum "Si O2"
_cell_formula_units_Z 56
_cell_length_a 9.509209
_cell_length_b 15.825774
_cell_length_c 15.005119
_cell_angle_alpha 90.000000
_cell_angle_beta 90.000000
_cell_angle_gamma 90.000000
_cell_volume 2258.129250
_symmetry_space_group_name_H-M "P C C N"
_symmetry_group_IT_number 56
_symmetry_cell_setting 'orthorhombic'
loop_
_space_group_symop_operation_xyz
x,y,z
1/2-x,1/2-y,z
1/2+x,-y,1/2-z
-x,1/2+y,1/2-z
-x,-y,-z
1/2+x,1/2+y,-z
1/2-x,y,1/2+z
x,1/2-y,1/2+z
loop_
_atom_site_type_symbol
_atom_site_label
_atom_site_fract_x
_atom_site_fract_y
_atom_site_fract_z
Si Si1 0.469611 0.890820 0.401609
Si Si2 0.602898 0.938531 0.235564
Si Si3 0.171081 0.161417 0.841620
Si Si4 0.357320 0.634243 0.218506
Si Si5 0.397933 0.905516 0.083737
Si Si6 0.790296 0.522897 0.506783
Si Si7 0.895560 0.289879 0.082010
O O1 0.477863 0.903454 0.297123
O O2 0.592746 0.950761 0.435864
O O3 0.494577 0.792721 0.418367
O O4 0.334115 0.934944 0.444326
O O5 0.747037 0.885115 0.240176
O O6 0.536220 0.923291 0.139755
O O7 0.628695 0.035414 0.257264
O O8 0.250000 0.250000 0.854446
O O9 0.195487 0.097468 0.922958
O O10 0.003391 0.166115 0.826779
O O11 0.226244 0.637247 0.147197
O O12 0.362470 0.678468 0.316864
O O13 0.437342 0.852974 0.995764
O O14 0.342115 0.996069 0.050004
O O15 0.750000 0.250000 0.049985
#
# Coordination Sequence:
#
# PCOD9433531 Si02
#       7
#     8   8   8   8   8   8   8
#     4  11  23  47  73 104 151 201 251 308 393 450
#     4  12  26  49  80 110 154 202 259 314 381 473
#     4  12  28  47  74 116 158 197 251 319 398 454
#     4  12  26  52  79 111 158 206 253 318 393 465
#     4  12  27  49  82 113 150 205 265 319 382 461
#     4  11  23  47  75 102 147 209 243 309 386 470
#     4  12  27  43  75 118 152 192 270 331 371 456
#
# _framework density 24.799289999999999
#
# number of rings (size 3 to 8) (size 9 to 14) (size 15 to 20)
#    0.000    0.286    4.286    4.286    2.000    4.000 
#    0.000    0.714    0.000    0.000    0.000    0.000 
#    0.000    0.000    0.000    0.000    0.000    0.000 
#
# Total GULP energy -313146.971901 kJ/mol
# GULP energy per Si atom -5591.910213 kJ/mol
# Density = 2.474285 g / cm^3
# Si number density = 24.799290 Si / 1000 Ang^3
#
#
#
# Elastic Constant Matrix: (Units=GPa)
#
#
# Indices 1 2 3 4 5 6 
#
# 1 66.3212 1.5121 6.5982 0.0000 0.0000 0.0000
# 2 1.5121 134.5100 34.0695 0.0000 0.0000 0.0000
# 3 6.5982 34.0695 116.1976 0.0000 0.0000 0.0000
# 4 0.0000 0.0000 0.0000 -2.6328 0.0000 0.0000
# 5 0.0000 0.0000 0.0000 0.0000 13.8952 0.0000
# 6 0.0000 0.0000 0.0000 0.0000 0.0000 23.4040
#
#
#
# Elastic Compliance Matrix: (Units=1/GPa)
#
#
# Indices 1 2 3 4 5 6 
#
# 1 0.015164 0.000051 -0.000876 0.000000 0.000000 0.000000
# 2 0.000051 0.008031 -0.002358 0.000000 0.000000 0.000000
# 3 -0.000876 -0.002358 0.009347 0.000000 0.000000 0.000000
# 4 0.000000 0.000000 0.000000 -0.379825 0.000000 0.000000
# 5 0.000000 0.000000 0.000000 0.000000 0.071967 0.000000
# 6 0.000000 0.000000 0.000000 0.000000 0.000000 0.042728
#
#
# Mechanical properties :
#
#
# Convention : Reuss Voigt Hill
#
# Bulk Modulus (GPa) = 38.20080 44.59870 41.39975
# Shear Modulus (GPa) = -22.98882 25.25654 1.13386
#
# Velocity S-wave (km/s) = -3.04796 3.19476 0.67691
# Velocity P-wave (km/s) = 1.74661 5.62419 4.16427
#
# Compressibility (1/GPa) = 0.02617747
#
# Stress axis : x y z
#
# Youngs Moduli (GPa) = 65.94510 124.51804 106.98566
#
# Poissons Ratio (x) = -0.00641 0.09374
# Poissons Ratio (y) = -0.00339 0.25223
# Poissons Ratio (z) = 0.05778 0.29357
#
# Static dielectric constant tensor:
#      x y z
#    x 2.048780 0.000000 0.000000 
#    y 0.000000 2.008280 0.000000 
#    z 0.000000 0.000000 2.183070 
# 
# From -- ./inp_files/11686.got.cif
#   From: 2010.05.17/outbox.cif.g08.bks.cpg/sg56_6_cif.got.tgz:11686.got - 2010.06.03 13:42:01.
