data_PCOD9433858
_publ_section_title
;
Structure prediction by ZEFSAII (Michael W. Deem and Ramdas Pophale) SiO2 
 PCOD9433858
Probable space group: P C C N
;
_chemical_formula_sum "Si O2"
_cell_formula_units_Z 36
_cell_length_a 9.718402
_cell_length_b 8.181115
_cell_length_c 16.490530
_cell_angle_alpha 90.000000
_cell_angle_beta 90.000000
_cell_angle_gamma 90.000000
_cell_volume 1311.118578
_symmetry_space_group_name_H-M "P C C N"
_symmetry_group_IT_number 56
_symmetry_cell_setting 'orthorhombic'
loop_
_space_group_symop_operation_xyz
x,y,z
1/2-x,1/2-y,z
1/2+x,-y,1/2-z
-x,1/2+y,1/2-z
-x,-y,-z
1/2+x,1/2+y,-z
1/2-x,y,1/2+z
x,1/2-y,1/2+z
loop_
_atom_site_type_symbol
_atom_site_label
_atom_site_fract_x
_atom_site_fract_y
_atom_site_fract_z
Si Si1 0.368471 0.548163 0.051459
Si Si2 0.250000 0.750000 0.173583
Si Si3 0.680280 0.550961 0.210138
Si Si4 0.880234 0.466660 0.067739
Si Si5 0.446337 0.200786 0.663667
O O1 0.544739 0.453733 0.180802
O O2 0.338528 0.385662 0.103734
O O3 0.500000 0.500000 0.000000
O O4 0.247318 0.576040 0.988882
O O5 0.234669 0.589806 0.227787
O O6 0.373630 0.704151 0.111696
O O7 0.795128 0.569793 0.138325
O O8 0.620050 0.705610 0.260400
O O9 0.954326 0.328440 0.120150
O O10 0.000000 0.500000 0.000000
#
# Coordination Sequence:
#
# PCOD9433858 Si02
#       5
#     8   4   8   8   8
#     4  12  27  52  89 122 182 242 304 374 465 550
#     4  12  26  50  82 130 176 236 296 384 452 542
#     4  12  27  53  88 120 182 232 311 381 454 560
#     4  12  28  55  83 129 183 234 300 384 465 553
#     4  12  27  56  86 132 172 243 312 374 466 554
#
# _framework density 27.457471000000002
#
# number of rings (size 3 to 8) (size 9 to 14) (size 15 to 20)
#    0.000    0.000    4.444    4.000    0.000    3.556 
#    4.000    0.000    0.000    0.000    0.000    0.000 
#    0.000    0.000    0.000    0.000    0.000    0.000 
#
# Total GULP energy -201161.272390 kJ/mol
# GULP energy per Si atom -5587.813122 kJ/mol
# Density = 2.739498 g / cm^3
# Si number density = 27.457471 Si / 1000 Ang^3
#
#
#
# Elastic Constant Matrix: (Units=GPa)
#
#
# Indices 1 2 3 4 5 6 
#
# 1 161.7587 46.7552 89.8054 0.0000 0.0000 0.0000
# 2 46.7552 107.3622 98.9384 0.0000 0.0000 0.0000
# 3 89.8054 98.9384 202.7256 0.0000 0.0000 0.0000
# 4 0.0000 0.0000 0.0000 50.3038 0.0000 0.0000
# 5 0.0000 0.0000 0.0000 0.0000 76.1414 0.0000
# 6 0.0000 0.0000 0.0000 0.0000 0.0000 48.8069
#
#
#
# Elastic Compliance Matrix: (Units=1/GPa)
#
#
# Indices 1 2 3 4 5 6 
#
# 1 0.008208 -0.000407 -0.003438 0.000000 0.000000 0.000000
# 2 -0.000407 0.016947 -0.008091 0.000000 0.000000 0.000000
# 3 -0.003438 -0.008091 0.010404 0.000000 0.000000 0.000000
# 4 0.000000 0.000000 0.000000 0.019879 0.000000 0.000000
# 5 0.000000 0.000000 0.000000 0.000000 0.013133 0.000000
# 6 0.000000 0.000000 0.000000 0.000000 0.000000 0.020489
#
#
# Mechanical properties :
#
#
# Convention : Reuss Voigt Hill
#
# Bulk Modulus (GPa) = 85.54703 104.76050 95.15377
# Shear Modulus (GPa) = 42.79784 50.80692 46.80238
#
# Velocity S-wave (km/s) = 3.95232 4.30628 4.13309
# Velocity P-wave (km/s) = 7.21468 7.93486 7.58332
#
# Compressibility (1/GPa) = 0.01168948
#
# Stress axis : x y z
#
# Youngs Moduli (GPa) = 121.83087 59.00599 96.11384
#
# Poissons Ratio (x) = 0.02399 0.33041
# Poissons Ratio (y) = 0.04954 0.77765
# Poissons Ratio (z) = 0.41881 0.47741
#
# Static dielectric constant tensor:
#      x y z
#    x 2.104980 0.000000 0.000000 
#    y 0.000000 2.192130 0.000000 
#    z 0.000000 0.000000 2.328460 
# 
# From -- ./inp_files/14572.got.cif
#   From: 2010.05.17/outbox.cif.g08.bks.cpg/sg56_8_cif.got.tgz:14572.got - 2010.06.03 13:42:01.
