data_PCOD9433130
_publ_section_title
;
Structure prediction by ZEFSAII (Michael W. Deem and Ramdas Pophale) SiO2 
 PCOD9433130
Probable space group: P C C N
;
_chemical_formula_sum "Si O2"
_cell_formula_units_Z 60
_cell_length_a 25.461903
_cell_length_b 11.457798
_cell_length_c 8.266040
_cell_angle_alpha 90.000000
_cell_angle_beta 90.000000
_cell_angle_gamma 90.000000
_cell_volume 2411.512532
_symmetry_space_group_name_H-M "P C C N"
_symmetry_group_IT_number 56
_symmetry_cell_setting 'orthorhombic'
loop_
_space_group_symop_operation_xyz
x,y,z
1/2-x,1/2-y,z
1/2+x,-y,1/2-z
-x,1/2+y,1/2-z
-x,-y,-z
1/2+x,1/2+y,-z
1/2-x,y,1/2+z
x,1/2-y,1/2+z
loop_
_atom_site_type_symbol
_atom_site_label
_atom_site_fract_x
_atom_site_fract_y
_atom_site_fract_z
Si Si1 0.465394 0.777996 0.486054
Si Si2 0.476687 0.924646 0.806931
Si Si3 0.186002 0.626729 0.287716
Si Si4 0.693832 0.383334 0.824362
Si Si5 0.425489 0.138638 0.629761
Si Si6 0.086817 0.506227 0.304884
Si Si7 0.677388 0.631905 0.732354
Si Si8 0.750000 0.750000 0.976933
O O1 0.464311 0.832506 0.663032
O O2 0.453806 0.642102 0.462180
O O3 0.525679 0.785265 0.426009
O O4 0.432776 0.869140 0.378062
O O5 0.449439 0.043848 0.753608
O O6 0.538903 0.951718 0.795849
O O7 0.187655 0.615173 0.482316
O O8 0.244365 0.608822 0.219047
O O9 0.172591 0.759856 0.240001
O O10 0.142864 0.534424 0.226795
O O11 0.667235 0.493801 0.738211
O O12 0.376251 0.195743 0.717693
O O13 0.406879 0.073285 0.466217
O O14 0.705347 0.685123 0.578493
O O15 0.720385 0.655054 0.870524
#
# Coordination Sequence:
#
# PCOD9433130 Si02
#       8
#     8   8   8   8   8   8   8   4
#     4   9  19  35  61  85 117 154 204 239 304 377
#     4   9  19  38  62  89 120 159 199 255 306 374
#     4  11  22  39  62  92 123 169 200 260 308 372
#     4  11  23  38  63  89 129 159 213 251 312 363
#     4   9  19  37  60  86 119 164 192 250 313 364
#     4   9  19  36  60  86 122 162 200 240 322 361
#     4  11  22  43  64  89 125 164 212 256 312 361
#     4  10  26  42  64  90 122 170 216 260 300 366
#
# _framework density 24.880649999999999
#
# number of rings (size 3 to 8) (size 9 to 14) (size 15 to 20)
#    0.000    2.133    1.333    4.000    1.867    2.133 
#    2.400    2.667    8.800    0.000    0.000    0.000 
#    0.000    0.000    0.000    0.000    0.000    0.000 
#
# Total GULP energy -335903.306186 kJ/mol
# GULP energy per Si atom -5598.388436 kJ/mol
# Density = 2.482402 g / cm^3
# Si number density = 24.880650 Si / 1000 Ang^3
#
#
#
# Elastic Constant Matrix: (Units=GPa)
#
#
# Indices 1 2 3 4 5 6 
#
# 1 90.8641 -8.5129 -3.5591 0.0000 0.0000 0.0000
# 2 -8.5129 61.3829 29.4027 0.0000 0.0000 0.0000
# 3 -3.5591 29.4027 44.6173 0.0000 0.0000 0.0000
# 4 0.0000 0.0000 0.0000 7.5112 0.0000 0.0000
# 5 0.0000 0.0000 0.0000 0.0000 50.0328 0.0000
# 6 0.0000 0.0000 0.0000 0.0000 0.0000 27.2538
#
#
#
# Elastic Compliance Matrix: (Units=1/GPa)
#
#
# Indices 1 2 3 4 5 6 
#
# 1 0.011151 0.001637 -0.000189 0.000000 0.000000 0.000000
# 2 0.001637 0.024046 -0.015716 0.000000 0.000000 0.000000
# 3 -0.000189 -0.015716 0.032754 0.000000 0.000000 0.000000
# 4 0.000000 0.000000 0.000000 0.133134 0.000000 0.000000
# 5 0.000000 0.000000 0.000000 0.000000 0.019987 0.000000
# 6 0.000000 0.000000 0.000000 0.000000 0.000000 0.036692
#
#
# Mechanical properties :
#
#
# Convention : Reuss Voigt Hill
#
# Bulk Modulus (GPa) = 25.37029 25.72505 25.54767
# Shear Modulus (GPa) = 16.69784 28.92847 22.81315
#
# Velocity S-wave (km/s) = 2.59340 3.41352 3.03133
# Velocity P-wave (km/s) = 4.38025 5.08901 4.74787
#
# Compressibility (1/GPa) = 0.03941618
#
# Stress axis : x y z
#
# Youngs Moduli (GPa) = 89.67464 41.58670 30.53026
#
# Poissons Ratio (x) = -0.06809 0.00578
# Poissons Ratio (y) = -0.14682 0.47981
# Poissons Ratio (z) = 0.01699 0.65357
#
# Static dielectric constant tensor:
#      x y z
#    x 1.936420 0.000000 0.000000 
#    y 0.000000 2.055780 0.000000 
#    z 0.000000 0.000000 1.975800 
# 
# From -- ./inp_files/4966.got.cif
#   From: 2010.05.17/outbox.cif.g08.bks.cpg/sg56_3_cif.got.tgz:4966.got - 2010.06.03 13:42:01.
