data_PCOD9433357
_publ_section_title
;
Structure prediction by ZEFSAII (Michael W. Deem and Ramdas Pophale) SiO2 
 PCOD9433357
Probable space group: P C C N
;
_chemical_formula_sum "Si O2"
_cell_formula_units_Z 40
_cell_length_a 8.276435
_cell_length_b 11.044371
_cell_length_c 20.033103
_cell_angle_alpha 90.000000
_cell_angle_beta 90.000000
_cell_angle_gamma 90.000000
_cell_volume 1831.186254
_symmetry_space_group_name_H-M "P C C N"
_symmetry_group_IT_number 56
_symmetry_cell_setting 'orthorhombic'
loop_
_space_group_symop_operation_xyz
x,y,z
1/2-x,1/2-y,z
1/2+x,-y,1/2-z
-x,1/2+y,1/2-z
-x,-y,-z
1/2+x,1/2+y,-z
1/2-x,y,1/2+z
x,1/2-y,1/2+z
loop_
_atom_site_type_symbol
_atom_site_label
_atom_site_fract_x
_atom_site_fract_y
_atom_site_fract_z
Si Si1 0.421266 0.185172 0.985272
Si Si2 0.930647 0.029642 0.592997
Si Si3 0.425054 0.898407 0.452817
Si Si4 0.069492 0.108783 0.194062
Si Si5 0.551231 0.878737 0.770871
O O1 0.250000 0.250000 0.985355
O O2 0.445701 0.113486 0.916984
O O3 0.433355 0.089210 0.045793
O O4 0.558949 0.279339 0.002806
O O5 0.755063 0.066022 0.566418
O O6 0.946935 0.076335 0.666696
O O7 0.524032 0.875011 0.384069
O O8 0.500000 0.000000 0.500000
O O9 0.261237 0.104883 0.208091
O O10 0.017866 0.233249 0.233630
O O11 0.990743 0.979564 0.215050
#
# Coordination Sequence:
#
# PCOD9433357 Si02
#       5
#     8   8   8   8   8
#     4  11  22  41  63  98 139 175 222 275 336 404
#     4  11  24  40  70  98 134 181 227 276 342 407
#     4  12  24  41  69 101 137 179 225 273 341 402
#     4  11  26  46  73  99 135 181 227 289 337 409
#     4  11  25  48  72  99 136 178 233 281 346 403
#
# _framework density 21.843762000000002
#
# number of rings (size 3 to 8) (size 9 to 14) (size 15 to 20)
#    0.000    0.800    4.000    3.000    2.800    4.000 
#    3.600    0.000    0.000    0.000    0.000    0.000 
#    0.000    0.000    0.000    0.000    0.000    0.000 
#
# Total GULP energy -223417.255626 kJ/mol
# GULP energy per Si atom -5585.431391 kJ/mol
# Density = 2.179404 g / cm^3
# Si number density = 21.843762 Si / 1000 Ang^3
#
#
#
# Elastic Constant Matrix: (Units=GPa)
#
#
# Indices 1 2 3 4 5 6 
#
# 1 76.7266 42.9594 15.2140 0.0000 0.0000 0.0000
# 2 42.9594 143.8148 38.3588 0.0000 0.0000 0.0000
# 3 15.2140 38.3588 24.3603 0.0000 0.0000 0.0000
# 4 0.0000 0.0000 0.0000 33.3153 0.0000 0.0000
# 5 0.0000 0.0000 0.0000 0.0000 28.8335 0.0000
# 6 0.0000 0.0000 0.0000 0.0000 0.0000 37.1355
#
#
#
# Elastic Compliance Matrix: (Units=1/GPa)
#
#
# Indices 1 2 3 4 5 6 
#
# 1 0.015899 -0.003622 -0.004226 0.000000 0.000000 0.000000
# 2 -0.003622 0.012814 -0.017915 0.000000 0.000000 0.000000
# 3 -0.004226 -0.017915 0.071899 0.000000 0.000000 0.000000
# 4 0.000000 0.000000 0.000000 0.030016 0.000000 0.000000
# 5 0.000000 0.000000 0.000000 0.000000 0.034682 0.000000
# 6 0.000000 0.000000 0.000000 0.000000 0.000000 0.026928
#
#
# Mechanical properties :
#
#
# Convention : Reuss Voigt Hill
#
# Bulk Modulus (GPa) = 20.37244 48.66292 34.51768
# Shear Modulus (GPa) = 19.22137 29.74816 24.48476
#
# Velocity S-wave (km/s) = 2.96961 3.69434 3.35162
# Velocity P-wave (km/s) = 4.59399 6.36582 5.55106
#
# Compressibility (1/GPa) = 0.04908592
#
# Stress axis : x y z
#
# Youngs Moduli (GPa) = 62.89571 78.04169 13.90834
#
# Poissons Ratio (x) = 0.28267 0.05878
# Poissons Ratio (y) = 0.22781 0.24917
# Poissons Ratio (z) = 0.26582 1.39810
#
# Static dielectric constant tensor:
#      x y z
#    x 1.778360 0.000000 0.000000 
#    y 0.000000 1.937880 0.000000 
#    z 0.000000 0.000000 1.798000 
# 
# From -- ./inp_files/15410.got.cif
#   From: 2010.05.17/outbox.cif.g08.bks.cpg/sg56_8_cif.got.tgz:15410.got - 2010.06.03 13:42:01.
