data_PCOD9433917
_publ_section_title
;
Structure prediction by ZEFSAII (Michael W. Deem and Ramdas Pophale) SiO2 
 PCOD9433917
Probable space group: P C C N
;
_chemical_formula_sum "Si O2"
_cell_formula_units_Z 60
_cell_length_a 27.000000
_cell_length_b 12.000000
_cell_length_c 9.000000
_cell_angle_alpha 90.000000
_cell_angle_beta 90.000000
_cell_angle_gamma 90.000000
_cell_volume 2916.000000
_symmetry_space_group_name_H-M "P C C N"
_symmetry_group_IT_number 56
_symmetry_cell_setting 'orthorhombic'
loop_
_space_group_symop_operation_xyz
x,y,z
1/2-x,1/2-y,z
1/2+x,-y,1/2-z
-x,1/2+y,1/2-z
-x,-y,-z
1/2+x,1/2+y,-z
1/2-x,y,1/2+z
x,1/2-y,1/2+z
loop_
_atom_site_type_symbol
_atom_site_label
_atom_site_fract_x
_atom_site_fract_y
_atom_site_fract_z
Si Si1 0.250000 0.750000 0.200505
Si Si2 0.658849 0.973727 0.450999
Si Si3 0.863704 0.542952 0.775023
Si Si4 0.930124 0.092951 0.504968
Si Si5 0.532631 0.862159 0.123432
Si Si6 0.729357 0.015962 0.954568
Si Si7 0.662159 0.132827 0.183947
Si Si8 0.090771 0.266816 0.626917
O O1 0.257175 0.860971 0.105889
O O2 0.199762 0.765623 0.293593
O O3 0.637682 0.002854 0.610739
O O4 0.630860 0.863063 0.397858
O O5 0.718076 0.956530 0.469547
O O6 0.649421 0.074350 0.338229
O O7 0.899011 0.467945 0.876317
O O8 0.808436 0.540971 0.841535
O O9 0.884411 0.667526 0.780005
O O10 0.887937 0.157724 0.595958
O O11 0.976932 0.154315 0.434225
O O12 0.952965 0.992496 0.604967
O O13 0.544378 0.820144 0.287072
O O14 0.570036 0.793322 0.018976
O O15 0.696166 0.039784 0.099830
#
# Coordination Sequence:
#
# PCOD9433917 Si02
#       8
#     4   8   8   8   8   8   8   8
#     4  10  20  36  62  86 118 154 208 250 298 362
#     4  11  20  36  61  92 122 159 203 245 298 366
#     4  10  22  39  59  91 123 161 201 248 300 365
#     4   9  20  40  63  84 123 161 196 251 314 358
#     4  10  20  40  63  88 120 158 202 252 310 358
#     4  10  22  38  59  88 126 164 198 248 305 356
#     4  10  20  38  63  88 118 162 199 252 306 362
#     4  11  21  38  63  89 123 160 200 253 302 360
#
# _framework density 20.576132000000001
#
# number of rings (size 3 to 8) (size 9 to 14) (size 15 to 20)
#    0.000    1.867    2.667    2.000    0.000    1.600 
#    4.800    3.333    0.000    0.000    0.000    0.000 
#    0.000    0.000    0.000    0.000    0.000    0.000 
#
# Total GULP energy -334907.848533 kJ/mol
# GULP energy per Si atom -5581.797476 kJ/mol
# Density = 2.052930 g / cm^3
# Si number density = 20.576132 Si / 1000 Ang^3
#
#
#
# Elastic Constant Matrix: (Units=GPa)
#
#
# Indices 1 2 3 4 5 6 
#
# 1 103.3213 16.6215 3.3232 0.0000 0.0000 0.0000
# 2 16.6215 33.4976 3.8997 0.0000 0.0000 0.0000
# 3 3.3232 3.8997 58.7044 0.0000 0.0000 0.0000
# 4 0.0000 0.0000 0.0000 8.5086 0.0000 0.0000
# 5 0.0000 0.0000 0.0000 0.0000 9.7133 0.0000
# 6 0.0000 0.0000 0.0000 0.0000 0.0000 33.4630
#
#
#
# Elastic Compliance Matrix: (Units=1/GPa)
#
#
# Indices 1 2 3 4 5 6 
#
# 1 0.010522 -0.005192 -0.000251 0.000000 0.000000 0.000000
# 2 -0.005192 0.032647 -0.001875 0.000000 0.000000 0.000000
# 3 -0.000251 -0.001875 0.017173 0.000000 0.000000 0.000000
# 4 0.000000 0.000000 0.000000 0.117529 0.000000 0.000000
# 5 0.000000 0.000000 0.000000 0.000000 0.102952 0.000000
# 6 0.000000 0.000000 0.000000 0.000000 0.000000 0.029884
#
#
# Mechanical properties :
#
#
# Convention : Reuss Voigt Hill
#
# Bulk Modulus (GPa) = 21.87813 27.02356 24.45085
# Shear Modulus (GPa) = 14.68097 21.78224 18.23160
#
# Velocity S-wave (km/s) = 2.67403 3.25717 2.97990
# Velocity P-wave (km/s) = 4.49330 5.22566 4.87326
#
# Compressibility (1/GPa) = 0.04570774
#
# Stress axis : x y z
#
# Youngs Moduli (GPa) = 95.04060 30.63037 58.23018
#
# Poissons Ratio (x) = 0.15903 0.01460
# Poissons Ratio (y) = 0.49343 0.10917
# Poissons Ratio (z) = 0.02383 0.05743
#
# Static dielectric constant tensor:
#      x y z
#    x 1.724440 0.000000 0.000000 
#    y 0.000000 1.711760 0.000000 
#    z 0.000000 0.000000 1.795240 
# 
# From -- ./inp_files/4967.got.cif
#   From: 2010.05.17/outbox.ucp.g08.bks.cvg/sg56_3_cif.got.tgz:4967.got - 2010.06.11 16:37:52.
