data_PCOD9433007
_publ_section_title
;
Structure prediction by ZEFSAII (Michael W. Deem and Ramdas Pophale) SiO2 
 PCOD9433007
Probable space group: P C C N
;
_chemical_formula_sum "Si O2"
_cell_formula_units_Z 40
_cell_length_a 8.993123
_cell_length_b 15.548461
_cell_length_c 11.286291
_cell_angle_alpha 90.000000
_cell_angle_beta 90.000000
_cell_angle_gamma 90.000000
_cell_volume 1578.153292
_symmetry_space_group_name_H-M "P C C N"
_symmetry_group_IT_number 56
_symmetry_cell_setting 'orthorhombic'
loop_
_space_group_symop_operation_xyz
x,y,z
1/2-x,1/2-y,z
1/2+x,-y,1/2-z
-x,1/2+y,1/2-z
-x,-y,-z
1/2+x,1/2+y,-z
1/2-x,y,1/2+z
x,1/2-y,1/2+z
loop_
_atom_site_type_symbol
_atom_site_label
_atom_site_fract_x
_atom_site_fract_y
_atom_site_fract_z
Si Si1 0.922625 0.547851 0.390373
Si Si2 0.865099 0.323103 0.137317
Si Si3 0.294042 0.499826 0.798052
Si Si4 0.074246 0.088935 0.457874
Si Si5 0.582523 0.787993 0.259883
O O1 0.764340 0.527088 0.331424
O O2 0.930122 0.651485 0.378471
O O3 0.000000 0.500000 0.500000
O O4 0.030475 0.504431 0.290991
O O5 0.750000 0.250000 0.092172
O O6 0.768681 0.406401 0.168559
O O7 0.954592 0.282857 0.246502
O O8 0.006818 0.347496 0.056251
O O9 0.238230 0.440069 0.908721
O O10 0.039284 0.145524 0.342239
O O11 0.000000 0.000000 0.500000
O O12 0.750000 0.750000 0.249198
#
# Coordination Sequence:
#
# PCOD9433007 Si02
#       5
#     8   8   8   8   8
#     4  11  26  47  76 106 149 206 257 309 400 478
#     4  11  23  45  70 103 146 188 248 324 393 453
#     4  10  24  46  71 107 144 198 261 311 374 488
#     4   9  23  46  71  99 148 204 251 312 392 478
#     4  11  26  45  70 112 151 189 258 332 394 464
#
# _framework density 25.346081000000002
#
# number of rings (size 3 to 8) (size 9 to 14) (size 15 to 20)
#    0.000    1.600    2.000    0.000    8.400    9.600 
#    0.000    0.000    0.000    0.000    0.000    0.000 
#    0.000    0.000    0.000    0.000    0.000    0.000 
#
# Total GULP energy -222695.288595 kJ/mol
# GULP energy per Si atom -5567.382215 kJ/mol
# Density = 2.528839 g / cm^3
# Si number density = 25.346081 Si / 1000 Ang^3
#
#
#
# Elastic Constant Matrix: (Units=GPa)
#
#
# Indices 1 2 3 4 5 6 
#
# 1 94.0683 -0.2935 8.1915 0.0000 0.0000 0.0000
# 2 -0.2935 92.9608 12.6857 0.0000 0.0000 0.0000
# 3 8.1915 12.6857 56.4590 0.0000 0.0000 0.0000
# 4 0.0000 0.0000 0.0000 32.8712 0.0000 0.0000
# 5 0.0000 0.0000 0.0000 0.0000 18.5381 0.0000
# 6 0.0000 0.0000 0.0000 0.0000 0.0000 51.3626
#
#
#
# Elastic Compliance Matrix: (Units=1/GPa)
#
#
# Indices 1 2 3 4 5 6 
#
# 1 0.010772 0.000255 -0.001620 0.000000 0.000000 0.000000
# 2 0.000255 0.011104 -0.002532 0.000000 0.000000 0.000000
# 3 -0.001620 -0.002532 0.018516 0.000000 0.000000 0.000000
# 4 0.000000 0.000000 0.000000 0.030422 0.000000 0.000000
# 5 0.000000 0.000000 0.000000 0.000000 0.053943 0.000000
# 6 0.000000 0.000000 0.000000 0.000000 0.000000 0.019469
#
#
# Mechanical properties :
#
#
# Convention : Reuss Voigt Hill
#
# Bulk Modulus (GPa) = 30.67682 31.62839 31.15261
# Shear Modulus (GPa) = 30.69630 35.41468 33.05549
#
# Velocity S-wave (km/s) = 3.48384 3.74203 3.61524
# Velocity P-wave (km/s) = 5.32093 5.58355 5.45382
#
# Compressibility (1/GPa) = 0.03259790
#
# Stress axis : x y z
#
# Youngs Moduli (GPa) = 92.82924 90.06148 54.00759
#
# Poissons Ratio (x) = -0.02298 0.08751
# Poissons Ratio (y) = -0.02368 0.13674
# Poissons Ratio (z) = 0.15041 0.22802
#
# Static dielectric constant tensor:
#      x y z
#    x 2.218620 0.000000 0.000000 
#    y 0.000000 2.168240 0.000000 
#    z 0.000000 0.000000 2.204650 
# 
# From -- ./inp_files/6169.got.cif
#   From: 2010.05.17/outbox.cif.g08.bks.cpg/sg56_4_cif.got.tgz:6169.got - 2010.06.03 13:42:01.
