data_PCOD9433771
_publ_section_title
;
Structure prediction by ZEFSAII (Michael W. Deem and Ramdas Pophale) SiO2 
 PCOD9433771
Probable space group: P C C N
;
_chemical_formula_sum "Si O2"
_cell_formula_units_Z 32
_cell_length_a 17.090870
_cell_length_b 5.103594
_cell_length_c 13.859217
_cell_angle_alpha 90.000000
_cell_angle_beta 90.000000
_cell_angle_gamma 90.000000
_cell_volume 1208.868285
_symmetry_space_group_name_H-M "P C C N"
_symmetry_group_IT_number 56
_symmetry_cell_setting 'orthorhombic'
loop_
_space_group_symop_operation_xyz
x,y,z
1/2-x,1/2-y,z
1/2+x,-y,1/2-z
-x,1/2+y,1/2-z
-x,-y,-z
1/2+x,1/2+y,-z
1/2-x,y,1/2+z
x,1/2-y,1/2+z
loop_
_atom_site_type_symbol
_atom_site_label
_atom_site_fract_x
_atom_site_fract_y
_atom_site_fract_z
Si Si1 0.347070 0.954988 0.641011
Si Si2 0.484689 0.163159 0.186541
Si Si3 0.374305 0.659806 0.456509
Si Si4 0.750000 0.750000 0.003276
Si Si5 0.250000 0.750000 0.318905
O O1 0.387320 0.748567 0.566974
O O2 0.307954 0.892129 0.743384
O O3 0.404205 0.200390 0.656054
O O4 0.275850 0.031822 0.573362
O O5 0.520657 0.386083 0.258819
O O6 0.544148 0.140807 0.097961
O O7 0.324563 0.390769 0.447833
O O8 0.316381 0.854473 0.394066
#
# Coordination Sequence:
#
# PCOD9433771 Si02
#       5
#     8   8   8   4   4
#     4  12  27  49  78 115 165 215 277 343 419 496
#     4  12  31  52  82 121 168 225 276 342 421 500
#     4  12  27  51  78 122 163 218 280 345 421 492
#     4  12  26  46  84 116 156 220 272 348 410 492
#     4  12  22  50  74 112 164 208 284 336 408 490
#
# _framework density 26.471039000000001
#
# number of rings (size 3 to 8) (size 9 to 14) (size 15 to 20)
#    0.000    0.000    7.500    0.750   10.500    2.000 
#    0.000    0.000    0.000    0.000    0.000    0.000 
#    0.000    0.000    0.000    0.000    0.000    0.000 
#
# Total GULP energy -178786.985416 kJ/mol
# GULP energy per Si atom -5587.093294 kJ/mol
# Density = 2.641079 g / cm^3
# Si number density = 26.471039 Si / 1000 Ang^3
#
#
#
# Elastic Constant Matrix: (Units=GPa)
#
#
# Indices 1 2 3 4 5 6 
#
# 1 98.1628 2.7581 35.9030 0.0000 0.0000 0.0000
# 2 2.7581 99.3047 46.7498 0.0000 0.0000 0.0000
# 3 35.9030 46.7498 202.1850 0.0000 0.0000 0.0000
# 4 0.0000 0.0000 0.0000 4.4709 0.0000 0.0000
# 5 0.0000 0.0000 0.0000 0.0000 47.9539 0.0000
# 6 0.0000 0.0000 0.0000 0.0000 0.0000 52.8098
#
#
#
# Elastic Compliance Matrix: (Units=1/GPa)
#
#
# Indices 1 2 3 4 5 6 
#
# 1 0.010936 0.000685 -0.002100 0.000000 0.000000 0.000000
# 2 0.000685 0.011343 -0.002744 0.000000 0.000000 0.000000
# 3 -0.002100 -0.002744 0.005954 0.000000 0.000000 0.000000
# 4 0.000000 0.000000 0.000000 0.223666 0.000000 0.000000
# 5 0.000000 0.000000 0.000000 0.000000 0.020853 0.000000
# 6 0.000000 0.000000 0.000000 0.000000 0.000000 0.018936
#
#
# Mechanical properties :
#
#
# Convention : Reuss Voigt Hill
#
# Bulk Modulus (GPa) = 50.21805 63.38601 56.80203
# Shear Modulus (GPa) = 16.30549 41.99638 29.15093
#
# Velocity S-wave (km/s) = 2.48458 3.98741 3.32209
# Velocity P-wave (km/s) = 5.21948 6.72285 6.01829
#
# Compressibility (1/GPa) = 0.01991316
#
# Stress axis : x y z
#
# Youngs Moduli (GPa) = 91.44012 88.16024 167.96814
#
# Poissons Ratio (x) = -0.06040 0.35280
# Poissons Ratio (y) = -0.06264 0.46097
# Poissons Ratio (z) = 0.19206 0.24195
#
# Static dielectric constant tensor:
#      x y z
#    x 2.141390 0.000000 0.000000 
#    y 0.000000 2.266240 0.000000 
#    z 0.000000 0.000000 2.058410 
# 
# From -- ./inp_files/9414.got.cif
#   From: 2010.05.17/outbox.cif.g08.bks.cpg/sg56_5_cif.got.tgz:9414.got - 2010.06.03 13:42:01.
