data_PCOD9433504
_publ_section_title
;
Structure prediction by ZEFSAII (Michael W. Deem and Ramdas Pophale) SiO2 
 PCOD9433504
Probable space group: P C C N
;
_chemical_formula_sum "Si O2"
_cell_formula_units_Z 40
_cell_length_a 24.164495
_cell_length_b 5.259617
_cell_length_c 13.156248
_cell_angle_alpha 90.000000
_cell_angle_beta 90.000000
_cell_angle_gamma 90.000000
_cell_volume 1672.106347
_symmetry_space_group_name_H-M "P C C N"
_symmetry_group_IT_number 56
_symmetry_cell_setting 'orthorhombic'
loop_
_space_group_symop_operation_xyz
x,y,z
1/2-x,1/2-y,z
1/2+x,-y,1/2-z
-x,1/2+y,1/2-z
-x,-y,-z
1/2+x,1/2+y,-z
1/2-x,y,1/2+z
x,1/2-y,1/2+z
loop_
_atom_site_type_symbol
_atom_site_label
_atom_site_fract_x
_atom_site_fract_y
_atom_site_fract_z
Si Si1 0.028554 0.139802 0.093582
Si Si2 0.312760 0.801263 0.448876
Si Si3 0.357296 0.905872 0.657766
Si Si4 0.940962 0.996320 0.263569
Si Si5 0.353939 0.315624 0.343860
O O1 0.038250 0.437241 0.121074
O O2 0.091315 0.040823 0.100327
O O3 0.990484 0.081999 0.191933
O O4 0.000000 0.000000 0.000000
O O5 0.250000 0.750000 0.417088
O O6 0.317686 0.811759 0.570195
O O7 0.350499 0.563556 0.414153
O O8 0.329892 0.071579 0.400730
O O9 0.389860 0.689259 0.720985
O O10 0.327060 0.090562 0.737538
O O11 0.913857 0.764921 0.199103
#
# Coordination Sequence:
#
# PCOD9433504 Si02
#       5
#     8   8   8   8   8
#     4  11  24  39  69 108 154 201 244 304 365 454
#     4  12  28  51  78 111 142 192 261 321 393 451
#     4  11  26  47  76 108 157 196 254 317 374 457
#     4  11  23  45  68 113 153 204 254 295 382 462
#     4  11  26  50  76 107 152 193 247 319 377 458
#
# _framework density 23.921925000000002
#
# number of rings (size 3 to 8) (size 9 to 14) (size 15 to 20)
#    0.000    0.800    4.000    1.800    8.400    1.600 
#    3.600    0.000    0.000    0.000    0.000    0.000 
#    0.000    0.000    0.000    0.000    0.000    0.000 
#
# Total GULP energy -223150.690026 kJ/mol
# GULP energy per Si atom -5578.767251 kJ/mol
# Density = 2.386748 g / cm^3
# Si number density = 23.921925 Si / 1000 Ang^3
#
#
#
# Elastic Constant Matrix: (Units=GPa)
#
#
# Indices 1 2 3 4 5 6 
#
# 1 40.1781 30.9175 39.4191 0.0000 0.0000 0.0000
# 2 30.9175 123.8393 49.7651 0.0000 0.0000 0.0000
# 3 39.4191 49.7651 101.5553 0.0000 0.0000 0.0000
# 4 0.0000 0.0000 0.0000 29.8626 0.0000 0.0000
# 5 0.0000 0.0000 0.0000 0.000091318.6938 0.0000
# 6 0.0000 0.0000 0.0000 0.0000 0.0000 24.3437
#
#
#
# Elastic Compliance Matrix: (Units=1/GPa)
#
#
# Indices 1 2 3 4 5 6 
#
# 1 0.042509 -0.004959 -0.014070 0.000000 0.000000 0.000000
# 2 -0.004959 0.010633 -0.003286 0.000000 0.000000 0.000000
# 3 -0.014070 -0.003286 0.016919 0.000000 0.000000 0.000000
# 4 0.000000 0.000000 0.000000 0.033487 0.000000 0.000000
# 5 0.000000 0.000000 0.000000 0.000000 0.000011 0.000000
# 6 0.000000 0.000000 0.000000 0.000000 0.000000 0.041078
#
#
# Mechanical properties :
#
#
# Convention : Reuss Voigt Hill
#
# Bulk Modulus (GPa) = 39.32129 56.19734 47.75932
# Shear Modulus (GPa) = 25.28516 18284.27811 9154.78163
#
# Velocity S-wave (km/s) = 3.25466 87.52089 61.92939
# Velocity P-wave (km/s) = 5.53144 101.17684 71.64966
#
# Compressibility (1/GPa) = 0.02543151
#
# Stress axis : x y z
#
# Youngs Moduli (GPa) = 23.52419 94.04311 59.10677
#
# Poissons Ratio (x) = 0.46632 0.83165
# Poissons Ratio (y) = 0.11665 0.19422
# Poissons Ratio (z) = 0.33099 0.30902
#
# Static dielectric constant tensor:
#      x y z
#    x 1.896140 0.000000 0.000000 
#    y 0.000000 2.112400 0.000000 
#    z 0.000000 0.000000 1.973590 
# 
# From -- ./inp_files/9005.got.cif
#   From: 2010.05.17/outbox.cif.g08.bks.cpg/sg56_5_cif.got.tgz:9005.got - 2010.06.03 13:42:01.
