data_PCOD9433015
_publ_section_title
;
Structure prediction by ZEFSAII (Michael W. Deem and Ramdas Pophale) SiO2 
 PCOD9433015
Probable space group: P C C N
;
_chemical_formula_sum "Si O2"
_cell_formula_units_Z 48
_cell_length_a 22.399106
_cell_length_b 5.427434
_cell_length_c 17.401465
_cell_angle_alpha 90.000000
_cell_angle_beta 90.000000
_cell_angle_gamma 90.000000
_cell_volume 2115.490348
_symmetry_space_group_name_H-M "P C C N"
_symmetry_group_IT_number 56
_symmetry_cell_setting 'orthorhombic'
loop_
_space_group_symop_operation_xyz
x,y,z
1/2-x,1/2-y,z
1/2+x,-y,1/2-z
-x,1/2+y,1/2-z
-x,-y,-z
1/2+x,1/2+y,-z
1/2-x,y,1/2+z
x,1/2-y,1/2+z
loop_
_atom_site_type_symbol
_atom_site_label
_atom_site_fract_x
_atom_site_fract_y
_atom_site_fract_z
Si Si1 0.493466 0.235457 0.120796
Si Si2 0.321132 0.723484 0.270278
Si Si3 0.124078 0.224559 0.529521
Si Si4 0.321577 0.742572 0.096108
Si Si5 0.929529 0.883482 0.730970
Si Si6 0.396699 0.011866 0.381185
O O1 0.442674 0.171786 0.060350
O O2 0.456260 0.390660 0.184437
O O3 0.548886 0.368229 0.079586
O O4 0.527862 0.032415 0.172510
O O5 0.250000 0.750000 0.270304
O O6 0.339567 0.811550 0.184230
O O7 0.360743 0.474300 0.272178
O O8 0.343039 0.856201 0.347478
O O9 0.152553 0.474367 0.569250
O O10 0.123362 0.281971 0.439481
O O11 0.157866 0.971892 0.545484
O O12 0.250000 0.750000 0.093984
O O13 0.926238 0.611397 0.697146
#
# Coordination Sequence:
#
# PCOD9433015 Si02
#       6
#     8   8   8   8   8   8
#     4  11  23  40  68  99 138 185 236 291 347 429
#     4  10  24  46  73 100 135 183 248 293 342 422
#     4  12  27  45  72 104 150 184 236 294 369 430
#     4  11  26  49  73 102 137 193 243 293 350 426
#     4  11  22  41  68  98 135 183 242 286 354 411
#     4  11  26  43  66 107 139 188 225 299 364 423
#
# _framework density 22.689775000000001
#
# number of rings (size 3 to 8) (size 9 to 14) (size 15 to 20)
#    0.000    1.000    3.333    2.000    9.333    2.000 
#    3.000    0.000    0.000    0.000    0.000    0.000 
#    0.000    0.000    0.000    0.000    0.000    0.000 
#
# Total GULP energy -267691.585527 kJ/mol
# GULP energy per Si atom -5576.908032 kJ/mol
# Density = 2.263813 g / cm^3
# Si number density = 22.689775 Si / 1000 Ang^3
#
#
#
# Elastic Constant Matrix: (Units=GPa)
#
#
# Indices 1 2 3 4 5 6 
#
# 1 109.2153 22.7561 14.5111 0.0000 0.0000 0.0000
# 2 22.7561 51.0643 -4.0836 0.0000 0.0000 0.0000
# 3 14.5111 -4.0836 60.8460 0.0000 0.0000 0.0000
# 4 0.0000 0.0000 0.0000 -0.0029 0.0000 0.0000
# 5 0.0000 0.0000 0.0000 0.0000 12.0916 0.0000
# 6 0.0000 0.0000 0.0000 0.0000 0.0000 20.5420
#
#
#
# Elastic Compliance Matrix: (Units=1/GPa)
#
#
# Indices 1 2 3 4 5 6 
#
# 1 0.010563 -0.004935 -0.002850 0.000000 0.000000 0.000000
# 2 -0.004935 0.021995 0.002653 0.000000 0.000000 0.000000
# 3 -0.002850 0.002653 0.017293 0.000000 0.000000 0.000000
# 4 0.000000 0.000000 0.000000********** 0.000000 0.000000
# 5 0.000000 0.000000 0.000000 0.000000 0.082702 0.000000
# 6 0.000000 0.000000 0.000000 0.000000 0.000000 0.048681
#
#
# Mechanical properties :
#
#
# Convention : Reuss Voigt Hill
#
# Bulk Modulus (GPa) = 25.26175 31.94364 28.60270
# Shear Modulus (GPa) = -0.01462 19.05560 9.52049
#
# Velocity S-wave (km/s) = -0.08036 2.90113 2.05062
# Velocity P-wave (km/s) = 3.33903 5.03300 4.27084
#
# Compressibility (1/GPa) = 0.03958553
#
# Stress axis : x y z
#
# Youngs Moduli (GPa) = 94.66763 45.46551 57.82755
#
# Poissons Ratio (x) = 0.22439 0.16483
# Poissons Ratio (y) = 0.46721 -0.15343
# Poissons Ratio (z) = 0.26984 -0.12063
#
# Static dielectric constant tensor:
#      x y z
#    x 1.870650 0.000000 0.000000 
#    y 0.000000 1.926720 0.000000 
#    z 0.000000 0.000000 1.859460 
# 
# From -- ./inp_files/16937.got.cif
#   From: 2010.05.17/outbox.cif.g08.bks.cpg/sg56_9_cif.got.tgz:16937.got - 2010.06.03 13:42:01.
