data_PCOD9433400
_publ_section_title
;
Structure prediction by ZEFSAII (Michael W. Deem and Ramdas Pophale) SiO2 
 PCOD9433400
Probable space group: P C C N
;
_chemical_formula_sum "Si O2"
_cell_formula_units_Z 32
_cell_length_a 10.700760
_cell_length_b 14.763515
_cell_length_c 7.987720
_cell_angle_alpha 90.000000
_cell_angle_beta 90.000000
_cell_angle_gamma 90.000000
_cell_volume 1261.906642
_symmetry_space_group_name_H-M "P C C N"
_symmetry_group_IT_number 56
_symmetry_cell_setting 'orthorhombic'
loop_
_space_group_symop_operation_xyz
x,y,z
1/2-x,1/2-y,z
1/2+x,-y,1/2-z
-x,1/2+y,1/2-z
-x,-y,-z
1/2+x,1/2+y,-z
1/2-x,y,1/2+z
x,1/2-y,1/2+z
loop_
_atom_site_type_symbol
_atom_site_label
_atom_site_fract_x
_atom_site_fract_y
_atom_site_fract_z
Si Si1 0.229816 0.645147 0.998473
Si Si2 0.055695 0.569900 0.706458
Si Si3 0.616762 0.700189 0.386159
Si Si4 0.498933 0.135492 0.771229
O O1 0.250000 0.750000 0.957868
O O2 0.360182 0.599919 0.050068
O O3 0.138880 0.641308 0.160252
O O4 0.145846 0.593786 0.863022
O O5 0.032721 0.463630 0.706970
O O6 0.928078 0.625859 0.747909
O O7 0.750000 0.750000 0.372002
O O8 0.590864 0.657244 0.567690
O O9 0.524087 0.783613 0.356273
#
# Coordination Sequence:
#
# PCOD9433400 Si02
#       4
#     8   8   8   8
#     4  11  22  45  70 100 136 178 233 284 334 405
#     4  11  26  44  71 103 136 182 227 285 342 401
#     4  11  24  46  67 100 140 180 222 281 345 404
#     4  11  26  44  70  99 139 181 228 283 340 403
#
# _framework density 25.358453000000001
#
# number of rings (size 3 to 8) (size 9 to 14) (size 15 to 20)
#    0.000    1.000    2.500    4.500   10.500    0.000 
#    0.000    2.500    0.000    0.000    0.000    0.000 
#    0.000    0.000    0.000    0.000    0.000    0.000 
#
# Total GULP energy -179430.290463 kJ/mol
# GULP energy per Si atom -5607.196577 kJ/mol
# Density = 2.530074 g / cm^3
# Si number density = 25.358453 Si / 1000 Ang^3
#
#
#
# Elastic Constant Matrix: (Units=GPa)
#
#
# Indices 1 2 3 4 5 6 
#
# 1 112.2818 18.1463 25.0647 0.0000 0.0000 0.0000
# 2 18.1463 192.2269 24.5546 0.0000 0.0000 0.0000
# 3 25.0647 24.5546 60.3233 0.0000 0.0000 0.0000
# 4 0.0000 0.0000 0.0000 44.8145 0.0000 0.0000
# 5 0.0000 0.0000 0.0000 0.0000 91.1593 0.0000
# 6 0.0000 0.0000 0.0000 0.0000 0.0000 -19.4418
#
#
#
# Elastic Compliance Matrix: (Units=1/GPa)
#
#
# Indices 1 2 3 4 5 6 
#
# 1 0.009850 -0.000429 -0.003918 0.000000 0.000000 0.000000
# 2 -0.000429 0.005506 -0.002063 0.000000 0.000000 0.000000
# 3 -0.003918 -0.002063 0.019045 0.000000 0.000000 0.000000
# 4 0.000000 0.000000 0.000000 0.022314 0.000000 0.000000
# 5 0.000000 0.000000 0.000000 0.000000 0.010970 0.000000
# 6 0.000000 0.000000 0.000000 0.000000 0.000000 -0.051436
#
#
# Mechanical properties :
#
#
# Convention : Reuss Voigt Hill
#
# Bulk Modulus (GPa) = 46.33750 55.59592 50.96671
# Shear Modulus (GPa) = 137.87795 43.11085 90.49440
#
# Velocity S-wave (km/s) = 7.38171 4.12765 5.98026
# Velocity P-wave (km/s) = 9.53758 6.68493 8.23571
#
# Compressibility (1/GPa) = 0.02158079
#
# Stress axis : x y z
#
# Youngs Moduli (GPa) = 101.52101 181.61246 52.50721
#
# Poissons Ratio (x) = 0.07798 0.20572
# Poissons Ratio (y) = 0.04359 0.10832
# Poissons Ratio (z) = 0.39776 0.37465
#
# Static dielectric constant tensor:
#      x y z
#    x 2.035780 0.000000 0.000000 
#    y 0.000000 1.874970 0.000000 
#    z 0.000000 0.000000 2.117670 
# 
# From -- ./inp_files/2413.got.cif
#   From: 2010.05.17/outbox.cif.g08.bks.cpg/sg56_2_cif.got.tgz:2413.got - 2010.06.03 13:42:01.
