data_PCOD9433992
_publ_section_title
;
Structure prediction by ZEFSAII (Michael W. Deem and Ramdas Pophale) SiO2 
 PCOD9433992
Probable space group: P B C M
;
_chemical_formula_sum "Si O2"
_cell_formula_units_Z 48
_cell_length_a 12.216081
_cell_length_b 5.194957
_cell_length_c 29.802216
_cell_angle_alpha 90.000000
_cell_angle_beta 90.000000
_cell_angle_gamma 90.000000
_cell_volume 1891.308694
_symmetry_space_group_name_H-M "P B C M"
_symmetry_group_IT_number 57
_symmetry_cell_setting 'orthorhombic'
loop_
_space_group_symop_operation_xyz
x,y,z
-x,-y,1/2+z
x,1/2-y,-z
-x,1/2+y,1/2-z
-x,-y,-z
x,y,1/2-z
-x,1/2+y,z
x,1/2-y,1/2+z
loop_
_atom_site_type_symbol
_atom_site_label
_atom_site_fract_x
_atom_site_fract_y
_atom_site_fract_z
Si Si1 0.426480 0.784296 0.051306
Si Si2 0.110416 0.427451 0.839997
Si Si3 0.431105 0.813291 0.652278
Si Si4 0.169255 0.265336 0.250000
Si Si5 0.315826 0.764582 0.250000
Si Si6 0.069581 0.828461 0.045856
Si Si7 0.861405 0.071492 0.130512
O O1 0.524262 0.572086 0.051634
O O2 0.375458 0.737376 0.102312
O O3 0.376574 0.750000 0.000000
O O4 0.095979 0.290153 0.792905
O O5 0.166280 0.703964 0.834908
O O6 0.992521 0.484694 0.862050
O O7 0.183434 0.214284 0.865897
O O8 0.530203 0.608337 0.651168
O O9 0.380603 0.770158 0.702441
O O10 0.224613 0.539857 0.250000
O O11 0.264143 0.050224 0.250000
O O12 0.143991 0.725305 0.084886
O O13 0.965694 0.626228 0.046819
O O14 0.124198 0.750000 0.000000
#
# Coordination Sequence:
#
# PCOD9433992 Si02
#       7
#     8   8   8   4   4   8   8
#     4   8  14  25  45  78 112 130 152 196 250 297
#     4  10  20  33  51  68  97 124 170 211 254 304
#     4  10  19  34  58  84 105 135 171 212 255 297
#     4  12  26  39  49  72  98 142 174 210 256 308
#     4  12  24  39  53  74 110 140 176 212 254 310
#     4  10  16  25  43  74 106 123 147 198 275 324
#     4  10  17  32  52  76  94 127 163 218 261 293
#
# _framework density 25.379252999999999
#
# number of rings (size 3 to 8) (size 9 to 14) (size 15 to 20)
#    0.000    2.000    3.333    2.500    0.000    2.667 
#    0.000    0.000    0.000    0.000    0.000    9.333 
#    0.000    0.000    0.000    0.000    0.000    0.000 
#
# Total GULP energy -267209.694420 kJ/mol
# GULP energy per Si atom -5566.868634 kJ/mol
# Density = 2.532149 g / cm^3
# Si number density = 25.379253 Si / 1000 Ang^3
#
#
#
# Elastic Constant Matrix: (Units=GPa)
#
#
# Indices 1 2 3 4 5 6 
#
# 1 53.1940 -2.3086 34.2160 0.0000 0.0000 0.0000
# 2 -2.3086 152.7197 -8.2960 0.0000 0.0000 0.0000
# 3 34.2160 -8.2960 196.4183 0.0000 0.0000 0.0000
# 4 0.0000 0.0000 0.0000 43.4692 0.0000 0.0000
# 5 0.0000 0.0000 0.0000 0.0000 -52.6000 0.0000
# 6 0.0000 0.0000 0.0000 0.0000 0.0000 100.1326
#
#
#
# Elastic Compliance Matrix: (Units=1/GPa)
#
#
# Indices 1 2 3 4 5 6 
#
# 1 0.021174 0.000120 -0.003683 0.000000 0.000000 0.000000
# 2 0.000120 0.006564 0.000256 0.000000 0.000000 0.000000
# 3 -0.003683 0.000256 0.005744 0.000000 0.000000 0.000000
# 4 0.000000 0.000000 0.000000 0.023005 0.000000 0.000000
# 5 0.000000 0.000000 0.000000 0.000000 -0.019011 0.000000
# 6 0.000000 0.000000 0.000000 0.000000 0.000000 0.009987
#
#
# Mechanical properties :
#
#
# Convention : Reuss Voigt Hill
#
# Bulk Modulus (GPa) = 37.22066 49.95054 43.58560
# Shear Modulus (GPa) = 79.32633 43.44840 61.38737
#
# Velocity S-wave (km/s) = 5.59681 4.14208 4.92347
# Velocity P-wave (km/s) = 7.51420 6.52688 7.03788
#
# Compressibility (1/GPa) = 0.02686680
#
# Stress axis : x y z
#
# Youngs Moduli (GPa) = 47.22864 152.35355 174.10556
#
# Poissons Ratio (x) = -0.01828 0.64129
# Poissons Ratio (y) = -0.00567 -0.04463
# Poissons Ratio (z) = 0.17396 -0.03905
#
# Static dielectric constant tensor:
#      x y z
#    x 2.038170 0.000000 0.000000 
#    y 0.000000 2.044180 0.000000 
#    z 0.000000 0.000000 2.256020 
# 
# From -- ./inp_files/28753.got.cif
#   From: 2010.05.17/outbox.cif.g08.bks.cpg/sg57_15_cif.got.tgz:28753.got - 2010.06.03 13:58:18.
