data_PCOD9433582
_publ_section_title
;
Structure prediction by ZEFSAII (Michael W. Deem and Ramdas Pophale) SiO2 
 PCOD9433582
Probable space group: P C C N
;
_chemical_formula_sum "Si O2"
_cell_formula_units_Z 48
_cell_length_a 9.439166
_cell_length_b 15.923621
_cell_length_c 13.926273
_cell_angle_alpha 90.000000
_cell_angle_beta 90.000000
_cell_angle_gamma 90.000000
_cell_volume 2093.198239
_symmetry_space_group_name_H-M "P C C N"
_symmetry_group_IT_number 56
_symmetry_cell_setting 'orthorhombic'
loop_
_space_group_symop_operation_xyz
x,y,z
1/2-x,1/2-y,z
1/2+x,-y,1/2-z
-x,1/2+y,1/2-z
-x,-y,-z
1/2+x,1/2+y,-z
1/2-x,y,1/2+z
x,1/2-y,1/2+z
loop_
_atom_site_type_symbol
_atom_site_label
_atom_site_fract_x
_atom_site_fract_y
_atom_site_fract_z
Si Si1 0.642678 0.180982 0.149236
Si Si2 0.649478 0.623265 0.055172
Si Si3 0.761774 0.148756 0.451525
Si Si4 0.838120 0.980533 0.866773
Si Si5 0.043204 0.299558 0.971726
Si Si6 0.443353 0.451743 0.749595
O O1 0.750000 0.250000 0.193101
O O2 0.518223 0.216608 0.079219
O O3 0.557155 0.118467 0.215938
O O4 0.739249 0.135690 0.067243
O O5 0.637392 0.571444 0.152114
O O6 0.615257 0.572640 0.958801
O O7 0.806995 0.656921 0.034726
O O8 0.556916 0.707043 0.070883
O O9 0.750000 0.250000 0.437286
O O10 0.927561 0.139331 0.424532
O O11 0.671398 0.077944 0.401367
O O12 0.679891 0.960493 0.829114
O O13 0.953323 0.972664 0.782105
#
# Coordination Sequence:
#
# PCOD9433582 Si02
#       6
#     8   8   8   8   8   8
#     4   9  21  43  74  99 136 182 248 293 355 441
#     4  11  24  45  67 102 149 186 238 305 372 427
#     4   9  20  42  74  95 132 191 236 289 370 429
#     4  12  27  45  71 101 153 187 247 307 368 432
#     4   9  20  43  73  96 135 193 232 292 371 427
#     4  12  28  42  69 113 137 198 247 299 366 443
#
# _framework density 22.931415999999999
#
# number of rings (size 3 to 8) (size 9 to 14) (size 15 to 20)
#    1.000    0.667    1.667    1.500    4.667    4.667 
#    6.000    0.000    0.000    0.000    0.000    0.000 
#    0.000    0.000    0.000    0.000    0.000    0.000 
#
# Total GULP energy -267419.114406 kJ/mol
# GULP energy per Si atom -5571.231550 kJ/mol
# Density = 2.287922 g / cm^3
# Si number density = 22.931416 Si / 1000 Ang^3
#
#
#
# Elastic Constant Matrix: (Units=GPa)
#
#
# Indices 1 2 3 4 5 6 
#
# 1 80.8162 27.0736 28.3289 0.0000 0.0000 0.0000
# 2 27.0736 36.0622 15.7939 0.0000 0.0000 0.0000
# 3 28.3289 15.7939 85.6517 0.0000 0.0000 0.0000
# 4 0.0000 0.0000 0.0000 17.8121 0.0000 0.0000
# 5 0.0000 0.0000 0.0000 0.0000 32.9761 0.0000
# 6 0.0000 0.0000 0.0000 0.0000 0.0000 35.0760
#
#
#
# Elastic Compliance Matrix: (Units=1/GPa)
#
#
# Indices 1 2 3 4 5 6 
#
# 1 0.017530 -0.011554 -0.003667 0.000000 0.000000 0.000000
# 2 -0.011554 0.037782 -0.003145 0.000000 0.000000 0.000000
# 3 -0.003667 -0.003145 0.013468 0.000000 0.000000 0.000000
# 4 0.000000 0.000000 0.000000 0.056142 0.000000 0.000000
# 5 0.000000 0.000000 0.000000 0.000000 0.030325 0.000000
# 6 0.000000 0.000000 0.000000 0.000000 0.000000 0.028510
#
#
# Mechanical properties :
#
#
# Convention : Reuss Voigt Hill
#
# Bulk Modulus (GPa) = 31.20531 38.32476 34.76504
# Shear Modulus (GPa) = 21.62888 25.92841 23.77865
#
# Velocity S-wave (km/s) = 3.07449 3.36623 3.22366
# Velocity P-wave (km/s) = 5.12259 5.64426 5.38974
#
# Compressibility (1/GPa) = 0.03204582
#
# Stress axis : x y z
#
# Youngs Moduli (GPa) = 57.04491 26.46774 74.24928
#
# Poissons Ratio (x) = 0.30582 0.27230
# Poissons Ratio (y) = 0.65912 0.23354
# Poissons Ratio (z) = 0.20920 0.08325
#
# Static dielectric constant tensor:
#      x y z
#    x 1.944210 0.000000 0.000000 
#    y 0.000000 1.862040 0.000000 
#    z 0.000000 0.000000 1.867150 
# 
# From -- ./inp_files/11735.got.cif
#   From: 2010.05.17/outbox.cif.g08.bks.cpg/sg56_6_cif.got.tgz:11735.got - 2010.06.03 13:42:01.
