data_PCOD9433046
_publ_section_title
;
Structure prediction by ZEFSAII (Michael W. Deem and Ramdas Pophale) SiO2 
 PCOD9433046
Probable space group: P C C N
;
_chemical_formula_sum "Si O2"
_cell_formula_units_Z 40
_cell_length_a 9.449935
_cell_length_b 12.217321
_cell_length_c 14.098297
_cell_angle_alpha 90.000000
_cell_angle_beta 90.000000
_cell_angle_gamma 90.000000
_cell_volume 1627.689123
_symmetry_space_group_name_H-M "P C C N"
_symmetry_group_IT_number 56
_symmetry_cell_setting 'orthorhombic'
loop_
_space_group_symop_operation_xyz
x,y,z
1/2-x,1/2-y,z
1/2+x,-y,1/2-z
-x,1/2+y,1/2-z
-x,-y,-z
1/2+x,1/2+y,-z
1/2-x,y,1/2+z
x,1/2-y,1/2+z
loop_
_atom_site_type_symbol
_atom_site_label
_atom_site_fract_x
_atom_site_fract_y
_atom_site_fract_z
Si Si1 0.840889 0.029040 0.023000
Si Si2 0.393862 0.587171 0.603039
Si Si3 0.790682 0.627035 0.167366
Si Si4 0.750000 0.250000 0.251033
Si Si5 0.941498 0.264041 0.077986
Si Si6 0.250000 0.250000 0.649871
O O1 0.854709 0.158175 0.043337
O O2 0.802842 0.962511 0.116440
O O3 0.722084 0.004153 0.942905
O O4 0.000000 0.000000 0.000000
O O5 0.549064 0.582944 0.651728
O O6 0.306034 0.656558 0.679436
O O7 0.432456 0.647599 0.504262
O O8 0.750000 0.750000 0.127127
O O9 0.751998 0.647514 0.276539
O O10 0.875444 0.290383 0.181271
O O11 0.106322 0.241865 0.092791
#
# Coordination Sequence:
#
# PCOD9433046 Si02
#       6
#     8   8   8   4   8   4
#     4  12  26  45  70 114 142 193 250 297 366 446
#     4  12  24  46  77 104 144 197 235 311 369 435
#     4  10  24  48  69 101 148 188 238 301 366 423
#     4  12  20  48  76 100 144 184 248 298 366 430
#     4  12  25  47  76 105 143 191 246 297 374 438
#     4  10  26  46  70 106 140 196 236 306 368 434
#
# _framework density 24.574718000000001
#
# number of rings (size 3 to 8) (size 9 to 14) (size 15 to 20)
#    0.600    0.000    6.000    1.800    7.000    0.000 
#    7.200    0.000    0.000    0.000    0.000    0.000 
#    0.000    0.000    0.000    0.000    0.000    0.000 
#
# Total GULP energy -223505.663711 kJ/mol
# GULP energy per Si atom -5587.641593 kJ/mol
# Density = 2.451878 g / cm^3
# Si number density = 24.574718 Si / 1000 Ang^3
#
#
#
# Elastic Constant Matrix: (Units=GPa)
#
#
# Indices 1 2 3 4 5 6 
#
# 1 150.5565 19.3943 17.0362 0.0000 0.0000 0.0000
# 2 19.3943 43.6372 8.4555 0.0000 0.0000 0.0000
# 3 17.0362 8.4555 105.0203 0.0000 0.0000 0.0000
# 4 0.0000 0.0000 0.0000 23.5422 0.0000 0.0000
# 5 0.0000 0.0000 0.0000 0.0000 52.7561 0.0000
# 6 0.0000 0.0000 0.0000 0.0000 0.0000 31.3229
#
#
#
# Elastic Compliance Matrix: (Units=1/GPa)
#
#
# Indices 1 2 3 4 5 6 
#
# 1 0.007131 -0.002992 -0.000916 0.000000 0.000000 0.000000
# 2 -0.002992 0.024535 -0.001490 0.000000 0.000000 0.000000
# 3 -0.000916 -0.001490 0.009791 0.000000 0.000000 0.000000
# 4 0.000000 0.000000 0.000000 0.042477 0.000000 0.000000
# 5 0.000000 0.000000 0.000000 0.000000 0.018955 0.000000
# 6 0.000000 0.000000 0.000000 0.000000 0.000000 0.031926
#
#
# Mechanical properties :
#
#
# Convention : Reuss Voigt Hill
#
# Bulk Modulus (GPa) = 32.61512 43.22068 37.91790
# Shear Modulus (GPa) = 32.08631 38.47944 35.28288
#
# Velocity S-wave (km/s) = 3.61732 3.96133 3.79323
# Velocity P-wave (km/s) = 5.54502 6.20874 5.88624
#
# Compressibility (1/GPa) = 0.03066063
#
# Stress axis : x y z
#
# Youngs Moduli (GPa) = 140.23143 40.75861 102.13969
#
# Poissons Ratio (x) = 0.12195 0.09355
# Poissons Ratio (y) = 0.41956 0.15219
# Poissons Ratio (z) = 0.12844 0.06073
#
# Static dielectric constant tensor:
#      x y z
#    x 1.972340 0.000000 0.000000 
#    y 0.000000 2.085270 0.000000 
#    z 0.000000 0.000000 1.898450 
# 
# From -- ./inp_files/10427.got.cif
#   From: 2010.05.17/outbox.cif.g08.bks.cpg/sg56_6_cif.got.tgz:10427.got - 2010.06.03 13:42:01.
