data_PCOD9433468
_publ_section_title
;
Structure prediction by ZEFSAII (Michael W. Deem and Ramdas Pophale) SiO2 
 PCOD9433468
Probable space group: P C C N
;
_chemical_formula_sum "Si O2"
_cell_formula_units_Z 24
_cell_length_a 4.634992
_cell_length_b 13.927276
_cell_length_c 13.760759
_cell_angle_alpha 90.000000
_cell_angle_beta 90.000000
_cell_angle_gamma 90.000000
_cell_volume 888.295700
_symmetry_space_group_name_H-M "P C C N"
_symmetry_group_IT_number 56
_symmetry_cell_setting 'orthorhombic'
loop_
_space_group_symop_operation_xyz
x,y,z
1/2-x,1/2-y,z
1/2+x,-y,1/2-z
-x,1/2+y,1/2-z
-x,-y,-z
1/2+x,1/2+y,-z
1/2-x,y,1/2+z
x,1/2-y,1/2+z
loop_
_atom_site_type_symbol
_atom_site_label
_atom_site_fract_x
_atom_site_fract_y
_atom_site_fract_z
Si Si1 0.773231 0.589359 0.494428
Si Si2 0.762423 0.142536 0.132353
Si Si3 0.002512 0.821457 0.684693
O O1 0.490083 0.409333 0.583802
O O2 0.360534 0.379676 0.404389
O O3 0.000000 0.500000 0.500000
O O4 0.998342 0.662846 0.449342
O O5 0.750000 0.250000 0.173654
O O6 0.890787 0.101598 0.233294
O O7 0.250000 0.750000 0.643557
O O8 0.750000 0.750000 0.721424
#
# Coordination Sequence:
#
# PCOD9433468 Si02
#       3
#     8   8   8
#     4  12  25  44  72 110 151 192 238 307 384 447
#     4  11  23  44  72 104 143 193 252 307 361 438
#     4  11  23  42  73 108 143 195 258 310 363 439
#
# _framework density 27.01803
#
# number of rings (size 3 to 8) (size 9 to 14) (size 15 to 20)
#    0.000    0.667    0.000   11.000    0.000    0.000 
#    0.000   13.333    0.000    4.000    0.000    0.000 
#    0.000    0.000    0.000    0.000    0.000    0.000 
#
# Total GULP energy -133814.428392 kJ/mol
# GULP energy per Si atom -5575.601183 kJ/mol
# Density = 2.695654 g / cm^3
# Si number density = 27.018030 Si / 1000 Ang^3
#
#
#
# Elastic Constant Matrix: (Units=GPa)
#
#
# Indices 1 2 3 4 5 6 
#
# 1 236.8093 47.3073 103.1340 0.0000 0.0000 0.0000
# 2 47.3073 50.1450 32.9447 0.0000 0.0000 0.0000
# 3 103.1340 32.9447 222.7931 0.0000 0.0000 0.0000
# 4 0.0000 0.0000 0.0000 -16.5166 0.0000 0.0000
# 5 0.0000 0.0000 0.0000 0.0000 66.4626 0.0000
# 6 0.0000 0.0000 0.0000 0.0000 0.0000 53.2412
#
#
#
# Elastic Compliance Matrix: (Units=1/GPa)
#
#
# Indices 1 2 3 4 5 6 
#
# 1 0.006011 -0.004256 -0.002153 0.000000 0.000000 0.000000
# 2 -0.004256 0.025102 -0.001742 0.000000 0.000000 0.000000
# 3 -0.002153 -0.001742 0.005743 0.000000 0.000000 0.000000
# 4 0.000000 0.000000 0.000000 -0.060545 0.000000 0.000000
# 5 0.000000 0.000000 0.000000 0.000000 0.015046 0.000000
# 6 0.000000 0.000000 0.000000 0.000000 0.000000 0.018782
#
#
# Mechanical properties :
#
#
# Convention : Reuss Voigt Hill
#
# Bulk Modulus (GPa) = 48.65349 97.39102 73.02225
# Shear Modulus (GPa) = 150.18965 42.39486 96.29226
#
# Velocity S-wave (km/s) = 7.46387 3.96552 5.97640
# Velocity P-wave (km/s) = 9.60864 7.55593 8.64344
#
# Compressibility (1/GPa) = 0.02055351
#
# Stress axis : x y z
#
# Youngs Moduli (GPa) = 166.36880 39.83811 174.13376
#
# Poissons Ratio (x) = 0.16955 0.37493
# Poissons Ratio (y) = 0.70807 0.30328
# Poissons Ratio (z) = 0.35821 0.06938
#
# Static dielectric constant tensor:
#      x y z
#    x 2.380850 0.000000 0.000000 
#    y 0.000000 2.653100 0.000000 
#    z 0.000000 0.000000 2.706630 
# 
# From -- ./inp_files/13577.got.cif
#   From: 2010.05.17/outbox.cif.g08.bks.cpg/sg56_7_cif.got.tgz:13577.got - 2010.06.03 13:42:01.
