data_PCOD9433777
_publ_section_title
;
Structure prediction by ZEFSAII (Michael W. Deem and Ramdas Pophale) SiO2 
 PCOD9433777
Probable space group: P C C N
;
_chemical_formula_sum "Si O2"
_cell_formula_units_Z 48
_cell_length_a 13.774732
_cell_length_b 19.256087
_cell_length_c 8.827132
_cell_angle_alpha 90.000000
_cell_angle_beta 90.000000
_cell_angle_gamma 90.000000
_cell_volume 2341.374146
_symmetry_space_group_name_H-M "P C C N"
_symmetry_group_IT_number 56
_symmetry_cell_setting 'orthorhombic'
loop_
_space_group_symop_operation_xyz
x,y,z
1/2-x,1/2-y,z
1/2+x,-y,1/2-z
-x,1/2+y,1/2-z
-x,-y,-z
1/2+x,1/2+y,-z
1/2-x,y,1/2+z
x,1/2-y,1/2+z
loop_
_atom_site_type_symbol
_atom_site_label
_atom_site_fract_x
_atom_site_fract_y
_atom_site_fract_z
Si Si1 0.463476 0.424386 0.044077
Si Si2 0.094676 0.815819 0.134526
Si Si3 0.055118 0.668746 0.981870
Si Si4 0.565947 0.943593 0.097273
Si Si5 0.723635 0.409024 0.348591
Si Si6 0.710685 0.989245 0.576810
O O1 0.457574 0.428765 0.225895
O O2 0.500000 0.500000 0.000000
O O3 0.534677 0.366016 0.978102
O O4 0.361166 0.424927 0.951022
O O5 0.081720 0.739370 0.067588
O O6 0.054763 0.819439 0.303932
O O7 0.205160 0.842920 0.161047
O O8 0.137648 0.614770 0.040810
O O9 0.955350 0.630643 0.021793
O O10 0.677938 0.965933 0.093084
O O11 0.500000 0.000000 0.000000
O O12 0.790775 0.467465 0.422499
O O13 0.686359 0.451188 0.201953
#
# Coordination Sequence:
#
# PCOD9433777 Si02
#       6
#     8   8   8   8   8   8
#     4  12  24  41  68  97 135 173 225 277 332 399
#     4  12  27  44  65  98 135 184 221 279 341 406
#     4  12  27  43  66  95 139 179 226 275 343 405
#     4  12  24  42  67  98 133 176 224 278 329 400
#     4  12  23  41  68 100 136 169 218 279 337 403
#     4  12  24  41  69 104 131 170 224 278 338 392
#
# _framework density 20.500781
#
# number of rings (size 3 to 8) (size 9 to 14) (size 15 to 20)
#    0.000    0.000    6.667    3.500    4.667    1.333 
#    0.000    0.833    0.000    4.000    0.000    0.000 
#    0.000    0.000    0.000    0.000    0.000    0.000 
#
# Total GULP energy -267718.045481 kJ/mol
# GULP energy per Si atom -5577.459281 kJ/mol
# Density = 2.045412 g / cm^3
# Si number density = 20.500781 Si / 1000 Ang^3
#
#
#
# Elastic Constant Matrix: (Units=GPa)
#
#
# Indices 1 2 3 4 5 6 
#
# 1 97.0121 29.8849 27.0151 0.0000 0.0000 0.0000
# 2 29.8849 88.6584 27.3114 0.0000 0.0000 0.0000
# 3 27.0151 27.3114 141.8587 0.0000 0.0000 0.0000
# 4 0.0000 0.0000 0.0000 33.3875 0.0000 0.0000
# 5 0.0000 0.0000 0.0000 0.0000 27.5274 0.0000
# 6 0.0000 0.0000 0.0000 0.0000 0.0000 21.7932
#
#
#
# Elastic Compliance Matrix: (Units=1/GPa)
#
#
# Indices 1 2 3 4 5 6 
#
# 1 0.011826 -0.003500 -0.001578 0.000000 0.000000 0.000000
# 2 -0.003500 0.013026 -0.001841 0.000000 0.000000 0.000000
# 3 -0.001578 -0.001841 0.007704 0.000000 0.000000 0.000000
# 4 0.000000 0.000000 0.000000 0.029951 0.000000 0.000000
# 5 0.000000 0.000000 0.000000 0.000000 0.036327 0.000000
# 6 0.000000 0.000000 0.000000 0.000000 0.000000 0.045886
#
#
# Mechanical properties :
#
#
# Convention : Reuss Voigt Hill
#
# Bulk Modulus (GPa) = 53.42703 55.10576 54.26640
# Shear Modulus (GPa) = 30.33997 32.76280 31.55139
#
# Velocity S-wave (km/s) = 3.85118 4.00199 3.92731
# Velocity P-wave (km/s) = 6.77443 6.94930 6.86242
#
# Compressibility (1/GPa) = 0.01871712
#
# Stress axis : x y z
#
# Youngs Moduli (GPa) = 84.56179 76.76802 129.79732
#
# Poissons Ratio (x) = 0.26869 0.20485
# Poissons Ratio (y) = 0.29597 0.23900
# Poissons Ratio (z) = 0.13346 0.14136
#
# Static dielectric constant tensor:
#      x y z
#    x 1.925440 0.000000 0.000000 
#    y 0.000000 1.755490 0.000000 
#    z 0.000000 0.000000 1.824070 
# 
# From -- ./inp_files/3392.got.cif
#   From: 2010.05.17/outbox.cif.g08.bks.cpg/sg56_2_cif.got.tgz:3392.got - 2010.06.03 13:42:01.
