data_PCOD9433016
_publ_section_title
;
Structure prediction by ZEFSAII (Michael W. Deem and Ramdas Pophale) SiO2 
 PCOD9433016
Probable space group: P C C N
;
_chemical_formula_sum "Si O2"
_cell_formula_units_Z 32
_cell_length_a 15.876217
_cell_length_b 7.579840
_cell_length_c 9.577726
_cell_angle_alpha 90.000000
_cell_angle_beta 90.000000
_cell_angle_gamma 90.000000
_cell_volume 1152.575738
_symmetry_space_group_name_H-M "P C C N"
_symmetry_group_IT_number 56
_symmetry_cell_setting 'orthorhombic'
loop_
_space_group_symop_operation_xyz
x,y,z
1/2-x,1/2-y,z
1/2+x,-y,1/2-z
-x,1/2+y,1/2-z
-x,-y,-z
1/2+x,1/2+y,-z
1/2-x,y,1/2+z
x,1/2-y,1/2+z
loop_
_atom_site_type_symbol
_atom_site_label
_atom_site_fract_x
_atom_site_fract_y
_atom_site_fract_z
Si Si1 0.715525 0.459540 0.016044
Si Si2 0.375741 0.188974 0.902130
Si Si3 0.632660 0.273433 0.755832
Si Si4 0.457260 0.089338 0.162286
O O1 0.664448 0.638505 0.027630
O O2 0.806319 0.534304 0.071518
O O3 0.805849 0.379125 0.362631
O O4 0.674482 0.317175 0.120214
O O5 0.403832 0.267535 0.753734
O O6 0.453423 0.149950 0.003045
O O7 0.552458 0.397459 0.719337
O O8 0.590911 0.095826 0.820996
#
# Coordination Sequence:
#
# PCOD9433016 Si02
#       4
#     8   8   8   8
#     4  10  24  46  73 107 147 191 246 306 369 438
#     4  10  24  47  73 103 146 197 245 302 370 438
#     4  11  24  45  74 110 148 192 246 304 368 441
#     4  11  24  45  74 107 147 193 245 305 369 438
#
# _framework density 27.763901000000001
#
# number of rings (size 3 to 8) (size 9 to 14) (size 15 to 20)
#    0.000    1.500    0.000    3.000    0.000   19.000 
#    0.000   10.000    0.000    3.000    0.000    0.000 
#    0.000    0.000    0.000    0.000    0.000    0.000 
#
# Total GULP energy -179138.915662 kJ/mol
# GULP energy per Si atom -5598.091114 kJ/mol
# Density = 2.770071 g / cm^3
# Si number density = 27.763901 Si / 1000 Ang^3
#
#
#
# Elastic Constant Matrix: (Units=GPa)
#
#
# Indices 1 2 3 4 5 6 
#
# 1 129.3977 42.4350 26.9223 0.0000 0.0000 0.0000
# 2 42.4350 210.5869 35.6427 0.0000 0.0000 0.0000
# 3 26.9223 35.6427 169.2384 0.0000 0.0000 0.0000
# 4 0.0000 0.0000 0.0000 46.3262 0.0000 0.0000
# 5 0.0000 0.0000 0.0000 0.0000 45.4747 0.0000
# 6 0.0000 0.0000 0.0000 0.0000 0.0000 62.9849
#
#
#
# Elastic Compliance Matrix: (Units=1/GPa)
#
#
# Indices 1 2 3 4 5 6 
#
# 1 0.008442 -0.001528 -0.001021 0.000000 0.000000 0.000000
# 2 -0.001528 0.005201 -0.000852 0.000000 0.000000 0.000000
# 3 -0.001021 -0.000852 0.006251 0.000000 0.000000 0.000000
# 4 0.000000 0.000000 0.000000 0.021586 0.000000 0.000000
# 5 0.000000 0.000000 0.000000 0.000000 0.021990 0.000000
# 6 0.000000 0.000000 0.000000 0.000000 0.000000 0.015877
#
#
# Mechanical properties :
#
#
# Convention : Reuss Voigt Hill
#
# Bulk Modulus (GPa) = 76.39270 79.91368 78.15319
# Shear Modulus (GPa) = 55.24074 57.90534 56.57304
#
# Velocity S-wave (km/s) = 4.46540 4.57183 4.51893
# Velocity P-wave (km/s) = 7.35943 7.53091 7.44567
#
# Compressibility (1/GPa) = 0.01309026
#
# Stress axis : x y z
#
# Youngs Moduli (GPa) = 118.45909 192.27687 159.98123
#
# Poissons Ratio (x) = 0.29385 0.16335
# Poissons Ratio (y) = 0.18104 0.13634
# Poissons Ratio (z) = 0.12095 0.16386
#
# Static dielectric constant tensor:
#      x y z
#    x 2.205800 0.000000 0.000000 
#    y 0.000000 2.314840 0.000000 
#    z 0.000000 0.000000 2.124190 
# 
# From -- ./inp_files/8156.got.cif
#   From: 2010.05.17/outbox.cif.g08.bks.cpg/sg56_5_cif.got.tgz:8156.got - 2010.06.03 13:42:01.
