data_PCOD9433381
_publ_section_title
;
Structure prediction by ZEFSAII (Michael W. Deem and Ramdas Pophale) SiO2 
 PCOD9433381
Probable space group: P C C N
;
_chemical_formula_sum "Si O2"
_cell_formula_units_Z 32
_cell_length_a 9.585727
_cell_length_b 4.943361
_cell_length_c 32.467727
_cell_angle_alpha 90.000000
_cell_angle_beta 90.000000
_cell_angle_gamma 90.000000
_cell_volume 1538.506264
_symmetry_space_group_name_H-M "P C C N"
_symmetry_group_IT_number 56
_symmetry_cell_setting 'orthorhombic'
loop_
_space_group_symop_operation_xyz
x,y,z
1/2-x,1/2-y,z
1/2+x,-y,1/2-z
-x,1/2+y,1/2-z
-x,-y,-z
1/2+x,1/2+y,-z
1/2-x,y,1/2+z
x,1/2-y,1/2+z
loop_
_atom_site_type_symbol
_atom_site_label
_atom_site_fract_x
_atom_site_fract_y
_atom_site_fract_z
Si Si1 0.250000 0.750000 0.536471
Si Si2 0.479351 0.396017 0.913036
Si Si3 0.582590 0.235240 0.233226
Si Si4 0.596498 0.378548 0.637284
Si Si5 0.250000 0.250000 0.479214
O O1 0.377295 0.824278 0.565550
O O2 0.295696 0.497589 0.508028
O O3 0.495208 0.683337 0.891083
O O4 0.366605 0.377199 0.949542
O O5 0.426426 0.179709 0.879109
O O6 0.750000 0.250000 0.242631
O O7 0.503859 0.518802 0.239975
O O8 0.569283 0.145911 0.185651
O O9 0.750000 0.250000 0.630477
#
# Coordination Sequence:
#
# PCOD9433381 Si02
#       5
#     4   8   8   8   4
#     4  12  26  40  58 100 126 160 204 282 322 366
#     4  12  23  42  65  92 126 166 217 259 320 377
#     4  11  24  45  70 103 136 175 225 272 331 399
#     4  11  22  43  68  91 125 174 216 253 307 396
#     4  12  22  42  66  86 126 168 218 252 324 388
#
# _framework density 20.799395000000001
#
# number of rings (size 3 to 8) (size 9 to 14) (size 15 to 20)
#    0.000    0.500    2.500    6.750    0.000    4.000 
#   13.500    0.000    0.000    0.000    0.000    0.000 
#    0.000    0.000    0.000    0.000    0.000    0.000 
#
# Total GULP energy -179001.572408 kJ/mol
# GULP energy per Si atom -5593.799138 kJ/mol
# Density = 2.075205 g / cm^3
# Si number density = 20.799395 Si / 1000 Ang^3
#
#
#
# Elastic Constant Matrix: (Units=GPa)
#
#
# Indices 1 2 3 4 5 6 
#
# 1 93.3161 -17.6740 25.2516 0.0000 0.0000 0.0000
# 2 -17.6740 70.3506 -6.2549 0.0000 0.0000 0.0000
# 3 25.2516 -6.2549 76.0359 0.0000 0.0000 0.0000
# 4 0.0000 0.0000 0.0000 -60.1727 0.0000 0.0000
# 5 0.0000 0.0000 0.0000 0.0000 20.2132 0.0000
# 6 0.0000 0.0000 0.0000 0.0000 0.0000 24.9357
#
#
#
# Elastic Compliance Matrix: (Units=1/GPa)
#
#
# Indices 1 2 3 4 5 6 
#
# 1 0.012278 0.002742 -0.003852 0.000000 0.000000 0.000000
# 2 0.002742 0.014932 0.000318 0.000000 0.000000 0.000000
# 3 -0.003852 0.000318 0.014457 0.000000 0.000000 0.000000
# 4 0.000000 0.000000 0.000000 -0.016619 0.000000 0.000000
# 5 0.000000 0.000000 0.000000 0.000000 0.049473 0.000000
# 6 0.000000 0.000000 0.000000 0.000000 0.000000 0.040103
#
#
# Mechanical properties :
#
#
# Convention : Reuss Voigt Hill
#
# Bulk Modulus (GPa) = 24.94870 26.92756 25.93813
# Shear Modulus (GPa) = 38.58956 12.88723 25.73839
#
# Velocity S-wave (km/s) = 4.31202 2.49187 3.52157
# Velocity P-wave (km/s) = 6.06731 4.61017 5.38822
#
# Compressibility (1/GPa) = 0.04008225
#
# Stress axis : x y z
#
# Youngs Moduli (GPa) = 81.44671 66.97184 69.17036
#
# Poissons Ratio (x) = -0.18364 0.26644
# Poissons Ratio (y) = -0.22333 -0.02197
# Poissons Ratio (z) = 0.31373 -0.02127
#
# Static dielectric constant tensor:
#      x y z
#    x 1.701170 0.000000 0.000000 
#    y 0.000000 1.741300 0.000000 
#    z 0.000000 0.000000 1.707330 
# 
# From -- ./inp_files/22668.got.cif
#   From: 2010.05.17/outbox.cif.g08.bks.cpg/sg56_12_cif.got.tgz:22668.got - 2010.06.03 13:42:01.
