data_PCOD9433019
_publ_section_title
;
Structure prediction by ZEFSAII (Michael W. Deem and Ramdas Pophale) SiO2 
 PCOD9433019
Probable space group: P C C N
;
_chemical_formula_sum "Si O2"
_cell_formula_units_Z 60
_cell_length_a 29.710129
_cell_length_b 10.965108
_cell_length_c 7.763437
_cell_angle_alpha 90.000000
_cell_angle_beta 90.000000
_cell_angle_gamma 90.000000
_cell_volume 2529.131928
_symmetry_space_group_name_H-M "P C C N"
_symmetry_group_IT_number 56
_symmetry_cell_setting 'orthorhombic'
loop_
_space_group_symop_operation_xyz
x,y,z
1/2-x,1/2-y,z
1/2+x,-y,1/2-z
-x,1/2+y,1/2-z
-x,-y,-z
1/2+x,1/2+y,-z
1/2-x,y,1/2+z
x,1/2-y,1/2+z
loop_
_atom_site_type_symbol
_atom_site_label
_atom_site_fract_x
_atom_site_fract_y
_atom_site_fract_z
Si Si1 0.644305 0.120444 0.204862
Si Si2 0.400967 0.390141 0.447032
Si Si3 0.449548 0.711914 0.263521
Si Si4 0.000000 0.000000 0.500000
Si Si5 0.457021 0.934514 0.426597
Si Si6 0.718893 0.370772 0.409502
Si Si7 0.305616 0.539806 0.964436
Si Si8 0.378934 0.378803 0.831759
O O1 0.603284 0.214336 0.185549
O O2 0.666944 0.115720 0.391807
O O3 0.681528 0.133592 0.057175
O O4 0.620416 0.989483 0.179033
O O5 0.451899 0.428183 0.485998
O O6 0.374486 0.394797 0.627518
O O7 0.396187 0.255836 0.371272
O O8 0.478782 0.613589 0.368933
O O9 0.468214 0.851617 0.260643
O O10 0.446983 0.665694 0.069059
O O11 0.500000 0.000000 0.500000
O O12 0.417128 0.025997 0.391772
O O13 0.750000 0.250000 0.409784
O O14 0.755461 0.474230 0.460328
O O15 0.698927 0.393530 0.220534
O O16 0.333346 0.417232 0.927072
#
# Coordination Sequence:
#
# PCOD9433019 Si02
#       8
#     8   8   8   4   8   8   8   8
#     4  11  25  49  76 111 154 206 258 322 402 465
#     4  11  25  49  81 109 160 207 265 329 386 473
#     4  11  27  46  73 106 155 196 259 322 385 469
#     4  10  24  46  74 106 148 208 252 312 394 454
#     4  12  28  45  72 110 150 203 261 320 391 469
#     4  12  27  45  77 113 159 204 256 326 394 476
#     4  12  25  47  74 114 152 201 262 312 398 474
#     4  12  26  47  79 110 153 209 263 321 398 473
#
# _framework density 23.723557
#
# number of rings (size 3 to 8) (size 9 to 14) (size 15 to 20)
#    0.000    0.533    4.000    2.800    9.333    0.533 
#    0.000    0.667    0.000    0.000    0.000    0.000 
#    0.000    0.000    0.000    0.000    0.000    0.000 
#
# Total GULP energy -335396.081219 kJ/mol
# GULP energy per Si atom -5589.934687 kJ/mol
# Density = 2.366956 g / cm^3
# Si number density = 23.723557 Si / 1000 Ang^3
#
#
#
# Elastic Constant Matrix: (Units=GPa)
#
#
# Indices 1 2 3 4 5 6 
#
# 1 113.0454 15.1602 34.8526 0.0000 0.0000 0.0000
# 2 15.1602 81.2085 0.8534 0.0000 0.0000 0.0000
# 3 34.8526 0.8534 119.0941 0.0000 0.0000 0.0000
# 4 0.0000 0.0000 0.0000 29.6403 0.0000 0.0000
# 5 0.0000 0.0000 0.0000 0.0000 46.1865 0.0000
# 6 0.0000 0.0000 0.0000 0.0000 0.0000 36.9847
#
#
#
# Elastic Compliance Matrix: (Units=1/GPa)
#
#
# Indices 1 2 3 4 5 6 
#
# 1 0.009989 -0.001834 -0.002910 0.000000 0.000000 0.000000
# 2 -0.001834 0.012652 0.000446 0.000000 0.000000 0.000000
# 3 -0.002910 0.000446 0.009245 0.000000 0.000000 0.000000
# 4 0.000000 0.000000 0.000000 0.033738 0.000000 0.000000
# 5 0.000000 0.000000 0.000000 0.000000 0.021651 0.000000
# 6 0.000000 0.000000 0.000000 0.000000 0.000000 0.027038
#
#
# Mechanical properties :
#
#
# Convention : Reuss Voigt Hill
#
# Bulk Modulus (GPa) = 42.93771 46.12004 44.52887
# Shear Modulus (GPa) = 38.26339 40.06110 39.16225
#
# Velocity S-wave (km/s) = 4.02043 4.11379 4.06738
# Velocity P-wave (km/s) = 6.30002 6.48438 6.39287
#
# Compressibility (1/GPa) = 0.02328955
#
# Stress axis : x y z
#
# Youngs Moduli (GPa) = 100.10804 79.04063 108.16449
#
# Poissons Ratio (x) = 0.14498 0.31478
# Poissons Ratio (y) = 0.18362 -0.04826
# Poissons Ratio (z) = 0.29133 -0.03526
#
# Static dielectric constant tensor:
#      x y z
#    x 1.775020 0.000000 0.000000 
#    y 0.000000 1.989400 0.000000 
#    z 0.000000 0.000000 1.674880 
# 
# From -- ./inp_files/4981.got.cif
#   From: 2010.05.17/outbox.cif.g08.bks.cpg/sg56_3_cif.got.tgz:4981.got - 2010.06.03 13:42:01.
