data_PCOD9433038
_publ_section_title
;
Structure prediction by ZEFSAII (Michael W. Deem and Ramdas Pophale) SiO2 
 PCOD9433038
Probable space group: P C C N
;
_chemical_formula_sum "Si O2"
_cell_formula_units_Z 40
_cell_length_a 19.929324
_cell_length_b 8.997803
_cell_length_c 9.331054
_cell_angle_alpha 90.000000
_cell_angle_beta 90.000000
_cell_angle_gamma 90.000000
_cell_volume 1673.245828
_symmetry_space_group_name_H-M "P C C N"
_symmetry_group_IT_number 56
_symmetry_cell_setting 'orthorhombic'
loop_
_space_group_symop_operation_xyz
x,y,z
1/2-x,1/2-y,z
1/2+x,-y,1/2-z
-x,1/2+y,1/2-z
-x,-y,-z
1/2+x,1/2+y,-z
1/2-x,y,1/2+z
x,1/2-y,1/2+z
loop_
_atom_site_type_symbol
_atom_site_label
_atom_site_fract_x
_atom_site_fract_y
_atom_site_fract_z
Si Si1 0.868486 0.754374 0.890306
Si Si2 0.583103 0.318676 0.977391
Si Si3 0.052615 0.091586 0.863129
Si Si4 0.665347 0.448961 0.505623
Si Si5 0.790870 0.456447 0.320488
O O1 0.905194 0.669087 0.760923
O O2 0.920732 0.847830 0.984137
O O3 0.844968 0.624940 0.996149
O O4 0.811382 0.869353 0.840009
O O5 0.565566 0.415083 0.119674
O O6 0.596544 0.144255 0.998216
O O7 0.654455 0.374228 0.918275
O O8 0.524866 0.360744 0.864793
O O9 0.717146 0.421997 0.376731
O O10 0.699619 0.413059 0.656391
#
# Coordination Sequence:
#
# PCOD9433038 Si02
#       5
#     8   8   8   8   8
#     4  11  24  46  73 103 138 188 235 292 356 426
#     4  10  26  45  72 104 147 179 234 298 358 425
#     4  10  24  47  73 104 143 182 234 294 361 429
#     4  12  27  44  74 100 141 190 240 290 357 420
#     4  11  27  46  67 103 142 185 241 288 353 422
#
# _framework density 23.905629999999999
#
# number of rings (size 3 to 8) (size 9 to 14) (size 15 to 20)
#    0.000    1.200    2.000    1.200   11.200    7.200 
#    0.000    0.000    0.000    0.000    0.000    0.000 
#    0.000    0.000    0.000    0.000    0.000    0.000 
#
# Total GULP energy -223745.503424 kJ/mol
# GULP energy per Si atom -5593.637586 kJ/mol
# Density = 2.385122 g / cm^3
# Si number density = 23.905630 Si / 1000 Ang^3
#
#
#
# Elastic Constant Matrix: (Units=GPa)
#
#
# Indices 1 2 3 4 5 6 
#
# 1 76.9730 23.0249 -9.0583 0.0000 0.0000 0.0000
# 2 23.0249 91.5940 4.9224 0.0000 0.0000 0.0000
# 3 -9.0583 4.9224 57.8829 0.0000 0.0000 0.0000
# 4 0.0000 0.0000 0.0000 26.5155 0.0000 0.0000
# 5 0.0000 0.0000 0.0000 0.0000 20.0008 0.0000
# 6 0.0000 0.0000 0.0000 0.0000 0.0000 40.6359
#
#
#
# Elastic Compliance Matrix: (Units=1/GPa)
#
#
# Indices 1 2 3 4 5 6 
#
# 1 0.014421 -0.003764 0.002577 0.000000 0.000000 0.000000
# 2 -0.003764 0.011950 -0.001605 0.000000 0.000000 0.000000
# 3 0.002577 -0.001605 0.017816 0.000000 0.000000 0.000000
# 4 0.000000 0.000000 0.000000 0.037714 0.000000 0.000000
# 5 0.000000 0.000000 0.000000 0.000000 0.049998 0.000000
# 6 0.000000 0.000000 0.000000 0.000000 0.000000 0.024609
#
#
# Mechanical properties :
#
#
# Convention : Reuss Voigt Hill
#
# Bulk Modulus (GPa) = 25.90486 29.35866 27.63176
# Shear Modulus (GPa) = 28.57818 31.26784 29.92301
#
# Velocity S-wave (km/s) = 3.46129 3.62051 3.54180
# Velocity P-wave (km/s) = 5.18014 5.45758 5.32067
#
# Compressibility (1/GPa) = 0.03860279
#
# Stress axis : x y z
#
# Youngs Moduli (GPa) = 69.34527 83.68140 56.12928
#
# Poissons Ratio (x) = 0.31494 -0.14463
# Poissons Ratio (y) = 0.26098 0.09010
# Poissons Ratio (z) = -0.17869 0.13433
#
# Static dielectric constant tensor:
#      x y z
#    x 1.870120 0.000000 0.000000 
#    y 0.000000 2.034080 0.000000 
#    z 0.000000 0.000000 1.864810 
# 
# From -- ./inp_files/4384.got.cif
#   From: 2010.05.17/outbox.cif.g08.bks.cpg/sg56_3_cif.got.tgz:4384.got - 2010.06.03 13:42:01.
