data_PCOD9433472
_publ_section_title
;
Structure prediction by ZEFSAII (Michael W. Deem and Ramdas Pophale) SiO2 
 PCOD9433472
Probable space group: P C C N
;
_chemical_formula_sum "Si O2"
_cell_formula_units_Z 48
_cell_length_a 8.342788
_cell_length_b 28.414480
_cell_length_c 9.075511
_cell_angle_alpha 90.000000
_cell_angle_beta 90.000000
_cell_angle_gamma 90.000000
_cell_volume 2151.404179
_symmetry_space_group_name_H-M "P C C N"
_symmetry_group_IT_number 56
_symmetry_cell_setting 'orthorhombic'
loop_
_space_group_symop_operation_xyz
x,y,z
1/2-x,1/2-y,z
1/2+x,-y,1/2-z
-x,1/2+y,1/2-z
-x,-y,-z
1/2+x,1/2+y,-z
1/2-x,y,1/2+z
x,1/2-y,1/2+z
loop_
_atom_site_type_symbol
_atom_site_label
_atom_site_fract_x
_atom_site_fract_y
_atom_site_fract_z
Si Si1 0.873946 0.638454 0.329013
Si Si2 0.067272 0.262588 0.568824
Si Si3 0.110968 0.787956 0.210350
Si Si4 0.549890 0.442187 0.341246
Si Si5 0.875647 0.040140 0.673473
Si Si6 0.453422 0.379144 0.833324
O O1 0.955290 0.689798 0.336831
O O2 0.891102 0.620787 0.498300
O O3 0.690980 0.639407 0.271315
O O4 0.966321 0.604255 0.219311
O O5 0.250000 0.250000 0.586182
O O6 0.031161 0.273568 0.400579
O O7 0.947629 0.223024 0.625747
O O8 0.250000 0.750000 0.179889
O O9 0.108432 0.844072 0.183888
O O10 0.608085 0.438884 0.509490
O O11 0.427003 0.485844 0.333388
O O12 0.699512 0.454275 0.237896
O O13 0.994161 0.069829 0.778076
#
# Coordination Sequence:
#
# PCOD9433472 Si02
#       6
#     8   8   8   8   8   8
#     4  11  24  41  67 100 132 181 227 286 338 412
#     4  11  23  43  67  95 133 183 231 280 344 412
#     4  11  25  42  65  97 136 180 228 290 343 410
#     4  11  25  45  71 101 140 178 227 279 346 409
#     4  11  25  45  70 102 137 182 221 283 342 414
#     4  11  24  43  66 101 136 179 234 281 351 407
#
# _framework density 22.31101
#
# number of rings (size 3 to 8) (size 9 to 14) (size 15 to 20)
#    0.000    1.000    1.667    4.000    4.667    6.667 
#    0.000    0.000    0.000    0.000    0.000    0.000 
#    0.000    0.000    0.000    0.000    0.000    0.000 
#
# Total GULP energy -268338.220415 kJ/mol
# GULP energy per Si atom -5590.379592 kJ/mol
# Density = 2.226023 g / cm^3
# Si number density = 22.311010 Si / 1000 Ang^3
#
#
#
# Elastic Constant Matrix: (Units=GPa)
#
#
# Indices 1 2 3 4 5 6 
#
# 1 74.0003 9.9392 13.4219 0.0000 0.0000 0.0000
# 2 9.9392 42.5518 33.8575 0.0000 0.0000 0.0000
# 3 13.4219 33.8575 81.7675 0.0000 0.0000 0.0000
# 4 0.0000 0.0000 0.0000 21.4423 0.0000 0.0000
# 5 0.0000 0.0000 0.0000 0.0000 26.2655 0.0000
# 6 0.0000 0.0000 0.0000 0.0000 0.0000 32.3793
#
#
#
# Elastic Compliance Matrix: (Units=1/GPa)
#
#
# Indices 1 2 3 4 5 6 
#
# 1 0.014060 -0.002159 -0.001414 0.000000 0.000000 0.000000
# 2 -0.002159 0.035379 -0.014295 0.000000 0.000000 0.000000
# 3 -0.001414 -0.014295 0.018381 0.000000 0.000000 0.000000
# 4 0.000000 0.000000 0.000000 0.046637 0.000000 0.000000
# 5 0.000000 0.000000 0.000000 0.000000 0.038073 0.000000
# 6 0.000000 0.000000 0.000000 0.000000 0.000000 0.030884
#
#
# Mechanical properties :
#
#
# Convention : Reuss Voigt Hill
#
# Bulk Modulus (GPa) = 31.16806 34.75076 32.95941
# Shear Modulus (GPa) = 21.75380 25.42415 23.58897
#
# Velocity S-wave (km/s) = 3.12593 3.37936 3.25511
# Velocity P-wave (km/s) = 5.19891 5.55303 5.37889
#
# Compressibility (1/GPa) = 0.03208413
#
# Stress axis : x y z
#
# Youngs Moduli (GPa) = 71.12426 28.26496 54.40369
#
# Poissons Ratio (x) = 0.06103 0.07692
# Poissons Ratio (y) = 0.15357 0.77771
# Poissons Ratio (z) = 0.10056 0.40405
#
# Static dielectric constant tensor:
#      x y z
#    x 1.810640 0.000000 0.000000 
#    y 0.000000 1.830810 0.000000 
#    z 0.000000 0.000000 1.772590 
# 
# From -- ./inp_files/2212.got.cif
#   From: 2010.05.17/outbox.cif.g08.bks.cpg/sg56_2_cif.got.tgz:2212.got - 2010.06.03 13:42:01.
