data_PCOD9433927
_publ_section_title
;
Structure prediction by ZEFSAII (Michael W. Deem and Ramdas Pophale) SiO2 
 PCOD9433927
Probable space group: P C C N
;
_chemical_formula_sum "Si O2"
_cell_formula_units_Z 60
_cell_length_a 18.000000
_cell_length_b 9.000000
_cell_length_c 18.000000
_cell_angle_alpha 90.000000
_cell_angle_beta 90.000000
_cell_angle_gamma 90.000000
_cell_volume 2916.000000
_symmetry_space_group_name_H-M "P C C N"
_symmetry_group_IT_number 56
_symmetry_cell_setting 'orthorhombic'
loop_
_space_group_symop_operation_xyz
x,y,z
1/2-x,1/2-y,z
1/2+x,-y,1/2-z
-x,1/2+y,1/2-z
-x,-y,-z
1/2+x,1/2+y,-z
1/2-x,y,1/2+z
x,1/2-y,1/2+z
loop_
_atom_site_type_symbol
_atom_site_label
_atom_site_fract_x
_atom_site_fract_y
_atom_site_fract_z
Si Si1 0.579794 0.209318 0.673961
Si Si2 0.337166 0.739478 0.974975
Si Si3 0.175355 0.081013 0.791752
Si Si4 0.181960 0.523351 0.604687
Si Si5 0.163298 0.057475 0.544866
Si Si6 0.250000 0.250000 0.424146
Si Si7 0.591379 0.750832 0.836334
Si Si8 0.196468 0.877292 0.253697
O O1 0.604763 0.213901 0.589210
O O2 0.492920 0.218708 0.684752
O O3 0.618587 0.356523 0.707539
O O4 0.619573 0.060599 0.705210
O O5 0.250000 0.750000 0.950587
O O6 0.339555 0.599256 0.028709
O O7 0.354731 0.893498 0.016112
O O8 0.197104 0.150461 0.871221
O O9 0.137663 0.192836 0.734434
O O10 0.256021 0.024420 0.763886
O O11 0.263889 0.457607 0.596345
O O12 0.127225 0.398172 0.631882
O O13 0.183538 0.648950 0.667243
O O14 0.194680 0.155005 0.476387
O O15 0.101000 0.131671 0.596060
O O16 0.250000 0.750000 0.284622
#
# Coordination Sequence:
#
# PCOD9433927 Si02
#       8
#     8   8   8   8   8   4   8   8
#     4  11  26  43  63 100 143 179 218 277 347 412
#     4  10  22  42  70  95 127 177 233 281 329 398
#     4  11  24  43  69 101 131 180 231 281 334 395
#     4  11  21  40  68  96 127 175 230 277 332 396
#     4  11  22  42  69 104 129 170 233 286 327 402
#     4  12  22  40  72 100 126 166 234 296 324 378
#     4  12  26  42  63 100 144 174 217 276 350 409
#     4  10  20  40  69  92 122 174 232 272 316 396
#
# _framework density 20.576132000000001
#
# number of rings (size 3 to 8) (size 9 to 14) (size 15 to 20)
#    0.000    1.067    2.667    5.600    3.733    1.067 
#    0.000    0.000    0.000    0.000    0.000    0.000 
#    0.000    0.000    0.000    0.000    0.000    0.000 
#
# Total GULP energy -334900.202900 kJ/mol
# GULP energy per Si atom -5581.670048 kJ/mol
# Density = 2.052930 g / cm^3
# Si number density = 20.576132 Si / 1000 Ang^3
#
#
#
# Elastic Constant Matrix: (Units=GPa)
#
#
# Indices 1 2 3 4 5 6 
#
# 1 44.1746 47.8465 14.4398 0.0000 0.0000 0.0000
# 2 47.8465 68.0912 22.3474 0.0000 0.0000 0.0000
# 3 14.4398 22.3474 83.5391 0.0000 0.0000 0.0000
# 4 0.0000 0.0000 0.0000 35.4553 0.0000 0.0000
# 5 0.0000 0.0000 0.0000 0.0000 19.5739 0.0000
# 6 0.0000 0.0000 0.0000 0.0000 0.0000 7.7748
#
#
#
# Elastic Compliance Matrix: (Units=1/GPa)
#
#
# Indices 1 2 3 4 5 6 
#
# 1 0.094942 -0.067231 0.001574 0.000000 0.000000 0.000000
# 2 -0.067231 0.063707 -0.005421 0.000000 0.000000 0.000000
# 3 0.001574 -0.005421 0.013149 0.000000 0.000000 0.000000
# 4 0.000000 0.000000 0.000000 0.028205 0.000000 0.000000
# 5 0.000000 0.000000 0.000000 0.000000 0.051088 0.000000
# 6 0.000000 0.000000 0.000000 0.000000 0.000000 0.128620
#
#
# Mechanical properties :
#
#
# Convention : Reuss Voigt Hill
#
# Bulk Modulus (GPa) = 33.73616 40.56359 37.14988
# Shear Modulus (GPa) = 9.40296 19.97222 14.68759
#
# Velocity S-wave (km/s) = 2.14004 3.11891 2.67463
# Velocity P-wave (km/s) = 4.74739 5.72073 5.25664
#
# Compressibility (1/GPa) = 0.02964178
#
# Stress axis : x y z
#
# Youngs Moduli (GPa) = 10.53274 15.69679 76.05352
#
# Poissons Ratio (x) = 1.05531 -0.11970
# Poissons Ratio (y) = 0.70812 0.41231
# Poissons Ratio (z) = -0.01658 0.08510
#
# Static dielectric constant tensor:
#      x y z
#    x 1.700400 0.000000 0.000000 
#    y 0.000000 1.796730 0.000000 
#    z 0.000000 0.000000 1.805870 
# 
# From -- ./inp_files/16672.got.cif
#   From: 2010.05.17/outbox.ucp.g08.bks.cvg/sg56_9_cif.got.tgz:16672.got - 2010.06.11 16:37:52.
