data_PCOD9433814
_publ_section_title
;
Structure prediction by ZEFSAII (Michael W. Deem and Ramdas Pophale) SiO2 
 PCOD9433814
Probable space group: P C C N
;
_chemical_formula_sum "Si O2"
_cell_formula_units_Z 40
_cell_length_a 6.431871
_cell_length_b 11.633095
_cell_length_c 23.771752
_cell_angle_alpha 90.000000
_cell_angle_beta 90.000000
_cell_angle_gamma 90.000000
_cell_volume 1778.663492
_symmetry_space_group_name_H-M "P C C N"
_symmetry_group_IT_number 56
_symmetry_cell_setting 'orthorhombic'
loop_
_space_group_symop_operation_xyz
x,y,z
1/2-x,1/2-y,z
1/2+x,-y,1/2-z
-x,1/2+y,1/2-z
-x,-y,-z
1/2+x,1/2+y,-z
1/2-x,y,1/2+z
x,1/2-y,1/2+z
loop_
_atom_site_type_symbol
_atom_site_label
_atom_site_fract_x
_atom_site_fract_y
_atom_site_fract_z
Si Si1 0.250000 0.750000 0.360803
Si Si2 0.953917 0.557410 0.310065
Si Si3 0.549193 0.323383 0.409842
Si Si4 0.750000 0.750000 0.996218
Si Si5 0.115502 0.085599 0.594207
Si Si6 0.777017 0.870613 0.699187
O O1 0.390304 0.837804 0.324513
O O2 0.412558 0.666715 0.394840
O O3 0.751478 0.574541 0.348853
O O4 0.893560 0.551657 0.244633
O O5 0.075929 0.438986 0.321901
O O6 0.750000 0.250000 0.395396
O O7 0.442344 0.259799 0.461891
O O8 0.573649 0.456697 0.425761
O O9 0.411659 0.335358 0.354109
O O10 0.753379 0.856154 0.953879
O O11 0.750000 0.750000 0.731288
#
# Coordination Sequence:
#
# PCOD9433814 Si02
#       6
#     4   8   8   4   8   8
#     4  12  24  48  78 112 148 200 254 308 386 452
#     4  12  27  47  78 113 152 199 247 313 383 467
#     4  12  28  49  74 110 151 202 249 321 388 451
#     4  12  28  50  72 112 146 206 260 320 376 448
#     4  12  26  51  78 109 149 198 261 310 380 459
#     4  12  26  47  76 112 156 193 247 310 391 462
#
# _framework density 22.488797999999999
#
# number of rings (size 3 to 8) (size 9 to 14) (size 15 to 20)
#    0.000    0.000    5.000    4.200    5.600    0.800 
#    0.000    0.000    0.000    0.000    0.000    0.000 
#    0.000    0.000    0.000    0.000    0.000    0.000 
#
# Total GULP energy -223718.437570 kJ/mol
# GULP energy per Si atom -5592.960939 kJ/mol
# Density = 2.243761 g / cm^3
# Si number density = 22.488798 Si / 1000 Ang^3
#
#
#
# Elastic Constant Matrix: (Units=GPa)
#
#
# Indices 1 2 3 4 5 6 
#
# 1 108.4177 84.5315 55.5684 0.0000 0.0000 0.0000
# 2 84.5315 103.7545 26.4674 0.0000 0.0000 0.0000
# 3 55.5684 26.4674 129.3492 0.0000 0.0000 0.0000
# 4 0.0000 0.0000 0.0000 -12.7986 0.0000 0.0000
# 5 0.0000 0.0000 0.0000 0.0000 -42.2085 0.0000
# 6 0.0000 0.0000 0.0000 0.0000 0.0000 57.4758
#
#
#
# Elastic Compliance Matrix: (Units=1/GPa)
#
#
# Indices 1 2 3 4 5 6 
#
# 1 0.033205 -0.024704 -0.009210 0.000000 0.000000 0.000000
# 2 -0.024704 0.028548 0.004771 0.000000 0.000000 0.000000
# 3 -0.009210 0.004771 0.010711 0.000000 0.000000 0.000000
# 4 0.000000 0.000000 0.000000 -0.078134 0.000000 0.000000
# 5 0.000000 0.000000 0.000000 0.000000 -0.023692 0.000000
# 6 0.000000 0.000000 0.000000 0.000000 0.000000 0.017399
#
#
# Mechanical properties :
#
#
# Convention : Reuss Voigt Hill
#
# Bulk Modulus (GPa) = 70.52534 74.96177 72.74356
# Shear Modulus (GPa) = 97.94561 12.15736 55.05149
#
# Velocity S-wave (km/s) = 6.60663 2.32760 4.95305
# Velocity P-wave (km/s) = 9.46705 6.37408 8.07013
#
# Compressibility (1/GPa) = 0.01417930
#
# Stress axis : x y z
#
# Youngs Moduli (GPa) = 30.11577 35.02904 93.35881
#
# Poissons Ratio (x) = 0.86535 0.85984
# Poissons Ratio (y) = 0.74397 -0.44544
# Poissons Ratio (z) = 0.27737 -0.16713
#
# Static dielectric constant tensor:
#      x y z
#    x 1.877130 0.000000 0.000000 
#    y 0.000000 2.481620 0.000000 
#    z 0.000000 0.000000 1.786750 
# 
# From -- ./inp_files/21570.got.cif
#   From: 2010.05.17/outbox.cif.g08.bks.cpg/sg56_11_cif.got.tgz:21570.got - 2010.06.03 13:42:01.
