data_PCOD9433661
_publ_section_title
;
Structure prediction by ZEFSAII (Michael W. Deem and Ramdas Pophale) SiO2 
 PCOD9433661
Probable space group: P C C N
;
_chemical_formula_sum "Si O2"
_cell_formula_units_Z 28
_cell_length_a 4.740434
_cell_length_b 10.972176
_cell_length_c 21.118319
_cell_angle_alpha 90.000000
_cell_angle_beta 90.000000
_cell_angle_gamma 90.000000
_cell_volume 1098.424511
_symmetry_space_group_name_H-M "P C C N"
_symmetry_group_IT_number 56
_symmetry_cell_setting 'orthorhombic'
loop_
_space_group_symop_operation_xyz
x,y,z
1/2-x,1/2-y,z
1/2+x,-y,1/2-z
-x,1/2+y,1/2-z
-x,-y,-z
1/2+x,1/2+y,-z
1/2-x,y,1/2+z
x,1/2-y,1/2+z
loop_
_atom_site_type_symbol
_atom_site_label
_atom_site_fract_x
_atom_site_fract_y
_atom_site_fract_z
Si Si1 0.750000 0.250000 0.996114
Si Si2 0.250000 0.250000 0.790086
Si Si3 0.250000 0.750000 0.795116
Si Si4 0.943778 0.925736 0.601713
Si Si5 0.454259 0.408544 0.098613
O O1 0.531415 0.318893 0.041965
O O2 0.579402 0.157478 0.951920
O O3 0.501522 0.306056 0.748088
O O4 0.405435 0.151681 0.834596
O O5 0.416741 0.653754 0.838786
O O6 0.632612 0.969907 0.584938
O O7 0.136347 0.046701 0.607075
#
# Coordination Sequence:
#
# PCOD9433661 Si02
#       5
#     4   4   4   8   8
#     4  11  25  46  72 106 143 179 230 292 352 421
#     4  12  26  46  70 100 144 188 236 296 346 418
#     4  11  25  48  72 102 141 185 240 292 348 417
#     4  12  25  45  70 104 141 183 230 287 355 417
#     4  11  26  45  74 104 138 185 233 289 352 418
#
# _framework density 25.491057999999999
#
# number of rings (size 3 to 8) (size 9 to 14) (size 15 to 20)
#    0.000    0.571    0.000    7.714    0.000   12.571 
#    0.000    2.857    0.000    0.000    0.000    0.000 
#    0.000    0.000    0.000    0.000    0.000    0.000 
#
# Total GULP energy -157209.534977 kJ/mol
# GULP energy per Si atom -5614.626249 kJ/mol
# Density = 2.543304 g / cm^3
# Si number density = 25.491058 Si / 1000 Ang^3
#
#
#
# Elastic Constant Matrix: (Units=GPa)
#
#
# Indices 1 2 3 4 5 6 
#
# 1 108.7166 3.4535 54.7582 0.0000 0.0000 0.0000
# 2 3.4535 68.2048 49.0639 0.0000 0.0000 0.0000
# 3 54.7582 49.0639 156.6186 0.0000 0.0000 0.0000
# 4 0.0000 0.0000 0.0000 5.2251 0.0000 0.0000
# 5 0.0000 0.0000 0.0000 0.0000 29.9957 0.0000
# 6 0.0000 0.0000 0.0000 0.0000 0.0000 54.2562
#
#
#
# Elastic Compliance Matrix: (Units=1/GPa)
#
#
# Indices 1 2 3 4 5 6 
#
# 1 0.011625 0.003015 -0.005009 0.000000 0.000000 0.000000
# 2 0.003015 0.019709 -0.007228 0.000000 0.000000 0.000000
# 3 -0.005009 -0.007228 0.010401 0.000000 0.000000 0.000000
# 4 0.000000 0.000000 0.000000 0.191384 0.000000 0.000000
# 5 0.000000 0.000000 0.000000 0.000000 0.033338 0.000000
# 6 0.000000 0.000000 0.000000 0.000000 0.000000 0.018431
#
#
# Mechanical properties :
#
#
# Convention : Reuss Voigt Hill
#
# Bulk Modulus (GPa) = 42.93751 60.89903 51.91827
# Shear Modulus (GPa) = 16.07224 32.97970 24.52597
#
# Velocity S-wave (km/s) = 2.51371 3.60081 3.10520
# Velocity P-wave (km/s) = 5.03048 6.42106 5.76783
#
# Compressibility (1/GPa) = 0.02328966
#
# Stress axis : x y z
#
# Youngs Moduli (GPa) = 86.01899 50.73902 96.14881
#
# Poissons Ratio (x) = -0.15296 0.48160
# Poissons Ratio (y) = -0.25931 0.69498
# Poissons Ratio (z) = 0.43086 0.36675
#
# Static dielectric constant tensor:
#      x y z
#    x 1.927200 0.000000 0.000000 
#    y 0.000000 2.016350 0.000000 
#    z 0.000000 0.000000 2.013080 
# 
# From -- ./inp_files/17235.got.cif
#   From: 2010.05.17/outbox.cif.g08.bks.cpg/sg56_9_cif.got.tgz:17235.got - 2010.06.03 13:42:01.
