data_PCOD9433496
_publ_section_title
;
Structure prediction by ZEFSAII (Michael W. Deem and Ramdas Pophale) SiO2 
 PCOD9433496
Probable space group: P C C N
;
_chemical_formula_sum "Si O2"
_cell_formula_units_Z 48
_cell_length_a 29.755902
_cell_length_b 8.100328
_cell_length_c 8.290674
_cell_angle_alpha 90.000000
_cell_angle_beta 90.000000
_cell_angle_gamma 90.000000
_cell_volume 1998.322429
_symmetry_space_group_name_H-M "P C C N"
_symmetry_group_IT_number 56
_symmetry_cell_setting 'orthorhombic'
loop_
_space_group_symop_operation_xyz
x,y,z
1/2-x,1/2-y,z
1/2+x,-y,1/2-z
-x,1/2+y,1/2-z
-x,-y,-z
1/2+x,1/2+y,-z
1/2-x,y,1/2+z
x,1/2-y,1/2+z
loop_
_atom_site_type_symbol
_atom_site_label
_atom_site_fract_x
_atom_site_fract_y
_atom_site_fract_z
Si Si1 0.618485 0.150860 0.133025
Si Si2 0.459189 0.566815 0.603689
Si Si3 0.206896 0.026510 0.476311
Si Si4 0.799639 0.601590 0.642796
Si Si5 0.975198 0.858533 0.098465
Si Si6 0.891629 0.501048 0.488445
O O1 0.609191 0.079251 0.310345
O O2 0.584905 0.072928 0.002860
O O3 0.604756 0.343095 0.111820
O O4 0.669663 0.103464 0.085577
O O5 0.500000 0.500000 0.500000
O O6 0.455143 0.435577 0.742036
O O7 0.484240 0.737653 0.651205
O O8 0.199202 0.057736 0.667212
O O9 0.203607 0.199911 0.378287
O O10 0.259416 0.995192 0.439338
O O11 0.843831 0.566992 0.540613
O O12 0.928482 0.851237 0.997068
O O13 0.000000 0.000000 0.000000
#
# Coordination Sequence:
#
# PCOD9433496 Si02
#       6
#     8   8   8   8   8   8
#     4  12  26  47  70 102 143 188 239 300 362 435
#     4  12  27  46  71 103 140 192 243 298 369 434
#     4  11  23  44  73 105 146 183 236 292 358 434
#     4  11  23  44  72 108 141 187 234 292 360 431
#     4  12  25  46  71 101 144 188 243 302 363 438
#     4  12  26  46  71 102 143 187 242 297 363 433
#
# _framework density 24.020147999999999
#
# number of rings (size 3 to 8) (size 9 to 14) (size 15 to 20)
#    0.000    0.333    1.667    9.000    2.333    0.667 
#    3.000    3.333    0.000    0.000    0.000    0.000 
#    0.000    0.000    0.000    0.000    0.000    0.000 
#
# Total GULP energy -267900.835784 kJ/mol
# GULP energy per Si atom -5581.267412 kJ/mol
# Density = 2.396548 g / cm^3
# Si number density = 24.020148 Si / 1000 Ang^3
#
#
#
# Elastic Constant Matrix: (Units=GPa)
#
#
# Indices 1 2 3 4 5 6 
#
# 1 148.6038 5.9641 14.8065 0.0000 0.0000 0.0000
# 2 5.9641 40.5506 9.4318 0.0000 0.0000 0.0000
# 3 14.8065 9.4318 110.2452 0.0000 0.0000 0.0000
# 4 0.0000 0.0000 0.0000 30.0851 0.0000 0.0000
# 5 0.0000 0.0000 0.0000 0.0000 39.0046 0.0000
# 6 0.0000 0.0000 0.0000 0.0000 0.0000 38.1510
#
#
#
# Elastic Compliance Matrix: (Units=1/GPa)
#
#
# Indices 1 2 3 4 5 6 
#
# 1 0.006847 -0.000809 -0.000850 0.000000 0.000000 0.000000
# 2 -0.000809 0.025257 -0.002052 0.000000 0.000000 0.000000
# 3 -0.000850 -0.002052 0.009360 0.000000 0.000000 0.000000
# 4 0.000000 0.000000 0.000000 0.033239 0.000000 0.000000
# 5 0.000000 0.000000 0.000000 0.000000 0.025638 0.000000
# 6 0.000000 0.000000 0.000000 0.000000 0.000000 0.026212
#
#
# Mechanical properties :
#
#
# Convention : Reuss Voigt Hill
#
# Bulk Modulus (GPa) = 29.37667 39.97826 34.67747
# Shear Modulus (GPa) = 34.40622 39.39462 36.90042
#
# Velocity S-wave (km/s) = 3.78880 4.05417 3.92373
# Velocity P-wave (km/s) = 5.60326 6.21247 5.91571
#
# Compressibility (1/GPa) = 0.03404061
#
# Stress axis : x y z
#
# Youngs Moduli (GPa) = 146.06002 39.59321 106.83242
#
# Poissons Ratio (x) = 0.03204 0.09084
# Poissons Ratio (y) = 0.11819 0.21923
# Poissons Ratio (z) = 0.12419 0.08125
#
# Static dielectric constant tensor:
#      x y z
#    x 1.736640 0.000000 0.000000 
#    y 0.000000 2.055340 0.000000 
#    z 0.000000 0.000000 1.806060 
# 
# From -- ./inp_files/5126.got.cif
#   From: 2010.05.17/outbox.cif.g08.bks.cpg/sg56_3_cif.got.tgz:5126.got - 2010.06.03 13:42:01.
