data_PCOD9433979
_publ_section_title
;
Structure prediction by ZEFSAII (Michael W. Deem and Ramdas Pophale) SiO2 
 PCOD9433979
Probable space group: P B C M
;
_chemical_formula_sum "Si O2"
_cell_formula_units_Z 64
_cell_length_a 7.366191
_cell_length_b 25.178593
_cell_length_c 15.648752
_cell_angle_alpha 90.000000
_cell_angle_beta 90.000000
_cell_angle_gamma 90.000000
_cell_volume 2902.379122
_symmetry_space_group_name_H-M "P B C M"
_symmetry_group_IT_number 57
_symmetry_cell_setting 'orthorhombic'
loop_
_space_group_symop_operation_xyz
x,y,z
-x,-y,1/2+z
x,1/2-y,-z
-x,1/2+y,1/2-z
-x,-y,-z
x,y,1/2-z
-x,1/2+y,z
x,1/2-y,1/2+z
loop_
_atom_site_type_symbol
_atom_site_label
_atom_site_fract_x
_atom_site_fract_y
_atom_site_fract_z
Si Si1 0.488887 0.612677 0.651749
Si Si2 0.029293 0.690347 0.508178
Si Si3 0.546497 0.191535 0.992354
Si Si4 0.052147 0.003423 0.098068
Si Si5 0.468511 0.003235 0.353183
Si Si6 0.946998 0.619553 0.344897
Si Si7 0.955293 0.388162 0.155554
Si Si8 0.492345 0.118680 0.347338
O O1 0.541409 0.623993 0.750000
O O2 0.540919 0.655744 0.581480
O O3 0.554892 0.553545 0.626239
O O4 0.266645 0.610463 0.650893
O O5 0.952676 0.750000 0.500000
O O6 0.241732 0.697623 0.530092
O O7 0.966917 0.650385 0.582992
O O8 0.008116 0.658863 0.419399
O O9 0.543083 0.161246 0.082247
O O10 0.466208 0.250000 0.000000
O O11 0.270563 0.003653 0.104991
O O12 0.989901 0.059155 0.137951
O O13 0.988532 0.949445 0.143308
O O14 0.000000 0.000000 0.000000
O O15 0.441918 0.003618 0.250000
O O16 0.557927 0.059598 0.374328
O O17 0.003693 0.636511 0.250000
O O18 0.727313 0.617393 0.346126
O O19 0.004652 0.369461 0.250000
O O20 0.551932 0.129705 0.250000
#
# Coordination Sequence:
#
# PCOD9433979 Si02
#       8
#     8   8   8   8   8   8   8   8
#     4   8  15  29  50  72  96 130 169 209 254 305
#     4  10  21  35  51  77 106 134 175 221 258 304
#     4  10  21  34  51  77 104 134 176 218 257 299
#     4  10  15  25  49  77 100 130 168 214 255 307
#     4   8  15  29  49  74  99 129 172 211 250 311
#     4  10  20  35  54  78 106 139 173 213 262 314
#     4   9  16  29  48  71 100 133 169 209 255 310
#     4   9  19  35  54  75 101 134 173 211 255 311
#
# _framework density 22.050875999999999
#
# number of rings (size 3 to 8) (size 9 to 14) (size 15 to 20)
#    0.000    2.750    1.250    2.625    0.000    2.500 
#    0.000    2.500    0.000    0.750    0.000    0.000 
#    0.000    0.000    0.000    0.000    0.000    0.000 
#
# Total GULP energy -357378.485729 kJ/mol
# GULP energy per Si atom -5584.038840 kJ/mol
# Density = 2.200069 g / cm^3
# Si number density = 22.050876 Si / 1000 Ang^3
#
#
#
# Elastic Constant Matrix: (Units=GPa)
#
#
# Indices 1 2 3 4 5 6 
#
# 1 69.6191 -3.9489 -17.6094 0.0000 0.0000 0.0000
# 2 -3.9489 199.2132 95.7132 0.0000 0.0000 0.0000
# 3 -17.6094 95.7132 125.4874 0.0000 0.0000 0.0000
# 4 0.0000 0.0000 0.0000 -13.4467 0.0000 0.0000
# 5 0.0000 0.0000 0.0000 0.0000 4.9461 0.0000
# 6 0.0000 0.0000 0.0000 0.0000 0.0000 340.6642
#
#
#
# Elastic Compliance Matrix: (Units=1/GPa)
#
#
# Indices 1 2 3 4 5 6 
#
# 1 0.015052 -0.001131 0.002975 0.000000 0.000000 0.000000
# 2 -0.001131 0.008008 -0.006267 0.000000 0.000000 0.000000
# 3 0.002975 -0.006267 0.013166 0.000000 0.000000 0.000000
# 4 0.000000 0.000000 0.000000 -0.074368 0.000000 0.000000
# 5 0.000000 0.000000 0.000000 0.000000 0.202179 0.000000
# 6 0.000000 0.000000 0.000000 0.000000 0.000000 0.002935
#
#
# Mechanical properties :
#
#
# Convention : Reuss Voigt Hill
#
# Bulk Modulus (GPa) = 36.52186 60.29217 48.40702
# Shear Modulus (GPa) = 27.03493 87.77705 57.40599
#
# Velocity S-wave (km/s) = 3.50526 6.31609 5.10783
# Velocity P-wave (km/s) = 5.74291 8.97732 7.53569
#
# Compressibility (1/GPa) = 0.02738086
#
# Stress axis : x y z
#
# Youngs Moduli (GPa) = 66.43560 124.87058 75.95137
#
# Poissons Ratio (x) = 0.14121 -0.22594
# Poissons Ratio (y) = 0.07513 0.47598
# Poissons Ratio (z) = -0.19763 0.78255
#
# Static dielectric constant tensor:
#      x y z
#    x 1.853380 0.000000 0.000000 
#    y 0.000000 1.818470 0.000000 
#    z 0.000000 0.000000 1.758940 
# 
# From -- ./inp_files/16988.got.cif
#   From: 2010.05.17/outbox.cif.g08.bks.cpg/sg57_9_cif.got.tgz:16988.got - 2010.06.03 13:58:18.
