data_PCOD9433145
_publ_section_title
;
Structure prediction by ZEFSAII (Michael W. Deem and Ramdas Pophale) SiO2 
 PCOD9433145
Probable space group: P C C N
;
_chemical_formula_sum "Si O2"
_cell_formula_units_Z 40
_cell_length_a 18.120906
_cell_length_b 8.989341
_cell_length_c 10.382962
_cell_angle_alpha 90.000000
_cell_angle_beta 90.000000
_cell_angle_gamma 90.000000
_cell_volume 1691.332629
_symmetry_space_group_name_H-M "P C C N"
_symmetry_group_IT_number 56
_symmetry_cell_setting 'orthorhombic'
loop_
_space_group_symop_operation_xyz
x,y,z
1/2-x,1/2-y,z
1/2+x,-y,1/2-z
-x,1/2+y,1/2-z
-x,-y,-z
1/2+x,1/2+y,-z
1/2-x,y,1/2+z
x,1/2-y,1/2+z
loop_
_atom_site_type_symbol
_atom_site_label
_atom_site_fract_x
_atom_site_fract_y
_atom_site_fract_z
Si Si1 0.186358 0.957641 0.653245
Si Si2 0.111173 0.481294 0.388474
Si Si3 0.469260 0.404346 0.255576
Si Si4 0.146989 0.618025 0.634879
Si Si5 0.073426 0.315953 0.030460
O O1 0.181564 0.019396 0.797607
O O2 0.155490 0.789841 0.668948
O O3 0.270975 0.946254 0.613521
O O4 0.134428 0.061078 0.566538
O O5 0.108795 0.607544 0.496428
O O6 0.109165 0.328289 0.464007
O O7 0.040348 0.513165 0.300800
O O8 0.399932 0.514992 0.230807
O O9 0.475561 0.372655 0.408381
O O10 0.458805 0.259302 0.162242
#
# Coordination Sequence:
#
# PCOD9433145 Si02
#       5
#     8   8   8   8   8
#     4  11  26  44  73 102 140 194 232 291 364 424
#     4  11  26  46  70 105 142 182 246 291 355 427
#     4  11  26  46  74 103 145 183 242 300 351 426
#     4  10  26  46  69 103 144 183 238 297 356 424
#     4  11  24  48  68 108 137 189 238 288 362 413
#
# _framework density 23.649989000000001
#
# number of rings (size 3 to 8) (size 9 to 14) (size 15 to 20)
#    0.000    1.200    2.000    2.400   11.200    5.600 
#    0.000    0.000    0.000    0.000    0.000    0.000 
#    0.000    0.000    0.000    0.000    0.000    0.000 
#
# Total GULP energy -223629.154109 kJ/mol
# GULP energy per Si atom -5590.728853 kJ/mol
# Density = 2.359616 g / cm^3
# Si number density = 23.649989 Si / 1000 Ang^3
#
#
#
# Elastic Constant Matrix: (Units=GPa)
#
#
# Indices 1 2 3 4 5 6 
#
# 1 79.9010 63.8309 22.6413 0.0000 0.0000 0.0000
# 2 63.8309 89.3425 61.2733 0.0000 0.0000 0.0000
# 3 22.6413 61.2733 120.6187 0.0000 0.0000 0.0000
# 4 0.0000 0.0000 0.0000 31.4312 0.0000 0.0000
# 5 0.0000 0.0000 0.0000 0.0000 26.3995 0.0000
# 6 0.0000 0.0000 0.0000 0.0000 0.0000 33.1224
#
#
#
# Elastic Compliance Matrix: (Units=1/GPa)
#
#
# Indices 1 2 3 4 5 6 
#
# 1 0.034949 -0.031415 0.009398 0.000000 0.000000 0.000000
# 2 -0.031415 0.045416 -0.017174 0.000000 0.000000 0.000000
# 3 0.009398 -0.017174 0.015251 0.000000 0.000000 0.000000
# 4 0.000000 0.000000 0.000000 0.031816 0.000000 0.000000
# 5 0.000000 0.000000 0.000000 0.000000 0.037880 0.000000
# 6 0.000000 0.000000 0.000000 0.000000 0.000000 0.030191
#
#
# Mechanical properties :
#
#
# Convention : Reuss Voigt Hill
#
# Bulk Modulus (GPa) = 58.02442 65.03926 61.53184
# Shear Modulus (GPa) = 17.88098 27.66506 22.77302
#
# Velocity S-wave (km/s) = 2.75265 3.42390 3.10646
# Velocity P-wave (km/s) = 5.88988 6.57201 6.24027
#
# Compressibility (1/GPa) = 0.01723412
#
# Stress axis : x y z
#
# Youngs Moduli (GPa) = 28.61322 22.01890 65.57111
#
# Poissons Ratio (x) = 0.69172 -0.61625
# Poissons Ratio (y) = 0.89888 1.12611
# Poissons Ratio (z) = -0.26891 0.37815
#
# Static dielectric constant tensor:
#      x y z
#    x 1.919840 0.000000 0.000000 
#    y 0.000000 1.947060 0.000000 
#    z 0.000000 0.000000 1.961300 
# 
# From -- ./inp_files/8167.got.cif
#   From: 2010.05.17/outbox.cif.g08.bks.cpg/sg56_5_cif.got.tgz:8167.got - 2010.06.03 13:42:01.
