data_PCOD9433094
_publ_section_title
;
Structure prediction by ZEFSAII (Michael W. Deem and Ramdas Pophale) SiO2 
 PCOD9433094
Probable space group: P C C N
;
_chemical_formula_sum "Si O2"
_cell_formula_units_Z 44
_cell_length_a 13.186123
_cell_length_b 9.779104
_cell_length_c 13.404113
_cell_angle_alpha 90.000000
_cell_angle_beta 90.000000
_cell_angle_gamma 90.000000
_cell_volume 1728.439839
_symmetry_space_group_name_H-M "P C C N"
_symmetry_group_IT_number 56
_symmetry_cell_setting 'orthorhombic'
loop_
_space_group_symop_operation_xyz
x,y,z
1/2-x,1/2-y,z
1/2+x,-y,1/2-z
-x,1/2+y,1/2-z
-x,-y,-z
1/2+x,1/2+y,-z
1/2-x,y,1/2+z
x,1/2-y,1/2+z
loop_
_atom_site_type_symbol
_atom_site_label
_atom_site_fract_x
_atom_site_fract_y
_atom_site_fract_z
Si Si1 0.750000 0.750000 0.403072
Si Si2 0.795019 0.049501 0.174559
Si Si3 0.614824 0.740809 0.230666
Si Si4 0.933190 0.632330 0.019953
Si Si5 0.580455 0.121106 0.487954
Si Si6 0.108762 0.689833 0.738253
O O1 0.668468 0.812146 0.324731
O O2 0.677133 0.650769 0.466693
O O3 0.859350 0.151497 0.246663
O O4 0.681750 0.098974 0.194375
O O5 0.820733 0.891164 0.193432
O O6 0.830418 0.090825 0.064519
O O7 0.589268 0.833615 0.135978
O O8 0.380542 0.644121 0.123732
O O9 0.991552 0.677152 0.764405
O O10 0.010878 0.750231 0.986098
O O11 0.000000 0.500000 0.000000
O O12 0.500000 0.000000 0.500000
#
# Coordination Sequence:
#
# PCOD9433094 Si02
#       6
#     4   8   8   8   8   8
#     4  12  28  50  82 126 168 220 286 366 430 512
#     4  11  24  46  80 120 157 224 284 357 433 520
#     4  11  26  50  82 119 168 220 289 360 433 522
#     4  11  27  55  83 124 173 232 286 352 443 537
#     4  11  23  51  81 113 171 223 284 353 437 530
#     4  10  25  45  75 122 160 220 284 346 438 522
#
# _framework density 25.456484
#
# number of rings (size 3 to 8) (size 9 to 14) (size 15 to 20)
#    0.000    1.091    3.636    1.636    7.636    4.364 
#   16.364    0.000    0.000    0.000    0.000    0.000 
#    0.000    0.000    0.000    0.000    0.000    0.000 
#
# Total GULP energy -246550.150619 kJ/mol
# GULP energy per Si atom -5603.412514 kJ/mol
# Density = 2.539854 g / cm^3
# Si number density = 25.456484 Si / 1000 Ang^3
#
#
#
# Elastic Constant Matrix: (Units=GPa)
#
#
# Indices 1 2 3 4 5 6 
#
# 1 198.8606 47.5326 84.4733 0.0000 0.0000 0.0000
# 2 47.5326 189.1931 42.1935 0.0000 0.0000 0.0000
# 3 84.4733 42.1935 163.1371 0.0000 0.0000 0.0000
# 4 0.0000 0.0000 0.0000 29.6560 0.0000 0.0000
# 5 0.0000 0.0000 0.0000 0.0000 75.3115 0.0000
# 6 0.0000 0.0000 0.0000 0.0000 0.0000 53.2614
#
#
#
# Elastic Compliance Matrix: (Units=1/GPa)
#
#
# Indices 1 2 3 4 5 6 
#
# 1 0.006604 -0.000951 -0.003174 0.000000 0.000000 0.000000
# 2 -0.000951 0.005746 -0.000994 0.000000 0.000000 0.000000
# 3 -0.003174 -0.000994 0.008030 0.000000 0.000000 0.000000
# 4 0.000000 0.000000 0.000000 0.033720 0.000000 0.000000
# 5 0.000000 0.000000 0.000000 0.000000 0.013278 0.000000
# 6 0.000000 0.000000 0.000000 0.000000 0.000000 0.018775
#
#
# Mechanical properties :
#
#
# Convention : Reuss Voigt Hill
#
# Bulk Modulus (GPa) = 98.58695 99.95438 99.27066
# Shear Modulus (GPa) = 50.11413 56.77854 53.44633
#
# Velocity S-wave (km/s) = 4.44173 4.72785 4.58702
# Velocity P-wave (km/s) = 8.06951 8.31586 8.19361
#
# Compressibility (1/GPa) = 0.01014333
#
# Stress axis : x y z
#
# Youngs Moduli (GPa) = 151.41956 174.02742 124.53172
#
# Poissons Ratio (x) = 0.16558 0.39521
# Poissons Ratio (y) = 0.14407 0.12373
# Poissons Ratio (z) = 0.48054 0.17290
#
# Static dielectric constant tensor:
#      x y z
#    x 2.047560 0.000000 0.000000 
#    y 0.000000 2.004210 0.000000 
#    z 0.000000 0.000000 2.043290 
# 
# From -- ./inp_files/15525.got.cif
#   From: 2010.05.17/outbox.cif.g08.bks.cpg/sg56_8_cif.got.tgz:15525.got - 2010.06.03 13:42:01.
