data_PCOD9433307
_publ_section_title
;
Structure prediction by ZEFSAII (Michael W. Deem and Ramdas Pophale) SiO2 
 PCOD9433307
Probable space group: P C C N
;
_chemical_formula_sum "Si O2"
_cell_formula_units_Z 56
_cell_length_a 22.609529
_cell_length_b 8.518053
_cell_length_c 14.112001
_cell_angle_alpha 90.000000
_cell_angle_beta 90.000000
_cell_angle_gamma 90.000000
_cell_volume 2717.818508
_symmetry_space_group_name_H-M "P C C N"
_symmetry_group_IT_number 56
_symmetry_cell_setting 'orthorhombic'
loop_
_space_group_symop_operation_xyz
x,y,z
1/2-x,1/2-y,z
1/2+x,-y,1/2-z
-x,1/2+y,1/2-z
-x,-y,-z
1/2+x,1/2+y,-z
1/2-x,y,1/2+z
x,1/2-y,1/2+z
loop_
_atom_site_type_symbol
_atom_site_label
_atom_site_fract_x
_atom_site_fract_y
_atom_site_fract_z
Si Si1 0.085337 0.859840 0.981783
Si Si2 0.997752 0.057669 0.862614
Si Si3 0.439041 0.518401 0.443384
Si Si4 0.180437 0.395204 0.030175
Si Si5 0.809781 0.652903 0.753909
Si Si6 0.564359 0.692284 0.744000
Si Si7 0.697566 0.960682 0.547589
O O1 0.075825 0.700463 0.924297
O O2 0.051627 0.003093 0.929429
O O3 0.152779 0.911705 0.994630
O O4 0.049149 0.839387 0.079174
O O5 0.026250 0.152551 0.776661
O O6 0.962602 0.904438 0.829944
O O7 0.500000 0.500000 0.500000
O O8 0.384196 0.455605 0.505177
O O9 0.440878 0.415528 0.348922
O O10 0.193247 0.418696 0.141311
O O11 0.183630 0.211015 0.998912
O O12 0.233011 0.481384 0.973028
O O13 0.750000 0.750000 0.738907
O O14 0.867701 0.761983 0.756719
O O15 0.814632 0.546398 0.660349
#
# Coordination Sequence:
#
# PCOD9433307 Si02
#       7
#     8   8   8   8   8   8   8
#     4  11  24  42  66  92 137 174 223 274 345 392
#     4  11  24  40  64  99 129 176 217 279 333 407
#     4  12  25  43  64  95 137 179 221 279 336 404
#     4  11  24  41  70  96 132 173 225 277 339 398
#     4  12  22  40  69 100 126 170 224 275 327 402
#     4  12  24  41  66  97 137 170 229 274 341 399
#     4  11  21  44  69  96 128 172 228 272 337 399
#
# _framework density 20.604759999999999
#
# number of rings (size 3 to 8) (size 9 to 14) (size 15 to 20)
#    0.000    0.571    7.143    1.714    6.000    0.571 
#    2.571    0.000    0.000    1.714    0.000    0.000 
#    0.000    0.000    0.000    0.000    0.000    0.000 
#
# Total GULP energy -313053.886753 kJ/mol
# GULP energy per Si atom -5590.247978 kJ/mol
# Density = 2.055786 g / cm^3
# Si number density = 20.604760 Si / 1000 Ang^3
#
#
#
# Elastic Constant Matrix: (Units=GPa)
#
#
# Indices 1 2 3 4 5 6 
#
# 1 146.6126 23.6664 5.0490 0.0000 0.0000 0.0000
# 2 23.6664 41.7447 -12.0350 0.0000 0.0000 0.0000
# 3 5.0490 -12.0350 65.0770 0.0000 0.0000 0.0000
# 4 0.0000 0.0000 0.0000 -6.3860 0.0000 0.0000
# 5 0.0000 0.0000 0.0000 0.0000 32.5134 0.0000
# 6 0.0000 0.0000 0.0000 0.0000 0.0000 31.0577
#
#
#
# Elastic Compliance Matrix: (Units=1/GPa)
#
#
# Indices 1 2 3 4 5 6 
#
# 1 0.007639 -0.004755 -0.001472 0.000000 0.000000 0.000000
# 2 -0.004755 0.028264 0.005596 0.000000 0.000000 0.000000
# 3 -0.001472 0.005596 0.016516 0.000000 0.000000 0.000000
# 4 0.000000 0.000000 0.000000 -0.156593 0.000000 0.000000
# 5 0.000000 0.000000 0.000000 0.000000 0.030757 0.000000
# 6 0.000000 0.000000 0.000000 0.000000 0.000000 0.032198
#
#
# Mechanical properties :
#
#
# Convention : Reuss Voigt Hill
#
# Bulk Modulus (GPa) = 19.54793 31.86612 25.70703
# Shear Modulus (GPa) = -218.29514 27.22062 -95.53726
#
# Velocity S-wave (km/s) = -10.30408 3.63861 -6.81669
# Velocity P-wave (km/s) = 11.49164 5.75775 7.03228
#
# Compressibility (1/GPa) = 0.05115631
#
# Stress axis : x y z
#
# Youngs Moduli (GPa) = 130.90763 35.38027 60.54912
#
# Poissons Ratio (x) = 0.16824 0.08913
# Poissons Ratio (y) = 0.62249 -0.33883
# Poissons Ratio (z) = 0.19270 -0.19799
#
# Static dielectric constant tensor:
#      x y z
#    x 1.718220 0.000000 0.000000 
#    y 0.000000 1.735110 0.000000 
#    z 0.000000 0.000000 1.771370 
# 
# From -- ./inp_files/13061.got.cif
#   From: 2010.05.17/outbox.cif.g08.bks.cpg/sg56_7_cif.got.tgz:13061.got - 2010.06.03 13:42:01.
