data_PCOD9433452
_publ_section_title
;
Structure prediction by ZEFSAII (Michael W. Deem and Ramdas Pophale) SiO2 
 PCOD9433452
Probable space group: P C C N
;
_chemical_formula_sum "Si O2"
_cell_formula_units_Z 64
_cell_length_a 9.324848
_cell_length_b 15.960586
_cell_length_c 19.905614
_cell_angle_alpha 90.000000
_cell_angle_beta 90.000000
_cell_angle_gamma 90.000000
_cell_volume 2962.553297
_symmetry_space_group_name_H-M "P C C N"
_symmetry_group_IT_number 56
_symmetry_cell_setting 'orthorhombic'
loop_
_space_group_symop_operation_xyz
x,y,z
1/2-x,1/2-y,z
1/2+x,-y,1/2-z
-x,1/2+y,1/2-z
-x,-y,-z
1/2+x,1/2+y,-z
1/2-x,y,1/2+z
x,1/2-y,1/2+z
loop_
_atom_site_type_symbol
_atom_site_label
_atom_site_fract_x
_atom_site_fract_y
_atom_site_fract_z
Si Si1 0.015252 0.137040 0.084043
Si Si2 0.860593 0.822240 0.207437
Si Si3 0.951124 0.856376 0.064115
Si Si4 0.254882 0.514994 0.442549
Si Si5 0.617668 0.418573 0.280417
Si Si6 0.918351 0.242509 0.210000
Si Si7 0.278500 0.977203 0.588432
Si Si8 0.830814 0.989850 0.697157
O O1 0.995866 0.199605 0.146172
O O2 0.868012 0.083549 0.074879
O O3 0.140281 0.067146 0.096062
O O4 0.037619 0.181029 0.011023
O O5 0.750000 0.750000 0.227838
O O6 0.914058 0.805206 0.130919
O O7 0.773533 0.909242 0.204853
O O8 0.990687 0.820097 0.260860
O O9 0.829345 0.927069 0.056762
O O10 0.094953 0.908644 0.080378
O O11 0.306504 0.526988 0.518088
O O12 0.361924 0.508954 0.380620
O O13 0.576952 0.322196 0.273080
O O14 0.682713 0.450588 0.349499
O O15 0.475110 0.470160 0.263999
O O16 0.738912 0.435433 0.226149
O O17 0.750000 0.250000 0.193566
#
# Coordination Sequence:
#
# PCOD9433452 Si02
#       8
#     8   8   8   8   8   8   8   8
#     4   9  17  38  61  91 119 160 201 244 305 371
#     4  11  23  42  60  86 124 165 204 254 303 363
#     4   8  17  35  65  84 116 162 203 244 302 364
#     4   8  16  34  62  89 119 151 198 255 300 353
#     4  12  24  38  62  93 120 158 207 253 304 369
#     4  12  25  39  61  91 130 162 201 252 311 371
#     4   9  18  34  62  94 116 152 206 251 300 360
#     4  11  24  39  64  88 121 160 206 256 304 357
#
# _framework density 21.602986999999999
#
# number of rings (size 3 to 8) (size 9 to 14) (size 15 to 20)
#    0.000    2.000    2.500    3.000    5.250    0.500 
#    0.000    3.750    2.750    0.000    0.000    0.000 
#    0.000    0.000    0.000    0.000    0.000    0.000 
#
# Total GULP energy -357117.682817 kJ/mol
# GULP energy per Si atom -5579.963794 kJ/mol
# Density = 2.155382 g / cm^3
# Si number density = 21.602987 Si / 1000 Ang^3
#
#
#
# Elastic Constant Matrix: (Units=GPa)
#
#
# Indices 1 2 3 4 5 6 
#
# 1 61.8313 3.2330 38.9227 0.0000 0.0000 0.0000
# 2 3.2330 36.2044 17.9831 0.0000 0.0000 0.0000
# 3 38.9227 17.9831 136.7789 0.0000 0.0000 0.0000
# 4 0.0000 0.0000 0.0000 28.1920 0.0000 0.0000
# 5 0.0000 0.0000 0.0000 0.0000 25.7227 0.0000
# 6 0.0000 0.0000 0.0000 0.0000 0.0000 18.2278
#
#
#
# Elastic Compliance Matrix: (Units=1/GPa)
#
#
# Indices 1 2 3 4 5 6 
#
# 1 0.019743 0.001099 -0.005763 0.000000 0.000000 0.000000
# 2 0.001099 0.029612 -0.004206 0.000000 0.000000 0.000000
# 3 -0.005763 -0.004206 0.009504 0.000000 0.000000 0.000000
# 4 0.000000 0.000000 0.000000 0.035471 0.000000 0.000000
# 5 0.000000 0.000000 0.000000 0.000000 0.038876 0.000000
# 6 0.000000 0.000000 0.000000 0.000000 0.000000 0.054861
#
#
# Mechanical properties :
#
#
# Convention : Reuss Voigt Hill
#
# Bulk Modulus (GPa) = 24.31896 39.45467 31.88682
# Shear Modulus (GPa) = 22.77764 26.07356 24.42560
#
# Velocity S-wave (km/s) = 3.25064 3.47788 3.36617
# Velocity P-wave (km/s) = 5.03691 5.86777 5.46814
#
# Compressibility (1/GPa) = 0.04112018
#
# Stress axis : x y z
#
# Youngs Moduli (GPa) = 50.65027 33.77007 105.21920
#
# Poissons Ratio (x) = -0.03713 0.60636
# Poissons Ratio (y) = -0.05568 0.44256
# Poissons Ratio (z) = 0.29189 0.14204
#
# Static dielectric constant tensor:
#      x y z
#    x 1.773150 0.000000 0.000000 
#    y 0.000000 1.787080 0.000000 
#    z 0.000000 0.000000 1.829290 
# 
# From -- ./inp_files/18404.got.cif
#   From: 2010.05.17/outbox.cif.g08.bks.cpg/sg56_10_cif.got.tgz:18404.got - 2010.06.03 13:42:01.
