data_PCOD9433105
_publ_section_title
;
Structure prediction by ZEFSAII (Michael W. Deem and Ramdas Pophale) SiO2 
 PCOD9433105
Probable space group: P C C N
;
_chemical_formula_sum "Si O2"
_cell_formula_units_Z 40
_cell_length_a 5.497890
_cell_length_b 12.591503
_cell_length_c 24.048717
_cell_angle_alpha 90.000000
_cell_angle_beta 90.000000
_cell_angle_gamma 90.000000
_cell_volume 1664.813279
_symmetry_space_group_name_H-M "P C C N"
_symmetry_group_IT_number 56
_symmetry_cell_setting 'orthorhombic'
loop_
_space_group_symop_operation_xyz
x,y,z
1/2-x,1/2-y,z
1/2+x,-y,1/2-z
-x,1/2+y,1/2-z
-x,-y,-z
1/2+x,1/2+y,-z
1/2-x,y,1/2+z
x,1/2-y,1/2+z
loop_
_atom_site_type_symbol
_atom_site_label
_atom_site_fract_x
_atom_site_fract_y
_atom_site_fract_z
Si Si1 0.976152 0.007574 0.716381
Si Si2 0.996796 0.190039 0.636502
Si Si3 0.948369 0.168485 0.954632
Si Si4 0.504827 0.788014 0.164145
Si Si5 0.701783 0.947555 0.961857
O O1 0.986654 0.914612 0.669528
O O2 0.242179 0.012292 0.744639
O O3 0.926896 0.119600 0.688763
O O4 0.250000 0.250000 0.648642
O O5 0.073141 0.113073 0.586991
O O6 0.750000 0.250000 0.620573
O O7 0.750000 0.250000 0.979851
O O8 0.009539 0.230556 0.896959
O O9 0.853860 0.049565 0.940115
O O10 0.147397 0.136187 0.000503
O O11 0.750000 0.750000 0.193466
O O12 0.250000 0.750000 0.189230
O O13 0.500000 0.000000 0.000000
#
# Coordination Sequence:
#
# PCOD9433105 Si02
#       5
#     8   8   8   8   8
#     4  12  28  53  81 114 153 200 266 338 401 467
#     4  12  30  50  76 111 161 208 256 321 404 473
#     4  10  25  46  75 111 159 206 269 321 385 468
#     4  11  25  45  79 115 149 196 264 323 390 466
#     4  11  28  46  74 112 162 207 261 323 380 475
#
# _framework density 24.026717999999999
#
# number of rings (size 3 to 8) (size 9 to 14) (size 15 to 20)
#    0.000    0.800    0.000    4.800   16.800    4.800 
#    0.000    0.000    0.000    0.000    0.000    0.000 
#    0.000    0.000    0.000    0.000    0.000    0.000 
#
# Total GULP energy -223669.073056 kJ/mol
# GULP energy per Si atom -5591.726826 kJ/mol
# Density = 2.397203 g / cm^3
# Si number density = 24.026718 Si / 1000 Ang^3
#
#
#
# Elastic Constant Matrix: (Units=GPa)
#
#
# Indices 1 2 3 4 5 6 
#
# 1 151.1473 52.2170 11.0992 0.0000 0.0000 0.0000
# 2 52.2170 141.5542 54.2972 0.0000 0.0000 0.0000
# 3 11.0992 54.2972 69.2543 0.0000 0.0000 0.0000
# 4 0.0000 0.0000 0.0000 31.9634 0.0000 0.0000
# 5 0.0000 0.0000 0.0000 0.0000 31.9554 0.0000
# 6 0.0000 0.0000 0.0000 0.0000 0.0000 52.5384
#
#
#
# Elastic Compliance Matrix: (Units=1/GPa)
#
#
# Indices 1 2 3 4 5 6 
#
# 1 0.007678 -0.003375 0.001416 0.000000 0.000000 0.000000
# 2 -0.003375 0.011587 -0.008543 0.000000 0.000000 0.000000
# 3 0.001416 -0.008543 0.020911 0.000000 0.000000 0.000000
# 4 0.000000 0.000000 0.000000 0.031286 0.000000 0.000000
# 5 0.000000 0.000000 0.000000 0.000000 0.031294 0.000000
# 6 0.000000 0.000000 0.000000 0.000000 0.000000 0.019034
#
#
# Mechanical properties :
#
#
# Convention : Reuss Voigt Hill
#
# Bulk Modulus (GPa) = 52.16502 66.35363 59.25932
# Shear Modulus (GPa) = 33.51560 39.58093 36.54827
#
# Velocity S-wave (km/s) = 3.73893 4.06319 3.90442
# Velocity P-wave (km/s) = 6.35593 7.04906 6.71145
#
# Compressibility (1/GPa) = 0.01916994
#
# Stress axis : x y z
#
# Youngs Moduli (GPa) = 130.23864 86.30670 47.82232
#
# Poissons Ratio (x) = 0.29133 -0.06771
# Poissons Ratio (y) = 0.43962 0.40856
# Poissons Ratio (z) = -0.18440 0.73734
#
# Static dielectric constant tensor:
#      x y z
#    x 2.278140 0.000000 0.000000 
#    y 0.000000 1.916580 0.000000 
#    z 0.000000 0.000000 1.904620 
# 
# From -- ./inp_files/21518.got.cif
#   From: 2010.05.17/outbox.cif.g08.bks.cpg/sg56_11_cif.got.tgz:21518.got - 2010.06.03 13:42:01.
