data_PCOD9433478
_publ_section_title
;
Structure prediction by ZEFSAII (Michael W. Deem and Ramdas Pophale) SiO2 
 PCOD9433478
Probable space group: P C C N
;
_chemical_formula_sum "Si O2"
_cell_formula_units_Z 48
_cell_length_a 19.836764
_cell_length_b 11.613285
_cell_length_c 8.520296
_cell_angle_alpha 90.000000
_cell_angle_beta 90.000000
_cell_angle_gamma 90.000000
_cell_volume 1962.820537
_symmetry_space_group_name_H-M "P C C N"
_symmetry_group_IT_number 56
_symmetry_cell_setting 'orthorhombic'
loop_
_space_group_symop_operation_xyz
x,y,z
1/2-x,1/2-y,z
1/2+x,-y,1/2-z
-x,1/2+y,1/2-z
-x,-y,-z
1/2+x,1/2+y,-z
1/2-x,y,1/2+z
x,1/2-y,1/2+z
loop_
_atom_site_type_symbol
_atom_site_label
_atom_site_fract_x
_atom_site_fract_y
_atom_site_fract_z
Si Si1 0.326073 0.234136 0.458155
Si Si2 0.166967 0.496397 0.271667
Si Si3 0.447577 0.859898 0.139189
Si Si4 0.107260 0.863941 0.299417
Si Si5 0.258642 0.877706 0.001261
Si Si6 0.596592 0.882466 0.263239
O O1 0.250000 0.250000 0.516330
O O2 0.352910 0.350173 0.378490
O O3 0.377342 0.188117 0.588364
O O4 0.326155 0.134237 0.325667
O O5 0.092808 0.533091 0.215313
O O6 0.216063 0.531714 0.129479
O O7 0.192732 0.575180 0.415484
O O8 0.407634 0.746564 0.195340
O O9 0.522388 0.851074 0.204769
O O10 0.442114 0.867679 0.951412
O O11 0.181513 0.863989 0.374439
O O12 0.098136 0.982036 0.206329
O O13 0.250000 0.750000 0.069920
#
# Coordination Sequence:
#
# PCOD9433478 Si02
#       6
#     8   8   8   8   8   8
#     4  12  30  50  75 108 147 203 262 308 381 448
#     4  11  27  42  75 106 151 191 248 311 370 451
#     4  11  26  48  76 114 152 197 255 305 386 450
#     4  11  26  46  75 109 154 193 247 312 373 450
#     4  11  23  43  70 110 147 188 244 308 382 434
#     4  12  29  50  78 105 155 202 250 317 374 454
#
# _framework density 24.454604
#
# number of rings (size 3 to 8) (size 9 to 14) (size 15 to 20)
#    0.000    0.667    1.667    3.500   18.667    0.667 
#    0.000    0.000    0.000    0.000    0.000    0.000 
#    0.000    0.000    0.000    0.000    0.000    0.000 
#
# Total GULP energy -269414.112476 kJ/mol
# GULP energy per Si atom -5612.794010 kJ/mol
# Density = 2.439894 g / cm^3
# Si number density = 24.454604 Si / 1000 Ang^3
#
#
#
# Elastic Constant Matrix: (Units=GPa)
#
#
# Indices 1 2 3 4 5 6 
#
# 1 80.4172 -6.1755 8.0619 0.0000 0.0000 0.0000
# 2 -6.1755 103.8744 9.5897 0.0000 0.0000 0.0000
# 3 8.0619 9.5897 64.7655 0.0000 0.0000 0.0000
# 4 0.0000 0.0000 0.0000 41.7259 0.0000 0.0000
# 5 0.0000 0.0000 0.0000 0.0000 30.8697 0.0000
# 6 0.0000 0.0000 0.0000 0.0000 0.0000 16.1701
#
#
#
# Elastic Compliance Matrix: (Units=1/GPa)
#
#
# Indices 1 2 3 4 5 6 
#
# 1 0.012677 0.000912 -0.001713 0.000000 0.000000 0.000000
# 2 0.000912 0.009826 -0.001568 0.000000 0.000000 0.000000
# 3 -0.001713 -0.001568 0.015886 0.000000 0.000000 0.000000
# 4 0.000000 0.000000 0.000000 0.023966 0.000000 0.000000
# 5 0.000000 0.000000 0.000000 0.000000 0.032394 0.000000
# 6 0.000000 0.000000 0.000000 0.000000 0.000000 0.061843
#
#
# Mechanical properties :
#
#
# Convention : Reuss Voigt Hill
#
# Bulk Modulus (GPa) = 29.71817 30.22327 29.97072
# Shear Modulus (GPa) = 28.97756 33.59186 31.28471
#
# Velocity S-wave (km/s) = 3.44605 3.71029 3.58061
# Velocity P-wave (km/s) = 5.29268 5.54443 5.42002
#
# Compressibility (1/GPa) = 0.03364944
#
# Stress axis : x y z
#
# Youngs Moduli (GPa) = 78.88361 101.77061 62.94939
#
# Poissons Ratio (x) = -0.09279 0.10783
# Poissons Ratio (y) = -0.07193 0.09873
# Poissons Ratio (z) = 0.13513 0.15962
#
# Static dielectric constant tensor:
#      x y z
#    x 1.907680 0.000000 0.000000 
#    y 0.000000 1.907760 0.000000 
#    z 0.000000 0.000000 1.951430 
# 
# From -- ./inp_files/4740.got.cif
#   From: 2010.05.17/outbox.cif.g08.bks.cpg/sg56_3_cif.got.tgz:4740.got - 2010.06.03 13:42:01.
