data_PCOD9433236
_publ_section_title
;
Structure prediction by ZEFSAII (Michael W. Deem and Ramdas Pophale) SiO2 
 PCOD9433236
Probable space group: P C C N
;
_chemical_formula_sum "Si O2"
_cell_formula_units_Z 64
_cell_length_a 11.495499
_cell_length_b 17.775605
_cell_length_c 15.081602
_cell_angle_alpha 90.000000
_cell_angle_beta 90.000000
_cell_angle_gamma 90.000000
_cell_volume 3081.766250
_symmetry_space_group_name_H-M "P C C N"
_symmetry_group_IT_number 56
_symmetry_cell_setting 'orthorhombic'
loop_
_space_group_symop_operation_xyz
x,y,z
1/2-x,1/2-y,z
1/2+x,-y,1/2-z
-x,1/2+y,1/2-z
-x,-y,-z
1/2+x,1/2+y,-z
1/2-x,y,1/2+z
x,1/2-y,1/2+z
loop_
_atom_site_type_symbol
_atom_site_label
_atom_site_fract_x
_atom_site_fract_y
_atom_site_fract_z
Si Si1 0.046466 0.444143 0.810058
Si Si2 0.389007 0.585082 0.838687
Si Si3 0.382051 0.719770 0.494345
Si Si4 0.764457 0.945390 0.083356
Si Si5 0.019221 0.133421 0.985915
Si Si6 0.328723 0.813940 0.802264
Si Si7 0.378889 0.568904 0.170046
Si Si8 0.853419 0.051712 0.434802
O O1 0.160351 0.411758 0.857285
O O2 0.088660 0.501766 0.734940
O O3 0.955904 0.395640 0.752414
O O4 0.967047 0.481674 0.886598
O O5 0.345183 0.499424 0.854667
O O6 0.267821 0.629632 0.842726
O O7 0.474814 0.609129 0.917367
O O8 0.250000 0.750000 0.510479
O O9 0.473389 0.781515 0.529042
O O10 0.396325 0.716210 0.387372
O O11 0.388055 0.635110 0.531086
O O12 0.847065 0.885463 0.034527
O O13 0.703140 0.000093 0.010934
O O14 0.948474 0.078970 0.919892
O O15 0.250000 0.750000 0.758846
O O16 0.399531 0.857215 0.728967
O O17 0.246374 0.561349 0.139268
#
# Coordination Sequence:
#
# PCOD9433236 Si02
#       8
#     8   8   8   8   8   8   8   8
#     4  12  25  38  61  98 133 175 228 280 336 402
#     4  12  20  39  64  94 127 169 222 276 329 387
#     4  11  20  40  64  97 127 167 223 276 338 406
#     4  12  23  42  61  96 135 181 220 278 346 413
#     4  12  24  39  66  97 135 175 217 280 352 411
#     4  11  21  37  64  96 132 154 212 283 329 389
#     4  12  22  37  62  95 130 166 217 282 338 398
#     4  12  23  41  68  93 134 177 227 279 338 413
#
# _framework density 20.767312
#
# number of rings (size 3 to 8) (size 9 to 14) (size 15 to 20)
#    0.000    0.250   10.000    1.500    1.750    0.000 
#    0.000    0.625    0.000    0.000    0.000    0.000 
#    0.000    0.000    0.000    0.000    0.000    0.000 
#
# Total GULP energy -357342.328343 kJ/mol
# GULP energy per Si atom -5583.473880 kJ/mol
# Density = 2.072004 g / cm^3
# Si number density = 20.767312 Si / 1000 Ang^3
#
#
#
# Elastic Constant Matrix: (Units=GPa)
#
#
# Indices 1 2 3 4 5 6 
#
# 1 108.7925 19.2197 48.3656 0.0000 0.0000 0.0000
# 2 19.2197 53.0657 8.5701 0.0000 0.0000 0.0000
# 3 48.3656 8.5701 90.2049 0.0000 0.0000 0.0000
# 4 0.0000 0.0000 0.0000 29.4904 0.0000 0.0000
# 5 0.0000 0.0000 0.0000 0.0000 10.8410 0.0000
# 6 0.0000 0.0000 0.0000 0.0000 0.0000 20.5017
#
#
#
# Elastic Compliance Matrix: (Units=1/GPa)
#
#
# Indices 1 2 3 4 5 6 
#
# 1 0.012696 -0.003553 -0.006470 0.000000 0.000000 0.000000
# 2 -0.003553 0.020133 -0.000008 0.000000 0.000000 0.000000
# 3 -0.006470 -0.000008 0.014555 0.000000 0.000000 0.000000
# 4 0.000000 0.000000 0.000000 0.033909 0.000000 0.000000
# 5 0.000000 0.000000 0.000000 0.000000 0.092242 0.000000
# 6 0.000000 0.000000 0.000000 0.000000 0.000000 0.048776
#
#
# Mechanical properties :
#
#
# Convention : Reuss Voigt Hill
#
# Bulk Modulus (GPa) = 36.59922 44.93044 40.76483
# Shear Modulus (GPa) = 19.88229 23.89381 21.88805
#
# Velocity S-wave (km/s) = 3.09752 3.39565 3.25001
# Velocity P-wave (km/s) = 5.51857 6.08737 5.80993
#
# Compressibility (1/GPa) = 0.02732298
#
# Stress axis : x y z
#
# Youngs Moduli (GPa) = 78.76679 49.67027 68.70314
#
# Poissons Ratio (x) = 0.17650 0.44448
# Poissons Ratio (y) = 0.27989 0.00052
# Poissons Ratio (z) = 0.50958 0.00037
#
# Static dielectric constant tensor:
#      x y z
#    x 1.777440 0.000000 0.000000 
#    y 0.000000 1.812230 0.000000 
#    z 0.000000 0.000000 1.764650 
# 
# From -- ./inp_files/11841.got.cif
#   From: 2010.05.17/outbox.cif.g08.bks.cpg/sg56_6_cif.got.tgz:11841.got - 2010.06.03 13:42:01.
