data_PCOD9433547
_publ_section_title
;
Structure prediction by ZEFSAII (Michael W. Deem and Ramdas Pophale) SiO2 
 PCOD9433547
Probable space group: P C C N
;
_chemical_formula_sum "Si O2"
_cell_formula_units_Z 24
_cell_length_a 4.878009
_cell_length_b 8.134521
_cell_length_c 26.645789
_cell_angle_alpha 90.000000
_cell_angle_beta 90.000000
_cell_angle_gamma 90.000000
_cell_volume 1057.312013
_symmetry_space_group_name_H-M "P C C N"
_symmetry_group_IT_number 56
_symmetry_cell_setting 'orthorhombic'
loop_
_space_group_symop_operation_xyz
x,y,z
1/2-x,1/2-y,z
1/2+x,-y,1/2-z
-x,1/2+y,1/2-z
-x,-y,-z
1/2+x,1/2+y,-z
1/2-x,y,1/2+z
x,1/2-y,1/2+z
loop_
_atom_site_type_symbol
_atom_site_label
_atom_site_fract_x
_atom_site_fract_y
_atom_site_fract_z
Si Si1 0.137571 0.565053 0.107170
Si Si2 0.611736 0.428845 0.276884
Si Si3 0.371264 0.931481 0.448972
O O1 0.250000 0.750000 0.102401
O O2 0.052262 0.538086 0.164692
O O3 0.383912 0.444661 0.091287
O O4 0.880846 0.539741 0.070889
O O5 0.750000 0.250000 0.273008
O O6 0.336777 0.447069 0.245175
O O7 0.250000 0.750000 0.455452
O O8 0.500000 0.000000 0.500000
#
# Coordination Sequence:
#
# PCOD9433547 Si02
#       3
#     8   8   8
#     4  11  25  45  68  97 135 177 220 272 330 392
#     4  11  24  42  67  99 136 176 220 271 328 389
#     4  12  26  45  68  98 132 173 222 275 333 395
#
# _framework density 22.699066999999999
#
# number of rings (size 3 to 8) (size 9 to 14) (size 15 to 20)
#    0.000    0.667    0.000    7.000    0.000   16.000 
#    0.000    0.000    0.000    0.000    0.000    0.000 
#    0.000    0.000    0.000    0.000    0.000    0.000 
#
# Total GULP energy -134588.630976 kJ/mol
# GULP energy per Si atom -5607.859624 kJ/mol
# Density = 2.264740 g / cm^3
# Si number density = 22.699067 Si / 1000 Ang^3
#
#
#
# Elastic Constant Matrix: (Units=GPa)
#
#
# Indices 1 2 3 4 5 6 
#
# 1 145.7234 38.2172 63.5737 0.0000 0.0000 0.0000
# 2 38.2172 99.7200 71.7818 0.0000 0.0000 0.0000
# 3 63.5737 71.7818 147.6653 0.0000 0.0000 0.0000
# 4 0.0000 0.0000 0.0000 392.0780 0.0000 0.0000
# 5 0.0000 0.0000 0.0000 0.0000 4.0558 0.0000
# 6 0.0000 0.0000 0.0000 0.0000 0.0000 41.6092
#
#
#
# Elastic Compliance Matrix: (Units=1/GPa)
#
#
# Indices 1 2 3 4 5 6 
#
# 1 0.008509 -0.000960 -0.003197 0.000000 0.000000 0.000000
# 2 -0.000960 0.015534 -0.007138 0.000000 0.000000 0.000000
# 3 -0.003197 -0.007138 0.011618 0.000000 0.000000 0.000000
# 4 0.000000 0.000000 0.000000 0.002551 0.000000 0.000000
# 5 0.000000 0.000000 0.000000 0.000000 0.246558 0.000000
# 6 0.000000 0.000000 0.000000 0.000000 0.000000 0.024033
#
#
# Mechanical properties :
#
#
# Convention : Reuss Voigt Hill
#
# Bulk Modulus (GPa) = 76.50003 82.25046 79.37524
# Shear Modulus (GPa) = 14.89210 102.18436 58.53823
#
# Velocity S-wave (km/s) = 2.56416 6.71675 5.08378
# Velocity P-wave (km/s) = 6.52239 9.82175 8.33692
#
# Compressibility (1/GPa) = 0.01307189
#
# Stress axis : x y z
#
# Youngs Moduli (GPa) = 117.52826 64.37421 86.07205
#
# Poissons Ratio (x) = 0.06179 0.27513
# Poissons Ratio (y) = 0.11281 0.61439
# Poissons Ratio (z) = 0.37569 0.45951
#
# Static dielectric constant tensor:
#      x y z
#    x 1.801150 0.000000 0.000000 
#    y 0.000000 1.850230 0.000000 
#    z 0.000000 0.000000 1.810380 
# 
# From -- ./inp_files/19718.got.cif
#   From: 2010.05.17/outbox.cif.g08.bks.cpg/sg56_10_cif.got.tgz:19718.got - 2010.06.03 13:42:01.
