data_PCOD9433372
_publ_section_title
;
Structure prediction by ZEFSAII (Michael W. Deem and Ramdas Pophale) SiO2 
 PCOD9433372
Probable space group: P C C N
;
_chemical_formula_sum "Si O2"
_cell_formula_units_Z 36
_cell_length_a 23.720306
_cell_length_b 5.192356
_cell_length_c 13.609742
_cell_angle_alpha 90.000000
_cell_angle_beta 90.000000
_cell_angle_gamma 90.000000
_cell_volume 1676.233982
_symmetry_space_group_name_H-M "P C C N"
_symmetry_group_IT_number 56
_symmetry_cell_setting 'orthorhombic'
loop_
_space_group_symop_operation_xyz
x,y,z
1/2-x,1/2-y,z
1/2+x,-y,1/2-z
-x,1/2+y,1/2-z
-x,-y,-z
1/2+x,1/2+y,-z
1/2-x,y,1/2+z
x,1/2-y,1/2+z
loop_
_atom_site_type_symbol
_atom_site_label
_atom_site_fract_x
_atom_site_fract_y
_atom_site_fract_z
Si Si1 0.173790 0.947324 0.337893
Si Si2 0.875266 0.960521 0.066795
Si Si3 0.250000 0.250000 0.715966
Si Si4 0.870843 0.829506 0.847099
Si Si5 0.462740 0.021214 0.263229
O O1 0.164221 0.696313 0.400754
O O2 0.154090 0.194664 0.400398
O O3 0.233393 0.017782 0.288540
O O4 0.133383 0.961126 0.241127
O O5 0.931679 0.991849 0.131379
O O6 0.884752 0.949383 0.951171
O O7 0.307003 0.287967 0.654489
O O8 0.915222 0.616036 0.813702
O O9 0.507599 0.254588 0.263259
#
# Coordination Sequence:
#
# PCOD9433372 Si02
#       5
#     8   8   4   8   8
#     4   9  22  41  65  98 141 167 226 279 348 413
#     4  11  22  42  70 100 132 188 226 287 352 411
#     4   8  20  48  66 102 138 184 212 310 332 440
#     4   9  22  44  70 103 139 177 242 284 353 421
#     4  11  24  43  67 100 144 188 240 296 345 408
#
# _framework density 21.476714000000001
#
# number of rings (size 3 to 8) (size 9 to 14) (size 15 to 20)
#    1.333    0.889    0.000    2.667    0.000    8.889 
#    0.000    0.000    0.000    0.000    0.000    0.000 
#    0.000    0.000    0.000    0.000    0.000    0.000 
#
# Total GULP energy -200875.352702 kJ/mol
# GULP energy per Si atom -5579.870908 kJ/mol
# Density = 2.142783 g / cm^3
# Si number density = 21.476714 Si / 1000 Ang^3
#
#
#
# Elastic Constant Matrix: (Units=GPa)
#
#
# Indices 1 2 3 4 5 6 
#
# 1 94.7659 20.9442 -10.0945 0.0000 0.0000 0.0000
# 2 20.9442 108.2290 35.2931 0.0000 0.0000 0.0000
# 3 -10.0945 35.2931 105.4159 0.0000 0.0000 0.0000
# 4 0.0000 0.0000 0.0000 -45.4176 0.0000 0.0000
# 5 0.0000 0.0000 0.0000 0.0000 2.7293 0.0000
# 6 0.0000 0.0000 0.0000 0.0000 0.0000 53.6254
#
#
#
# Elastic Compliance Matrix: (Units=1/GPa)
#
#
# Indices 1 2 3 4 5 6 
#
# 1 0.011407 -0.002878 0.002056 0.000000 0.000000 0.000000
# 2 -0.002878 0.011098 -0.003991 0.000000 0.000000 0.000000
# 3 0.002056 -0.003991 0.011019 0.000000 0.000000 0.000000
# 4 0.000000 0.000000 0.000000 -0.022018 0.000000 0.000000
# 5 0.000000 0.000000 0.000000 0.000000 0.366391 0.000000
# 6 0.000000 0.000000 0.000000 0.000000 0.000000 0.018648
#
#
# Mechanical properties :
#
#
# Convention : Reuss Voigt Hill
#
# Bulk Modulus (GPa) = 41.84401 44.52184 43.18292
# Shear Modulus (GPa) = 12.07327 19.67196 15.87261
#
# Velocity S-wave (km/s) = 2.37356 3.02978 2.72152
# Velocity P-wave (km/s) = 5.19975 5.74584 5.47960
#
# Compressibility (1/GPa) = 0.02389829
#
# Stress axis : x y z
#
# Youngs Moduli (GPa) = 87.66264 90.10533 90.74937
#
# Poissons Ratio (x) = 0.25932 -0.18657
# Poissons Ratio (y) = 0.25229 0.36220
# Poissons Ratio (z) = -0.18022 0.35963
#
# Static dielectric constant tensor:
#      x y z
#    x 1.837420 0.000000 0.000000 
#    y 0.000000 1.794340 0.000000 
#    z 0.000000 0.000000 1.745480 
# 
# From -- ./inp_files/13315.got.cif
#   From: 2010.05.17/outbox.cif.g08.bks.cpg/sg56_7_cif.got.tgz:13315.got - 2010.06.03 13:42:01.
