data_PCOD9433677
_publ_section_title
;
Structure prediction by ZEFSAII (Michael W. Deem and Ramdas Pophale) SiO2 
 PCOD9433677
Probable space group: P C C N
;
_chemical_formula_sum "Si O2"
_cell_formula_units_Z 48
_cell_length_a 8.706375
_cell_length_b 13.791646
_cell_length_c 13.905346
_cell_angle_alpha 90.000000
_cell_angle_beta 90.000000
_cell_angle_gamma 90.000000
_cell_volume 1669.687785
_symmetry_space_group_name_H-M "P C C N"
_symmetry_group_IT_number 56
_symmetry_cell_setting 'orthorhombic'
loop_
_space_group_symop_operation_xyz
x,y,z
1/2-x,1/2-y,z
1/2+x,-y,1/2-z
-x,1/2+y,1/2-z
-x,-y,-z
1/2+x,1/2+y,-z
1/2-x,y,1/2+z
x,1/2-y,1/2+z
loop_
_atom_site_type_symbol
_atom_site_label
_atom_site_fract_x
_atom_site_fract_y
_atom_site_fract_z
Si Si1 0.420133 0.290285 0.515255
Si Si2 0.625817 0.998499 0.917701
Si Si3 0.114224 0.697038 0.773156
Si Si4 0.102280 0.469124 0.289958
Si Si5 0.881732 0.832028 0.698008
Si Si6 0.161020 0.882707 0.944002
O O1 0.250000 0.250000 0.507603
O O2 0.381107 0.378723 0.590497
O O3 0.546772 0.204816 0.528228
O O4 0.454876 0.330078 0.408289
O O5 0.594988 0.029520 0.808613
O O6 0.296961 0.845894 0.868333
O O7 0.761227 0.060529 0.966793
O O8 0.250000 0.750000 0.716118
O O9 0.025162 0.613622 0.717985
O O10 0.992217 0.786080 0.779179
O O11 0.275613 0.426709 0.290207
O O12 0.078090 0.533759 0.382824
O O13 0.750000 0.750000 0.695072
O O14 0.500000 0.000000 0.000000
#
# Coordination Sequence:
#
# PCOD9433677 Si02
#       6
#     8   8   8   8   8   8
#     4  11  27  54  83 127 178 235 307 389 466 561
#     4  12  27  52  86 131 183 236 301 390 462 568
#     4  11  25  47  80 123 172 238 296 372 459 553
#     4  11  25  52  87 124 179 240 306 379 459 569
#     4   9  22  50  83 116 167 230 302 367 455 546
#     4  12  28  49  88 132 181 240 317 378 489 555
#
# _framework density 28.747890000000002
#
# number of rings (size 3 to 8) (size 9 to 14) (size 15 to 20)
#    0.000    1.000    3.333    1.000    2.333    8.000 
#    0.000    1.667    3.667    0.000    0.000    0.000 
#    0.000    0.000    0.000    0.000    0.000    0.000 
#
# Total GULP energy -268544.184857 kJ/mol
# GULP energy per Si atom -5594.670518 kJ/mol
# Density = 2.868246 g / cm^3
# Si number density = 28.747890 Si / 1000 Ang^3
#
#
#
# Elastic Constant Matrix: (Units=GPa)
#
#
# Indices 1 2 3 4 5 6 
#
# 1 178.6490 78.9566 59.2372 0.0000 0.0000 0.0000
# 2 78.9566 146.9899 41.1792 0.0000 0.0000 0.0000
# 3 59.2372 41.1792 136.1491 0.0000 0.0000 0.0000
# 4 0.0000 0.0000 0.0000 52.5831 0.0000 0.0000
# 5 0.0000 0.0000 0.0000 0.0000 34.9971 0.0000
# 6 0.0000 0.0000 0.0000 0.0000 0.0000 74.4119
#
#
#
# Elastic Compliance Matrix: (Units=1/GPa)
#
#
# Indices 1 2 3 4 5 6 
#
# 1 0.007988 -0.003624 -0.002379 0.000000 0.000000 0.000000
# 2 -0.003624 0.009077 -0.001169 0.000000 0.000000 0.000000
# 3 -0.002379 -0.001169 0.008734 0.000000 0.000000 0.000000
# 4 0.000000 0.000000 0.000000 0.019018 0.000000 0.000000
# 5 0.000000 0.000000 0.000000 0.000000 0.028574 0.000000
# 6 0.000000 0.000000 0.000000 0.000000 0.000000 0.013439
#
#
# Mechanical properties :
#
#
# Convention : Reuss Voigt Hill
#
# Bulk Modulus (GPa) = 87.30148 91.17043 89.23595
# Shear Modulus (GPa) = 47.62238 51.22608 49.42423
#
# Velocity S-wave (km/s) = 4.07449 4.22584 4.15086
# Velocity P-wave (km/s) = 7.25046 7.45607 7.35398
#
# Compressibility (1/GPa) = 0.01145456
#
# Stress axis : x y z
#
# Youngs Moduli (GPa) = 125.18097 110.16304 114.50013
#
# Poissons Ratio (x) = 0.39928 0.27245
# Poissons Ratio (y) = 0.45371 0.13380
# Poissons Ratio (z) = 0.29786 0.12873
#
# Static dielectric constant tensor:
#      x y z
#    x 2.368040 0.000000 0.000000 
#    y 0.000000 2.379830 0.000000 
#    z 0.000000 0.000000 2.289650 
# 
# From -- ./inp_files/10776.got.cif
#   From: 2010.05.17/outbox.cif.g08.bks.cpg/sg56_6_cif.got.tgz:10776.got - 2010.06.03 13:42:01.
