data_PCOD9433072
_publ_section_title
;
Structure prediction by ZEFSAII (Michael W. Deem and Ramdas Pophale) SiO2 
 PCOD9433072
Probable space group: P C C N
;
_chemical_formula_sum "Si O2"
_cell_formula_units_Z 60
_cell_length_a 27.551984
_cell_length_b 5.633121
_cell_length_c 17.925711
_cell_angle_alpha 90.000000
_cell_angle_beta 90.000000
_cell_angle_gamma 90.000000
_cell_volume 2782.135949
_symmetry_space_group_name_H-M "P C C N"
_symmetry_group_IT_number 56
_symmetry_cell_setting 'orthorhombic'
loop_
_space_group_symop_operation_xyz
x,y,z
1/2-x,1/2-y,z
1/2+x,-y,1/2-z
-x,1/2+y,1/2-z
-x,-y,-z
1/2+x,1/2+y,-z
1/2-x,y,1/2+z
x,1/2-y,1/2+z
loop_
_atom_site_type_symbol
_atom_site_label
_atom_site_fract_x
_atom_site_fract_y
_atom_site_fract_z
Si Si1 0.308304 0.299744 0.662458
Si Si2 0.375666 0.987120 0.746413
Si Si3 0.677699 0.395809 0.190619
Si Si4 0.522048 0.266384 0.784821
Si Si5 0.386087 0.204712 0.389945
Si Si6 0.698473 0.891105 0.004725
Si Si7 0.989384 0.750779 0.043036
Si Si8 0.250000 0.750000 0.411356
O O1 0.250000 0.250000 0.666427
O O2 0.349553 0.098279 0.674428
O O3 0.319732 0.465060 0.732727
O O4 0.317010 0.402025 0.580719
O O5 0.394643 0.160011 0.811459
O O6 0.328735 0.873568 0.786703
O O7 0.420341 0.814006 0.728033
O O8 0.630792 0.450497 0.140498
O O9 0.725436 0.438764 0.143048
O O10 0.495923 0.513292 0.752829
O O11 0.513335 0.250325 0.874048
O O12 0.340952 0.286896 0.439681
O O13 0.432550 0.233223 0.439663
O O14 0.750000 0.750000 0.006694
O O15 0.709091 0.150240 0.036014
O O16 0.000000 0.500000 0.000000
O O17 0.000000 0.000000 0.000000
#
# Coordination Sequence:
#
# PCOD9433072 Si02
#       8
#     8   8   8   8   8   8   8   4
#     4  10  25  42  63  98 144 178 230 297 354 422
#     4  11  24  43  72 102 130 188 237 300 355 436
#     4  11  23  40  70  97 133 182 242 284 352 433
#     4  12  26  49  80 108 148 192 254 310 374 442
#     4  11  24  45  70 100 140 185 241 289 364 440
#     4  11  24  43  64  98 141 179 229 288 359 422
#     4  12  29  49  75 110 153 194 244 313 384 443
#     4  12  22  36  70 100 132 192 230 286 350 436
#
# _framework density 21.566165000000002
#
# number of rings (size 3 to 8) (size 9 to 14) (size 15 to 20)
#    0.000    0.800    4.000    2.400    7.467    3.733 
#    0.000    0.000    0.000    0.000    0.000    0.000 
#    0.000    0.000    0.000    0.000    0.000    0.000 
#
# Total GULP energy -334264.748682 kJ/mol
# GULP energy per Si atom -5571.079145 kJ/mol
# Density = 2.151708 g / cm^3
# Si number density = 21.566165 Si / 1000 Ang^3
#
#
#
# Elastic Constant Matrix: (Units=GPa)
#
#
# Indices 1 2 3 4 5 6 
#
# 1 117.9796 27.3447 52.9827 0.0000 0.0000 0.0000
# 2 27.3447 83.0838 62.4426 0.0000 0.0000 0.0000
# 3 52.9827 62.4426 163.9958 0.0000 0.0000 0.0000
# 4 0.0000 0.0000 0.0000 31.7954 0.0000 0.0000
# 5 0.0000 0.0000 0.0000 0.0000 45.7017 0.0000
# 6 0.0000 0.0000 0.0000 0.0000 0.0000 30.9404
#
#
#
# Elastic Compliance Matrix: (Units=1/GPa)
#
#
# Indices 1 2 3 4 5 6 
#
# 1 0.010000 -0.001209 -0.002770 0.000000 0.000000 0.000000
# 2 -0.001209 0.017007 -0.006085 0.000000 0.000000 0.000000
# 3 -0.002770 -0.006085 0.009310 0.000000 0.000000 0.000000
# 4 0.000000 0.000000 0.000000 0.031451 0.000000 0.000000
# 5 0.000000 0.000000 0.000000 0.000000 0.021881 0.000000
# 6 0.000000 0.000000 0.000000 0.000000 0.000000 0.032320
#
#
# Mechanical properties :
#
#
# Convention : Reuss Voigt Hill
#
# Bulk Modulus (GPa) = 61.77370 72.28879 67.03125
# Shear Modulus (GPa) = 33.89944 36.50678 35.20311
#
# Velocity S-wave (km/s) = 3.96900 4.11880 4.04459
# Velocity P-wave (km/s) = 7.05052 7.49745 7.27742
#
# Compressibility (1/GPa) = 0.01618812
#
# Stress axis : x y z
#
# Youngs Moduli (GPa) = 99.99525 58.79844 107.41497
#
# Poissons Ratio (x) = 0.07110 0.29759
# Poissons Ratio (y) = 0.12091 0.65362
# Poissons Ratio (z) = 0.27703 0.35779
#
# Static dielectric constant tensor:
#      x y z
#    x 1.816630 0.000000 0.000000 
#    y 0.000000 1.986550 0.000000 
#    z 0.000000 0.000000 1.738050 
# 
# From -- ./inp_files/17044.got.cif
#   From: 2010.05.17/outbox.cif.g08.bks.cpg/sg56_9_cif.got.tgz:17044.got - 2010.06.03 13:42:01.
