data_PCOD9433110
_publ_section_title
;
Structure prediction by ZEFSAII (Michael W. Deem and Ramdas Pophale) SiO2 
 PCOD9433110
Probable space group: P C C N
;
_chemical_formula_sum "Si O2"
_cell_formula_units_Z 40
_cell_length_a 9.447011
_cell_length_b 18.277362
_cell_length_c 9.693642
_cell_angle_alpha 90.000000
_cell_angle_beta 90.000000
_cell_angle_gamma 90.000000
_cell_volume 1673.766653
_symmetry_space_group_name_H-M "P C C N"
_symmetry_group_IT_number 56
_symmetry_cell_setting 'orthorhombic'
loop_
_space_group_symop_operation_xyz
x,y,z
1/2-x,1/2-y,z
1/2+x,-y,1/2-z
-x,1/2+y,1/2-z
-x,-y,-z
1/2+x,1/2+y,-z
1/2-x,y,1/2+z
x,1/2-y,1/2+z
loop_
_atom_site_type_symbol
_atom_site_label
_atom_site_fract_x
_atom_site_fract_y
_atom_site_fract_z
Si Si1 0.931075 0.279963 0.914033
Si Si2 0.974174 0.614243 0.534767
Si Si3 0.775765 0.348041 0.652116
Si Si4 0.647699 0.596680 0.526147
Si Si5 0.449751 0.531273 0.288734
O O1 0.850765 0.302733 0.774311
O O2 0.826303 0.307179 0.039278
O O3 0.982394 0.195725 0.906058
O O4 0.069316 0.328084 0.939681
O O5 0.810535 0.612193 0.493368
O O6 0.093703 0.611511 0.420005
O O7 0.989123 0.546736 0.639113
O O8 0.677512 0.410703 0.711453
O O9 0.568748 0.557218 0.398450
O O10 0.614584 0.544164 0.656732
#
# Coordination Sequence:
#
# PCOD9433110 Si02
#       5
#     8   8   8   8   8
#     4  11  26  46  72 108 143 189 242 300 357 438
#     4  12  26  42  78 100 144 189 246 298 366 425
#     4  11  25  44  73 104 142 190 244 294 363 430
#     4  10  26  48  69 106 148 189 239 301 363 434
#     4  10  25  47  71 104 149 189 243 297 362 445
#
# _framework density 23.898194
#
# number of rings (size 3 to 8) (size 9 to 14) (size 15 to 20)
#    0.000    1.200    2.000    1.200   14.000    2.400 
#    0.000    0.000    0.000    0.000    0.000    0.000 
#    0.000    0.000    0.000    0.000    0.000    0.000 
#
# Total GULP energy -223688.434665 kJ/mol
# GULP energy per Si atom -5592.210867 kJ/mol
# Density = 2.384380 g / cm^3
# Si number density = 23.898194 Si / 1000 Ang^3
#
#
#
# Elastic Constant Matrix: (Units=GPa)
#
#
# Indices 1 2 3 4 5 6 
#
# 1 187.8502 31.2187 23.9104 0.0000 0.0000 0.0000
# 2 31.2187 100.0112 14.6857 0.0000 0.0000 0.0000
# 3 23.9104 14.6857 96.5488 0.0000 0.0000 0.0000
# 4 0.0000 0.0000 0.0000 32.9147 0.0000 0.0000
# 5 0.0000 0.0000 0.0000 0.0000 12.4112 0.0000
# 6 0.0000 0.0000 0.0000 0.0000 0.0000 30.7501
#
#
#
# Elastic Compliance Matrix: (Units=1/GPa)
#
#
# Indices 1 2 3 4 5 6 
#
# 1 0.005742 -0.001620 -0.001176 0.000000 0.000000 0.000000
# 2 -0.001620 0.010684 -0.001224 0.000000 0.000000 0.000000
# 3 -0.001176 -0.001224 0.010835 0.000000 0.000000 0.000000
# 4 0.000000 0.000000 0.000000 0.030382 0.000000 0.000000
# 5 0.000000 0.000000 0.000000 0.000000 0.080572 0.000000
# 6 0.000000 0.000000 0.000000 0.000000 0.000000 0.032520
#
#
# Mechanical properties :
#
#
# Convention : Reuss Voigt Hill
#
# Bulk Modulus (GPa) = 52.02294 58.22663 55.12479
# Shear Modulus (GPa) = 27.00052 36.18823 31.59437
#
# Velocity S-wave (km/s) = 3.36492 3.89558 3.63993
# Velocity P-wave (km/s) = 6.07558 6.68217 6.38608
#
# Compressibility (1/GPa) = 0.01922229
#
# Stress axis : x y z
#
# Youngs Moduli (GPa) = 174.14831 93.59581 92.29525
#
# Poissons Ratio (x) = 0.15161 0.10851
# Poissons Ratio (y) = 0.28209 0.11297
# Poissons Ratio (z) = 0.20474 0.11456
#
# Static dielectric constant tensor:
#      x y z
#    x 1.865650 0.000000 0.000000 
#    y 0.000000 1.892390 0.000000 
#    z 0.000000 0.000000 2.666380 
# 
# From -- ./inp_files/6189.got.cif
#   From: 2010.05.17/outbox.cif.g08.bks.cpg/sg56_4_cif.got.tgz:6189.got - 2010.06.03 13:42:01.
