data_PCOD9433718
_publ_section_title
;
Structure prediction by ZEFSAII (Michael W. Deem and Ramdas Pophale) SiO2 
 PCOD9433718
Probable space group: P C C N
;
_chemical_formula_sum "Si O2"
_cell_formula_units_Z 32
_cell_length_a 5.198018
_cell_length_b 23.137204
_cell_length_c 9.762277
_cell_angle_alpha 90.000000
_cell_angle_beta 90.000000
_cell_angle_gamma 90.000000
_cell_volume 1174.085653
_symmetry_space_group_name_H-M "P C C N"
_symmetry_group_IT_number 56
_symmetry_cell_setting 'orthorhombic'
loop_
_space_group_symop_operation_xyz
x,y,z
1/2-x,1/2-y,z
1/2+x,-y,1/2-z
-x,1/2+y,1/2-z
-x,-y,-z
1/2+x,1/2+y,-z
1/2-x,y,1/2+z
x,1/2-y,1/2+z
loop_
_atom_site_type_symbol
_atom_site_label
_atom_site_fract_x
_atom_site_fract_y
_atom_site_fract_z
Si Si1 0.429970 0.347455 0.752192
Si Si2 0.250000 0.750000 0.608557
Si Si3 0.563007 0.932333 0.161346
Si Si4 0.250000 0.250000 0.075809
Si Si5 0.751636 0.440093 0.586467
O O1 0.655598 0.305139 0.804933
O O2 0.234109 0.305357 0.673064
O O3 0.554419 0.395572 0.655876
O O4 0.260928 0.380709 0.865409
O O5 0.497995 0.739735 0.514196
O O6 0.506625 0.931426 0.323935
O O7 0.682157 0.993439 0.118460
O O8 0.298312 0.929456 0.074128
#
# Coordination Sequence:
#
# PCOD9433718 Si02
#       5
#     8   4   8   4   8
#     4  12  28  51  79 118 167 221 289 352 432 516
#     4  12  30  52  82 118 168 226 290 352 426 502
#     4  11  26  50  79 127 165 225 279 356 433 525
#     4  12  30  52  78 118 168 226 286 354 424 504
#     4  11  26  47  80 119 170 217 280 348 437 514
#
# _framework density 27.255251999999999
#
# number of rings (size 3 to 8) (size 9 to 14) (size 15 to 20)
#    0.000    0.500    2.500    3.000   14.000    3.000 
#    0.000    0.000    0.000    0.000    0.000    0.000 
#    0.000    0.000    0.000    0.000    0.000    0.000 
#
# Total GULP energy -179528.886981 kJ/mol
# GULP energy per Si atom -5610.277718 kJ/mol
# Density = 2.719322 g / cm^3
# Si number density = 27.255252 Si / 1000 Ang^3
#
#
#
# Elastic Constant Matrix: (Units=GPa)
#
#
# Indices 1 2 3 4 5 6 
#
# 1 148.1564 64.2482 46.9720 0.0000 0.0000 0.0000
# 2 64.2482 156.5142 74.8125 0.0000 0.0000 0.0000
# 3 46.9720 74.8125 104.4246 0.0000 0.0000 0.0000
# 4 0.0000 0.0000 0.0000 8.2866 0.0000 0.0000
# 5 0.0000 0.0000 0.0000 0.0000 37.7765 0.0000
# 6 0.0000 0.0000 0.0000 0.0000 0.0000 46.2924
#
#
#
# Elastic Compliance Matrix: (Units=1/GPa)
#
#
# Indices 1 2 3 4 5 6 
#
# 1 0.008479 -0.002521 -0.002008 0.000000 0.000000 0.000000
# 2 -0.002521 0.010466 -0.006364 0.000000 0.000000 0.000000
# 3 -0.002008 -0.006364 0.015039 0.000000 0.000000 0.000000
# 4 0.000000 0.000000 0.000000 0.120676 0.000000 0.000000
# 5 0.000000 0.000000 0.000000 0.000000 0.026471 0.000000
# 6 0.000000 0.000000 0.000000 0.000000 0.000000 0.021602
#
#
# Mechanical properties :
#
#
# Convention : Reuss Voigt Hill
#
# Bulk Modulus (GPa) = 81.98032 86.79565 84.38799
# Shear Modulus (GPa) = 21.87351 33.34194 27.60772
#
# Velocity S-wave (km/s) = 2.83599 3.50140 3.18611
# Velocity P-wave (km/s) = 6.39279 6.94701 6.67566
#
# Compressibility (1/GPa) = 0.01219805
#
# Stress axis : x y z
#
# Youngs Moduli (GPa) = 117.93156 95.54707 66.49334
#
# Poissons Ratio (x) = 0.24086 0.13353
# Poissons Ratio (y) = 0.29729 0.42318
# Poissons Ratio (z) = 0.23683 0.60808
#
# Static dielectric constant tensor:
#      x y z
#    x 2.091920 0.000000 0.000000 
#    y 0.000000 2.069450 0.000000 
#    z 0.000000 0.000000 2.151610 
# 
# From -- ./inp_files/5462.got.cif
#   From: 2010.05.17/outbox.cif.g08.bks.cpg/sg56_3_cif.got.tgz:5462.got - 2010.06.03 13:42:01.
