data_PCOD9433126
_publ_section_title
;
Structure prediction by ZEFSAII (Michael W. Deem and Ramdas Pophale) SiO2 
 PCOD9433126
Probable space group: P C C N
;
_chemical_formula_sum "Si O2"
_cell_formula_units_Z 40
_cell_length_a 5.206673
_cell_length_b 17.270116
_cell_length_c 16.699943
_cell_angle_alpha 90.000000
_cell_angle_beta 90.000000
_cell_angle_gamma 90.000000
_cell_volume 1501.656314
_symmetry_space_group_name_H-M "P C C N"
_symmetry_group_IT_number 56
_symmetry_cell_setting 'orthorhombic'
loop_
_space_group_symop_operation_xyz
x,y,z
1/2-x,1/2-y,z
1/2+x,-y,1/2-z
-x,1/2+y,1/2-z
-x,-y,-z
1/2+x,1/2+y,-z
1/2-x,y,1/2+z
x,1/2-y,1/2+z
loop_
_atom_site_type_symbol
_atom_site_label
_atom_site_fract_x
_atom_site_fract_y
_atom_site_fract_z
Si Si1 0.079573 0.321941 0.944628
Si Si2 0.547686 0.067951 0.065516
Si Si3 0.291329 0.630066 0.700493
Si Si4 0.954699 0.965872 0.089611
Si Si5 0.217986 0.341271 0.195788
O O1 0.250000 0.250000 0.969567
O O2 0.888398 0.357314 0.011282
O O3 0.541379 0.345698 0.749328
O O4 0.910219 0.312459 0.866125
O O5 0.191719 0.942628 0.146265
O O6 0.323735 0.104893 0.118342
O O7 0.758082 0.030080 0.123055
O O8 0.500000 0.000000 0.000000
O O9 0.790771 0.612457 0.577582
O O10 0.538848 0.624996 0.757141
O O11 0.000000 0.000000 0.000000
O O12 0.250000 0.250000 0.176485
#
# Coordination Sequence:
#
# PCOD9433126 Si02
#       5
#     8   8   8   8   8
#     4  11  24  46  85 122 166 228 295 355 426 520
#     4  10  25  53  80 120 172 227 294 353 437 525
#     4  12  26  50  83 126 173 228 283 367 438 523
#     4  11  24  48  82 122 176 226 290 358 426 525
#     4  12  28  51  84 126 178 223 295 370 455 516
#
# _framework density 26.637253999999999
#
# number of rings (size 3 to 8) (size 9 to 14) (size 15 to 20)
#    0.000    0.800    4.000    1.800    2.800    3.200 
#    7.200    2.000    0.000    0.000    0.000    0.000 
#    0.000    0.000    0.000    0.000    0.000    0.000 
#
# Total GULP energy -223637.566518 kJ/mol
# GULP energy per Si atom -5590.939163 kJ/mol
# Density = 2.657663 g / cm^3
# Si number density = 26.637254 Si / 1000 Ang^3
#
#
#
# Elastic Constant Matrix: (Units=GPa)
#
#
# Indices 1 2 3 4 5 6 
#
# 1 191.6140 59.3335 68.3560 0.0000 0.0000 0.0000
# 2 59.3335 146.8094 78.3142 0.0000 0.0000 0.0000
# 3 68.3560 78.3142 130.0333 0.0000 0.0000 0.0000
# 4 0.0000 0.0000 0.0000 9.3170 0.0000 0.0000
# 5 0.0000 0.0000 0.0000 0.0000 46.0351 0.0000
# 6 0.0000 0.0000 0.0000 0.0000 0.0000 49.7873
#
#
#
# Elastic Compliance Matrix: (Units=1/GPa)
#
#
# Indices 1 2 3 4 5 6 
#
# 1 0.006563 -0.001196 -0.002729 0.000000 0.000000 0.000000
# 2 -0.001196 0.010254 -0.005547 0.000000 0.000000 0.000000
# 3 -0.002729 -0.005547 0.012466 0.000000 0.000000 0.000000
# 4 0.000000 0.000000 0.000000 0.107331 0.000000 0.000000
# 5 0.000000 0.000000 0.000000 0.000000 0.021723 0.000000
# 6 0.000000 0.000000 0.000000 0.000000 0.000000 0.020085
#
#
# Mechanical properties :
#
#
# Convention : Reuss Voigt Hill
#
# Bulk Modulus (GPa) = 96.73466 97.82934 97.28200
# Shear Modulus (GPa) = 24.89887 38.52475 31.71181
#
# Velocity S-wave (km/s) = 3.06067 3.80712 3.45411
# Velocity P-wave (km/s) = 6.99175 7.49211 7.24625
#
# Compressibility (1/GPa) = 0.01033756
#
# Stress axis : x y z
#
# Youngs Moduli (GPa) = 152.36904 97.52408 80.22034
#
# Poissons Ratio (x) = 0.11668 0.21896
# Poissons Ratio (y) = 0.18230 0.44495
# Poissons Ratio (z) = 0.41589 0.54093
#
# Static dielectric constant tensor:
#      x y z
#    x 2.373900 0.000000 0.000000 
#    y 0.000000 2.102200 0.000000 
#    z 0.000000 0.000000 2.107260 
# 
# From -- ./inp_files/9742.got.cif
#   From: 2010.05.17/outbox.cif.g08.bks.cpg/sg56_5_cif.got.tgz:9742.got - 2010.06.03 13:42:01.
