data_PCOD9433747
_publ_section_title
;
Structure prediction by ZEFSAII (Michael W. Deem and Ramdas Pophale) SiO2 
 PCOD9433747
Probable space group: P C C N
;
_chemical_formula_sum "Si O2"
_cell_formula_units_Z 40
_cell_length_a 12.831786
_cell_length_b 9.105360
_cell_length_c 15.666722
_cell_angle_alpha 90.000000
_cell_angle_beta 90.000000
_cell_angle_gamma 90.000000
_cell_volume 1830.468950
_symmetry_space_group_name_H-M "P C C N"
_symmetry_group_IT_number 56
_symmetry_cell_setting 'orthorhombic'
loop_
_space_group_symop_operation_xyz
x,y,z
1/2-x,1/2-y,z
1/2+x,-y,1/2-z
-x,1/2+y,1/2-z
-x,-y,-z
1/2+x,1/2+y,-z
1/2-x,y,1/2+z
x,1/2-y,1/2+z
loop_
_atom_site_type_symbol
_atom_site_label
_atom_site_fract_x
_atom_site_fract_y
_atom_site_fract_z
Si Si1 0.307353 0.456427 0.950191
Si Si2 0.563192 0.260287 0.091729
Si Si3 0.136034 0.036854 0.133036
Si Si4 0.625330 0.969521 0.177628
Si Si5 0.006383 0.746191 0.593273
O O1 0.347286 0.619443 0.925798
O O2 0.207456 0.425126 0.894528
O O3 0.404472 0.353161 0.926321
O O4 0.289444 0.442682 0.051690
O O5 0.460798 0.351583 0.118998
O O6 0.594113 0.137086 0.158913
O O7 0.541134 0.190214 0.998371
O O8 0.090984 0.871658 0.124208
O O9 0.173517 0.054597 0.229230
O O10 0.524453 0.868346 0.161418
#
# Coordination Sequence:
#
# PCOD9433747 Si02
#       5
#     8   8   8   8   8
#     4   9  20  38  53  75 114 148 171 216 278 320
#     4   9  19  37  56  76 109 146 177 217 271 325
#     4   9  20  38  56  76 112 149 173 215 280 326
#     4  12  19  32  59  89 104 135 190 231 255 312
#     4   9  19  37  56  76 109 146 177 217 271 325
#
# _framework density 21.852322000000001
#
# number of rings (size 3 to 8) (size 9 to 14) (size 15 to 20)
#    0.000    2.400    0.000    5.400    0.000    0.000 
#    0.000   24.000    0.000    0.000    0.000    0.000 
#    0.000    0.000    0.000    0.000    0.000    0.000 
#
# Total GULP energy -223452.862163 kJ/mol
# GULP energy per Si atom -5586.321554 kJ/mol
# Density = 2.180259 g / cm^3
# Si number density = 21.852322 Si / 1000 Ang^3
#
#
#
# Elastic Constant Matrix: (Units=GPa)
#
#
# Indices 1 2 3 4 5 6 
#
# 1 27.4141 -10.3672 21.1137 0.0000 0.0000 0.0000
# 2 -10.3672 56.5967 21.4707 0.0000 0.0000 0.0000
# 3 21.1137 21.4707 162.5137 0.0000 0.0000 0.0000
# 4 0.0000 0.0000 0.0000 12.7798 0.0000 0.0000
# 5 0.0000 0.0000 0.0000 0.0000 22.6660 0.0000
# 6 0.0000 0.0000 0.0000 0.0000 0.0000 8.6796
#
#
#
# Elastic Compliance Matrix: (Units=1/GPa)
#
#
# Indices 1 2 3 4 5 6 
#
# 1 0.046617 0.011409 -0.007564 0.000000 0.000000 0.000000
# 2 0.011409 0.021393 -0.004309 0.000000 0.000000 0.000000
# 3 -0.007564 -0.004309 0.007705 0.000000 0.000000 0.000000
# 4 0.000000 0.000000 0.000000 0.078249 0.000000 0.000000
# 5 0.000000 0.000000 0.000000 0.000000 0.044119 0.000000
# 6 0.000000 0.000000 0.000000 0.000000 0.000000 0.115213
#
#
# Mechanical properties :
#
#
# Convention : Reuss Voigt Hill
#
# Bulk Modulus (GPa) = 13.37104 34.55098 23.96101
# Shear Modulus (GPa) = 14.74261 23.11223 18.92742
#
# Velocity S-wave (km/s) = 2.60022 3.25569 2.94624
# Velocity P-wave (km/s) = 3.89191 5.47523 4.75000
#
# Compressibility (1/GPa) = 0.07478850
#
# Stress axis : x y z
#
# Youngs Moduli (GPa) = 21.45118 46.74382 129.78167
#
# Poissons Ratio (x) = -0.53328 0.98164
# Poissons Ratio (y) = -0.24473 0.55918
# Poissons Ratio (z) = 0.16225 0.20140
#
# Static dielectric constant tensor:
#      x y z
#    x 1.794290 0.000000 0.000000 
#    y 0.000000 1.818870 0.000000 
#    z 0.000000 0.000000 1.799990 
# 
# From -- ./inp_files/10372.got.cif
#   From: 2010.05.17/outbox.cif.g08.bks.cpg/sg56_6_cif.got.tgz:10372.got - 2010.06.03 13:42:01.
