data_PCOD9433139
_publ_section_title
;
Structure prediction by ZEFSAII (Michael W. Deem and Ramdas Pophale) SiO2 
 PCOD9433139
Probable space group: P C C N
;
_chemical_formula_sum "Si O2"
_cell_formula_units_Z 40
_cell_length_a 15.930622
_cell_length_b 12.043283
_cell_length_c 8.195070
_cell_angle_alpha 90.000000
_cell_angle_beta 90.000000
_cell_angle_gamma 90.000000
_cell_volume 1572.281456
_symmetry_space_group_name_H-M "P C C N"
_symmetry_group_IT_number 56
_symmetry_cell_setting 'orthorhombic'
loop_
_space_group_symop_operation_xyz
x,y,z
1/2-x,1/2-y,z
1/2+x,-y,1/2-z
-x,1/2+y,1/2-z
-x,-y,-z
1/2+x,1/2+y,-z
1/2-x,y,1/2+z
x,1/2-y,1/2+z
loop_
_atom_site_type_symbol
_atom_site_label
_atom_site_fract_x
_atom_site_fract_y
_atom_site_fract_z
Si Si1 0.859341 0.693291 0.732283
Si Si2 0.695154 0.605884 0.884047
Si Si3 0.037668 0.002524 0.679034
Si Si4 0.157696 0.685421 0.066306
Si Si5 0.615602 0.401453 0.797443
O O1 0.789244 0.645243 0.854737
O O2 0.853135 0.824345 0.744017
O O3 0.838395 0.647592 0.555399
O O4 0.939631 0.631953 0.795163
O O5 0.690981 0.474819 0.870853
O O6 0.114227 0.912738 0.681139
O O7 0.000000 0.000000 0.500000
O O8 0.958212 0.005072 0.800657
O O9 0.250000 0.750000 0.088537
O O10 0.098338 0.792417 0.097938
O O11 0.145454 0.638799 0.882746
#
# Coordination Sequence:
#
# PCOD9433139 Si02
#       5
#     8   8   8   8   8
#     4  11  25  45  74 108 146 197 253 324 385 462
#     4  11  26  43  77 105 144 194 261 312 388 460
#     4  10  26  45  74 104 155 193 250 317 387 447
#     4  11  25  47  73 106 150 204 260 313 382 469
#     4  11  27  44  74 108 151 200 254 323 383 464
#
# _framework density 25.440739000000001
#
# number of rings (size 3 to 8) (size 9 to 14) (size 15 to 20)
#    0.000    1.200    0.000    4.200   19.600    2.400 
#    0.000    0.000    0.000    0.000    0.000    0.000 
#    0.000    0.000    0.000    0.000    0.000    0.000 
#
# Total GULP energy -222920.626753 kJ/mol
# GULP energy per Si atom -5573.015669 kJ/mol
# Density = 2.538283 g / cm^3
# Si number density = 25.440739 Si / 1000 Ang^3
#
#
#
# Elastic Constant Matrix: (Units=GPa)
#
#
# Indices 1 2 3 4 5 6 
#
# 1 71.7310 26.3420 -4.9549 0.0000 0.0000 0.0000
# 2 26.3420 124.0717 4.5244 0.0000 0.0000 0.0000
# 3 -4.9549 4.5244 85.5989 0.0000 0.0000 0.0000
# 4 0.0000 0.0000 0.0000 42.1828 0.0000 0.0000
# 5 0.0000 0.0000 0.0000 0.0000 26.2499 0.0000
# 6 0.0000 0.0000 0.0000 0.0000 0.0000 61.5028
#
#
#
# Elastic Compliance Matrix: (Units=1/GPa)
#
#
# Indices 1 2 3 4 5 6 
#
# 1 0.015214 -0.003269 0.001053 0.000000 0.000000 0.000000
# 2 -0.003269 0.008778 -0.000653 0.000000 0.000000 0.000000
# 3 0.001053 -0.000653 0.011778 0.000000 0.000000 0.000000
# 4 0.000000 0.000000 0.000000 0.023706 0.000000 0.000000
# 5 0.000000 0.000000 0.000000 0.000000 0.038095 0.000000
# 6 0.000000 0.000000 0.000000 0.000000 0.000000 0.016259
#
#
# Mechanical properties :
#
#
# Convention : Reuss Voigt Hill
#
# Bulk Modulus (GPa) = 33.29666 37.02495 35.16081
# Shear Modulus (GPa) = 38.58671 43.01977 40.80324
#
# Velocity S-wave (km/s) = 3.89875 4.11661 4.00916
# Velocity P-wave (km/s) = 5.77783 6.09757 5.93985
#
# Compressibility (1/GPa) = 0.03003304
#
# Stress axis : x y z
#
# Youngs Moduli (GPa) = 65.72867 113.92603 84.90483
#
# Poissons Ratio (x) = 0.37237 -0.08944
# Poissons Ratio (y) = 0.21484 0.05546
# Poissons Ratio (z) = -0.06924 0.07441
#
# Static dielectric constant tensor:
#      x y z
#    x -65.057370 0.000000 0.000000 
#    y 0.000000 2.062240 0.000000 
#    z 0.000000 0.000000 1.941200 
# 
# From -- ./inp_files/3881.got.cif
#   From: 2010.05.17/outbox.cif.g08.bks.cpg/sg56_2_cif.got.tgz:3881.got - 2010.06.03 13:42:01.
