data_PCOD9433262
_publ_section_title
;
Structure prediction by ZEFSAII (Michael W. Deem and Ramdas Pophale) SiO2 
 PCOD9433262
Probable space group: P C C N
;
_chemical_formula_sum "Si O2"
_cell_formula_units_Z 32
_cell_length_a 4.916221
_cell_length_b 16.827994
_cell_length_c 17.929035
_cell_angle_alpha 90.000000
_cell_angle_beta 90.000000
_cell_angle_gamma 90.000000
_cell_volume 1483.271531
_symmetry_space_group_name_H-M "P C C N"
_symmetry_group_IT_number 56
_symmetry_cell_setting 'orthorhombic'
loop_
_space_group_symop_operation_xyz
x,y,z
1/2-x,1/2-y,z
1/2+x,-y,1/2-z
-x,1/2+y,1/2-z
-x,-y,-z
1/2+x,1/2+y,-z
1/2-x,y,1/2+z
x,1/2-y,1/2+z
loop_
_atom_site_type_symbol
_atom_site_label
_atom_site_fract_x
_atom_site_fract_y
_atom_site_fract_z
Si Si1 0.635290 0.060229 0.558432
Si Si2 0.995748 0.304992 0.252134
Si Si3 0.196038 0.027183 0.793159
Si Si4 0.117692 0.166553 0.580445
O O1 0.380272 0.110930 0.587778
O O2 0.879433 0.120549 0.535053
O O3 0.500000 0.000000 0.500000
O O4 0.751836 0.007298 0.625680
O O5 0.250000 0.250000 0.265446
O O6 0.987757 0.320468 0.162611
O O7 0.750000 0.250000 0.275967
O O8 0.047241 0.388194 0.292165
O O9 0.978355 0.970340 0.751522
O O10 0.250000 0.250000 0.553293
#
# Coordination Sequence:
#
# PCOD9433262 Si02
#       4
#     8   8   8   8
#     4  12  24  42  64  97 132 173 216 270 329 397
#     4  11  21  36  62  92 124 159 213 268 318 373
#     4  12  22  40  63  93 127 164 216 266 326 380
#     4  11  22  40  66  94 125 168 223 268 322 394
#
# _framework density 21.573934000000001
#
# number of rings (size 3 to 8) (size 9 to 14) (size 15 to 20)
#    0.000    0.500    5.000    6.000    0.000    0.000 
#    0.000    3.750    0.000    0.000    0.000    0.000 
#    0.000    0.000    0.000    0.000    0.000    0.000 
#
# Total GULP energy -178790.965337 kJ/mol
# GULP energy per Si atom -5587.217667 kJ/mol
# Density = 2.152483 g / cm^3
# Si number density = 21.573934 Si / 1000 Ang^3
#
#
#
# Elastic Constant Matrix: (Units=GPa)
#
#
# Indices 1 2 3 4 5 6 
#
# 1 90.1453 14.8209 12.4013 0.0000 0.0000 0.0000
# 2 14.8209 127.9164 25.3893 0.0000 0.0000 0.0000
# 3 12.4013 25.3893 37.6052 0.0000 0.0000 0.0000
# 4 0.0000 0.0000 0.0000 15.1815 0.0000 0.0000
# 5 0.0000 0.0000 0.0000 0.0000 14.8690 0.0000
# 6 0.0000 0.0000 0.0000 0.0000 0.0000 -2.9703
#
#
#
# Elastic Compliance Matrix: (Units=1/GPa)
#
#
# Indices 1 2 3 4 5 6 
#
# 1 0.011671 -0.000679 -0.003390 0.000000 0.000000 0.000000
# 2 -0.000679 0.009067 -0.005898 0.000000 0.000000 0.000000
# 3 -0.003390 -0.005898 0.031692 0.000000 0.000000 0.000000
# 4 0.000000 0.000000 0.000000 0.065870 0.000000 0.000000
# 5 0.000000 0.000000 0.000000 0.000000 0.067254 0.000000
# 6 0.000000 0.000000 0.000000 0.000000 0.000000 -0.336671
#
#
# Mechanical properties :
#
#
# Convention : Reuss Voigt Hill
#
# Bulk Modulus (GPa) = 30.77324 40.09887 35.43606
# Shear Modulus (GPa) = -41.54511 18.95308 -11.29601
#
# Velocity S-wave (km/s) = -4.39305 2.96719 -2.29070
# Velocity P-wave (km/s) = 3.38183 5.51054 3.07646
#
# Compressibility (1/GPa) = 0.03249577
#
# Stress axis : x y z
#
# Youngs Moduli (GPa) = 85.68035 110.29150 31.55387
#
# Poissons Ratio (x) = 0.07493 0.10697
# Poissons Ratio (y) = 0.05821 0.18609
# Poissons Ratio (z) = 0.29048 0.65045
#
# Static dielectric constant tensor:
#      x y z
#    x 1.769430 0.000000 0.000000 
#    y 0.000000 1.821150 0.000000 
#    z 0.000000 0.000000 1.781340 
# 
# From -- ./inp_files/13685.got.cif
#   From: 2010.05.17/outbox.cif.g08.bks.cpg/sg56_7_cif.got.tgz:13685.got - 2010.06.03 13:42:01.
