data_PCOD9433194
_publ_section_title
;
Structure prediction by ZEFSAII (Michael W. Deem and Ramdas Pophale) SiO2 
 PCOD9433194
Probable space group: P C C N
;
_chemical_formula_sum "Si O2"
_cell_formula_units_Z 64
_cell_length_a 19.502713
_cell_length_b 9.002142
_cell_length_c 14.533407
_cell_angle_alpha 90.000000
_cell_angle_beta 90.000000
_cell_angle_gamma 90.000000
_cell_volume 2551.574921
_symmetry_space_group_name_H-M "P C C N"
_symmetry_group_IT_number 56
_symmetry_cell_setting 'orthorhombic'
loop_
_space_group_symop_operation_xyz
x,y,z
1/2-x,1/2-y,z
1/2+x,-y,1/2-z
-x,1/2+y,1/2-z
-x,-y,-z
1/2+x,1/2+y,-z
1/2-x,y,1/2+z
x,1/2-y,1/2+z
loop_
_atom_site_type_symbol
_atom_site_label
_atom_site_fract_x
_atom_site_fract_y
_atom_site_fract_z
Si Si1 0.061485 0.110391 0.967731
Si Si2 0.317021 0.164862 0.230816
Si Si3 0.308187 0.646924 0.412198
Si Si4 0.059004 0.356001 0.742735
Si Si5 0.677895 0.311526 0.286605
Si Si6 0.544405 0.174999 0.315612
Si Si7 0.429693 0.446170 0.456991
Si Si8 0.291893 0.118548 0.433612
O O1 0.078375 0.280316 0.999980
O O2 0.138356 0.043481 0.971804
O O3 0.027099 0.150012 0.869199
O O4 0.000000 0.000000 0.000000
O O5 0.250000 0.250000 0.195937
O O6 0.385985 0.243986 0.202264
O O7 0.319137 0.194294 0.340724
O O8 0.317981 0.989218 0.216605
O O9 0.250000 0.750000 0.458976
O O10 0.328144 0.731893 0.316182
O O11 0.372362 0.575225 0.465217
O O12 0.262625 0.499720 0.396685
O O13 0.069404 0.508508 0.690266
O O14 0.064478 0.422067 0.846824
O O15 0.985175 0.276819 0.732619
O O16 0.750000 0.250000 0.322113
O O17 0.611390 0.264918 0.344479
O O18 0.500000 0.500000 0.500000
O O19 0.250000 0.250000 0.484977
#
# Coordination Sequence:
#
# PCOD9433194 Si02
#       8
#     8   8   8   8   8   8   8   8
#     4  11  26  44  66  95 130 175 221 280 340 404
#     4  11  19  34  59  95 132 161 211 269 318 380
#     4  11  21  35  63 104 125 165 223 277 322 395
#     4  11  22  39  59  94 127 166 209 263 333 395
#     4  11  21  35  63  97 133 168 209 271 332 400
#     4  11  23  38  63  92 132 166 215 269 336 398
#     4  11  23  40  60  93 135 171 214 278 332 396
#     4  11  19  38  66  92 125 164 221 272 322 385
#
# _framework density 25.082546000000001
#
# number of rings (size 3 to 8) (size 9 to 14) (size 15 to 20)
#    0.000    1.000    7.500    2.250    1.750    1.000 
#    0.000    0.000    5.500    2.250    0.000    0.000 
#    0.000    0.000    0.000    0.000    0.000    0.000 
#
# Total GULP energy -356353.843982 kJ/mol
# GULP energy per Si atom -5568.028812 kJ/mol
# Density = 2.502546 g / cm^3
# Si number density = 25.082546 Si / 1000 Ang^3
#
#
#
# Elastic Constant Matrix: (Units=GPa)
#
#
# Indices 1 2 3 4 5 6 
#
# 1 158.7131 49.5773 16.6519 0.0000 0.0000 0.0000
# 2 49.5773 174.4539 7.8446 0.0000 0.0000 0.0000
# 3 16.6519 7.8446 59.6236 0.0000 0.0000 0.0000
# 4 0.0000 0.0000 0.0000 0.7710 0.0000 0.0000
# 5 0.0000 0.0000 0.0000 0.0000 0.4401 0.0000
# 6 0.0000 0.0000 0.0000 0.0000 0.0000 71.9963
#
#
#
# Elastic Compliance Matrix: (Units=1/GPa)
#
#
# Indices 1 2 3 4 5 6 
#
# 1 0.007086 -0.001936 -0.001724 0.000000 0.000000 0.000000
# 2 -0.001936 0.006295 -0.000287 0.000000 0.000000 0.000000
# 3 -0.001724 -0.000287 0.017291 0.000000 0.000000 0.000000
# 4 0.000000 0.000000 0.000000 1.297009 0.000000 0.000000
# 5 0.000000 0.000000 0.000000 0.000000 2.272431 0.000000
# 6 0.000000 0.000000 0.000000 0.000000 0.000000 0.013890
#
#
# Mechanical properties :
#
#
# Convention : Reuss Voigt Hill
#
# Bulk Modulus (GPa) = 43.90442 60.10422 52.00432
# Shear Modulus (GPa) = 1.37760 35.88925 18.63343
#
# Velocity S-wave (km/s) = 0.74190 3.78676 2.72855
# Velocity P-wave (km/s) = 4.27503 6.56764 5.54120
#
# Compressibility (1/GPa) = 0.02277675
#
# Stress axis : x y z
#
# Youngs Moduli (GPa) = 141.11444 158.84668 57.83257
#
# Poissons Ratio (x) = 0.30758 0.09972
# Poissons Ratio (y) = 0.27324 0.01663
# Poissons Ratio (z) = 0.24333 0.04567
#
# Static dielectric constant tensor:
#      x y z
#    x 2.080660 0.000000 0.000000 
#    y 0.000000 2.029950 0.000000 
#    z 0.000000 0.000000 2.131010 
# 
# From -- ./inp_files/19348.got.cif
#   From: 2010.05.17/outbox.cif.g08.bks.cpg/sg56_10_cif.got.tgz:19348.got - 2010.06.03 13:42:01.
