data_PCOD9433971
_publ_section_title
;
Structure prediction by ZEFSAII (Michael W. Deem and Ramdas Pophale) SiO2 
 PCOD9433971
Probable space group: P B C M
;
_chemical_formula_sum "Si O2"
_cell_formula_units_Z 48
_cell_length_a 28.343613
_cell_length_b 5.344295
_cell_length_c 14.393885
_cell_angle_alpha 90.000000
_cell_angle_beta 90.000000
_cell_angle_gamma 90.000000
_cell_volume 2180.337181
_symmetry_space_group_name_H-M "P B C M"
_symmetry_group_IT_number 57
_symmetry_cell_setting 'orthorhombic'
loop_
_space_group_symop_operation_xyz
x,y,z
-x,-y,1/2+z
x,1/2-y,-z
-x,1/2+y,1/2-z
-x,-y,-z
x,y,1/2-z
-x,1/2+y,z
x,1/2-y,1/2+z
loop_
_atom_site_type_symbol
_atom_site_label
_atom_site_fract_x
_atom_site_fract_y
_atom_site_fract_z
Si Si1 0.972914 0.080479 0.862590
Si Si2 0.134076 0.702161 0.894376
Si Si3 0.270696 0.498954 0.063812
Si Si4 0.825779 0.697215 0.888692
Si Si5 0.626366 0.000594 0.437439
Si Si6 0.520524 0.998844 0.392325
O O1 0.971423 0.080957 0.750000
O O2 0.919339 0.107179 0.895300
O O3 0.002604 0.323339 0.892189
O O4 0.164891 0.476541 0.851954
O O5 0.138088 0.983474 0.855024
O O6 0.150289 0.750000 0.000000
O O7 0.225066 0.434036 0.125156
O O8 0.322287 0.516123 0.110859
O O9 0.264080 0.750000 0.000000
O O10 0.273459 0.250000 0.000000
O O11 0.831024 0.750000 0.000000
O O12 0.624202 0.250000 0.500000
O O13 0.576828 0.994674 0.385484
O O14 0.625852 0.750000 0.500000
O O15 0.500722 0.250517 0.351277
O O16 0.500000 0.000000 0.500000
#
# Coordination Sequence:
#
# PCOD9433971 Si02
#       6
#     8   8   8   8   8   8
#     4  10  21  36  51  69  94 118 139 167 204 243
#     4  10  19  30  49  68  87 113 142 170 204 245
#     4   9  16  23  34  48  70  94 122 160 205 255
#     4   9  16  28  41  60  83 105 134 171 210 244
#     4  10  15  20  27  40  54  81 114 148 199 248
#     4  10  14  19  26  33  51  74 107 153 195 234
#
# _framework density 22.014945000000001
#
# number of rings (size 3 to 8) (size 9 to 14) (size 15 to 20)
#    0.000    2.333    3.333    3.500    0.000    0.667 
#    0.000    0.000    0.000    0.000    0.000    0.000 
#    0.000    0.000    0.000    0.000    0.000    0.000 
#
# Total GULP energy -267448.960801 kJ/mol
# GULP energy per Si atom -5571.853350 kJ/mol
# Density = 2.196484 g / cm^3
# Si number density = 22.014945 Si / 1000 Ang^3
#
#
#
# Elastic Constant Matrix: (Units=GPa)
#
#
# Indices 1 2 3 4 5 6 
#
# 1 127.1745 28.2025 7.2119 0.0000 0.0000 0.0000
# 2 28.2025 189.9535 25.9937 0.0000 0.0000 0.0000
# 3 7.2119 25.9937 60.5144 0.0000 0.0000 0.0000
# 4 0.0000 0.0000 0.0000 -23.1669 0.0000 0.0000
# 5 0.0000 0.0000 0.0000 0.0000 -20.2575 0.0000
# 6 0.0000 0.0000 0.0000 0.0000 0.0000 44.7467
#
#
#
# Elastic Compliance Matrix: (Units=1/GPa)
#
#
# Indices 1 2 3 4 5 6 
#
# 1 0.008144 -0.001144 -0.000479 0.000000 0.000000 0.000000
# 2 -0.001144 0.005754 -0.002335 0.000000 0.000000 0.000000
# 3 -0.000479 -0.002335 0.017585 0.000000 0.000000 0.000000
# 4 0.000000 0.000000 0.000000 -0.043165 0.000000 0.000000
# 5 0.000000 0.000000 0.000000 0.000000 -0.049364 0.000000
# 6 0.000000 0.000000 0.000000 0.000000 0.000000 0.022348
#
#
# Mechanical properties :
#
#
# Convention : Reuss Voigt Hill
#
# Bulk Modulus (GPa) = 42.43275 55.60651 49.01963
# Shear Modulus (GPa) = -218.08775 21.34674 -98.37051
#
# Velocity S-wave (km/s) = -9.96386 3.11729 -6.69182
# Velocity P-wave (km/s) = 10.63273 6.18628 6.11494
#
# Compressibility (1/GPa) = 0.02356670
#
# Stress axis : x y z
#
# Youngs Moduli (GPa) = 122.78998 173.79853 56.86598
#
# Poissons Ratio (x) = 0.19875 0.02726
# Poissons Ratio (y) = 0.14042 0.13280
# Poissons Ratio (z) = 0.05886 0.40586
#
# Static dielectric constant tensor:
#      x y z
#    x 1.848490 0.000000 0.000000 
#    y 0.000000 1.832850 0.000000 
#    z 0.000000 0.000000 1.869560 
# 
# From -- ./inp_files/27684.got.cif
#   From: 2010.05.17/outbox.cif.g08.bks.cpg/sg57_14_cif.got.tgz:27684.got - 2010.06.03 13:58:18.
