data_PCOD9433376
_publ_section_title
;
Structure prediction by ZEFSAII (Michael W. Deem and Ramdas Pophale) SiO2 
 PCOD9433376
Probable space group: P C C N
;
_chemical_formula_sum "Si O2"
_cell_formula_units_Z 48
_cell_length_a 17.148214
_cell_length_b 8.166433
_cell_length_c 13.229987
_cell_angle_alpha 90.000000
_cell_angle_beta 90.000000
_cell_angle_gamma 90.000000
_cell_volume 1852.723949
_symmetry_space_group_name_H-M "P C C N"
_symmetry_group_IT_number 56
_symmetry_cell_setting 'orthorhombic'
loop_
_space_group_symop_operation_xyz
x,y,z
1/2-x,1/2-y,z
1/2+x,-y,1/2-z
-x,1/2+y,1/2-z
-x,-y,-z
1/2+x,1/2+y,-z
1/2-x,y,1/2+z
x,1/2-y,1/2+z
loop_
_atom_site_type_symbol
_atom_site_label
_atom_site_fract_x
_atom_site_fract_y
_atom_site_fract_z
Si Si1 0.422695 0.345198 0.870220
Si Si2 0.784939 0.480701 0.670701
Si Si3 0.965503 0.984358 0.726783
Si Si4 0.806324 0.993486 0.400361
Si Si5 0.866041 0.624407 0.416100
Si Si6 0.365133 0.837482 0.913354
O O1 0.330015 0.350147 0.847859
O O2 0.458219 0.472497 0.790140
O O3 0.464445 0.177256 0.841682
O O4 0.424375 0.385181 0.988626
O O5 0.831315 0.339427 0.610405
O O6 0.696472 0.465648 0.636379
O O7 0.793459 0.441160 0.788341
O O8 0.943571 0.128207 0.648031
O O9 0.903027 0.955308 0.816706
O O10 0.847941 0.816519 0.398683
O O11 0.717987 0.958315 0.438620
O O12 0.856709 0.115280 0.469756
#
# Coordination Sequence:
#
# PCOD9433376 Si02
#       6
#     8   8   8   8   8   8
#     4  12  25  45  68  99 139 186 230 280 341 409
#     4  11  24  42  69 102 140 177 224 288 339 404
#     4  12  25  45  68  99 139 186 230 280 341 409
#     4  11  22  42  73 108 132 176 231 288 343 410
#     4  11  23  41  74 103 136 175 234 283 344 414
#     4  11  24  42  69 102 140 177 224 288 339 404
#
# _framework density 25.907799000000001
#
# number of rings (size 3 to 8) (size 9 to 14) (size 15 to 20)
#    0.000    0.667    6.667    1.500    0.000    4.667 
#    0.000    6.667    0.000    0.000    0.000    0.000 
#    0.000    0.000    0.000    0.000    0.000    0.000 
#
# Total GULP energy -268897.565958 kJ/mol
# GULP energy per Si atom -5602.032624 kJ/mol
# Density = 2.584883 g / cm^3
# Si number density = 25.907799 Si / 1000 Ang^3
#
#
#
# Elastic Constant Matrix: (Units=GPa)
#
#
# Indices 1 2 3 4 5 6 
#
# 1 68.4501 0.2294 -7.6895 0.0000 0.0000 0.0000
# 2 0.2294 76.6748 -4.0258 0.0000 0.0000 0.0000
# 3 -7.6895 -4.0258 115.4117 0.0000 0.0000 0.0000
# 4 0.0000 0.0000 0.0000 27.2101 0.0000 0.0000
# 5 0.0000 0.0000 0.0000 0.0000 40.3038 0.0000
# 6 0.0000 0.0000 0.0000 0.0000 0.0000 33.0907
#
#
#
# Elastic Compliance Matrix: (Units=1/GPa)
#
#
# Indices 1 2 3 4 5 6 
#
# 1 0.014719 0.000007 0.000981 0.000000 0.000000 0.000000
# 2 0.000007 0.013066 0.000456 0.000000 0.000000 0.000000
# 3 0.000981 0.000456 0.008746 0.000000 0.000000 0.000000
# 4 0.000000 0.000000 0.000000 0.036751 0.000000 0.000000
# 5 0.000000 0.000000 0.000000 0.000000 0.024812 0.000000
# 6 0.000000 0.000000 0.000000 0.000000 0.000000 0.030220
#
#
# Mechanical properties :
#
#
# Convention : Reuss Voigt Hill
#
# Bulk Modulus (GPa) = 25.36739 26.39609 25.88174
# Shear Modulus (GPa) = 36.08420 38.25574 37.16997
#
# Velocity S-wave (km/s) = 3.73606 3.84684 3.79186
# Velocity P-wave (km/s) = 5.33137 5.47188 5.40208
#
# Compressibility (1/GPa) = 0.03942069
#
# Stress axis : x y z
#
# Youngs Moduli (GPa) = 67.93777 76.53435 114.33918
#
# Poissons Ratio (x) = -0.00057 -0.11216
# Poissons Ratio (y) = -0.00051 -0.05217
# Poissons Ratio (z) = -0.06664 -0.03492
#
# Static dielectric constant tensor:
#      x y z
#    x 2.023450 0.000000 0.000000 
#    y 0.000000 2.043900 0.000000 
#    z 0.000000 0.000000 2.043060 
# 
# From -- ./inp_files/10770.got.cif
#   From: 2010.05.17/outbox.cif.g08.bks.cpg/sg56_6_cif.got.tgz:10770.got - 2010.06.03 13:42:01.
