data_PCOD9433810
_publ_section_title
;
Structure prediction by ZEFSAII (Michael W. Deem and Ramdas Pophale) SiO2 
 PCOD9433810
Probable space group: P C C N
;
_chemical_formula_sum "Si O2"
_cell_formula_units_Z 40
_cell_length_a 7.355306
_cell_length_b 16.320352
_cell_length_c 13.148097
_cell_angle_alpha 90.000000
_cell_angle_beta 90.000000
_cell_angle_gamma 90.000000
_cell_volume 1578.313118
_symmetry_space_group_name_H-M "P C C N"
_symmetry_group_IT_number 56
_symmetry_cell_setting 'orthorhombic'
loop_
_space_group_symop_operation_xyz
x,y,z
1/2-x,1/2-y,z
1/2+x,-y,1/2-z
-x,1/2+y,1/2-z
-x,-y,-z
1/2+x,1/2+y,-z
1/2-x,y,1/2+z
x,1/2-y,1/2+z
loop_
_atom_site_type_symbol
_atom_site_label
_atom_site_fract_x
_atom_site_fract_y
_atom_site_fract_z
Si Si1 0.955969 0.027234 0.137965
Si Si2 0.690585 0.614303 0.572173
Si Si3 0.541135 0.701970 0.930839
Si Si4 0.250000 0.750000 0.091655
Si Si5 0.250000 0.250000 0.754990
Si Si6 0.321592 0.928051 0.142461
O O1 0.935514 0.117346 0.092067
O O2 0.918414 0.038083 0.257047
O O3 0.985123 0.083314 0.437106
O O4 0.154732 0.988050 0.121830
O O5 0.721173 0.672551 0.671507
O O6 0.771318 0.666191 0.478815
O O7 0.815771 0.536454 0.592210
O O8 0.581036 0.746724 0.824152
O O9 0.425142 0.746162 0.017559
O O10 0.249314 0.834504 0.153964
#
# Coordination Sequence:
#
# PCOD9433810 Si02
#       6
#     8   8   8   4   4   8
#     4  12  26  48  77 111 152 196 265 302 393 445
#     4  12  26  49  77 108 155 194 257 325 361 463
#     4  12  27  49  75 115 150 205 252 316 375 464
#     4  12  28  46  78 114 158 198 264 310 380 456
#     4  12  24  48  74 106 148 210 244 306 392 434
#     4  12  25  49  77 112 146 211 244 323 373 458
#
# _framework density 25.343515
#
# number of rings (size 3 to 8) (size 9 to 14) (size 15 to 20)
#    0.000    0.000    6.000    3.600    0.000    3.200 
#    3.600    0.000    0.000    0.000    0.000    0.000 
#    0.000    0.000    0.000    0.000    0.000    0.000 
#
# Total GULP energy -224194.882142 kJ/mol
# GULP energy per Si atom -5604.872054 kJ/mol
# Density = 2.528583 g / cm^3
# Si number density = 25.343515 Si / 1000 Ang^3
#
#
#
# Elastic Constant Matrix: (Units=GPa)
#
#
# Indices 1 2 3 4 5 6 
#
# 1 119.3904 31.5285 12.7213 0.0000 0.0000 0.0000
# 2 31.5285 134.7040 46.5540 0.0000 0.0000 0.0000
# 3 12.7213 46.5540 81.1078 0.0000 0.0000 0.0000
# 4 0.0000 0.0000 0.0000 1323.3839 0.0000 0.0000
# 5 0.0000 0.0000 0.0000 0.0000 15.6280 0.0000
# 6 0.0000 0.0000 0.0000 0.0000 0.0000 38.6187
#
#
#
# Elastic Compliance Matrix: (Units=1/GPa)
#
#
# Indices 1 2 3 4 5 6 
#
# 1 0.008932 -0.002004 -0.000251 0.000000 0.000000 0.000000
# 2 -0.002004 0.009710 -0.005259 0.000000 0.000000 0.000000
# 3 -0.000251 -0.005259 0.015387 0.000000 0.000000 0.000000
# 4 0.000000 0.000000 0.000000 0.000756 0.000000 0.000000
# 5 0.000000 0.000000 0.000000 0.000000 0.063988 0.000000
# 6 0.000000 0.000000 0.000000 0.000000 0.000000 0.025894
#
#
# Mechanical properties :
#
#
# Convention : Reuss Voigt Hill
#
# Bulk Modulus (GPa) = 52.62678 57.42331 55.02504
# Shear Modulus (GPa) = 34.23988 291.81933 163.02961
#
# Velocity S-wave (km/s) = 3.67963 10.74223 8.02917
# Velocity P-wave (km/s) = 6.23405 13.28789 10.37861
#
# Compressibility (1/GPa) = 0.01900173
#
# Stress axis : x y z
#
# Youngs Moduli (GPa) = 111.95970 102.98337 64.98886
#
# Poissons Ratio (x) = 0.20637 0.01629
# Poissons Ratio (y) = 0.22436 0.34179
# Poissons Ratio (z) = 0.02807 0.54161
#
# Static dielectric constant tensor:
#      x y z
#    x 2.053070 0.000000 0.000000 
#    y 0.000000 1.991540 0.000000 
#    z 0.000000 0.000000 1.955920 
# 
# From -- ./inp_files/6237.got.cif
#   From: 2010.05.17/outbox.cif.g08.bks.cpg/sg56_4_cif.got.tgz:6237.got - 2010.06.03 13:42:01.
