data_PCOD9433286
_publ_section_title
;
Structure prediction by ZEFSAII (Michael W. Deem and Ramdas Pophale) SiO2 
 PCOD9433286
Probable space group: P C C N
;
_chemical_formula_sum "Si O2"
_cell_formula_units_Z 28
_cell_length_a 12.591165
_cell_length_b 5.311948
_cell_length_c 18.293937
_cell_angle_alpha 90.000000
_cell_angle_beta 90.000000
_cell_angle_gamma 90.000000
_cell_volume 1223.564616
_symmetry_space_group_name_H-M "P C C N"
_symmetry_group_IT_number 56
_symmetry_cell_setting 'orthorhombic'
loop_
_space_group_symop_operation_xyz
x,y,z
1/2-x,1/2-y,z
1/2+x,-y,1/2-z
-x,1/2+y,1/2-z
-x,-y,-z
1/2+x,1/2+y,-z
1/2-x,y,1/2+z
x,1/2-y,1/2+z
loop_
_atom_site_type_symbol
_atom_site_label
_atom_site_fract_x
_atom_site_fract_y
_atom_site_fract_z
Si Si1 0.968673 0.185811 0.564744
Si Si2 0.824648 0.953658 0.982532
Si Si3 0.973825 0.100540 0.290461
Si Si4 0.250000 0.750000 0.146525
O O1 0.864527 0.337108 0.539871
O O2 0.066966 0.378762 0.559936
O O3 0.000000 0.000000 0.500000
O O4 0.970810 0.023561 0.638230
O O5 0.750000 0.750000 0.021768
O O6 0.753258 0.029380 0.913410
O O7 0.855536 0.200629 0.308156
O O8 0.031195 0.355985 0.262809
#
# Coordination Sequence:
#
# PCOD9433286 Si02
#       4
#     8   8   8   4
#     4  11  23  42  76 112 145 199 273 328 375 467
#     4  11  21  40  78 111 145 196 269 323 395 465
#     4  12  28  48  80 115 165 212 261 332 404 484
#     4  12  24  48  78 112 148 222 254 316 416 472
#
# _framework density 22.883959000000001
#
# number of rings (size 3 to 8) (size 9 to 14) (size 15 to 20)
#    0.000    0.571    5.714    1.714    4.000    0.000 
#    0.000    4.286    6.286    0.000    0.000    0.000 
#    0.000    0.000    0.000    0.000    0.000    0.000 
#
# Total GULP energy -156211.615710 kJ/mol
# GULP energy per Si atom -5578.986275 kJ/mol
# Density = 2.283187 g / cm^3
# Si number density = 22.883959 Si / 1000 Ang^3
#
#
#
# Elastic Constant Matrix: (Units=GPa)
#
#
# Indices 1 2 3 4 5 6 
#
# 1 111.8006 42.7250 39.8224 0.0000 0.0000 0.0000
# 2 42.7250 118.5965 38.0516 0.0000 0.0000 0.0000
# 3 39.8224 38.0516 88.8579 0.0000 0.0000 0.0000
# 4 0.0000 0.0000 0.0000 36.8098 0.0000 0.0000
# 5 0.0000 0.0000 0.0000 0.0000 29.8865 0.0000
# 6 0.0000 0.0000 0.0000 0.0000 0.0000 61.3323
#
#
#
# Elastic Compliance Matrix: (Units=1/GPa)
#
#
# Indices 1 2 3 4 5 6 
#
# 1 0.011427 -0.002868 -0.003893 0.000000 0.000000 0.000000
# 2 -0.002868 0.010495 -0.003209 0.000000 0.000000 0.000000
# 3 -0.003893 -0.003209 0.014373 0.000000 0.000000 0.000000
# 4 0.000000 0.000000 0.000000 0.027167 0.000000 0.000000
# 5 0.000000 0.000000 0.000000 0.000000 0.033460 0.000000
# 6 0.000000 0.000000 0.000000 0.000000 0.000000 0.016305
#
#
# Mechanical properties :
#
#
# Convention : Reuss Voigt Hill
#
# Bulk Modulus (GPa) = 61.14289 62.27255 61.70772
# Shear Modulus (GPa) = 36.07065 38.84945 37.46005
#
# Velocity S-wave (km/s) = 3.97450 4.12475 4.05032
# Velocity P-wave (km/s) = 6.91656 7.06797 6.99268
#
# Compressibility (1/GPa) = 0.01635513
#
# Stress axis : x y z
#
# Youngs Moduli (GPa) = 87.51171 95.28716 69.57558
#
# Poissons Ratio (x) = 0.27324 0.27087
# Poissons Ratio (y) = 0.25094 0.22327
# Poissons Ratio (z) = 0.34070 0.30578
#
# Static dielectric constant tensor:
#      x y z
#    x 1.893820 0.000000 0.000000 
#    y 0.000000 1.361900 0.000000 
#    z 0.000000 0.000000 1.831830 
# 
# From -- ./inp_files/13660.got.cif
#   From: 2010.05.17/outbox.cif.g08.bks.cpg/sg56_7_cif.got.tgz:13660.got - 2010.06.03 13:42:01.
