data_PCOD9433570
_publ_section_title
;
Structure prediction by ZEFSAII (Michael W. Deem and Ramdas Pophale) SiO2 
 PCOD9433570
Probable space group: P C C N
;
_chemical_formula_sum "Si O2"
_cell_formula_units_Z 40
_cell_length_a 25.049004
_cell_length_b 6.465301
_cell_length_c 10.911482
_cell_angle_alpha 90.000000
_cell_angle_beta 90.000000
_cell_angle_gamma 90.000000
_cell_volume 1767.107424
_symmetry_space_group_name_H-M "P C C N"
_symmetry_group_IT_number 56
_symmetry_cell_setting 'orthorhombic'
loop_
_space_group_symop_operation_xyz
x,y,z
1/2-x,1/2-y,z
1/2+x,-y,1/2-z
-x,1/2+y,1/2-z
-x,-y,-z
1/2+x,1/2+y,-z
1/2-x,y,1/2+z
x,1/2-y,1/2+z
loop_
_atom_site_type_symbol
_atom_site_label
_atom_site_fract_x
_atom_site_fract_y
_atom_site_fract_z
Si Si1 0.140640 0.401539 0.695506
Si Si2 0.308814 0.337198 0.461225
Si Si3 0.460107 0.626932 0.914253
Si Si4 0.951603 0.888648 0.336932
Si Si5 0.866624 0.204290 0.442945
O O1 0.169842 0.294027 0.578793
O O2 0.161357 0.329791 0.828985
O O3 0.079561 0.326369 0.685557
O O4 0.145800 0.646710 0.671365
O O5 0.250000 0.250000 0.439525
O O6 0.316982 0.576465 0.503944
O O7 0.458220 0.505557 0.788938
O O8 0.491002 0.841644 0.892680
O O9 0.500000 0.500000 0.000000
O O10 0.400294 0.654421 0.963371
O O11 0.910670 0.030509 0.411429
#
# Coordination Sequence:
#
# PCOD9433570 Si02
#       5
#     8   8   8   8   8
#     4  11  24  47  73 106 145 191 244 312 382 442
#     4  11  26  47  76 105 143 187 251 314 379 448
#     4  12  23  40  66 101 147 196 241 287 367 445
#     4  11  25  39  63 100 143 188 243 295 352 446
#     4  11  24  44  68 102 143 193 243 304 370 445
#
# _framework density 22.635860000000001
#
# number of rings (size 3 to 8) (size 9 to 14) (size 15 to 20)
#    0.000    0.800    2.000    4.800    5.600    2.400 
#    0.000    2.000    0.000    0.000    0.000    0.000 
#    0.000    0.000    0.000    0.000    0.000    0.000 
#
# Total GULP energy -223438.856402 kJ/mol
# GULP energy per Si atom -5585.971410 kJ/mol
# Density = 2.258434 g / cm^3
# Si number density = 22.635860 Si / 1000 Ang^3
#
#
#
# Elastic Constant Matrix: (Units=GPa)
#
#
# Indices 1 2 3 4 5 6 
#
# 1 61.8876 19.3795 16.0234 0.0000 0.0000 0.0000
# 2 19.3795 87.4391 25.0242 0.0000 0.0000 0.0000
# 3 16.0234 25.0242 95.5792 0.0000 0.0000 0.0000
# 4 0.0000 0.0000 0.0000 46.0136 0.0000 0.0000
# 5 0.0000 0.0000 0.0000 0.0000 33.7078 0.0000
# 6 0.0000 0.0000 0.0000 0.0000 0.0000 38.1566
#
#
#
# Elastic Compliance Matrix: (Units=1/GPa)
#
#
# Indices 1 2 3 4 5 6 
#
# 1 0.017746 -0.003331 -0.002103 0.000000 0.000000 0.000000
# 2 -0.003331 0.012988 -0.002842 0.000000 0.000000 0.000000
# 3 -0.002103 -0.002842 0.011559 0.000000 0.000000 0.000000
# 4 0.000000 0.000000 0.000000 0.021733 0.000000 0.000000
# 5 0.000000 0.000000 0.000000 0.000000 0.029667 0.000000
# 6 0.000000 0.000000 0.000000 0.000000 0.000000 0.026208
#
#
# Mechanical properties :
#
#
# Convention : Reuss Voigt Hill
#
# Bulk Modulus (GPa) = 38.84860 40.63999 39.74429
# Shear Modulus (GPa) = 34.47486 35.87419 35.17452
#
# Velocity S-wave (km/s) = 3.90682 3.98532 3.94627
# Velocity P-wave (km/s) = 6.12786 6.25858 6.19357
#
# Compressibility (1/GPa) = 0.02574096
#
# Stress axis : x y z
#
# Youngs Moduli (GPa) = 56.35094 76.99274 86.51152
#
# Poissons Ratio (x) = 0.25649 0.18192
# Poissons Ratio (y) = 0.18772 0.24587
# Poissons Ratio (z) = 0.11850 0.21882
#
# Static dielectric constant tensor:
#      x y z
#    x 1.828570 0.000000 0.000000 
#    y 0.000000 1.896660 0.000000 
#    z 0.000000 0.000000 1.857810 
# 
# From -- ./inp_files/5639.got.cif
#   From: 2010.05.17/outbox.cif.g08.bks.cpg/sg56_3_cif.got.tgz:5639.got - 2010.06.03 13:42:01.
