data_PCOD9433391
_publ_section_title
;
Structure prediction by ZEFSAII (Michael W. Deem and Ramdas Pophale) SiO2 
 PCOD9433391
Probable space group: P C C N
;
_chemical_formula_sum "Si O2"
_cell_formula_units_Z 60
_cell_length_a 7.487888
_cell_length_b 26.342099
_cell_length_c 14.074258
_cell_angle_alpha 90.000000
_cell_angle_beta 90.000000
_cell_angle_gamma 90.000000
_cell_volume 2776.100762
_symmetry_space_group_name_H-M "P C C N"
_symmetry_group_IT_number 56
_symmetry_cell_setting 'orthorhombic'
loop_
_space_group_symop_operation_xyz
x,y,z
1/2-x,1/2-y,z
1/2+x,-y,1/2-z
-x,1/2+y,1/2-z
-x,-y,-z
1/2+x,1/2+y,-z
1/2-x,y,1/2+z
x,1/2-y,1/2+z
loop_
_atom_site_type_symbol
_atom_site_label
_atom_site_fract_x
_atom_site_fract_y
_atom_site_fract_z
Si Si1 0.295252 0.488349 0.032277
Si Si2 0.341652 0.131578 0.793620
Si Si3 0.250000 0.750000 0.351717
Si Si4 0.302424 0.552006 0.367129
Si Si5 0.167815 0.026718 0.732302
Si Si6 0.212446 0.130639 0.509055
Si Si7 0.076060 0.849619 0.893669
Si Si8 0.611414 0.796900 0.819590
O O1 0.263093 0.498808 0.142163
O O2 0.500000 0.500000 0.000000
O O3 0.174916 0.523300 0.965986
O O4 0.231096 0.430015 0.022915
O O5 0.282101 0.073569 0.773766
O O6 0.372399 0.138655 0.905436
O O7 0.486381 0.146265 0.712447
O O8 0.180362 0.169037 0.766500
O O9 0.334716 0.795796 0.409473
O O10 0.417539 0.725507 0.298157
O O11 0.481626 0.549293 0.305455
O O12 0.160164 0.517614 0.309425
O O13 0.220762 0.606038 0.391397
O O14 0.420283 0.144685 0.528772
O O15 0.114896 0.164870 0.589319
O O16 0.750000 0.750000 0.836191
#
# Coordination Sequence:
#
# PCOD9433391 Si02
#       8
#     8   8   4   8   8   8   8   8
#     4  12  22  42  67  97 140 181 224 276 345 418
#     4  11  22  44  70 102 137 179 225 286 353 414
#     4  12  24  50  74  96 134 188 232 292 354 406
#     4  12  25  41  67 103 138 183 232 278 341 429
#     4  12  24  41  67  99 141 186 221 281 349 412
#     4  11  23  42  74 100 139 183 224 289 353 414
#     4  11  24  46  70 100 139 181 234 287 346 416
#     4  11  23  47  72  96 136 181 228 291 347 402
#
# _framework density 21.613047999999999
#
# number of rings (size 3 to 8) (size 9 to 14) (size 15 to 20)
#    0.000    0.533    8.000    2.800    0.000    0.533 
#    0.000    4.000    0.000    0.000    0.000    0.000 
#    0.000    0.000    0.000    0.000    0.000    0.000 
#
# Total GULP energy -335076.458726 kJ/mol
# GULP energy per Si atom -5584.607645 kJ/mol
# Density = 2.156386 g / cm^3
# Si number density = 21.613048 Si / 1000 Ang^3
#
#
#
# Elastic Constant Matrix: (Units=GPa)
#
#
# Indices 1 2 3 4 5 6 
#
# 1 76.5346 7.1290 -11.4591 0.0000 0.0000 0.0000
# 2 7.1290 121.9649 7.8616 0.0000 0.0000 0.0000
# 3 -11.4591 7.8616 89.4653 0.0000 0.0000 0.0000
# 4 0.0000 0.0000 0.0000 -0.2443 0.0000 0.0000
# 5 0.0000 0.0000 0.0000 0.0000 17.2395 0.0000
# 6 0.0000 0.0000 0.0000 0.0000 0.0000 35.0296
#
#
#
# Elastic Compliance Matrix: (Units=1/GPa)
#
#
# Indices 1 2 3 4 5 6 
#
# 1 0.013419 -0.000900 0.001798 0.000000 0.000000 0.000000
# 2 -0.000900 0.008306 -0.000845 0.000000 0.000000 0.000000
# 3 0.001798 -0.000845 0.011482 0.000000 0.000000 0.000000
# 4 0.000000 0.000000 0.000000 -4.092690 0.000000 0.000000
# 5 0.000000 0.000000 0.000000 0.000000 0.058006 0.000000
# 6 0.000000 0.000000 0.000000 0.000000 0.000000 0.028547
#
#
# Mechanical properties :
#
#
# Convention : Reuss Voigt Hill
#
# Bulk Modulus (GPa) = 30.01909 32.78086 31.39998
# Shear Modulus (GPa) = -1.26201 29.36718 14.05258
#
# Velocity S-wave (km/s) = -0.76497 3.69015 2.55265
# Velocity P-wave (km/s) = 3.62481 5.77550 4.82160
#
# Compressibility (1/GPa) = 0.03331214
#
# Stress axis : x y z
#
# Youngs Moduli (GPa) = 74.52103 120.39230 87.09235
#
# Poissons Ratio (x) = 0.10838 -0.15658
# Poissons Ratio (y) = 0.06709 0.07361
# Poissons Ratio (z) = -0.13398 0.10176
#
# Static dielectric constant tensor:
#      x y z
#    x 1.888480 0.000000 0.000000 
#    y 0.000000 1.797880 0.000000 
#    z 0.000000 0.000000 1.757840 
# 
# From -- ./inp_files/10990.got.cif
#   From: 2010.05.17/outbox.cif.g08.bks.cpg/sg56_6_cif.got.tgz:10990.got - 2010.06.03 13:42:01.
