data_PCOD9433374
_publ_section_title
;
Structure prediction by ZEFSAII (Michael W. Deem and Ramdas Pophale) SiO2 
 PCOD9433374
Probable space group: P C C N
;
_chemical_formula_sum "Si O2"
_cell_formula_units_Z 40
_cell_length_a 15.656385
_cell_length_b 7.504258
_cell_length_c 17.272954
_cell_angle_alpha 90.000000
_cell_angle_beta 90.000000
_cell_angle_gamma 90.000000
_cell_volume 2029.391634
_symmetry_space_group_name_H-M "P C C N"
_symmetry_group_IT_number 56
_symmetry_cell_setting 'orthorhombic'
loop_
_space_group_symop_operation_xyz
x,y,z
1/2-x,1/2-y,z
1/2+x,-y,1/2-z
-x,1/2+y,1/2-z
-x,-y,-z
1/2+x,1/2+y,-z
1/2-x,y,1/2+z
x,1/2-y,1/2+z
loop_
_atom_site_type_symbol
_atom_site_label
_atom_site_fract_x
_atom_site_fract_y
_atom_site_fract_z
Si Si1 0.655028 0.829446 0.481926
Si Si2 0.066777 0.628010 0.825786
Si Si3 0.558194 0.960255 0.333087
Si Si4 0.001037 0.305471 0.923736
Si Si5 0.655496 0.222902 0.532169
O O1 0.750000 0.750000 0.484389
O O2 0.625492 0.884091 0.395458
O O3 0.583119 0.705254 0.520194
O O4 0.646662 0.010456 0.531573
O O5 0.096488 0.542436 0.745272
O O6 0.012214 0.475400 0.869395
O O7 0.140960 0.690200 0.884152
O O8 0.006854 0.800320 0.813878
O O9 0.508712 0.124084 0.374105
O O10 0.917017 0.302605 0.976801
O O11 0.750000 0.250000 0.500811
#
# Coordination Sequence:
#
# PCOD9433374 Si02
#       5
#     8   8   8   8   8
#     4  11  23  43  67  97 131 169 222 273 317 384
#     4  12  22  41  67  96 132 174 214 267 330 388
#     4  11  23  41  64  98 133 172 216 264 331 392
#     4  11  22  42  70  94 128 172 218 270 319 383
#     4  11  23  40  67 101 126 167 220 269 322 383
#
# _framework density 19.710339999999999
#
# number of rings (size 3 to 8) (size 9 to 14) (size 15 to 20)
#    0.000    0.800    6.000    3.000    2.800    0.000 
#    0.000    9.000    0.000    0.000    0.000    0.000 
#    0.000    0.000    0.000    0.000    0.000    0.000 
#
# Total GULP energy -223445.490991 kJ/mol
# GULP energy per Si atom -5586.137275 kJ/mol
# Density = 1.966548 g / cm^3
# Si number density = 19.710340 Si / 1000 Ang^3
#
#
#
# Elastic Constant Matrix: (Units=GPa)
#
#
# Indices 1 2 3 4 5 6 
#
# 1 98.6447 19.2368 34.8299 0.0000 0.0000 0.0000
# 2 19.2368 115.6168 42.4949 0.0000 0.0000 0.0000
# 3 34.8299 42.4949 126.9824 0.0000 0.0000 0.0000
# 4 0.0000 0.0000 0.0000 -1.8796 0.0000 0.0000
# 5 0.0000 0.0000 0.0000 0.0000 19.5489 0.0000
# 6 0.0000 0.0000 0.0000 0.0000 0.0000 26.7585
#
#
#
# Elastic Compliance Matrix: (Units=1/GPa)
#
#
# Indices 1 2 3 4 5 6 
#
# 1 0.011296 -0.000845 -0.002816 0.000000 0.000000 0.000000
# 2 -0.000845 0.009925 -0.003090 0.000000 0.000000 0.000000
# 3 -0.002816 -0.003090 0.009682 0.000000 0.000000 0.000000
# 4 0.000000 0.000000 0.000000 -0.532015 0.000000 0.000000
# 5 0.000000 0.000000 0.000000 0.000000 0.051154 0.000000
# 6 0.000000 0.000000 0.000000 0.000000 0.000000 0.037371
#
#
# Mechanical properties :
#
#
# Convention : Reuss Voigt Hill
#
# Bulk Modulus (GPa) = 57.46244 59.37412 58.41828
# Shear Modulus (GPa) = -12.71341 25.19771 6.24215
#
# Velocity S-wave (km/s) = -2.54246 3.57935 1.78152
# Velocity P-wave (km/s) = 4.53849 6.87540 5.82533
#
# Compressibility (1/GPa) = 0.01740267
#
# Stress axis : x y z
#
# Youngs Moduli (GPa) = 88.52449 100.75070 103.28974
#
# Poissons Ratio (x) = 0.08509 0.29084
# Poissons Ratio (y) = 0.07477 0.31916
# Poissons Ratio (z) = 0.24927 0.31131
#
# Static dielectric constant tensor:
#      x y z
#    x 1.696510 0.000000 0.000000 
#    y 0.000000 1.751210 0.000000 
#    z 0.000000 0.000000 1.707090 
# 
# From -- ./inp_files/14617.got.cif
#   From: 2010.05.17/outbox.cif.g08.bks.cpg/sg56_8_cif.got.tgz:14617.got - 2010.06.03 13:42:01.
