data_PCOD9433285
_publ_section_title
;
Structure prediction by ZEFSAII (Michael W. Deem and Ramdas Pophale) SiO2 
 PCOD9433285
Probable space group: P C C N
;
_chemical_formula_sum "Si O2"
_cell_formula_units_Z 44
_cell_length_a 5.190419
_cell_length_b 12.938121
_cell_length_c 27.573958
_cell_angle_alpha 90.000000
_cell_angle_beta 90.000000
_cell_angle_gamma 90.000000
_cell_volume 1851.708995
_symmetry_space_group_name_H-M "P C C N"
_symmetry_group_IT_number 56
_symmetry_cell_setting 'orthorhombic'
loop_
_space_group_symop_operation_xyz
x,y,z
1/2-x,1/2-y,z
1/2+x,-y,1/2-z
-x,1/2+y,1/2-z
-x,-y,-z
1/2+x,1/2+y,-z
1/2-x,y,1/2+z
x,1/2-y,1/2+z
loop_
_atom_site_type_symbol
_atom_site_label
_atom_site_fract_x
_atom_site_fract_y
_atom_site_fract_z
Si Si1 0.480480 0.058884 0.433527
Si Si2 0.607993 0.842232 0.850934
Si Si3 0.250000 0.250000 0.987524
Si Si4 0.041235 0.494933 0.323518
Si Si5 0.493828 0.924947 0.945870
Si Si6 0.370541 0.846166 0.758808
O O1 0.432736 0.173149 0.455630
O O2 0.408313 0.056191 0.375948
O O3 0.761883 0.003636 0.438166
O O4 0.264200 0.986526 0.459662
O O5 0.750000 0.750000 0.878542
O O6 0.420452 0.882079 0.892320
O O7 0.512140 0.787927 0.802497
O O8 0.786667 0.935981 0.833259
O O9 0.419668 0.169855 0.020003
O O10 0.231082 0.571491 0.294290
O O11 0.007199 0.408821 0.282730
O O12 0.250000 0.750000 0.731211
#
# Coordination Sequence:
#
# PCOD9433285 Si02
#       6
#     8   8   4   8   8   8
#     4  11  27  48  72 107 148 185 237 296 358 426
#     4  11  21  40  66 100 130 179 238 294 339 412
#     4  12  26  50  76 108 144 186 234 300 366 426
#     4  11  24  43  64 100 145 181 230 293 347 421
#     4  11  25  46  76 105 140 186 241 291 354 427
#     4  12  23  40  70  98 136 187 236 284 353 416
#
# _framework density 23.761832999999999
#
# number of rings (size 3 to 8) (size 9 to 14) (size 15 to 20)
#    0.000    0.727    6.364    1.091    0.000    2.909 
#   11.455    0.000    0.000    0.000    0.000    0.000 
#    0.000    0.000    0.000    0.000    0.000    0.000 
#
# Total GULP energy -245180.107911 kJ/mol
# GULP energy per Si atom -5572.275180 kJ/mol
# Density = 2.370775 g / cm^3
# Si number density = 23.761833 Si / 1000 Ang^3
#
#
#
# Elastic Constant Matrix: (Units=GPa)
#
#
# Indices 1 2 3 4 5 6 
#
# 1 56.0575 8.5889 -16.7266 0.0000 0.0000 0.0000
# 2 8.5889 103.0212 20.7023 0.0000 0.0000 0.0000
# 3 -16.7266 20.7023 133.0214 0.0000 0.0000 0.0000
# 4 0.0000 0.0000 0.0000 31.3291 0.0000 0.0000
# 5 0.0000 0.0000 0.0000 0.0000 -40.9185 0.0000
# 6 0.0000 0.0000 0.0000 0.0000 0.0000 37.4260
#
#
#
# Elastic Compliance Matrix: (Units=1/GPa)
#
#
# Indices 1 2 3 4 5 6 
#
# 1 0.018976 -0.002128 0.002717 0.000000 0.000000 0.000000
# 2 -0.002128 0.010259 -0.001864 0.000000 0.000000 0.000000
# 3 0.002717 -0.001864 0.008149 0.000000 0.000000 0.000000
# 4 0.000000 0.000000 0.000000 0.031919 0.000000 0.000000
# 5 0.000000 0.000000 0.000000 0.000000 -0.024439 0.000000
# 6 0.000000 0.000000 0.000000 0.000000 0.000000 0.026719
#
#
# Mechanical properties :
#
#
# Convention : Reuss Voigt Hill
#
# Bulk Modulus (GPa) = 28.70768 35.24770 31.97769
# Shear Modulus (GPa) = 58.31257 24.20301 41.25779
#
# Velocity S-wave (km/s) = 4.95920 3.19496 4.17142
# Velocity P-wave (km/s) = 6.70069 5.33632 6.05704
#
# Compressibility (1/GPa) = 0.03483389
#
# Stress axis : x y z
#
# Youngs Moduli (GPa) = 52.69914 97.47762 122.70855
#
# Poissons Ratio (x) = 0.20744 -0.33343
# Poissons Ratio (y) = 0.11215 0.22875
# Poissons Ratio (z) = -0.14320 0.18172
#
# Static dielectric constant tensor:
#      x y z
#    x 2.346080 0.000000 0.000000 
#    y 0.000000 1.886190 0.000000 
#    z 0.000000 0.000000 1.881420 
# 
# From -- ./inp_files/21637.got.cif
#   From: 2010.05.17/outbox.cif.g08.bks.cpg/sg56_11_cif.got.tgz:21637.got - 2010.06.03 13:42:01.
