data_PCOD9433865
_publ_section_title
;
Structure prediction by ZEFSAII (Michael W. Deem and Ramdas Pophale) SiO2 
 PCOD9433865
Probable space group: P C C N
;
_chemical_formula_sum "Si O2"
_cell_formula_units_Z 40
_cell_length_a 15.199621
_cell_length_b 6.235302
_cell_length_c 16.779374
_cell_angle_alpha 90.000000
_cell_angle_beta 90.000000
_cell_angle_gamma 90.000000
_cell_volume 1590.252204
_symmetry_space_group_name_H-M "P C C N"
_symmetry_group_IT_number 56
_symmetry_cell_setting 'orthorhombic'
loop_
_space_group_symop_operation_xyz
x,y,z
1/2-x,1/2-y,z
1/2+x,-y,1/2-z
-x,1/2+y,1/2-z
-x,-y,-z
1/2+x,1/2+y,-z
1/2-x,y,1/2+z
x,1/2-y,1/2+z
loop_
_atom_site_type_symbol
_atom_site_label
_atom_site_fract_x
_atom_site_fract_y
_atom_site_fract_z
Si Si1 0.032293 0.461837 0.146568
Si Si2 0.118843 0.114018 0.239085
Si Si3 0.731748 0.512954 0.133106
Si Si4 0.347637 0.810860 0.593301
Si Si5 0.073409 0.593154 0.440723
O O1 0.108052 0.342756 0.196876
O O2 0.084328 0.615997 0.087788
O O3 0.966915 0.578271 0.207014
O O4 0.970783 0.300892 0.097231
O O5 0.204402 0.053812 0.290611
O O6 0.115343 0.958976 0.162560
O O7 0.750000 0.750000 0.089384
O O8 0.875316 0.981493 0.132392
O O9 0.750000 0.250000 0.119397
O O10 0.250000 0.750000 0.616309
O O11 0.346439 0.903165 0.504544
O O12 0.000000 0.500000 0.500000
#
# Coordination Sequence:
#
# PCOD9433865 Si02
#       5
#     8   8   8   8   8
#     4  12  27  50  84 114 160 220 277 353 424 512
#     4  12  27  47  81 115 163 209 284 340 425 502
#     4  12  30  51  85 123 168 223 277 348 429 497
#     4  12  29  49  77 117 159 208 283 344 424 506
#     4  12  28  54  79 117 161 221 278 347 426 515
#
# _framework density 25.153244000000001
#
# number of rings (size 3 to 8) (size 9 to 14) (size 15 to 20)
#    0.000    0.000    6.000    1.800   11.200    3.200 
#    0.000    0.000    0.000    0.000    0.000    0.000 
#    0.000    0.000    0.000    0.000    0.000    0.000 
#
# Total GULP energy -222904.134634 kJ/mol
# GULP energy per Si atom -5572.603366 kJ/mol
# Density = 2.509599 g / cm^3
# Si number density = 25.153244 Si / 1000 Ang^3
#
#
#
# Elastic Constant Matrix: (Units=GPa)
#
#
# Indices 1 2 3 4 5 6 
#
# 1 104.6872 43.0218 28.0109 0.0000 0.0000 0.0000
# 2 43.0218 120.0993 17.1825 0.0000 0.0000 0.0000
# 3 28.0109 17.1825 71.3624 0.0000 0.0000 0.0000
# 4 0.0000 0.0000 0.0000 34.6680 0.0000 0.0000
# 5 0.0000 0.0000 0.0000 0.0000 46.9977 0.0000
# 6 0.0000 0.0000 0.0000 0.0000 0.0000 49.9056
#
#
#
# Elastic Compliance Matrix: (Units=1/GPa)
#
#
# Indices 1 2 3 4 5 6 
#
# 1 0.012144 -0.003799 -0.003852 0.000000 0.000000 0.000000
# 2 -0.003799 0.009812 -0.000871 0.000000 0.000000 0.000000
# 3 -0.003852 -0.000871 0.015735 0.000000 0.000000 0.000000
# 4 0.000000 0.000000 0.000000 0.028845 0.000000 0.000000
# 5 0.000000 0.000000 0.000000 0.000000 0.021278 0.000000
# 6 0.000000 0.000000 0.000000 0.000000 0.000000 0.020038
#
#
# Mechanical properties :
#
#
# Convention : Reuss Voigt Hill
#
# Bulk Modulus (GPa) = 48.43552 52.50881 50.47217
# Shear Modulus (GPa) = 37.94244 40.17651 39.05947
#
# Velocity S-wave (km/s) = 3.88809 4.00092 3.94491
# Velocity P-wave (km/s) = 6.28127 6.50108 6.39212
#
# Compressibility (1/GPa) = 0.02064600
#
# Stress axis : x y z
#
# Youngs Moduli (GPa) = 82.34352 101.91570 63.55356
#
# Poissons Ratio (x) = 0.38720 0.24481
# Poissons Ratio (y) = 0.31284 0.05537
# Poissons Ratio (z) = 0.31719 0.08880
#
# Static dielectric constant tensor:
#      x y z
#    x 2.007970 0.000000 0.000000 
#    y 0.000000 2.384460 0.000000 
#    z 0.000000 0.000000 2.006730 
# 
# From -- ./inp_files/16451.got.cif
#   From: 2010.05.17/outbox.cif.g08.bks.cpg/sg56_9_cif.got.tgz:16451.got - 2010.06.03 13:42:01.
