data_PCOD9433905
_publ_section_title
;
Structure prediction by ZEFSAII (Michael W. Deem and Ramdas Pophale) SiO2 
 PCOD9433905
Probable space group: P C C N
;
_chemical_formula_sum "Si O2"
_cell_formula_units_Z 60
_cell_length_a 12.000000
_cell_length_b 9.000000
_cell_length_c 27.000000
_cell_angle_alpha 90.000000
_cell_angle_beta 90.000000
_cell_angle_gamma 90.000000
_cell_volume 2916.000000
_symmetry_space_group_name_H-M "P C C N"
_symmetry_group_IT_number 56
_symmetry_cell_setting 'orthorhombic'
loop_
_space_group_symop_operation_xyz
x,y,z
1/2-x,1/2-y,z
1/2+x,-y,1/2-z
-x,1/2+y,1/2-z
-x,-y,-z
1/2+x,1/2+y,-z
1/2-x,y,1/2+z
x,1/2-y,1/2+z
loop_
_atom_site_type_symbol
_atom_site_label
_atom_site_fract_x
_atom_site_fract_y
_atom_site_fract_z
Si Si1 0.072093 0.643244 0.344913
Si Si2 0.614920 0.771199 0.201978
Si Si3 0.750000 0.250000 0.736959
Si Si4 0.427382 0.899129 0.924858
Si Si5 0.873971 0.313170 0.487001
Si Si6 0.029934 0.216631 0.409611
Si Si7 0.180563 0.458747 0.433673
Si Si8 0.064182 0.962471 0.226790
O O1 0.162280 0.670118 0.300819
O O2 0.058714 0.795284 0.376455
O O3 0.119445 0.528710 0.385435
O O4 0.963401 0.569578 0.319893
O O5 0.750000 0.750000 0.199273
O O6 0.558008 0.777127 0.148106
O O7 0.546864 0.640568 0.230248
O O8 0.585898 0.925527 0.228226
O O9 0.827539 0.143989 0.770858
O O10 0.436081 0.796627 0.973531
O O11 0.500476 0.047158 0.923286
O O12 0.304059 0.974128 0.926117
O O13 0.750000 0.250000 0.481557
O O14 0.864111 0.467699 0.515896
O O15 0.933959 0.315035 0.434429
O O16 0.140718 0.288859 0.433880
#
# Coordination Sequence:
#
# PCOD9433905 Si02
#       8
#     8   8   4   8   8   8   8   8
#     4  11  20  41  65  95 127 173 225 269 338 401
#     4  12  27  45  67 103 134 171 237 283 334 410
#     4  12  22  42  68  92 138 180 220 284 338 408
#     4  10  20  36  66  95 130 169 215 278 335 393
#     4   9  21  40  58  89 135 174 213 265 338 408
#     4  12  22  36  63  99 128 168 225 279 326 399
#     4  10  19  36  64  95 124 169 216 273 326 394
#     4  12  26  43  68  97 136 179 223 285 349 395
#
# _framework density 20.576132000000001
#
# number of rings (size 3 to 8) (size 9 to 14) (size 15 to 20)
#    0.000    1.067    4.000    4.400    0.000    0.000 
#    1.200    0.000    0.000    0.000    0.000    0.000 
#    0.000    0.000    0.000    0.000    0.000    0.000 
#
# Total GULP energy -334754.313191 kJ/mol
# GULP energy per Si atom -5579.238553 kJ/mol
# Density = 2.052930 g / cm^3
# Si number density = 20.576132 Si / 1000 Ang^3
#
#
#
# Elastic Constant Matrix: (Units=GPa)
#
#
# Indices 1 2 3 4 5 6 
#
# 1 70.1754 22.9880 55.5424 0.0000 0.0000 0.0000
# 2 22.9880 104.9132 27.2093 0.0000 0.0000 0.0000
# 3 55.5424 27.2093 93.1625 0.0000 0.0000 0.0000
# 4 0.0000 0.0000 0.0000 13.7484 0.0000 0.0000
# 5 0.0000 0.0000 0.0000 0.0000 26.4140 0.0000
# 6 0.0000 0.0000 0.0000 0.0000 0.0000 36.8854
#
#
#
# Elastic Compliance Matrix: (Units=1/GPa)
#
#
# Indices 1 2 3 4 5 6 
#
# 1 0.027330 -0.001907 -0.015737 0.000000 0.000000 0.000000
# 2 -0.001907 0.010446 -0.001914 0.000000 0.000000 0.000000
# 3 -0.015737 -0.001914 0.020675 0.000000 0.000000 0.000000
# 4 0.000000 0.000000 0.000000 0.072736 0.000000 0.000000
# 5 0.000000 0.000000 0.000000 0.000000 0.037859 0.000000
# 6 0.000000 0.000000 0.000000 0.000000 0.000000 0.027111
#
#
# Mechanical properties :
#
#
# Convention : Reuss Voigt Hill
#
# Bulk Modulus (GPa) = 51.71862 53.30338 52.51100
# Shear Modulus (GPa) = 20.68528 26.24365 23.46446
#
# Velocity S-wave (km/s) = 3.17409 3.57521 3.38060
# Velocity P-wave (km/s) = 6.21474 6.55778 6.38856
#
# Compressibility (1/GPa) = 0.01933540
#
# Stress axis : x y z
#
# Youngs Moduli (GPa) = 36.58959 95.73116 48.36736
#
# Poissons Ratio (x) = 0.18256 0.76115
# Poissons Ratio (y) = 0.06978 0.09257
# Poissons Ratio (z) = 0.57581 0.18322
#
# Static dielectric constant tensor:
#      x y z
#    x 1.759920 0.000000 0.000000 
#    y 0.000000 1.806350 0.000000 
#    z 0.000000 0.000000 1.726960 
# 
# From -- ./inp_files/22308.got.cif
#   From: 2010.05.17/outbox.ucp.g08.bks.cvg/sg56_12_cif.got.tgz:22308.got - 2010.06.11 16:37:52.
