data_PCOD9433164
_publ_section_title
;
Structure prediction by ZEFSAII (Michael W. Deem and Ramdas Pophale) SiO2 
 PCOD9433164
Probable space group: P C C N
;
_chemical_formula_sum "Si O2"
_cell_formula_units_Z 12
_cell_length_a 4.787833
_cell_length_b 7.878056
_cell_length_c 11.236440
_cell_angle_alpha 90.000000
_cell_angle_beta 90.000000
_cell_angle_gamma 90.000000
_cell_volume 423.825218
_symmetry_space_group_name_H-M "P C C N"
_symmetry_group_IT_number 56
_symmetry_cell_setting 'orthorhombic'
loop_
_space_group_symop_operation_xyz
x,y,z
1/2-x,1/2-y,z
1/2+x,-y,1/2-z
-x,1/2+y,1/2-z
-x,-y,-z
1/2+x,1/2+y,-z
1/2-x,y,1/2+z
x,1/2-y,1/2+z
loop_
_atom_site_type_symbol
_atom_site_label
_atom_site_fract_x
_atom_site_fract_y
_atom_site_fract_z
Si Si1 0.250000 0.250000 0.513524
Si Si2 0.351237 0.964765 0.330889
O O1 0.289395 0.408422 0.425636
O O2 0.497069 0.187405 0.598942
O O3 0.617833 0.059420 0.270100
#
# Coordination Sequence:
#
# PCOD9433164 Si02
#       2
#     4   8
#     4  10  26  48  76 112 152 200 254 314 380 454
#     4  11  26  47  78 112 154 199 254 313 382 454
#
# _framework density 28.313562000000001
#
# number of rings (size 3 to 8) (size 9 to 14) (size 15 to 20)
#    0.000    1.333    0.000    2.000    0.000   26.667 
#    0.000    0.000    0.000    0.000    0.000    0.000 
#    0.000    0.000    0.000    0.000    0.000    0.000 
#
# Total GULP energy -67302.229214 kJ/mol
# GULP energy per Si atom -5608.519101 kJ/mol
# Density = 2.824912 g / cm^3
# Si number density = 28.313562 Si / 1000 Ang^3
#
#
#
# Elastic Constant Matrix: (Units=GPa)
#
#
# Indices 1 2 3 4 5 6 
#
# 1 154.4543 97.2160 116.6892 0.0000 0.0000 0.0000
# 2 97.2160 159.3159 85.8689 0.0000 0.0000 0.0000
# 3 116.6892 85.8689 176.3933 0.0000 0.0000 0.0000
# 4 0.0000 0.0000 0.0000 55.5074 0.0000 0.0000
# 5 0.0000 0.0000 0.0000 0.0000 63.9986 0.0000
# 6 0.0000 0.0000 0.0000 0.0000 0.0000 58.1910
#
#
#
# Elastic Compliance Matrix: (Units=1/GPa)
#
#
# Indices 1 2 3 4 5 6 
#
# 1 0.015782 -0.005427 -0.007798 0.000000 0.000000 0.000000
# 2 -0.005427 0.010376 -0.001461 0.000000 0.000000 0.000000
# 3 -0.007798 -0.001461 0.011539 0.000000 0.000000 0.000000
# 4 0.000000 0.000000 0.000000 0.018016 0.000000 0.000000
# 5 0.000000 0.000000 0.000000 0.000000 0.015625 0.000000
# 6 0.000000 0.000000 0.000000 0.000000 0.000000 0.017185
#
#
# Mechanical properties :
#
#
# Convention : Reuss Voigt Hill
#
# Bulk Modulus (GPa) = 120.12795 121.07908 120.60351
# Shear Modulus (GPa) = 41.43554 48.23202 44.83378
#
# Velocity S-wave (km/s) = 3.82966 4.13182 3.98361
# Velocity P-wave (km/s) = 7.87876 8.10056 7.99043
#
# Compressibility (1/GPa) = 0.00832446
#
# Stress axis : x y z
#
# Youngs Moduli (GPa) = 63.36432 96.37749 86.66267
#
# Poissons Ratio (x) = 0.52305 0.67581
# Poissons Ratio (y) = 0.34388 0.12660
# Poissons Ratio (z) = 0.49412 0.14079
#
# Static dielectric constant tensor:
#      x y z
#    x 2.130380 0.000000 0.000000 
#    y 0.000000 2.509360 0.000000 
#    z 0.000000 0.000000 2.112880 
# 
# From -- ./inp_files/5243.got.cif
#   From: 2010.05.17/outbox.cif.g08.bks.cpg/sg56_3_cif.got.tgz:5243.got - 2010.06.03 13:42:01.
