data_PCOD9433254
_publ_section_title
;
Structure prediction by ZEFSAII (Michael W. Deem and Ramdas Pophale) SiO2 
 PCOD9433254
Probable space group: P C C N
;
_chemical_formula_sum "Si O2"
_cell_formula_units_Z 32
_cell_length_a 4.953161
_cell_length_b 16.280339
_cell_length_c 21.387800
_cell_angle_alpha 90.000000
_cell_angle_beta 90.000000
_cell_angle_gamma 90.000000
_cell_volume 1724.693803
_symmetry_space_group_name_H-M "P C C N"
_symmetry_group_IT_number 56
_symmetry_cell_setting 'orthorhombic'
loop_
_space_group_symop_operation_xyz
x,y,z
1/2-x,1/2-y,z
1/2+x,-y,1/2-z
-x,1/2+y,1/2-z
-x,-y,-z
1/2+x,1/2+y,-z
1/2-x,y,1/2+z
x,1/2-y,1/2+z
loop_
_atom_site_type_symbol
_atom_site_label
_atom_site_fract_x
_atom_site_fract_y
_atom_site_fract_z
Si Si1 0.827400 0.480999 0.077034
Si Si2 0.018331 0.803579 0.151475
Si Si3 0.369587 0.020659 0.290471
Si Si4 0.172298 0.586749 0.542675
O O1 0.733943 0.472525 0.147955
O O2 0.628873 0.550122 0.047034
O O3 0.124654 0.519745 0.073614
O O4 0.777691 0.406868 0.028441
O O5 0.750000 0.750000 0.141425
O O6 0.939443 0.886929 0.187602
O O7 0.250000 0.750000 0.184630
O O8 0.156869 0.835179 0.087161
O O9 0.632086 0.980741 0.260022
#
# Coordination Sequence:
#
# PCOD9433254 Si02
#       4
#     8   8   8   8
#     4   9  17  31  52  78 102 130 172 223 265 310
#     4  11  21  35  55  80 109 141 182 236 289 329
#     4  11  21  35  55  81 110 148 193 224 260 328
#     4   9  17  31  52  77 103 129 167 220 278 320
#
# _framework density 18.554019
#
# number of rings (size 3 to 8) (size 9 to 14) (size 15 to 20)
#    0.000    2.000    0.000    7.500    0.000    0.000 
#    0.000    0.000    0.000    9.000    0.000    0.000 
#    0.000    0.000    0.000    0.000    0.000    0.000 
#
# Total GULP energy -178296.506580 kJ/mol
# GULP energy per Si atom -5571.765831 kJ/mol
# Density = 1.851179 g / cm^3
# Si number density = 18.554019 Si / 1000 Ang^3
#
#
#
# Elastic Constant Matrix: (Units=GPa)
#
#
# Indices 1 2 3 4 5 6 
#
# 1 111.7628 36.3310 31.5652 0.0000 0.0000 0.0000
# 2 36.3310 65.7396 61.0627 0.0000 0.0000 0.0000
# 3 31.5652 61.0627 104.0263 0.0000 0.0000 0.0000
# 4 0.0000 0.0000 0.0000 9.8777 0.0000 0.0000
# 5 0.0000 0.0000 0.0000 0.0000 31.8933 0.0000
# 6 0.0000 0.0000 0.0000 0.0000 0.0000 29.9757
#
#
#
# Elastic Compliance Matrix: (Units=1/GPa)
#
#
# Indices 1 2 3 4 5 6 
#
# 1 0.010919 -0.006502 0.000503 0.000000 0.000000 0.000000
# 2 -0.006502 0.037321 -0.019934 0.000000 0.000000 0.000000
# 3 0.000503 -0.019934 0.021161 0.000000 0.000000 0.000000
# 4 0.000000 0.000000 0.000000 0.101238 0.000000 0.000000
# 5 0.000000 0.000000 0.000000 0.000000 0.031355 0.000000
# 6 0.000000 0.000000 0.000000 0.000000 0.000000 0.033360
#
#
# Mechanical properties :
#
#
# Convention : Reuss Voigt Hill
#
# Bulk Modulus (GPa) = 57.02620 59.93849 58.48235
# Shear Modulus (GPa) = 17.06109 24.52066 20.79088
#
# Velocity S-wave (km/s) = 3.03568 3.63930 3.35111
# Velocity P-wave (km/s) = 6.56423 7.07350 6.82361
#
# Compressibility (1/GPa) = 0.01753580
#
# Stress axis : x y z
#
# Youngs Moduli (GPa) = 91.58381 26.79472 47.25596
#
# Poissons Ratio (x) = 0.17422 -0.02379
# Poissons Ratio (y) = 0.59548 0.94200
# Poissons Ratio (z) = -0.04611 0.53413
#
# Static dielectric constant tensor:
#      x y z
#    x 1.653380 0.000000 0.000000 
#    y 0.000000 1.706090 0.000000 
#    z 0.000000 0.000000 1.718880 
# 
# From -- ./inp_files/17324.got.cif
#   From: 2010.05.17/outbox.cif.g08.bks.cpg/sg56_9_cif.got.tgz:17324.got - 2010.06.03 13:42:01.
