data_PCOD9433344
_publ_section_title
;
Structure prediction by ZEFSAII (Michael W. Deem and Ramdas Pophale) SiO2 
 PCOD9433344
Probable space group: P C C N
;
_chemical_formula_sum "Si O2"
_cell_formula_units_Z 60
_cell_length_a 15.237283
_cell_length_b 12.301716
_cell_length_c 12.982719
_cell_angle_alpha 90.000000
_cell_angle_beta 90.000000
_cell_angle_gamma 90.000000
_cell_volume 2433.542233
_symmetry_space_group_name_H-M "P C C N"
_symmetry_group_IT_number 56
_symmetry_cell_setting 'orthorhombic'
loop_
_space_group_symop_operation_xyz
x,y,z
1/2-x,1/2-y,z
1/2+x,-y,1/2-z
-x,1/2+y,1/2-z
-x,-y,-z
1/2+x,1/2+y,-z
1/2-x,y,1/2+z
x,1/2-y,1/2+z
loop_
_atom_site_type_symbol
_atom_site_label
_atom_site_fract_x
_atom_site_fract_y
_atom_site_fract_z
Si Si1 0.240640 0.442404 0.431569
Si Si2 0.250000 0.250000 0.292256
Si Si3 0.354390 0.729474 0.502923
Si Si4 0.388917 0.945747 0.590118
Si Si5 0.074441 0.336833 0.680826
Si Si6 0.546241 0.405698 0.360202
Si Si7 0.582491 0.877791 0.947080
Si Si8 0.308821 0.643514 0.300454
O O1 0.206158 0.340614 0.365804
O O2 0.178005 0.491299 0.516787
O O3 0.325696 0.402861 0.495729
O O4 0.260410 0.540652 0.352537
O O5 0.327236 0.316280 0.231647
O O6 0.250000 0.750000 0.496708
O O7 0.409955 0.837223 0.526254
O O8 0.365786 0.649971 0.599411
O O9 0.375788 0.677854 0.392039
O O10 0.350325 0.897335 0.695713
O O11 0.445966 0.046460 0.628488
O O12 0.074585 0.240332 0.600090
O O13 0.001809 0.340391 0.770772
O O14 0.485318 0.392337 0.460406
O O15 0.565020 0.533973 0.356052
O O16 0.250000 0.750000 0.282364
#
# Coordination Sequence:
#
# PCOD9433344 Si02
#       8
#     8   4   8   8   8   8   8   8
#     4  12  22  45  69 103 140 186 240 296 354 420
#     4  12  24  46  70 106 150 184 244 296 352 430
#     4  11  23  45  72 105 137 184 240 298 361 424
#     4  12  24  42  72 103 140 185 241 296 350 429
#     4  12  27  44  70 110 138 196 240 296 357 435
#     4  11  25  46  71 100 142 191 236 294 361 432
#     4  11  24  46  73  95 145 194 233 287 366 432
#     4  11  22  40  65 103 140 180 239 290 356 421
#
# _framework density 24.655418000000001
#
# number of rings (size 3 to 8) (size 9 to 14) (size 15 to 20)
#    0.000    0.533    6.667    2.000    3.733    0.000 
#    0.000    3.333    0.000    0.000    0.000    0.000 
#    0.000    0.000    0.000    0.000    0.000    0.000 
#
# Total GULP energy -335527.138355 kJ/mol
# GULP energy per Si atom -5592.118973 kJ/mol
# Density = 2.459930 g / cm^3
# Si number density = 24.655418 Si / 1000 Ang^3
#
#
#
# Elastic Constant Matrix: (Units=GPa)
#
#
# Indices 1 2 3 4 5 6 
#
# 1 17.9132 -17.1130 -0.4091 0.0000 0.0000 0.0000
# 2 -17.1130 158.4569 34.7587 0.0000 0.0000 0.0000
# 3 -0.4091 34.7587 82.3384 0.0000 0.0000 0.0000
# 4 0.0000 0.0000 0.0000 66.7037 0.0000 0.0000
# 5 0.0000 0.0000 0.0000 0.0000 13.9758 0.0000
# 6 0.0000 0.0000 0.0000 0.0000 0.0000 25.7779
#
#
#
# Elastic Compliance Matrix: (Units=1/GPa)
#
#
# Indices 1 2 3 4 5 6 
#
# 1 0.062833 0.007403 -0.002813 0.000000 0.000000 0.000000
# 2 0.007403 0.007827 -0.003267 0.000000 0.000000 0.000000
# 3 -0.002813 -0.003267 0.013510 0.000000 0.000000 0.000000
# 4 0.000000 0.000000 0.000000 0.014992 0.000000 0.000000
# 5 0.000000 0.000000 0.000000 0.000000 0.071552 0.000000
# 6 0.000000 0.000000 0.000000 0.000000 0.000000 0.038793
#
#
# Mechanical properties :
#
#
# Convention : Reuss Voigt Hill
#
# Bulk Modulus (GPa) = 11.51874 32.57575 22.04724
# Shear Modulus (GPa) = 21.20440 37.38961 29.29701
#
# Velocity S-wave (km/s) = 2.93581 3.89843 3.45085
# Velocity P-wave (km/s) = 4.02169 5.78833 4.98391
#
# Compressibility (1/GPa) = 0.08681507
#
# Stress axis : x y z
#
# Youngs Moduli (GPa) = 15.91532 127.76159 74.01737
#
# Poissons Ratio (x) = -0.94580 0.20820
# Poissons Ratio (y) = -0.11782 0.24184
# Poissons Ratio (z) = 0.04477 0.41745
#
# Static dielectric constant tensor:
#      x y z
#    x 2.021510 0.000000 0.000000 
#    y 0.000000 2.046940 0.000000 
#    z 0.000000 0.000000 1.952860 
# 
# From -- ./inp_files/12832.got.cif
#   From: 2010.05.17/outbox.cif.g08.bks.cpg/sg56_7_cif.got.tgz:12832.got - 2010.06.03 13:42:01.
