data_PCOD9433490
_publ_section_title
;
Structure prediction by ZEFSAII (Michael W. Deem and Ramdas Pophale) SiO2 
 PCOD9433490
Probable space group: P C C N
;
_chemical_formula_sum "Si O2"
_cell_formula_units_Z 48
_cell_length_a 13.812262
_cell_length_b 8.447129
_cell_length_c 19.373890
_cell_angle_alpha 90.000000
_cell_angle_beta 90.000000
_cell_angle_gamma 90.000000
_cell_volume 2260.428446
_symmetry_space_group_name_H-M "P C C N"
_symmetry_group_IT_number 56
_symmetry_cell_setting 'orthorhombic'
loop_
_space_group_symop_operation_xyz
x,y,z
1/2-x,1/2-y,z
1/2+x,-y,1/2-z
-x,1/2+y,1/2-z
-x,-y,-z
1/2+x,1/2+y,-z
1/2-x,y,1/2+z
x,1/2-y,1/2+z
loop_
_atom_site_type_symbol
_atom_site_label
_atom_site_fract_x
_atom_site_fract_y
_atom_site_fract_z
Si Si1 0.737070 0.919404 0.948728
Si Si2 0.206709 0.421723 0.706399
Si Si3 0.163019 0.864482 0.935441
Si Si4 0.043401 0.586436 0.782131
Si Si5 0.371709 0.939500 0.286976
Si Si6 0.992915 0.889123 0.434497
O O1 0.750000 0.750000 0.984702
O O2 0.792825 0.936533 0.876197
O O3 0.624112 0.897897 0.925455
O O4 0.784642 0.047622 0.000224
O O5 0.250000 0.250000 0.722553
O O6 0.104562 0.460205 0.739225
O O7 0.274121 0.549696 0.743779
O O8 0.250000 0.750000 0.910453
O O9 0.141305 0.970624 0.868429
O O10 0.062382 0.765921 0.949522
O O11 0.084212 0.763958 0.778868
O O12 0.939198 0.570041 0.748058
O O13 0.036572 0.546406 0.863100
O O14 0.000000 0.000000 0.500000
#
# Coordination Sequence:
#
# PCOD9433490 Si02
#       6
#     8   8   8   8   8   8
#     4  11  26  46  68 101 141 184 229 292 351 416
#     4  11  24  44  69  98 140 175 228 289 344 416
#     4  11  24  44  71 100 138 183 232 288 348 418
#     4  11  24  42  70 100 134 178 227 285 346 411
#     4  11  23  44  67 102 133 176 228 280 345 411
#     4  11  23  46  71  98 141 181 232 288 350 417
#
# _framework density 21.234912999999999
#
# number of rings (size 3 to 8) (size 9 to 14) (size 15 to 20)
#    0.000    1.000    3.333    3.500    7.000    4.000 
#    3.000    0.000    0.000    0.000    0.000    0.000 
#    0.000    0.000    0.000    0.000    0.000    0.000 
#
# Total GULP energy -267407.547843 kJ/mol
# GULP energy per Si atom -5570.990580 kJ/mol
# Density = 2.118658 g / cm^3
# Si number density = 21.234913 Si / 1000 Ang^3
#
#
#
# Elastic Constant Matrix: (Units=GPa)
#
#
# Indices 1 2 3 4 5 6 
#
# 1 91.1332 24.5641 39.9100 0.0000 0.0000 0.0000
# 2 24.5641 50.6284 45.2932 0.0000 0.0000 0.0000
# 3 39.9100 45.2932 112.0071 0.0000 0.0000 0.0000
# 4 0.0000 0.0000 0.0000 35.6752 0.0000 0.0000
# 5 0.0000 0.0000 0.0000 0.0000 862.9813 0.0000
# 6 0.0000 0.0000 0.0000 0.0000 0.0000 34.6243
#
#
#
# Elastic Compliance Matrix: (Units=1/GPa)
#
#
# Indices 1 2 3 4 5 6 
#
# 1 0.013384 -0.003490 -0.003358 0.000000 0.000000 0.000000
# 2 -0.003490 0.031857 -0.011639 0.000000 0.000000 0.000000
# 3 -0.003358 -0.011639 0.014831 0.000000 0.000000 0.000000
# 4 0.000000 0.000000 0.000000 0.028031 0.000000 0.000000
# 5 0.000000 0.000000 0.000000 0.000000 0.001159 0.000000
# 6 0.000000 0.000000 0.000000 0.000000 0.000000 0.028881
#
#
# Mechanical properties :
#
#
# Convention : Reuss Voigt Hill
#
# Bulk Modulus (GPa) = 43.29123 52.58927 47.94025
# Shear Modulus (GPa) = 30.70949 196.25626 113.48288
#
# Velocity S-wave (km/s) = 3.80699 9.62404 7.31831
# Velocity P-wave (km/s) = 6.30518 12.17848 9.69718
#
# Compressibility (1/GPa) = 0.02309937
#
# Stress axis : x y z
#
# Youngs Moduli (GPa) = 74.71570 31.38992 67.42653
#
# Poissons Ratio (x) = 0.10954 0.22640
# Poissons Ratio (y) = 0.26074 0.78477
# Poissons Ratio (z) = 0.25088 0.36535
#
# Static dielectric constant tensor:
#      x y z
#    x 1.633050 0.000000 0.000000 
#    y 0.000000 1.778820 0.000000 
#    z 0.000000 0.000000 1.715030 
# 
# From -- ./inp_files/18980.got.cif
#   From: 2010.05.17/outbox.cif.g08.bks.cpg/sg56_10_cif.got.tgz:18980.got - 2010.06.03 13:42:01.
