data_PCOD9433998
_publ_section_title
;
Structure prediction by ZEFSAII (Michael W. Deem and Ramdas Pophale) SiO2 
 PCOD9433998
Probable space group: P B C M
;
_chemical_formula_sum "Si O2"
_cell_formula_units_Z 44
_cell_length_a 9.191869
_cell_length_b 5.503254
_cell_length_c 38.014638
_cell_angle_alpha 90.000000
_cell_angle_beta 90.000000
_cell_angle_gamma 90.000000
_cell_volume 1922.977680
_symmetry_space_group_name_H-M "P B C M"
_symmetry_group_IT_number 57
_symmetry_cell_setting 'orthorhombic'
loop_
_space_group_symop_operation_xyz
x,y,z
-x,-y,1/2+z
x,1/2-y,-z
-x,1/2+y,1/2-z
-x,-y,-z
x,y,1/2-z
-x,1/2+y,z
x,1/2-y,1/2+z
loop_
_atom_site_type_symbol
_atom_site_label
_atom_site_fract_x
_atom_site_fract_y
_atom_site_fract_z
Si Si1 0.320326 0.958290 0.635877
Si Si2 0.053524 0.739174 0.431031
Si Si3 0.355381 0.457280 0.892237
Si Si4 0.594528 0.002632 0.289412
Si Si5 0.342494 0.643700 0.533685
Si Si6 0.137160 0.250000 0.500000
O O1 0.495092 0.942266 0.629593
O O2 0.270800 0.693713 0.622560
O O3 0.298511 0.995017 0.677253
O O4 0.278726 0.199323 0.614132
O O5 0.220077 0.700432 0.444758
O O6 0.978999 0.503932 0.413642
O O7 0.963817 0.794753 0.466865
O O8 0.408224 0.500166 0.932844
O O9 0.658654 0.001924 0.250000
O O10 0.500796 0.253810 0.292157
O O11 0.430617 0.750000 0.500000
O O12 0.240920 0.462271 0.512268
#
# Coordination Sequence:
#
# PCOD9433998 Si02
#       6
#     8   8   8   8   8   4
#     4  10  18  38  42  62  91 124 145 174 219 259
#     4  10  17  30  47  63  84 102 123 187 241 275
#     4  10  21  30  50  56  86 122 150 181 223 261
#     4  10  16  26  50  73  85 108 149 180 204 255
#     4  11  20  31  45  67  80 107 159 194 220 271
#     4  10  18  32  46  64  86 100 134 200 240 274
#
# _framework density 22.881178999999999
#
# number of rings (size 3 to 8) (size 9 to 14) (size 15 to 20)
#    0.000    1.818    6.364    1.091    2.545    0.000 
#    0.000    3.636    0.000    0.000    0.000    0.000 
#    0.000    0.000    0.000    0.000    0.000  123.636 
#
# Total GULP energy -245114.455654 kJ/mol
# GULP energy per Si atom -5570.783083 kJ/mol
# Density = 2.282910 g / cm^3
# Si number density = 22.881179 Si / 1000 Ang^3
#
#
#
# Elastic Constant Matrix: (Units=GPa)
#
#
# Indices 1 2 3 4 5 6 
#
# 1 32.4092 16.6541 11.6949 0.0000 0.0000 0.0000
# 2 16.6541 194.7527 40.2890 0.0000 0.0000 0.0000
# 3 11.6949 40.2890 153.9365 0.0000 0.0000 0.0000
# 4 0.0000 0.0000 0.0000 36.7032 0.0000 0.0000
# 5 0.0000 0.0000 0.0000 0.0000 2.2609 0.0000
# 6 0.0000 0.0000 0.0000 0.0000 0.0000 14.3043
#
#
#
# Elastic Compliance Matrix: (Units=1/GPa)
#
#
# Indices 1 2 3 4 5 6 
#
# 1 0.032768 -0.002418 -0.001857 0.000000 0.000000 0.000000
# 2 -0.002418 0.005607 -0.001284 0.000000 0.000000 0.000000
# 3 -0.001857 -0.001284 0.006973 0.000000 0.000000 0.000000
# 4 0.000000 0.000000 0.000000 0.027246 0.000000 0.000000
# 5 0.000000 0.000000 0.000000 0.000000 0.442307 0.000000
# 6 0.000000 0.000000 0.000000 0.000000 0.000000 0.069909
#
#
# Mechanical properties :
#
#
# Convention : Reuss Voigt Hill
#
# Bulk Modulus (GPa) = 29.21293 57.59713 43.40503
# Shear Modulus (GPa) = 8.23266 31.48437 19.85851
#
# Velocity S-wave (km/s) = 1.89890 3.71346 2.94921
# Velocity P-wave (km/s) = 4.19556 6.60404 5.53245
#
# Compressibility (1/GPa) = 0.03423142
#
# Stress axis : x y z
#
# Youngs Moduli (GPa) = 30.51761 178.34601 143.40537
#
# Poissons Ratio (x) = 0.43125 0.26624
# Poissons Ratio (y) = 0.07379 0.18411
# Poissons Ratio (z) = 0.05666 0.22896
#
# Static dielectric constant tensor:
#      x y z
#    x 1.967090 0.000000 0.000000 
#    y 0.000000 2.124870 0.000000 
#    z 0.000000 0.000000 1.924080 
# 
# From -- ./inp_files/29815.got.cif
#   From: 2010.05.17/outbox.cif.g08.bks.cpg/sg57_15_cif.got.tgz:29815.got - 2010.06.03 13:58:18.
