data_PCOD9433775
_publ_section_title
;
Structure prediction by ZEFSAII (Michael W. Deem and Ramdas Pophale) SiO2 
 PCOD9433775
Probable space group: P C C N
;
_chemical_formula_sum "Si O2"
_cell_formula_units_Z 32
_cell_length_a 11.674531
_cell_length_b 8.016350
_cell_length_c 13.361811
_cell_angle_alpha 90.000000
_cell_angle_beta 90.000000
_cell_angle_gamma 90.000000
_cell_volume 1250.493497
_symmetry_space_group_name_H-M "P C C N"
_symmetry_group_IT_number 56
_symmetry_cell_setting 'orthorhombic'
loop_
_space_group_symop_operation_xyz
x,y,z
1/2-x,1/2-y,z
1/2+x,-y,1/2-z
-x,1/2+y,1/2-z
-x,-y,-z
1/2+x,1/2+y,-z
1/2-x,y,1/2+z
x,1/2-y,1/2+z
loop_
_atom_site_type_symbol
_atom_site_label
_atom_site_fract_x
_atom_site_fract_y
_atom_site_fract_z
Si Si1 0.579821 0.839111 0.366429
Si Si2 0.173855 0.084837 0.334964
Si Si3 0.875601 0.195303 0.521588
Si Si4 0.297501 0.984183 0.150610
O O1 0.574146 0.879953 0.247780
O O2 0.469858 0.817630 0.434206
O O3 0.634753 0.655696 0.362350
O O4 0.675596 0.970347 0.403852
O O5 0.250000 0.250000 0.359883
O O6 0.118202 0.987922 0.426301
O O7 0.260431 0.973342 0.266057
O O8 0.750000 0.250000 0.552373
O O9 0.865128 0.161706 0.403185
#
# Coordination Sequence:
#
# PCOD9433775 Si02
#       4
#     8   8   8   8
#     4   8  19  41  59  85 121 162 208 248 312 374
#     4   8  20  40  60  85 128 162 207 263 307 377
#     4  12  23  34  66  97 120 166 210 256 330 374
#     4   8  19  42  58  82 130 156 210 258 302 382
#
# _framework density 25.589898999999999
#
# number of rings (size 3 to 8) (size 9 to 14) (size 15 to 20)
#    1.500    1.500    0.000    0.750    3.500    6.000 
#    0.000    2.500    0.000    0.000    0.000    0.000 
#    0.000    0.000    0.000    0.000    0.000    0.000 
#
# Total GULP energy -178466.064055 kJ/mol
# GULP energy per Si atom -5577.064502 kJ/mol
# Density = 2.553166 g / cm^3
# Si number density = 25.589899 Si / 1000 Ang^3
#
#
#
# Elastic Constant Matrix: (Units=GPa)
#
#
# Indices 1 2 3 4 5 6 
#
# 1 82.3042 2.5292 21.7535 0.0000 0.0000 0.0000
# 2 2.5292 67.6634 25.4444 0.0000 0.0000 0.0000
# 3 21.7535 25.4444 91.5149 0.0000 0.0000 0.0000
# 4 0.0000 0.0000 0.0000 27.4900 0.0000 0.0000
# 5 0.0000 0.0000 0.0000 0.0000 28.8712 0.0000
# 6 0.0000 0.0000 0.0000 0.0000 0.0000 21.5795
#
#
#
# Elastic Compliance Matrix: (Units=1/GPa)
#
#
# Indices 1 2 3 4 5 6 
#
# 1 0.012999 0.000755 -0.003300 0.000000 0.000000 0.000000
# 2 0.000755 0.016549 -0.004781 0.000000 0.000000 0.000000
# 3 -0.003300 -0.004781 0.013041 0.000000 0.000000 0.000000
# 4 0.000000 0.000000 0.000000 0.036377 0.000000 0.000000
# 5 0.000000 0.000000 0.000000 0.000000 0.034637 0.000000
# 6 0.000000 0.000000 0.000000 0.000000 0.000000 0.046340
#
#
# Mechanical properties :
#
#
# Convention : Reuss Voigt Hill
#
# Bulk Modulus (GPa) = 35.79421 37.88186 36.83804
# Shear Modulus (GPa) = 27.18792 28.37184 27.77988
#
# Velocity S-wave (km/s) = 3.26306 3.33335 3.29839
# Velocity P-wave (km/s) = 5.31175 5.44523 5.37890
#
# Compressibility (1/GPa) = 0.02793748
#
# Stress axis : x y z
#
# Youngs Moduli (GPa) = 76.92888 60.42843 76.68288
#
# Poissons Ratio (x) = -0.04562 0.25304
# Poissons Ratio (y) = -0.05808 0.36658
# Poissons Ratio (z) = 0.25385 0.28888
#
# Static dielectric constant tensor:
#      x y z
#    x 2.076800 0.000000 0.000000 
#    y 0.000000 2.071250 0.000000 
#    z 0.000000 0.000000 2.039730 
# 
# From -- ./inp_files/11268.got.cif
#   From: 2010.05.17/outbox.cif.g08.bks.cpg/sg56_6_cif.got.tgz:11268.got - 2010.06.03 13:42:01.
