data_PCOD9433458
_publ_section_title
;
Structure prediction by ZEFSAII (Michael W. Deem and Ramdas Pophale) SiO2 
 PCOD9433458
Probable space group: P C C N
;
_chemical_formula_sum "Si O2"
_cell_formula_units_Z 24
_cell_length_a 4.923086
_cell_length_b 8.515984
_cell_length_c 27.096706
_cell_angle_alpha 90.000000
_cell_angle_beta 90.000000
_cell_angle_gamma 90.000000
_cell_volume 1136.027275
_symmetry_space_group_name_H-M "P C C N"
_symmetry_group_IT_number 56
_symmetry_cell_setting 'orthorhombic'
loop_
_space_group_symop_operation_xyz
x,y,z
1/2-x,1/2-y,z
1/2+x,-y,1/2-z
-x,1/2+y,1/2-z
-x,-y,-z
1/2+x,1/2+y,-z
1/2-x,y,1/2+z
x,1/2-y,1/2+z
loop_
_atom_site_type_symbol
_atom_site_label
_atom_site_fract_x
_atom_site_fract_y
_atom_site_fract_z
Si Si1 0.745360 0.935733 0.530350
Si Si2 0.992214 0.637928 0.631105
Si Si3 0.777750 0.562315 0.279104
O O1 0.750000 0.750000 0.527283
O O2 0.661894 0.959176 0.587734
O O3 0.500000 0.000000 0.500000
O O4 0.000000 0.000000 0.500000
O O5 0.250000 0.750000 0.614096
O O6 0.113743 0.521552 0.671545
O O7 0.750000 0.750000 0.650985
O O8 0.750000 0.750000 0.283931
O O9 0.494560 0.485323 0.262836
#
# Coordination Sequence:
#
# PCOD9433458 Si02
#       3
#     8   8   8
#     4  11  23  42  67  95 129 170 218 273 331 389
#     4  11  23  43  68  96 132 177 221 271 331 392
#     4  12  25  43  69 101 136 175 220 272 328 393
#
# _framework density 21.126252999999998
#
# number of rings (size 3 to 8) (size 9 to 14) (size 15 to 20)
#    0.000    0.667    0.000   11.000    0.000    1.333 
#    0.000   10.000    0.000    2.000    0.000    0.000 
#    0.000    0.000    0.000    0.000    0.000    0.000 
#
# Total GULP energy -133996.781709 kJ/mol
# GULP energy per Si atom -5583.199238 kJ/mol
# Density = 2.107817 g / cm^3
# Si number density = 21.126253 Si / 1000 Ang^3
#
#
#
# Elastic Constant Matrix: (Units=GPa)
#
#
# Indices 1 2 3 4 5 6 
#
# 1 124.0994 2.5985 4.6892 0.0000 0.0000 0.0000
# 2 2.5985 51.5806 36.5521 0.0000 0.0000 0.0000
# 3 4.6892 36.5521 101.2218 0.0000 0.0000 0.0000
# 4 0.0000 0.0000 0.0000 41.2222 0.0000 0.0000
# 5 0.0000 0.0000 0.0000 0.0000 45.7696 0.0000
# 6 0.0000 0.0000 0.0000 0.0000 0.0000 50.0570
#
#
#
# Elastic Compliance Matrix: (Units=1/GPa)
#
#
# Indices 1 2 3 4 5 6 
#
# 1 0.008074 -0.000190 -0.000305 0.000000 0.000000 0.000000
# 2 -0.000190 0.026059 -0.009401 0.000000 0.000000 0.000000
# 3 -0.000305 -0.009401 0.013288 0.000000 0.000000 0.000000
# 4 0.000000 0.000000 0.000000 0.024259 0.000000 0.000000
# 5 0.000000 0.000000 0.000000 0.000000 0.021849 0.000000
# 6 0.000000 0.000000 0.000000 0.000000 0.000000 0.019977
#
#
# Mechanical properties :
#
#
# Convention : Reuss Voigt Hill
#
# Bulk Modulus (GPa) = 36.19663 40.50905 38.35284
# Shear Modulus (GPa) = 35.08571 42.94724 39.01647
#
# Velocity S-wave (km/s) = 4.07967 4.51364 4.30213
# Velocity P-wave (km/s) = 6.27394 6.81031 6.54762
#
# Compressibility (1/GPa) = 0.02762688
#
# Stress axis : x y z
#
# Youngs Moduli (GPa) = 123.86081 38.37465 75.25405
#
# Poissons Ratio (x) = 0.00731 0.02297
# Poissons Ratio (y) = 0.02358 0.70748
# Poissons Ratio (z) = 0.03781 0.36077
#
# Static dielectric constant tensor:
#      x y z
#    x 1.774470 0.000000 0.000000 
#    y 0.000000 1.712120 0.000000 
#    z 0.000000 0.000000 1.844460 
# 
# From -- ./inp_files/21420.got.cif
#   From: 2010.05.17/outbox.cif.g08.bks.cpg/sg56_11_cif.got.tgz:21420.got - 2010.06.03 13:42:01.
