data_PCOD9433309
_publ_section_title
;
Structure prediction by ZEFSAII (Michael W. Deem and Ramdas Pophale) SiO2 
 PCOD9433309
Probable space group: P C C N
;
_chemical_formula_sum "Si O2"
_cell_formula_units_Z 32
_cell_length_a 11.839371
_cell_length_b 8.613427
_cell_length_c 13.221437
_cell_angle_alpha 90.000000
_cell_angle_beta 90.000000
_cell_angle_gamma 90.000000
_cell_volume 1348.289856
_symmetry_space_group_name_H-M "P C C N"
_symmetry_group_IT_number 56
_symmetry_cell_setting 'orthorhombic'
loop_
_space_group_symop_operation_xyz
x,y,z
1/2-x,1/2-y,z
1/2+x,-y,1/2-z
-x,1/2+y,1/2-z
-x,-y,-z
1/2+x,1/2+y,-z
1/2-x,y,1/2+z
x,1/2-y,1/2+z
loop_
_atom_site_type_symbol
_atom_site_label
_atom_site_fract_x
_atom_site_fract_y
_atom_site_fract_z
Si Si1 0.927934 0.653952 0.018193
Si Si2 0.529951 0.360841 0.149556
Si Si3 0.721113 0.429009 0.008014
Si Si4 0.916311 0.154465 0.822639
O O1 0.804892 0.572289 0.029681
O O2 0.995562 0.747678 0.106264
O O3 0.943173 0.758795 0.917158
O O4 0.000000 0.500000 0.000000
O O5 0.607517 0.452297 0.070410
O O6 0.470717 0.493988 0.213566
O O7 0.602732 0.256823 0.224729
O O8 0.750000 0.250000 0.037362
O O9 0.687912 0.404228 0.890788
#
# Coordination Sequence:
#
# PCOD9433309 Si02
#       4
#     8   8   8   8
#     4  11  21  45  68  99 138 181 227 290 345 411
#     4  11  25  44  68 104 140 181 234 290 349 418
#     4  11  23  43  74  95 136 185 229 282 351 419
#     4  11  25  44  68 104 140 181 234 290 349 418
#
# _framework density 23.733771000000001
#
# number of rings (size 3 to 8) (size 9 to 14) (size 15 to 20)
#    0.000    1.000    5.000    4.500    0.000    5.000 
#    0.000    2.500    0.000    0.000    0.000    0.000 
#    0.000    0.000    0.000    0.000    0.000    0.000 
#
# Total GULP energy -178500.543897 kJ/mol
# GULP energy per Si atom -5578.141997 kJ/mol
# Density = 2.367975 g / cm^3
# Si number density = 23.733771 Si / 1000 Ang^3
#
#
#
# Elastic Constant Matrix: (Units=GPa)
#
#
# Indices 1 2 3 4 5 6 
#
# 1 79.3267 35.4178 10.9646 0.0000 0.0000 0.0000
# 2 35.4178 116.4430 13.9479 0.0000 0.0000 0.0000
# 3 10.9646 13.9479 81.4159 0.0000 0.0000 0.0000
# 4 0.0000 0.0000 0.0000 41.9107 0.0000 0.0000
# 5 0.0000 0.0000 0.0000 0.0000 23.8341 0.0000
# 6 0.0000 0.0000 0.0000 0.0000 0.0000 37.2744
#
#
#
# Elastic Compliance Matrix: (Units=1/GPa)
#
#
# Indices 1 2 3 4 5 6 
#
# 1 0.014709 -0.004325 -0.001240 0.000000 0.000000 0.000000
# 2 -0.004325 0.010040 -0.001137 0.000000 0.000000 0.000000
# 3 -0.001240 -0.001137 0.012644 0.000000 0.000000 0.000000
# 4 0.000000 0.000000 0.000000 0.023860 0.000000 0.000000
# 5 0.000000 0.000000 0.000000 0.000000 0.041957 0.000000
# 6 0.000000 0.000000 0.000000 0.000000 0.000000 0.026828
#
#
# Mechanical properties :
#
#
# Convention : Reuss Voigt Hill
#
# Bulk Modulus (GPa) = 41.68833 44.20512 42.94673
# Shear Modulus (GPa) = 33.01659 35.06086 34.03873
#
# Velocity S-wave (km/s) = 3.73382 3.84768 3.79118
# Velocity P-wave (km/s) = 6.01595 6.19721 6.10725
#
# Compressibility (1/GPa) = 0.02398753
#
# Stress axis : x y z
#
# Youngs Moduli (GPa) = 67.98727 99.60406 79.08599
#
# Poissons Ratio (x) = 0.43082 0.09806
# Poissons Ratio (y) = 0.29407 0.08996
# Poissons Ratio (z) = 0.08429 0.11330
#
# Static dielectric constant tensor:
#      x y z
#    x 3.048490 0.000000 0.000000 
#    y 0.000000 4.259360 0.000000 
#    z 0.000000 0.000000 1.868430 
# 
# From -- ./inp_files/11215.got.cif
#   From: 2010.05.17/outbox.cif.g08.bks.cpg/sg56_6_cif.got.tgz:11215.got - 2010.06.03 13:42:01.
