data_PCOD9433789
_publ_section_title
;
Structure prediction by ZEFSAII (Michael W. Deem and Ramdas Pophale) SiO2 
 PCOD9433789
Probable space group: P C C N
;
_chemical_formula_sum "Si O2"
_cell_formula_units_Z 56
_cell_length_a 18.814313
_cell_length_b 11.985914
_cell_length_c 11.288456
_cell_angle_alpha 90.000000
_cell_angle_beta 90.000000
_cell_angle_gamma 90.000000
_cell_volume 2545.622885
_symmetry_space_group_name_H-M "P C C N"
_symmetry_group_IT_number 56
_symmetry_cell_setting 'orthorhombic'
loop_
_space_group_symop_operation_xyz
x,y,z
1/2-x,1/2-y,z
1/2+x,-y,1/2-z
-x,1/2+y,1/2-z
-x,-y,-z
1/2+x,1/2+y,-z
1/2-x,y,1/2+z
x,1/2-y,1/2+z
loop_
_atom_site_type_symbol
_atom_site_label
_atom_site_fract_x
_atom_site_fract_y
_atom_site_fract_z
Si Si1 0.445375 0.021845 0.282885
Si Si2 0.096695 0.670956 0.436151
Si Si3 0.925083 0.938025 0.482238
Si Si4 0.934806 0.691921 0.498275
Si Si5 0.753042 0.116305 0.757129
Si Si6 0.606701 0.999680 0.344636
Si Si7 0.807640 0.390989 0.019986
O O1 0.417668 0.068467 0.160085
O O2 0.436263 0.110256 0.388827
O O3 0.530512 0.002081 0.278863
O O4 0.405654 0.905389 0.317152
O O5 0.101454 0.584451 0.544228
O O6 0.151282 0.773083 0.454538
O O7 0.014655 0.711216 0.447120
O O8 0.913612 0.815416 0.533104
O O9 0.866292 0.016221 0.535966
O O10 0.000000 0.000000 0.500000
O O11 0.889214 0.624477 0.400379
O O12 0.750000 0.250000 0.757538
O O13 0.827622 0.052002 0.776184
O O14 0.743981 0.091646 0.615189
O O15 0.714907 0.095151 0.883148
#
# Coordination Sequence:
#
# PCOD9433789 Si02
#       7
#     8   8   8   8   8   8   8
#     4   9  21  37  68  96 135 182 221 295 365 434
#     4   9  18  39  64  97 130 172 223 283 363 416
#     4  12  24  40  64 106 137 177 237 303 367 429
#     4   9  20  40  66  97 135 177 229 288 370 423
#     4  12  26  43  66  98 138 186 233 285 356 419
#     4   9  19  40  64  93 132 179 226 281 344 432
#     4  12  27  43  67 103 143 181 234 300 350 437
#
# _framework density 21.998546000000001
#
# number of rings (size 3 to 8) (size 9 to 14) (size 15 to 20)
#    0.000    1.714    2.857    3.000    2.000    4.571 
#    0.000    0.714    0.000    1.714    0.000    0.000 
#    0.000    0.000    0.000    0.000    0.000    0.000 
#
# Total GULP energy -312236.778025 kJ/mol
# GULP energy per Si atom -5575.656750 kJ/mol
# Density = 2.194848 g / cm^3
# Si number density = 21.998546 Si / 1000 Ang^3
#
#
#
# Elastic Constant Matrix: (Units=GPa)
#
#
# Indices 1 2 3 4 5 6 
#
# 1 78.8807 51.2450 32.2327 0.0000 0.0000 0.0000
# 2 51.2450 135.9967 29.0408 0.0000 0.0000 0.0000
# 3 32.2327 29.0408 102.4590 0.0000 0.0000 0.0000
# 4 0.0000 0.0000 0.0000 0.5109 0.0000 0.0000
# 5 0.0000 0.0000 0.0000 0.0000 22.4605 0.0000
# 6 0.0000 0.0000 0.0000 0.0000 0.0000 38.0598
#
#
#
# Elastic Compliance Matrix: (Units=1/GPa)
#
#
# Indices 1 2 3 4 5 6 
#
# 1 0.018227 -0.006007 -0.004031 0.000000 0.000000 0.000000
# 2 -0.006007 0.009807 -0.000890 0.000000 0.000000 0.000000
# 3 -0.004031 -0.000890 0.011280 0.000000 0.000000 0.000000
# 4 0.000000 0.000000 0.000000 1.957177 0.000000 0.000000
# 5 0.000000 0.000000 0.000000 0.000000 0.044523 0.000000
# 6 0.000000 0.000000 0.000000 0.000000 0.000000 0.026274
#
#
# Mechanical properties :
#
#
# Convention : Reuss Voigt Hill
#
# Bulk Modulus (GPa) = 57.28213 60.26369 58.77291
# Shear Modulus (GPa) = 2.38667 25.86077 14.12372
#
# Velocity S-wave (km/s) = 1.04273 3.43237 2.53658
# Velocity P-wave (km/s) = 5.24836 6.56979 5.94590
#
# Compressibility (1/GPa) = 0.01745745
#
# Stress axis : x y z
#
# Youngs Moduli (GPa) = 54.86229 101.97041 88.64900
#
# Poissons Ratio (x) = 0.61258 0.35739
# Poissons Ratio (y) = 0.32958 0.07887
# Poissons Ratio (z) = 0.22118 0.09073
#
# Static dielectric constant tensor:
#      x y z
#    x 1.719660 0.000000 0.000000 
#    y 0.000000 1.817730 0.000000 
#    z 0.000000 0.000000 1.923690 
# 
# From -- ./inp_files/8640.got.cif
#   From: 2010.05.17/outbox.cif.g08.bks.cpg/sg56_5_cif.got.tgz:8640.got - 2010.06.03 13:42:01.
