data_PCOD9433855
_publ_section_title
;
Structure prediction by ZEFSAII (Michael W. Deem and Ramdas Pophale) SiO2 
 PCOD9433855
Probable space group: P C C N
;
_chemical_formula_sum "Si O2"
_cell_formula_units_Z 28
_cell_length_a 10.539069
_cell_length_b 12.009598
_cell_length_c 9.011105
_cell_angle_alpha 90.000000
_cell_angle_beta 90.000000
_cell_angle_gamma 90.000000
_cell_volume 1140.535398
_symmetry_space_group_name_H-M "P C C N"
_symmetry_group_IT_number 56
_symmetry_cell_setting 'orthorhombic'
loop_
_space_group_symop_operation_xyz
x,y,z
1/2-x,1/2-y,z
1/2+x,-y,1/2-z
-x,1/2+y,1/2-z
-x,-y,-z
1/2+x,1/2+y,-z
1/2-x,y,1/2+z
x,1/2-y,1/2+z
loop_
_atom_site_type_symbol
_atom_site_label
_atom_site_fract_x
_atom_site_fract_y
_atom_site_fract_z
Si Si1 0.861805 0.662564 0.790313
Si Si2 0.001943 0.661682 0.100048
Si Si3 0.250000 0.750000 0.472977
Si Si4 0.583807 0.455715 0.136893
O O1 0.750000 0.750000 0.813469
O O2 0.825459 0.551551 0.701811
O O3 0.957726 0.724455 0.678216
O O4 0.925048 0.641264 0.949684
O O5 0.989068 0.569681 0.226746
O O6 0.149546 0.675579 0.061639
O O7 0.159923 0.658171 0.394456
O O8 0.500000 0.500000 0.000000
#
# Coordination Sequence:
#
# PCOD9433855 Si02
#       4
#     8   8   4   8
#     4  12  27  50  78 119 167 215 273 340 411 490
#     4  12  26  49  80 118 161 217 273 336 420 486
#     4  12  26  52  84 122 164 216 278 338 422 494
#     4  12  27  53  84 119 165 211 277 341 409 498
#
# _framework density 24.549875
#
# number of rings (size 3 to 8) (size 9 to 14) (size 15 to 20)
#    0.000    0.000    5.714    2.571    0.000    9.143 
#    0.000    1.429    0.000    0.000    0.000    0.000 
#    0.000    0.000    0.000    0.000    0.000    0.000 
#
# Total GULP energy -156741.706593 kJ/mol
# GULP energy per Si atom -5597.918093 kJ/mol
# Density = 2.449400 g / cm^3
# Si number density = 24.549875 Si / 1000 Ang^3
#
#
#
# Elastic Constant Matrix: (Units=GPa)
#
#
# Indices 1 2 3 4 5 6 
#
# 1 108.4980 26.6808 61.0627 0.0000 0.0000 0.0000
# 2 26.6808 128.2303 76.9455 0.0000 0.0000 0.0000
# 3 61.0627 76.9455 200.2690 0.0000 0.0000 0.0000
# 4 0.0000 0.0000 0.0000 54.5955 0.0000 0.0000
# 5 0.0000 0.0000 0.0000 0.0000 20.7263 0.0000
# 6 0.0000 0.0000 0.0000 0.0000 0.0000 25.2162
#
#
#
# Elastic Compliance Matrix: (Units=1/GPa)
#
#
# Indices 1 2 3 4 5 6 
#
# 1 0.011139 -0.000364 -0.003257 0.000000 0.000000 0.000000
# 2 -0.000364 0.010147 -0.003788 0.000000 0.000000 0.000000
# 3 -0.003257 -0.003788 0.007442 0.000000 0.000000 0.000000
# 4 0.000000 0.000000 0.000000 0.018317 0.000000 0.000000
# 5 0.000000 0.000000 0.000000 0.000000 0.048248 0.000000
# 6 0.000000 0.000000 0.000000 0.000000 0.000000 0.039657
#
#
# Mechanical properties :
#
#
# Convention : Reuss Voigt Hill
#
# Bulk Modulus (GPa) = 71.88197 85.15283 78.51740
# Shear Modulus (GPa) = 32.38300 38.26148 35.32224
#
# Velocity S-wave (km/s) = 3.63584 3.95209 3.79726
# Velocity P-wave (km/s) = 6.85342 7.45562 7.16085
#
# Compressibility (1/GPa) = 0.01391170
#
# Stress axis : x y z
#
# Youngs Moduli (GPa) = 89.77474 98.55167 134.38086
#
# Poissons Ratio (x) = 0.03582 0.43763
# Poissons Ratio (y) = 0.03263 0.50900
# Poissons Ratio (z) = 0.29236 0.37329
#
# Static dielectric constant tensor:
#      x y z
#    x 2.036290 0.000000 0.000000 
#    y 0.000000 2.042610 0.000000 
#    z 0.000000 0.000000 1.937460 
# 
# From -- ./inp_files/2384.got.cif
#   From: 2010.05.17/outbox.cif.g08.bks.cpg/sg56_2_cif.got.tgz:2384.got - 2010.06.03 13:42:01.
