data_PCOD9433899
_publ_section_title
;
Structure prediction by ZEFSAII (Michael W. Deem and Ramdas Pophale) SiO2 
 PCOD9433899
Probable space group: P C C N
;
_chemical_formula_sum "Si O2"
_cell_formula_units_Z 60
_cell_length_a 15.000000
_cell_length_b 12.000000
_cell_length_c 18.000000
_cell_angle_alpha 90.000000
_cell_angle_beta 90.000000
_cell_angle_gamma 90.000000
_cell_volume 3240.000000
_symmetry_space_group_name_H-M "P C C N"
_symmetry_group_IT_number 56
_symmetry_cell_setting 'orthorhombic'
loop_
_space_group_symop_operation_xyz
x,y,z
1/2-x,1/2-y,z
1/2+x,-y,1/2-z
-x,1/2+y,1/2-z
-x,-y,-z
1/2+x,1/2+y,-z
1/2-x,y,1/2+z
x,1/2-y,1/2+z
loop_
_atom_site_type_symbol
_atom_site_label
_atom_site_fract_x
_atom_site_fract_y
_atom_site_fract_z
Si Si1 0.562032 0.193989 0.606965
Si Si2 0.234549 0.883230 0.105577
Si Si3 0.022357 0.570954 0.813051
Si Si4 0.532667 0.165457 0.445880
Si Si5 0.776966 0.468059 0.225220
Si Si6 0.750000 0.250000 0.626200
Si Si7 0.565503 0.068763 0.939975
Si Si8 0.091074 0.455151 0.328933
O O1 0.532932 0.308559 0.646382
O O2 0.511860 0.155083 0.533503
O O3 0.662418 0.224970 0.579487
O O4 0.569252 0.087139 0.660049
O O5 0.250000 0.750000 0.116307
O O6 0.131147 0.887959 0.074540
O O7 0.234796 0.943965 0.186687
O O8 0.323245 0.929002 0.059163
O O9 0.118030 0.512909 0.793740
O O10 0.964122 0.490495 0.864395
O O11 0.967290 0.589857 0.738686
O O12 0.539851 0.300275 0.436362
O O13 0.451999 0.110348 0.398910
O O14 0.763297 0.353539 0.180201
O O15 0.697213 0.546813 0.192394
O O16 0.500000 0.000000 0.000000
#
# Coordination Sequence:
#
# PCOD9433899 Si02
#       8
#     8   8   8   8   8   4   8   8
#     4  10  22  37  59  91 126 156 205 259 326 379
#     4  10  20  33  62  91 123 154 211 267 318 369
#     4  11  22  38  62  90 121 164 212 263 318 387
#     4  11  23  39  63  94 126 164 214 269 326 384
#     4  10  18  35  56  90 119 158 205 262 308 367
#     4   8  18  30  56  84 118 146 190 260 310 352
#     4  11  23  39  61  93 127 166 209 268 329 392
#     4  11  23  37  64  90 128 168 208 266 320 384
#
# _framework density 18.518519000000001
#
# number of rings (size 3 to 8) (size 9 to 14) (size 15 to 20)
#    0.000    1.600    4.667    0.400    4.667    1.067 
#    0.000    0.667    0.000    2.400    0.000    0.000 
#    0.000    0.000    0.000    0.000    0.000    0.000 
#
# Total GULP energy -334003.798070 kJ/mol
# GULP energy per Si atom -5566.729968 kJ/mol
# Density = 1.847637 g / cm^3
# Si number density = 18.518519 Si / 1000 Ang^3
#
#
#
# Elastic Constant Matrix: (Units=GPa)
#
#
# Indices 1 2 3 4 5 6 
#
# 1 118.5225 23.2395 24.8543 0.0000 0.0000 0.0000
# 2 23.2395 57.4949 8.4945 0.0000 0.0000 0.0000
# 3 24.8543 8.4945 87.9024 0.0000 0.0000 0.0000
# 4 0.0000 0.0000 0.0000 30.5126 0.0000 0.0000
# 5 0.0000 0.0000 0.0000 0.0000 30.7713 0.0000
# 6 0.0000 0.0000 0.0000 0.0000 0.0000 32.8393
#
#
#
# Elastic Compliance Matrix: (Units=1/GPa)
#
#
# Indices 1 2 3 4 5 6 
#
# 1 0.009631 -0.003541 -0.002381 0.000000 0.000000 0.000000
# 2 -0.003541 0.018947 -0.000830 0.000000 0.000000 0.000000
# 3 -0.002381 -0.000830 0.012130 0.000000 0.000000 0.000000
# 4 0.000000 0.000000 0.000000 0.032773 0.000000 0.000000
# 5 0.000000 0.000000 0.000000 0.000000 0.032498 0.000000
# 6 0.000000 0.000000 0.000000 0.000000 0.000000 0.030451
#
#
# Mechanical properties :
#
#
# Convention : Reuss Voigt Hill
#
# Bulk Modulus (GPa) = 36.75948 41.89960 39.32954
# Shear Modulus (GPa) = 31.44637 32.64674 32.04656
#
# Velocity S-wave (km/s) = 4.12528 4.20327 4.16446
# Velocity P-wave (km/s) = 6.52562 6.79938 6.66391
#
# Compressibility (1/GPa) = 0.02720386
#
# Stress axis : x y z
#
# Youngs Moduli (GPa) = 103.83348 52.77964 82.44277
#
# Poissons Ratio (x) = 0.18689 0.19629
# Poissons Ratio (y) = 0.36768 0.06840
# Poissons Ratio (z) = 0.24722 0.04379
#
# Static dielectric constant tensor:
#      x y z
#    x 1.685940 0.000000 0.000000 
#    y 0.000000 1.630770 0.000000 
#    z 0.000000 0.000000 1.694250 
# 
# From -- ./inp_files/15777.got.cif
#   From: 2010.05.17/outbox.ucp.g08.bks.cvg/sg56_8_cif.got.tgz:15777.got - 2010.06.11 16:37:52.
