data_PCOD9433662
_publ_section_title
;
Structure prediction by ZEFSAII (Michael W. Deem and Ramdas Pophale) SiO2 
 PCOD9433662
Probable space group: P C C N
;
_chemical_formula_sum "Si O2"
_cell_formula_units_Z 32
_cell_length_a 8.349484
_cell_length_b 15.371120
_cell_length_c 11.426584
_cell_angle_alpha 90.000000
_cell_angle_beta 90.000000
_cell_angle_gamma 90.000000
_cell_volume 1466.498309
_symmetry_space_group_name_H-M "P C C N"
_symmetry_group_IT_number 56
_symmetry_cell_setting 'orthorhombic'
loop_
_space_group_symop_operation_xyz
x,y,z
1/2-x,1/2-y,z
1/2+x,-y,1/2-z
-x,1/2+y,1/2-z
-x,-y,-z
1/2+x,1/2+y,-z
1/2-x,y,1/2+z
x,1/2-y,1/2+z
loop_
_atom_site_type_symbol
_atom_site_label
_atom_site_fract_x
_atom_site_fract_y
_atom_site_fract_z
Si Si1 0.412530 0.956352 0.612307
Si Si2 0.526266 0.680871 0.292210
Si Si3 0.608191 0.634059 0.751873
Si Si4 0.062432 0.905245 0.525662
O O1 0.484661 0.870783 0.673374
O O2 0.234746 0.923474 0.582031
O O3 0.500000 0.000000 0.500000
O O4 0.422024 0.036203 0.704659
O O5 0.715161 0.657520 0.297948
O O6 0.502589 0.784521 0.294457
O O7 0.432454 0.643925 0.403025
O O8 0.568108 0.635937 0.613898
O O9 0.000000 0.000000 0.500000
#
# Coordination Sequence:
#
# PCOD9433662 Si02
#       4
#     8   8   8   8
#     4  12  26  45  71 103 142 192 236 292 357 422
#     4  11  27  46  71 107 142 188 238 295 356 429
#     4  11  25  46  73 102 140 186 240 288 362 421
#     4  12  24  46  73 101 145 186 238 294 355 426
#
# _framework density 21.820688000000001
#
# number of rings (size 3 to 8) (size 9 to 14) (size 15 to 20)
#    0.000    0.500    5.000    1.500    7.000    3.000 
#    0.000    0.000    0.000    0.000    0.000    0.000 
#    0.000    0.000    0.000    0.000    0.000    0.000 
#
# Total GULP energy -178512.365079 kJ/mol
# GULP energy per Si atom -5578.511409 kJ/mol
# Density = 2.177102 g / cm^3
# Si number density = 21.820688 Si / 1000 Ang^3
#
#
#
# Elastic Constant Matrix: (Units=GPa)
#
#
# Indices 1 2 3 4 5 6 
#
# 1 42.5271 22.3530 13.5493 0.0000 0.0000 0.0000
# 2 22.3530 96.8662 8.2167 0.0000 0.0000 0.0000
# 3 13.5493 8.2167 76.5724 0.0000 0.0000 0.0000
# 4 0.0000 0.0000 0.0000 31.1299 0.0000 0.0000
# 5 0.0000 0.0000 0.0000 0.0000 25.3136 0.0000
# 6 0.0000 0.0000 0.0000 0.0000 0.0000 30.1697
#
#
#
# Elastic Compliance Matrix: (Units=1/GPa)
#
#
# Indices 1 2 3 4 5 6 
#
# 1 0.028106 -0.006120 -0.004317 0.000000 0.000000 0.000000
# 2 -0.006120 0.011751 -0.000178 0.000000 0.000000 0.000000
# 3 -0.004317 -0.000178 0.013842 0.000000 0.000000 0.000000
# 4 0.000000 0.000000 0.000000 0.032123 0.000000 0.000000
# 5 0.000000 0.000000 0.000000 0.000000 0.039505 0.000000
# 6 0.000000 0.000000 0.000000 0.000000 0.000000 0.033146
#
#
# Mechanical properties :
#
#
# Convention : Reuss Voigt Hill
#
# Bulk Modulus (GPa) = 30.79692 33.80039 32.29865
# Shear Modulus (GPa) = 26.24315 28.77908 27.51112
#
# Velocity S-wave (km/s) = 3.47172 3.63559 3.55460
# Velocity P-wave (km/s) = 5.49679 5.75735 5.62858
#
# Compressibility (1/GPa) = 0.03247078
#
# Stress axis : x y z
#
# Youngs Moduli (GPa) = 35.57912 85.10043 72.24148
#
# Poissons Ratio (x) = 0.52079 0.31184
# Poissons Ratio (y) = 0.21773 0.01286
# Poissons Ratio (z) = 0.15358 0.01515
#
# Static dielectric constant tensor:
#      x y z
#    x 1.707620 0.000000 0.000000 
#    y 0.000000 1.791560 0.000000 
#    z 0.000000 0.000000 1.719310 
# 
# From -- ./inp_files/5951.got.cif
#   From: 2010.05.17/outbox.cif.g08.bks.cpg/sg56_3_cif.got.tgz:5951.got - 2010.06.03 13:42:01.
