data_PCOD9433816
_publ_section_title
;
Structure prediction by ZEFSAII (Michael W. Deem and Ramdas Pophale) SiO2 
 PCOD9433816
Probable space group: P C C N
;
_chemical_formula_sum "Si O2"
_cell_formula_units_Z 24
_cell_length_a 4.751068
_cell_length_b 11.469044
_cell_length_c 18.915419
_cell_angle_alpha 90.000000
_cell_angle_beta 90.000000
_cell_angle_gamma 90.000000
_cell_volume 1030.705115
_symmetry_space_group_name_H-M "P C C N"
_symmetry_group_IT_number 56
_symmetry_cell_setting 'orthorhombic'
loop_
_space_group_symop_operation_xyz
x,y,z
1/2-x,1/2-y,z
1/2+x,-y,1/2-z
-x,1/2+y,1/2-z
-x,-y,-z
1/2+x,1/2+y,-z
1/2-x,y,1/2+z
x,1/2-y,1/2+z
loop_
_atom_site_type_symbol
_atom_site_label
_atom_site_fract_x
_atom_site_fract_y
_atom_site_fract_z
Si Si1 0.750000 0.250000 0.245234
Si Si2 0.750000 0.750000 0.853714
Si Si3 0.106907 0.128752 0.864792
Si Si4 0.900752 0.509015 0.920095
O O1 0.504258 0.297929 0.195094
O O2 0.572926 0.161802 0.295008
O O3 0.849130 0.641989 0.899811
O O4 0.250000 0.250000 0.889123
O O5 0.369495 0.041305 0.864567
O O6 0.877272 0.069713 0.914352
O O7 0.000000 0.500000 0.000000
#
# Coordination Sequence:
#
# PCOD9433816 Si02
#       4
#     4   4   8   8
#     4  12  24  50  76 114 154 196 260 320 382 468
#     4  12  28  48  74 122 150 202 262 320 386 448
#     4  12  24  51  77 111 147 209 249 313 396 446
#     4  12  28  49  80 111 157 205 253 322 378 469
#
# _framework density 23.285029999999999
#
# number of rings (size 3 to 8) (size 9 to 14) (size 15 to 20)
#    0.000    0.000    5.000    3.000    2.333    5.333 
#   12.000    0.000    0.000    0.000    0.000    0.000 
#    0.000    0.000    0.000    0.000    0.000    0.000 
#
# Total GULP energy -134294.374588 kJ/mol
# GULP energy per Si atom -5595.598941 kJ/mol
# Density = 2.323203 g / cm^3
# Si number density = 23.285030 Si / 1000 Ang^3
#
#
#
# Elastic Constant Matrix: (Units=GPa)
#
#
# Indices 1 2 3 4 5 6 
#
# 1 174.6761 82.7220 44.1486 0.0000 0.0000 0.0000
# 2 82.7220 191.3964 81.6371 0.0000 0.0000 0.0000
# 3 44.1486 81.6371 85.7732 0.0000 0.0000 0.0000
# 4 0.0000 0.0000 0.0000 10.4913 0.0000 0.0000
# 5 0.0000 0.0000 0.0000 0.0000 51.5552 0.0000
# 6 0.0000 0.0000 0.0000 0.0000 0.0000 64.5312
#
#
#
# Elastic Compliance Matrix: (Units=1/GPa)
#
#
# Indices 1 2 3 4 5 6 
#
# 1 0.007279 -0.002606 -0.001266 0.000000 0.000000 0.000000
# 2 -0.002606 0.009728 -0.007918 0.000000 0.000000 0.000000
# 3 -0.001266 -0.007918 0.019847 0.000000 0.000000 0.000000
# 4 0.000000 0.000000 0.000000 0.095317 0.000000 0.000000
# 5 0.000000 0.000000 0.000000 0.000000 0.019397 0.000000
# 6 0.000000 0.000000 0.000000 0.000000 0.000000 0.015496
#
#
# Mechanical properties :
#
#
# Convention : Reuss Voigt Hill
#
# Bulk Modulus (GPa) = 75.33778 96.54011 85.93895
# Shear Modulus (GPa) = 25.63202 41.53809 33.58506
#
# Velocity S-wave (km/s) = 3.32142 4.22820 3.80194
# Velocity P-wave (km/s) = 6.86542 8.08623 7.50070
#
# Compressibility (1/GPa) = 0.01327355
#
# Stress axis : x y z
#
# Youngs Moduli (GPa) = 137.38111 102.79333 50.38651
#
# Poissons Ratio (x) = 0.26786 0.06381
# Poissons Ratio (y) = 0.35799 0.39895
# Poissons Ratio (z) = 0.17398 0.81391
#
# Static dielectric constant tensor:
#      x y z
#    x 1.881010 0.000000 0.000000 
#    y 0.000000 1.853880 0.000000 
#    z 0.000000 0.000000 1.874480 
# 
# From -- ./inp_files/13604.got.cif
#   From: 2010.05.17/outbox.cif.g08.bks.cpg/sg56_7_cif.got.tgz:13604.got - 2010.06.03 13:42:01.
