data_PCOD9433616
_publ_section_title
;
Structure prediction by ZEFSAII (Michael W. Deem and Ramdas Pophale) SiO2 
 PCOD9433616
Probable space group: P C C N
;
_chemical_formula_sum "Si O2"
_cell_formula_units_Z 40
_cell_length_a 12.863437
_cell_length_b 4.808518
_cell_length_c 28.528049
_cell_angle_alpha 90.000000
_cell_angle_beta 90.000000
_cell_angle_gamma 90.000000
_cell_volume 1764.575893
_symmetry_space_group_name_H-M "P C C N"
_symmetry_group_IT_number 56
_symmetry_cell_setting 'orthorhombic'
loop_
_space_group_symop_operation_xyz
x,y,z
1/2-x,1/2-y,z
1/2+x,-y,1/2-z
-x,1/2+y,1/2-z
-x,-y,-z
1/2+x,1/2+y,-z
1/2-x,y,1/2+z
x,1/2-y,1/2+z
loop_
_atom_site_type_symbol
_atom_site_label
_atom_site_fract_x
_atom_site_fract_y
_atom_site_fract_z
Si Si1 0.983416 0.233652 0.066559
Si Si2 0.250000 0.250000 0.730677
Si Si3 0.176879 0.991468 0.008022
Si Si4 0.750000 0.250000 0.337939
Si Si5 0.455441 0.468590 0.274787
Si Si6 0.975411 0.243311 0.874562
O O1 0.000214 0.549357 0.082333
O O2 0.972114 0.047740 0.113057
O O3 0.088071 0.123291 0.041131
O O4 0.886880 0.164813 0.033129
O O5 0.282191 0.495094 0.695365
O O6 0.159988 0.376898 0.761992
O O7 0.250000 0.250000 0.992988
O O8 0.250000 0.750000 0.029402
O O9 0.647088 0.186829 0.367279
O O10 0.475014 0.787581 0.261721
O O11 0.484228 0.380655 0.326934
#
# Coordination Sequence:
#
# PCOD9433616 Si02
#       6
#     8   4   8   4   8   8
#     4  11  26  44  68 103 134 167 221 276 331 398
#     4  12  22  44  64  92 128 190 224 262 336 388
#     4  11  24  47  73  96 133 177 212 264 341 410
#     4  12  24  38  70  96 130 172 228 280 330 376
#     4  12  23  43  65  93 135 179 219 269 329 383
#     4  12  24  42  66 101 135 169 223 286 324 386
#
# _framework density 22.668339
#
# number of rings (size 3 to 8) (size 9 to 14) (size 15 to 20)
#    0.000    0.400    4.000    4.800    4.200    3.200 
#    5.400    0.000    0.000    0.000    0.000    0.000 
#    0.000    0.000    0.000    0.000    0.000    0.000 
#
# Total GULP energy -223960.622129 kJ/mol
# GULP energy per Si atom -5599.015553 kJ/mol
# Density = 2.261674 g / cm^3
# Si number density = 22.668339 Si / 1000 Ang^3
#
#
#
# Elastic Constant Matrix: (Units=GPa)
#
#
# Indices 1 2 3 4 5 6 
#
# 1 89.5302 1.1010 19.8637 0.0000 0.0000 0.0000
# 2 1.1010 74.2787 -12.4101 0.0000 0.0000 0.0000
# 3 19.8637 -12.4101 68.3754 0.0000 0.0000 0.0000
# 4 0.0000 0.0000 0.0000 26.3084 0.0000 0.0000
# 5 0.0000 0.0000 0.0000 0.0000 17.1246 0.0000
# 6 0.0000 0.0000 0.0000 0.0000 0.0000 31.5068
#
#
#
# Elastic Compliance Matrix: (Units=1/GPa)
#
#
# Indices 1 2 3 4 5 6 
#
# 1 0.011983 -0.000783 -0.003623 0.000000 0.000000 0.000000
# 2 -0.000783 0.013935 0.002757 0.000000 0.000000 0.000000
# 3 -0.003623 0.002757 0.016178 0.000000 0.000000 0.000000
# 4 0.000000 0.000000 0.000000 0.038011 0.000000 0.000000
# 5 0.000000 0.000000 0.000000 0.000000 0.058395 0.000000
# 6 0.000000 0.000000 0.000000 0.000000 0.000000 0.031739
#
#
# Mechanical properties :
#
#
# Convention : Reuss Voigt Hill
#
# Bulk Modulus (GPa) = 25.77532 27.69928 26.73730
# Shear Modulus (GPa) = 26.81358 29.89661 28.35509
#
# Velocity S-wave (km/s) = 3.44301 3.63557 3.54060
# Velocity P-wave (km/s) = 5.21547 5.46526 5.34182
#
# Compressibility (1/GPa) = 0.03879681
#
# Stress axis : x y z
#
# Youngs Moduli (GPa) = 83.45205 71.76185 61.81205
#
# Poissons Ratio (x) = 0.05619 0.22396
# Poissons Ratio (y) = 0.06534 -0.17039
# Poissons Ratio (z) = 0.30237 -0.19782
#
# Static dielectric constant tensor:
#      x y z
#    x 1.886280 0.000000 0.000000 
#    y 0.000000 1.822910 0.000000 
#    z 0.000000 0.000000 1.836170 
# 
# From -- ./inp_files/22210.got.cif
#   From: 2010.05.17/outbox.cif.g08.bks.cpg/sg56_12_cif.got.tgz:22210.got - 2010.06.03 13:42:01.
