data_PCOD9433289
_publ_section_title
;
Structure prediction by ZEFSAII (Michael W. Deem and Ramdas Pophale) SiO2 
 PCOD9433289
Probable space group: P C C N
;
_chemical_formula_sum "Si O2"
_cell_formula_units_Z 44
_cell_length_a 9.037890
_cell_length_b 13.453783
_cell_length_c 17.547864
_cell_angle_alpha 90.000000
_cell_angle_beta 90.000000
_cell_angle_gamma 90.000000
_cell_volume 2133.711656
_symmetry_space_group_name_H-M "P C C N"
_symmetry_group_IT_number 56
_symmetry_cell_setting 'orthorhombic'
loop_
_space_group_symop_operation_xyz
x,y,z
1/2-x,1/2-y,z
1/2+x,-y,1/2-z
-x,1/2+y,1/2-z
-x,-y,-z
1/2+x,1/2+y,-z
1/2-x,y,1/2+z
x,1/2-y,1/2+z
loop_
_atom_site_type_symbol
_atom_site_label
_atom_site_fract_x
_atom_site_fract_y
_atom_site_fract_z
Si Si1 0.262636 0.094819 0.915487
Si Si2 0.047775 0.618952 0.668511
Si Si3 0.750000 0.250000 0.063966
Si Si4 0.714307 0.001266 0.924096
Si Si5 0.951921 0.210552 0.435569
Si Si6 0.565853 0.414672 0.652925
O O1 0.375416 0.184811 0.933659
O O2 0.112492 0.110040 0.870155
O O3 0.358156 0.020348 0.862854
O O4 0.230198 0.043389 0.996632
O O5 0.157250 0.536432 0.632755
O O6 0.091428 0.729193 0.639827
O O7 0.045058 0.608065 0.758636
O O8 0.822620 0.335069 0.115471
O O9 0.613882 0.274603 0.005893
O O10 0.626327 0.103482 0.942708
O O11 0.594258 0.925607 0.887810
#
# Coordination Sequence:
#
# PCOD9433289 Si02
#       6
#     8   8   4   8   8   8
#     4  11  22  44  66  92 134 174 223 278 331 413
#     4  12  24  38  66  99 136 171 218 282 353 390
#     4  12  20  40  70  96 124 174 236 262 328 404
#     4  11  21  42  67  92 128 178 223 268 330 414
#     4  11  21  41  67  93 123 176 225 267 322 406
#     4  11  24  40  65  98 134 170 222 283 337 409
#
# _framework density 20.621343
#
# number of rings (size 3 to 8) (size 9 to 14) (size 15 to 20)
#    0.000    0.727    5.455    3.273    2.545    0.000 
#    0.000    0.000    8.000    0.000    0.000    0.000 
#    0.000    0.000    0.000    0.000    0.000    0.000 
#
# Total GULP energy -245628.594066 kJ/mol
# GULP energy per Si atom -5582.468047 kJ/mol
# Density = 2.057441 g / cm^3
# Si number density = 20.621343 Si / 1000 Ang^3
#
#
#
# Elastic Constant Matrix: (Units=GPa)
#
#
# Indices 1 2 3 4 5 6 
#
# 1 152.4626 44.6631 59.2495 0.0000 0.0000 0.0000
# 2 44.6631 66.8067 54.1535 0.0000 0.0000 0.0000
# 3 59.2495 54.1535 180.0343 0.0000 0.0000 0.0000
# 4 0.0000 0.0000 0.0000 -25.0669 0.0000 0.0000
# 5 0.0000 0.0000 0.0000 0.0000 34.6491 0.0000
# 6 0.0000 0.0000 0.0000 0.0000 0.0000 40.4378
#
#
#
# Elastic Compliance Matrix: (Units=1/GPa)
#
#
# Indices 1 2 3 4 5 6 
#
# 1 0.008424 -0.004476 -0.001426 0.000000 0.000000 0.000000
# 2 -0.004476 0.022173 -0.005197 0.000000 0.000000 0.000000
# 3 -0.001426 -0.005197 0.007587 0.000000 0.000000 0.000000
# 4 0.000000 0.000000 0.000000 -0.039893 0.000000 0.000000
# 5 0.000000 0.000000 0.000000 0.000000 0.028861 0.000000
# 6 0.000000 0.000000 0.000000 0.000000 0.000000 0.024729
#
#
# Mechanical properties :
#
#
# Convention : Reuss Voigt Hill
#
# Bulk Modulus (GPa) = 62.55003 79.49287 71.02145
# Shear Modulus (GPa) = 62.96591 26.08651 44.52621
#
# Velocity S-wave (km/s) = 5.53178 3.56058 4.65179
# Velocity P-wave (km/s) = 8.43797 7.45226 7.96039
#
# Compressibility (1/GPa) = 0.01598720
#
# Stress axis : x y z
#
# Youngs Moduli (GPa) = 118.70233 45.09923 131.80554
#
# Poissons Ratio (x) = 0.20187 0.18797
# Poissons Ratio (y) = 0.53132 0.68494
# Poissons Ratio (z) = 0.16928 0.23436
#
# Static dielectric constant tensor:
#      x y z
#    x 1.780040 0.000000 0.000000 
#    y 0.000000 1.800340 0.000000 
#    z 0.000000 0.000000 1.699480 
# 
# From -- ./inp_files/14691.got.cif
#   From: 2010.05.17/outbox.cif.g08.bks.cpg/sg56_8_cif.got.tgz:14691.got - 2010.06.03 13:42:01.
