data_PCOD9433207
_publ_section_title
;
Structure prediction by ZEFSAII (Michael W. Deem and Ramdas Pophale) SiO2 
 PCOD9433207
Probable space group: P C C N
;
_chemical_formula_sum "Si O2"
_cell_formula_units_Z 48
_cell_length_a 8.741503
_cell_length_b 15.378899
_cell_length_c 18.225866
_cell_angle_alpha 90.000000
_cell_angle_beta 90.000000
_cell_angle_gamma 90.000000
_cell_volume 2450.188677
_symmetry_space_group_name_H-M "P C C N"
_symmetry_group_IT_number 56
_symmetry_cell_setting 'orthorhombic'
loop_
_space_group_symop_operation_xyz
x,y,z
1/2-x,1/2-y,z
1/2+x,-y,1/2-z
-x,1/2+y,1/2-z
-x,-y,-z
1/2+x,1/2+y,-z
1/2-x,y,1/2+z
x,1/2-y,1/2+z
loop_
_atom_site_type_symbol
_atom_site_label
_atom_site_fract_x
_atom_site_fract_y
_atom_site_fract_z
Si Si1 0.626434 0.105081 0.627310
Si Si2 0.171240 0.006115 0.469202
Si Si3 0.624582 0.679874 0.609040
Si Si4 0.880642 0.042495 0.899375
Si Si5 0.326686 0.655665 0.705637
Si Si6 0.921526 0.212495 0.994380
O O1 0.663072 0.133812 0.708868
O O2 0.556978 0.182573 0.577902
O O3 0.775079 0.075153 0.580481
O O4 0.510987 0.023020 0.627213
O O5 0.192240 0.089316 0.417867
O O6 0.280031 0.007415 0.539905
O O7 0.000000 0.000000 0.500000
O O8 0.750000 0.750000 0.633733
O O9 0.493804 0.661786 0.668877
O O10 0.539397 0.718835 0.537581
O O11 0.773495 0.082803 0.836252
O O12 0.940218 0.126671 0.943940
O O13 0.250000 0.750000 0.695087
O O14 0.750000 0.250000 0.984622
#
# Coordination Sequence:
#
# PCOD9433207 Si02
#       6
#     8   8   8   8   8   8
#     4  11  26  40  65  96 129 171 216 269 324 386
#     4  11  22  40  68 101 125 163 220 267 320 383
#     4  12  22  39  66  95 126 168 218 270 318 386
#     4  11  21  43  64  90 130 171 213 259 322 393
#     4  12  25  44  63  93 133 179 212 262 338 393
#     4  11  19  43  67  89 122 169 216 258 317 392
#
# _framework density 19.590329000000001
#
# number of rings (size 3 to 8) (size 9 to 14) (size 15 to 20)
#    0.000    0.667    5.000    5.500    2.333    0.000 
#    0.000    4.167    0.000    0.000    0.000    0.000 
#    0.000    0.000    0.000    0.000    0.000    0.000 
#
# Total GULP energy -268381.504680 kJ/mol
# GULP energy per Si atom -5591.281348 kJ/mol
# Density = 1.954574 g / cm^3
# Si number density = 19.590329 Si / 1000 Ang^3
#
#
#
# Elastic Constant Matrix: (Units=GPa)
#
#
# Indices 1 2 3 4 5 6 
#
# 1 85.5968 20.9745 29.8906 0.0000 0.0000 0.0000
# 2 20.9745 47.0006 14.2442 0.0000 0.0000 0.0000
# 3 29.8906 14.2442 141.7787 0.0000 0.0000 0.0000
# 4 0.0000 0.0000 0.0000 32.8996 0.0000 0.0000
# 5 0.0000 0.0000 0.0000 0.0000 14.5780 0.0000
# 6 0.0000 0.0000 0.0000 0.0000 0.0000 33.2915
#
#
#
# Elastic Compliance Matrix: (Units=1/GPa)
#
#
# Indices 1 2 3 4 5 6 
#
# 1 0.013849 -0.005462 -0.002371 0.000000 0.000000 0.000000
# 2 -0.005462 0.024098 -0.001270 0.000000 0.000000 0.000000
# 3 -0.002371 -0.001270 0.007681 0.000000 0.000000 0.000000
# 4 0.000000 0.000000 0.000000 0.030395 0.000000 0.000000
# 5 0.000000 0.000000 0.000000 0.000000 0.068597 0.000000
# 6 0.000000 0.000000 0.000000 0.000000 0.000000 0.030038
#
#
# Mechanical properties :
#
#
# Convention : Reuss Voigt Hill
#
# Bulk Modulus (GPa) = 36.46519 44.95497 40.71008
# Shear Modulus (GPa) = 24.75203 30.10494 27.42848
#
# Velocity S-wave (km/s) = 3.55841 3.92436 3.74585
# Velocity P-wave (km/s) = 5.96132 6.59784 6.28764
#
# Compressibility (1/GPa) = 0.02742342
#
# Stress axis : x y z
#
# Youngs Moduli (GPa) = 72.20760 41.49644 130.19692
#
# Poissons Ratio (x) = 0.22664 0.30870
# Poissons Ratio (y) = 0.39437 0.16531
# Poissons Ratio (z) = 0.17120 0.05269
#
# Static dielectric constant tensor:
#      x y z
#    x 1.703010 0.000000 0.000000 
#    y 0.000000 1.700890 0.000000 
#    z 0.000000 0.000000 1.650090 
# 
# From -- ./inp_files/14951.got.cif
#   From: 2010.05.17/outbox.cif.g08.bks.cpg/sg56_8_cif.got.tgz:14951.got - 2010.06.03 13:42:01.
