data_PCOD9433715
_publ_section_title
;
Structure prediction by ZEFSAII (Michael W. Deem and Ramdas Pophale) SiO2 
 PCOD9433715
Probable space group: P C C N
;
_chemical_formula_sum "Si O2"
_cell_formula_units_Z 32
_cell_length_a 8.599563
_cell_length_b 4.936433
_cell_length_c 30.000952
_cell_angle_alpha 90.000000
_cell_angle_beta 90.000000
_cell_angle_gamma 90.000000
_cell_volume 1273.575411
_symmetry_space_group_name_H-M "P C C N"
_symmetry_group_IT_number 56
_symmetry_cell_setting 'orthorhombic'
loop_
_space_group_symop_operation_xyz
x,y,z
1/2-x,1/2-y,z
1/2+x,-y,1/2-z
-x,1/2+y,1/2-z
-x,-y,-z
1/2+x,1/2+y,-z
1/2-x,y,1/2+z
x,1/2-y,1/2+z
loop_
_atom_site_type_symbol
_atom_site_label
_atom_site_fract_x
_atom_site_fract_y
_atom_site_fract_z
Si Si1 0.750000 0.250000 0.975976
Si Si2 0.750000 0.750000 0.041753
Si Si3 0.997561 0.083164 0.720012
Si Si4 0.513796 0.059212 0.402134
Si Si5 0.250000 0.750000 0.848967
Si Si6 0.250000 0.750000 0.670975
O O1 0.862683 0.073568 0.943150
O O2 0.786814 0.492481 0.010458
O O3 0.606512 0.762865 0.075617
O O4 0.850412 0.065612 0.686197
O O5 0.847244 0.468743 0.802073
O O6 0.020620 0.387704 0.737249
O O7 0.621780 0.118419 0.360711
O O8 0.388591 0.849460 0.381546
#
# Coordination Sequence:
#
# PCOD9433715 Si02
#       6
#     4   4   8   8   4   4
#     4  11  27  48  75 109 148 196 250 309 371 446
#     4  12  24  48  76 110 148 196 250 308 372 446
#     4  12  29  52  79 113 153 202 255 315 379 452
#     4  11  26  47  75 110 151 198 249 310 375 447
#     4  12  28  50  78 114 154 200 254 314 380 452
#     4  11  27  48  75 111 154 200 254 313 379 450
#
# _framework density 25.126114999999999
#
# number of rings (size 3 to 8) (size 9 to 14) (size 15 to 20)
#    0.000    0.500    0.000    6.000    0.000   19.000 
#    0.000    0.000    0.000    0.000    0.000    0.000 
#    0.000    0.000    0.000    0.000    0.000    0.000 
#
# Total GULP energy -178286.983206 kJ/mol
# GULP energy per Si atom -5571.468225 kJ/mol
# Density = 2.506893 g / cm^3
# Si number density = 25.126115 Si / 1000 Ang^3
#
#
#
# Elastic Constant Matrix: (Units=GPa)
#
#
# Indices 1 2 3 4 5 6 
#
# 1 177.8522 33.0887 85.4360 0.0000 0.0000 0.0000
# 2 33.0887 83.7185 53.3833 0.0000 0.0000 0.0000
# 3 85.4360 53.3833 139.2580 0.0000 0.0000 0.0000
# 4 0.0000 0.0000 0.0000 -180.1091 0.0000 0.0000
# 5 0.0000 0.0000 0.0000 0.0000 -384.4271 0.0000
# 6 0.0000 0.0000 0.0000 0.0000 0.0000 45.0412
#
#
#
# Elastic Compliance Matrix: (Units=1/GPa)
#
#
# Indices 1 2 3 4 5 6 
#
# 1 0.007972 -0.000043 -0.004875 0.000000 0.000000 0.000000
# 2 -0.000043 0.015809 -0.006034 0.000000 0.000000 0.000000
# 3 -0.004875 -0.006034 0.012485 0.000000 0.000000 0.000000
# 4 0.000000 0.000000 0.000000 -0.005552 0.000000 0.000000
# 5 0.000000 0.000000 0.000000 0.000000 -0.002601 0.000000
# 6 0.000000 0.000000 0.000000 0.000000 0.000000 0.022202
#
#
# Mechanical properties :
#
#
# Convention : Reuss Voigt Hill
#
# Bulk Modulus (GPa) = 69.62186 82.73831 76.18008
# Shear Modulus (GPa) = 64.93017 -88.63759 -11.85371
#
# Velocity S-wave (km/s) = 5.08899 -5.94589 -2.17438
# Velocity P-wave (km/s) = 7.89300 3.75999 4.90724
#
# Compressibility (1/GPa) = 0.01436331
#
# Stress axis : x y z
#
# Youngs Moduli (GPa) = 125.43471 63.25357 80.09739
#
# Poissons Ratio (x) = 0.00269 0.39045
# Poissons Ratio (y) = 0.00534 0.48333
# Poissons Ratio (z) = 0.61146 0.38169
#
# Static dielectric constant tensor:
#      x y z
#    x 2.059240 0.000000 0.000000 
#    y 0.000000 2.066400 0.000000 
#    z 0.000000 0.000000 1.977710 
# 
# From -- ./inp_files/23074.got.cif
#   From: 2010.05.17/outbox.cif.g08.bks.cpg/sg56_12_cif.got.tgz:23074.got - 2010.06.03 13:42:01.
