data_PCOD9433102
_publ_section_title
;
Structure prediction by ZEFSAII (Michael W. Deem and Ramdas Pophale) SiO2 
 PCOD9433102
Probable space group: P C C N
;
_chemical_formula_sum "Si O2"
_cell_formula_units_Z 56
_cell_length_a 13.363281
_cell_length_b 11.392956
_cell_length_c 13.675846
_cell_angle_alpha 90.000000
_cell_angle_beta 90.000000
_cell_angle_gamma 90.000000
_cell_volume 2082.110252
_symmetry_space_group_name_H-M "P C C N"
_symmetry_group_IT_number 56
_symmetry_cell_setting 'orthorhombic'
loop_
_space_group_symop_operation_xyz
x,y,z
1/2-x,1/2-y,z
1/2+x,-y,1/2-z
-x,1/2+y,1/2-z
-x,-y,-z
1/2+x,1/2+y,-z
1/2-x,y,1/2+z
x,1/2-y,1/2+z
loop_
_atom_site_type_symbol
_atom_site_label
_atom_site_fract_x
_atom_site_fract_y
_atom_site_fract_z
Si Si1 0.845514 0.687672 0.978105
Si Si2 0.848160 0.089062 0.974726
Si Si3 0.342903 0.523786 0.653639
Si Si4 0.692712 0.955311 0.175688
Si Si5 0.515829 0.810650 0.233552
Si Si6 0.061016 0.387651 0.409341
Si Si7 0.644655 0.214479 0.124049
O O1 0.750000 0.750000 0.929618
O O2 0.806704 0.633016 0.081948
O O3 0.920191 0.790977 0.006288
O O4 0.884431 0.586489 0.908120
O O5 0.850713 0.217409 0.021861
O O6 0.866747 0.995547 0.062807
O O7 0.749024 0.069509 0.913157
O O8 0.947454 0.069410 0.912259
O O9 0.287080 0.482645 0.753678
O O10 0.431785 0.617131 0.670729
O O11 0.608205 0.897791 0.245436
O O12 0.649878 0.075357 0.129127
O O13 0.562898 0.693718 0.185540
O O14 0.450101 0.766702 0.322339
O O15 0.750000 0.250000 0.176319
#
# Coordination Sequence:
#
# PCOD9433102 Si02
#       7
#     8   8   8   8   8   8   8
#     4  11  25  49  74 110 147 198 254 318 384 461
#     4  11  26  44  77 107 151 199 250 319 384 457
#     4  12  26  50  79 111 155 207 259 313 395 454
#     4  11  28  52  74 116 154 202 265 319 384 467
#     4  11  28  47  79 106 159 200 259 320 381 461
#     4  10  25  46  71 109 146 194 258 308 384 459
#     4  12  26  46  73 112 151 195 253 314 382 458
#
# _framework density 26.895788
#
# number of rings (size 3 to 8) (size 9 to 14) (size 15 to 20)
#    0.000    0.857    2.857    1.714   12.000    1.714 
#    2.571    0.000    0.000    0.000    0.000    0.000 
#    0.000    0.000    0.000    0.000    0.000    0.000 
#
# Total GULP energy -313725.533211 kJ/mol
# GULP energy per Si atom -5602.241664 kJ/mol
# Density = 2.683457 g / cm^3
# Si number density = 26.895788 Si / 1000 Ang^3
#
#
#
# Elastic Constant Matrix: (Units=GPa)
#
#
# Indices 1 2 3 4 5 6 
#
# 1 96.4779 43.4329 13.0053 0.0000 0.0000 0.0000
# 2 43.4329 133.6623 53.4210 0.0000 0.0000 0.0000
# 3 13.0053 53.4210 101.8286 0.0000 0.0000 0.0000
# 4 0.0000 0.0000 0.0000 40.8001 0.0000 0.0000
# 5 0.0000 0.0000 0.0000 0.0000 40.5405 0.0000
# 6 0.0000 0.0000 0.0000 0.0000 0.0000 54.9563
#
#
#
# Elastic Compliance Matrix: (Units=1/GPa)
#
#
# Indices 1 2 3 4 5 6 
#
# 1 0.012176 -0.004220 0.000659 0.000000 0.000000 0.000000
# 2 -0.004220 0.010929 -0.005195 0.000000 0.000000 0.000000
# 3 0.000659 -0.005195 0.012461 0.000000 0.000000 0.000000
# 4 0.000000 0.000000 0.000000 0.024510 0.000000 0.000000
# 5 0.000000 0.000000 0.000000 0.000000 0.024667 0.000000
# 6 0.000000 0.000000 0.000000 0.000000 0.000000 0.018196
#
#
# Mechanical properties :
#
#
# Convention : Reuss Voigt Hill
#
# Bulk Modulus (GPa) = 55.38626 61.29855 58.34240
# Shear Modulus (GPa) = 39.53555 42.06668 40.80112
#
# Velocity S-wave (km/s) = 3.83816 3.95911 3.89910
# Velocity P-wave (km/s) = 6.34662 6.61363 6.48150
#
# Compressibility (1/GPa) = 0.01805502
#
# Stress axis : x y z
#
# Youngs Moduli (GPa) = 82.12907 91.50116 80.24765
#
# Poissons Ratio (x) = 0.38611 -0.05286
# Poissons Ratio (y) = 0.34657 0.41685
# Poissons Ratio (z) = -0.05410 0.47530
#
# Static dielectric constant tensor:
#      x y z
#    x 2.141770 0.000000 0.000000 
#    y 0.000000 2.058320 0.000000 
#    z 0.000000 0.000000 2.136170 
# 
# From -- ./inp_files/12295.got.cif
#   From: 2010.05.17/outbox.cif.g08.bks.cpg/sg56_7_cif.got.tgz:12295.got - 2010.06.03 13:42:01.
