data_PCOD9433598
_publ_section_title
;
Structure prediction by ZEFSAII (Michael W. Deem and Ramdas Pophale) SiO2 
 PCOD9433598
Probable space group: P C C N
;
_chemical_formula_sum "Si O2"
_cell_formula_units_Z 28
_cell_length_a 11.977697
_cell_length_b 8.875034
_cell_length_c 10.780162
_cell_angle_alpha 90.000000
_cell_angle_beta 90.000000
_cell_angle_gamma 90.000000
_cell_volume 1145.957827
_symmetry_space_group_name_H-M "P C C N"
_symmetry_group_IT_number 56
_symmetry_cell_setting 'orthorhombic'
loop_
_space_group_symop_operation_xyz
x,y,z
1/2-x,1/2-y,z
1/2+x,-y,1/2-z
-x,1/2+y,1/2-z
-x,-y,-z
1/2+x,1/2+y,-z
1/2-x,y,1/2+z
x,1/2-y,1/2+z
loop_
_atom_site_type_symbol
_atom_site_label
_atom_site_fract_x
_atom_site_fract_y
_atom_site_fract_z
Si Si1 0.366857 0.699455 0.000208
Si Si2 0.554167 0.928810 0.334583
Si Si3 0.750000 0.750000 0.324789
Si Si4 0.085539 0.001763 0.612207
O O1 0.250000 0.750000 0.935537
O O2 0.471688 0.686817 0.906079
O O3 0.383622 0.539594 0.069291
O O4 0.371985 0.829722 0.104300
O O5 0.652199 0.843917 0.258791
O O6 0.475584 0.020732 0.242989
O O7 0.679652 0.627625 0.401547
O O8 0.000000 0.000000 0.500000
#
# Coordination Sequence:
#
# PCOD9433598 Si02
#       4
#     8   8   4   8
#     4  11  24  46  73 103 149 192 249 308 376 442
#     4  11  26  46  72 111 144 198 250 304 379 450
#     4  12  24  48  74 108 146 192 248 302 376 446
#     4  12  26  46  72 108 149 192 249 308 374 449
#
# _framework density 24.433706999999998
#
# number of rings (size 3 to 8) (size 9 to 14) (size 15 to 20)
#    0.000    0.571    5.714    1.714    0.000    4.571 
#    0.000    0.000    0.000    0.000    0.000    0.000 
#    0.000    0.000    0.000    0.000    0.000    0.000 
#
# Total GULP energy -156132.080924 kJ/mol
# GULP energy per Si atom -5576.145747 kJ/mol
# Density = 2.437809 g / cm^3
# Si number density = 24.433707 Si / 1000 Ang^3
#
#
#
# Elastic Constant Matrix: (Units=GPa)
#
#
# Indices 1 2 3 4 5 6 
#
# 1 185.4617 83.0801 34.5597 0.0000 0.0000 0.0000
# 2 83.0801 126.8658 18.0393 0.0000 0.0000 0.0000
# 3 34.5597 18.0393 46.3987 0.0000 0.0000 0.0000
# 4 0.0000 0.0000 0.0000 25.5673 0.0000 0.0000
# 5 0.0000 0.0000 0.0000 0.0000 -1.8881 0.0000
# 6 0.0000 0.0000 0.0000 0.0000 0.0000 74.3733
#
#
#
# Elastic Compliance Matrix: (Units=1/GPa)
#
#
# Indices 1 2 3 4 5 6 
#
# 1 0.008386 -0.004873 -0.004352 0.000000 0.000000 0.000000
# 2 -0.004873 0.011175 -0.000715 0.000000 0.000000 0.000000
# 3 -0.004352 -0.000715 0.025072 0.000000 0.000000 0.000000
# 4 0.000000 0.000000 0.000000 0.039112 0.000000 0.000000
# 5 0.000000 0.000000 0.000000 0.000000 -0.529638 0.000000
# 6 0.000000 0.000000 0.000000 0.000000 0.000000 0.013446
#
#
# Mechanical properties :
#
#
# Convention : Reuss Voigt Hill
#
# Bulk Modulus (GPa) = 40.39885 70.00938 55.20412
# Shear Modulus (GPa) = -12.36651 34.48031 11.05690
#
# Velocity S-wave (km/s) = -2.25216 3.76064 2.12957
# Velocity P-wave (km/s) = 3.13161 6.89721 5.35624
#
# Compressibility (1/GPa) = 0.02475318
#
# Stress axis : x y z
#
# Youngs Moduli (GPa) = 119.25164 89.48514 39.88576
#
# Poissons Ratio (x) = 0.43604 0.17356
# Poissons Ratio (y) = 0.58108 0.02853
# Poissons Ratio (z) = 0.51892 0.06401
#
# Static dielectric constant tensor:
#      x y z
#    x 2.073840 0.000000 0.000000 
#    y 0.000000 2.072850 0.000000 
#    z 0.000000 0.000000 1.860940 
# 
# From -- ./inp_files/11171.got.cif
#   From: 2010.05.17/outbox.cif.g08.bks.cpg/sg56_6_cif.got.tgz:11171.got - 2010.06.03 13:42:01.
