data_PCOD9433178
_publ_section_title
;
Structure prediction by ZEFSAII (Michael W. Deem and Ramdas Pophale) SiO2 
 PCOD9433178
Probable space group: P C C N
;
_chemical_formula_sum "Si O2"
_cell_formula_units_Z 28
_cell_length_a 5.563730
_cell_length_b 20.278867
_cell_length_c 9.359271
_cell_angle_alpha 90.000000
_cell_angle_beta 90.000000
_cell_angle_gamma 90.000000
_cell_volume 1055.970427
_symmetry_space_group_name_H-M "P C C N"
_symmetry_group_IT_number 56
_symmetry_cell_setting 'orthorhombic'
loop_
_space_group_symop_operation_xyz
x,y,z
1/2-x,1/2-y,z
1/2+x,-y,1/2-z
-x,1/2+y,1/2-z
-x,-y,-z
1/2+x,1/2+y,-z
1/2-x,y,1/2+z
x,1/2-y,1/2+z
loop_
_atom_site_type_symbol
_atom_site_label
_atom_site_fract_x
_atom_site_fract_y
_atom_site_fract_z
Si Si1 0.058225 0.692953 0.642108
Si Si2 0.750000 0.750000 0.886081
Si Si3 0.190174 0.450377 0.571337
Si Si4 0.435011 0.579063 0.658830
O O1 0.250000 0.750000 0.670580
O O2 0.205896 0.625097 0.633043
O O3 0.882675 0.699751 0.777727
O O4 0.930936 0.714105 0.495289
O O5 0.368231 0.501548 0.651801
O O6 0.355376 0.412040 0.458375
O O7 0.000000 0.500000 0.500000
O O8 0.043212 0.409405 0.686109
#
# Coordination Sequence:
#
# PCOD9433178 Si02
#       4
#     8   4   8   8
#     4  11  26  51  81 118 159 213 274 335 409 487
#     4  10  26  54  76 118 160 216 268 332 418 480
#     4  11  24  49  76 117 157 212 264 334 409 473
#     4  11  26  49  79 115 162 208 274 331 404 493
#
# _framework density 26.515893999999999
#
# number of rings (size 3 to 8) (size 9 to 14) (size 15 to 20)
#    0.000    1.143    2.857    0.857    0.000   11.429 
#    5.143    5.714    0.000    0.000    0.000    0.000 
#    0.000    0.000    0.000    0.000    0.000    0.000 
#
# Total GULP energy -157252.828059 kJ/mol
# GULP energy per Si atom -5616.172431 kJ/mol
# Density = 2.645554 g / cm^3
# Si number density = 26.515894 Si / 1000 Ang^3
#
#
#
# Elastic Constant Matrix: (Units=GPa)
#
#
# Indices 1 2 3 4 5 6 
#
# 1 136.4519 40.4728 97.7744 0.0000 0.0000 0.0000
# 2 40.4728 99.7056 55.3046 0.0000 0.0000 0.0000
# 3 97.7744 55.3046 222.8351 0.0000 0.0000 0.0000
# 4 0.0000 0.0000 0.0000 33.1765 0.0000 0.0000
# 5 0.0000 0.0000 0.0000 0.0000 65.2989 0.0000
# 6 0.0000 0.0000 0.0000 0.0000 0.0000 83.6601
#
#
#
# Elastic Compliance Matrix: (Units=1/GPa)
#
#
# Indices 1 2 3 4 5 6 
#
# 1 0.011050 -0.002083 -0.004332 0.000000 0.000000 0.000000
# 2 -0.002083 0.012023 -0.002070 0.000000 0.000000 0.000000
# 3 -0.004332 -0.002070 0.006902 0.000000 0.000000 0.000000
# 4 0.000000 0.000000 0.000000 0.030142 0.000000 0.000000
# 5 0.000000 0.000000 0.000000 0.000000 0.015314 0.000000
# 6 0.000000 0.000000 0.000000 0.000000 0.000000 0.011953
#
#
# Mechanical properties :
#
#
# Convention : Reuss Voigt Hill
#
# Bulk Modulus (GPa) = 76.88590 94.01069 85.44829
# Shear Modulus (GPa) = 46.00275 54.12315 50.06295
#
# Velocity S-wave (km/s) = 4.16975 4.52282 4.34987
# Velocity P-wave (km/s) = 7.22783 7.92502 7.58444
#
# Compressibility (1/GPa) = 0.01300629
#
# Stress axis : x y z
#
# Youngs Moduli (GPa) = 90.49616 83.17221 144.88579
#
# Poissons Ratio (x) = 0.17324 0.62759
# Poissons Ratio (y) = 0.18849 0.29993
# Poissons Ratio (z) = 0.39199 0.17217
#
# Static dielectric constant tensor:
#      x y z
#    x 2.081840 0.000000 0.000000 
#    y 0.000000 2.152920 0.000000 
#    z 0.000000 0.000000 2.017330 
# 
# From -- ./inp_files/1535.got.cif
#   From: 2010.05.17/outbox.cif.g08.bks.cpg/sg56_1_cif.got.tgz:1535.got - 2010.06.03 13:42:01.
