data_PCOD9433876
_publ_section_title
;
Structure prediction by ZEFSAII (Michael W. Deem and Ramdas Pophale) SiO2 
 PCOD9433876
Probable space group: P C C N
;
_chemical_formula_sum "Si O2"
_cell_formula_units_Z 24
_cell_length_a 6.962438
_cell_length_b 10.295251
_cell_length_c 12.064127
_cell_angle_alpha 90.000000
_cell_angle_beta 90.000000
_cell_angle_gamma 90.000000
_cell_volume 864.757188
_symmetry_space_group_name_H-M "P C C N"
_symmetry_group_IT_number 56
_symmetry_cell_setting 'orthorhombic'
loop_
_space_group_symop_operation_xyz
x,y,z
1/2-x,1/2-y,z
1/2+x,-y,1/2-z
-x,1/2+y,1/2-z
-x,-y,-z
1/2+x,1/2+y,-z
1/2-x,y,1/2+z
x,1/2-y,1/2+z
loop_
_atom_site_type_symbol
_atom_site_label
_atom_site_fract_x
_atom_site_fract_y
_atom_site_fract_z
Si Si1 0.880708 0.376142 0.589492
Si Si2 0.472436 0.210240 0.355968
Si Si3 0.558878 0.971752 0.207559
O O1 0.750000 0.250000 0.609339
O O2 0.729914 0.488678 0.625094
O O3 0.956848 0.360213 0.466219
O O4 0.062203 0.397519 0.672476
O O5 0.250000 0.250000 0.362307
O O6 0.494838 0.113613 0.251657
O O7 0.567809 0.356854 0.349881
#
# Coordination Sequence:
#
# PCOD9433876 Si02
#       3
#     8   8   8
#     4  12  29  51  85 126 168 225 284 346 431 494
#     4  12  29  53  87 122 171 228 285 347 423 508
#     4  12  27  55  80 123 174 218 283 352 421 502
#
# _framework density 27.753457000000001
#
# number of rings (size 3 to 8) (size 9 to 14) (size 15 to 20)
#    0.000    0.000    6.667    1.000    4.667    5.333 
#    0.000    0.000    0.000    0.000    0.000    0.000 
#    0.000    0.000    0.000    0.000    0.000    0.000 
#
# Total GULP energy -133672.118210 kJ/mol
# GULP energy per Si atom -5569.671592 kJ/mol
# Density = 2.769029 g / cm^3
# Si number density = 27.753457 Si / 1000 Ang^3
#
#
#
# Elastic Constant Matrix: (Units=GPa)
#
#
# Indices 1 2 3 4 5 6 
#
# 1 104.3919 71.2358 91.3168 0.0000 0.0000 0.0000
# 2 71.2358 264.1336 105.5885 0.0000 0.0000 0.0000
# 3 91.3168 105.5885 182.5463 0.0000 0.0000 0.0000
# 4 0.0000 0.0000 0.0000 62.3155 0.0000 0.0000
# 5 0.0000 0.0000 0.0000 0.0000 67.0310 0.0000
# 6 0.0000 0.0000 0.0000 0.0000 0.0000 47.6437
#
#
#
# Elastic Compliance Matrix: (Units=1/GPa)
#
#
# Indices 1 2 3 4 5 6 
#
# 1 0.017531 -0.001590 -0.007850 0.000000 0.000000 0.000000
# 2 -0.001590 0.005069 -0.002137 0.000000 0.000000 0.000000
# 3 -0.007850 -0.002137 0.010641 0.000000 0.000000 0.000000
# 4 0.000000 0.000000 0.000000 0.016047 0.000000 0.000000
# 5 0.000000 0.000000 0.000000 0.000000 0.014918 0.000000
# 6 0.000000 0.000000 0.000000 0.000000 0.000000 0.020989
#
#
# Mechanical properties :
#
#
# Convention : Reuss Voigt Hill
#
# Bulk Modulus (GPa) = 99.13196 120.81712 109.97454
# Shear Modulus (GPa) = 44.75811 54.26009 49.50910
#
# Velocity S-wave (km/s) = 4.02021 4.42642 4.22819
# Velocity P-wave (km/s) = 7.57270 8.35171 7.97172
#
# Compressibility (1/GPa) = 0.01008756
#
# Stress axis : x y z
#
# Youngs Moduli (GPa) = 57.04136 197.28233 93.97768
#
# Poissons Ratio (x) = 0.31367 0.73773
# Poissons Ratio (y) = 0.09069 0.20079
# Poissons Ratio (z) = 0.44778 0.42151
#
# Static dielectric constant tensor:
#      x y z
#    x 2.471550 0.000000 0.000000 
#    y 0.000000 2.404510 0.000000 
#    z 0.000000 0.000000 2.179930 
# 
# From -- ./inp_files/5805.got.cif
#   From: 2010.05.17/outbox.cif.g08.bks.cpg/sg56_3_cif.got.tgz:5805.got - 2010.06.03 13:42:01.
