data_PCOD9433011
_publ_section_title
;
Structure prediction by ZEFSAII (Michael W. Deem and Ramdas Pophale) SiO2 
 PCOD9433011
Probable space group: P C C N
;
_chemical_formula_sum "Si O2"
_cell_formula_units_Z 28
_cell_length_a 10.806747
_cell_length_b 10.174427
_cell_length_c 9.904104
_cell_angle_alpha 90.000000
_cell_angle_beta 90.000000
_cell_angle_gamma 90.000000
_cell_volume 1088.980584
_symmetry_space_group_name_H-M "P C C N"
_symmetry_group_IT_number 56
_symmetry_cell_setting 'orthorhombic'
loop_
_space_group_symop_operation_xyz
x,y,z
1/2-x,1/2-y,z
1/2+x,-y,1/2-z
-x,1/2+y,1/2-z
-x,-y,-z
1/2+x,1/2+y,-z
1/2-x,y,1/2+z
x,1/2-y,1/2+z
loop_
_atom_site_type_symbol
_atom_site_label
_atom_site_fract_x
_atom_site_fract_y
_atom_site_fract_z
Si Si1 0.497375 0.370269 0.729317
Si Si2 0.372792 0.611094 0.767182
Si Si3 0.821336 0.475404 0.024500
Si Si4 0.750000 0.750000 0.658528
O O1 0.487770 0.512714 0.799813
O O2 0.588772 0.256014 0.775308
O O3 0.552556 0.409663 0.583595
O O4 0.364326 0.303248 0.752969
O O5 0.313394 0.546366 0.634219
O O6 0.285621 0.601617 0.895146
O O7 0.799676 0.626561 0.070400
#
# Coordination Sequence:
#
# PCOD9433011 Si02
#       4
#     8   8   8   4
#     4  11  23  46  75 111 150 197 251 318 380 457
#     4  11  26  49  77 110 154 201 256 320 384 464
#     4  11  25  49  77 109 155 198 263 314 387 459
#     4  10  24  46  72 114 152 204 248 326 382 460
#
# _framework density 25.712119999999999
#
# number of rings (size 3 to 8) (size 9 to 14) (size 15 to 20)
#    0.000    1.143    2.857    1.714    0.000    9.143 
#   10.286    4.286    0.000    0.000    0.000    0.000 
#    0.000    0.000    0.000    0.000    0.000    0.000 
#
# Total GULP energy -156544.082408 kJ/mol
# GULP energy per Si atom -5590.860086 kJ/mol
# Density = 2.565360 g / cm^3
# Si number density = 25.712120 Si / 1000 Ang^3
#
#
#
# Elastic Constant Matrix: (Units=GPa)
#
#
# Indices 1 2 3 4 5 6 
#
# 1 73.9194 52.5484 36.7238 0.0000 0.0000 0.0000
# 2 52.5484 189.2612 52.7510 0.0000 0.0000 0.0000
# 3 36.7238 52.7510 98.8759 0.0000 0.0000 0.0000
# 4 0.0000 0.0000 0.0000 34.1349 0.0000 0.0000
# 5 0.0000 0.0000 0.0000 0.0000 22.2501 0.0000
# 6 0.0000 0.0000 0.0000 0.0000 0.0000 53.6662
#
#
#
# Elastic Compliance Matrix: (Units=1/GPa)
#
#
# Indices 1 2 3 4 5 6 
#
# 1 0.018678 -0.003821 -0.004899 0.000000 0.000000 0.000000
# 2 -0.003821 0.006988 -0.002309 0.000000 0.000000 0.000000
# 3 -0.004899 -0.002309 0.013165 0.000000 0.000000 0.000000
# 4 0.000000 0.000000 0.000000 0.029296 0.000000 0.000000
# 5 0.000000 0.000000 0.000000 0.000000 0.044944 0.000000
# 6 0.000000 0.000000 0.000000 0.000000 0.000000 0.018634
#
#
# Mechanical properties :
#
#
# Convention : Reuss Voigt Hill
#
# Bulk Modulus (GPa) = 59.61635 71.78921 65.70278
# Shear Modulus (GPa) = 31.37687 36.67912 34.02799
#
# Velocity S-wave (km/s) = 3.49709 3.78104 3.64183
# Velocity P-wave (km/s) = 6.28829 6.85877 6.57971
#
# Compressibility (1/GPa) = 0.01677392
#
# Stress axis : x y z
#
# Youngs Moduli (GPa) = 53.53872 143.10054 75.95772
#
# Poissons Ratio (x) = 0.54672 0.37212
# Poissons Ratio (y) = 0.20455 0.17540
# Poissons Ratio (z) = 0.26229 0.33045
#
# Static dielectric constant tensor:
#      x y z
#    x 2.176590 0.000000 0.000000 
#    y 0.000000 2.050420 0.000000 
#    z 0.000000 0.000000 1.917190 
# 
# From -- ./inp_files/3048.got.cif
#   From: 2010.05.17/outbox.cif.g08.bks.cpg/sg56_2_cif.got.tgz:3048.got - 2010.06.03 13:42:01.
