data_PCOD9433738
_publ_section_title
;
Structure prediction by ZEFSAII (Michael W. Deem and Ramdas Pophale) SiO2 
 PCOD9433738
Probable space group: P C C N
;
_chemical_formula_sum "Si O2"
_cell_formula_units_Z 32
_cell_length_a 14.581575
_cell_length_b 8.003653
_cell_length_c 11.583562
_cell_angle_alpha 90.000000
_cell_angle_beta 90.000000
_cell_angle_gamma 90.000000
_cell_volume 1351.869640
_symmetry_space_group_name_H-M "P C C N"
_symmetry_group_IT_number 56
_symmetry_cell_setting 'orthorhombic'
loop_
_space_group_symop_operation_xyz
x,y,z
1/2-x,1/2-y,z
1/2+x,-y,1/2-z
-x,1/2+y,1/2-z
-x,-y,-z
1/2+x,1/2+y,-z
1/2-x,y,1/2+z
x,1/2-y,1/2+z
loop_
_atom_site_type_symbol
_atom_site_label
_atom_site_fract_x
_atom_site_fract_y
_atom_site_fract_z
Si Si1 0.326124 0.524217 0.706026
Si Si2 0.657652 0.871679 0.031993
Si Si3 0.137937 0.908746 0.256869
Si Si4 0.461443 0.412073 0.886026
O O1 0.365138 0.426526 0.597738
O O2 0.343959 0.721886 0.710919
O O3 0.217816 0.485452 0.695724
O O4 0.368355 0.476493 0.828498
O O5 0.750000 0.750000 0.036549
O O6 0.569467 0.773151 0.081163
O O7 0.659317 0.040771 0.110896
O O8 0.036859 0.942913 0.212466
O O9 0.500000 0.500000 0.000000
#
# Coordination Sequence:
#
# PCOD9433738 Si02
#       4
#     8   8   8   8
#     4  11  28  49  77 112 160 203 264 327 395 470
#     4  12  27  50  83 113 163 210 264 328 399 475
#     4  11  27  48  76 113 153 205 261 325 396 466
#     4  12  28  46  78 115 157 205 267 319 404 472
#
# _framework density 23.670921
#
# number of rings (size 3 to 8) (size 9 to 14) (size 15 to 20)
#    0.000    0.500    2.500    3.000   14.000    4.000 
#    0.000    0.000    0.000    0.000    0.000    0.000 
#    0.000    0.000    0.000    0.000    0.000    0.000 
#
# Total GULP energy -178380.642565 kJ/mol
# GULP energy per Si atom -5574.395080 kJ/mol
# Density = 2.361705 g / cm^3
# Si number density = 23.670921 Si / 1000 Ang^3
#
#
#
# Elastic Constant Matrix: (Units=GPa)
#
#
# Indices 1 2 3 4 5 6 
#
# 1 109.2109 35.1312 38.0440 0.0000 0.0000 0.0000
# 2 35.1312 55.7577 34.4597 0.0000 0.0000 0.0000
# 3 38.0440 34.4597 95.9139 0.0000 0.0000 0.0000
# 4 0.0000 0.0000 0.0000 43.5299 0.0000 0.0000
# 5 0.0000 0.0000 0.0000 0.0000 39.4031 0.0000
# 6 0.0000 0.0000 0.0000 0.0000 0.0000 26.3365
#
#
#
# Elastic Compliance Matrix: (Units=1/GPa)
#
#
# Indices 1 2 3 4 5 6 
#
# 1 0.011976 -0.005926 -0.002621 0.000000 0.000000 0.000000
# 2 -0.005926 0.025986 -0.006986 0.000000 0.000000 0.000000
# 3 -0.002621 -0.006986 0.013976 0.000000 0.000000 0.000000
# 4 0.000000 0.000000 0.000000 0.022973 0.000000 0.000000
# 5 0.000000 0.000000 0.000000 0.000000 0.025379 0.000000
# 6 0.000000 0.000000 0.000000 0.000000 0.000000 0.037970
#
#
# Mechanical properties :
#
#
# Convention : Reuss Voigt Hill
#
# Bulk Modulus (GPa) = 47.91126 52.90583 50.40855
# Shear Modulus (GPa) = 28.36382 32.07042 30.21712
#
# Velocity S-wave (km/s) = 3.46534 3.68481 3.57676
# Velocity P-wave (km/s) = 6.02461 6.36419 6.19673
#
# Compressibility (1/GPa) = 0.02087192
#
# Stress axis : x y z
#
# Youngs Moduli (GPa) = 83.50115 38.48284 71.55361
#
# Poissons Ratio (x) = 0.22803 0.18756
# Poissons Ratio (y) = 0.49480 0.49985
# Poissons Ratio (z) = 0.21888 0.26883
#
# Static dielectric constant tensor:
#      x y z
#    x 2.022760 0.000000 0.000000 
#    y 0.000000 1.522650 0.000000 
#    z 0.000000 0.000000 1.904680 
# 
# From -- ./inp_files/6059.got.cif
#   From: 2010.05.17/outbox.cif.g08.bks.cpg/sg56_4_cif.got.tgz:6059.got - 2010.06.03 13:42:01.
