data_PCOD9433556
_publ_section_title
;
Structure prediction by ZEFSAII (Michael W. Deem and Ramdas Pophale) SiO2 
 PCOD9433556
Probable space group: P C C N
;
_chemical_formula_sum "Si O2"
_cell_formula_units_Z 40
_cell_length_a 5.380511
_cell_length_b 26.844732
_cell_length_c 11.498413
_cell_angle_alpha 90.000000
_cell_angle_beta 90.000000
_cell_angle_gamma 90.000000
_cell_volume 1660.812098
_symmetry_space_group_name_H-M "P C C N"
_symmetry_group_IT_number 56
_symmetry_cell_setting 'orthorhombic'
loop_
_space_group_symop_operation_xyz
x,y,z
1/2-x,1/2-y,z
1/2+x,-y,1/2-z
-x,1/2+y,1/2-z
-x,-y,-z
1/2+x,1/2+y,-z
1/2-x,y,1/2+z
x,1/2-y,1/2+z
loop_
_atom_site_type_symbol
_atom_site_label
_atom_site_fract_x
_atom_site_fract_y
_atom_site_fract_z
Si Si1 0.184635 0.030045 0.417279
Si Si2 0.834255 0.062300 0.210138
Si Si3 0.687439 0.163081 0.564352
Si Si4 0.040505 0.385156 0.362373
Si Si5 0.696180 0.803883 0.819556
O O1 0.307177 0.082026 0.457347
O O2 0.038020 0.051289 0.306185
O O3 0.351467 0.984338 0.375132
O O4 0.000000 0.000000 0.500000
O O5 0.835974 0.112885 0.139111
O O6 0.580924 0.071702 0.282965
O O7 0.672049 0.145918 0.430191
O O8 0.429644 0.190422 0.593740
O O9 0.936453 0.190356 0.609042
O O10 0.183810 0.346481 0.279913
O O11 0.750000 0.750000 0.764025
#
# Coordination Sequence:
#
# PCOD9433556 Si02
#       5
#     8   8   8   8   8
#     4  12  25  39  70 102 148 199 250 293 366 440
#     4  11  24  43  63 105 144 195 237 300 353 435
#     4  11  26  45  75 107 145 188 243 300 372 437
#     4  11  26  44  71 104 148 193 244 304 368 443
#     4  11  26  51  76 105 142 186 243 311 372 439
#
# _framework density 24.084600999999999
#
# number of rings (size 3 to 8) (size 9 to 14) (size 15 to 20)
#    0.000    0.800    4.000    1.800   11.200    2.400 
#    0.000    4.000    0.000    0.000    0.000    0.000 
#    0.000    0.000    0.000    0.000    0.000    0.000 
#
# Total GULP energy -223340.143765 kJ/mol
# GULP energy per Si atom -5583.503594 kJ/mol
# Density = 2.402978 g / cm^3
# Si number density = 24.084601 Si / 1000 Ang^3
#
#
#
# Elastic Constant Matrix: (Units=GPa)
#
#
# Indices 1 2 3 4 5 6 
#
# 1 122.6600 45.8834 23.3851 0.0000 0.0000 0.0000
# 2 45.8834 102.9314 15.5199 0.0000 0.0000 0.0000
# 3 23.3851 15.5199 51.3508 0.0000 0.0000 0.0000
# 4 0.0000 0.0000 0.0000 14.2769 0.0000 0.0000
# 5 0.0000 0.0000 0.0000 0.0000 34.6924 0.0000
# 6 0.0000 0.0000 0.0000 0.0000 0.0000 27.3001
#
#
#
# Elastic Compliance Matrix: (Units=1/GPa)
#
#
# Indices 1 2 3 4 5 6 
#
# 1 0.010344 -0.004087 -0.003475 0.000000 0.000000 0.000000
# 2 -0.004087 0.011794 -0.001703 0.000000 0.000000 0.000000
# 3 -0.003475 -0.001703 0.021571 0.000000 0.000000 0.000000
# 4 0.000000 0.000000 0.000000 0.070043 0.000000 0.000000
# 5 0.000000 0.000000 0.000000 0.000000 0.028825 0.000000
# 6 0.000000 0.000000 0.000000 0.000000 0.000000 0.036630
#
#
# Mechanical properties :
#
#
# Convention : Reuss Voigt Hill
#
# Bulk Modulus (GPa) = 39.71742 49.61323 44.66533
# Shear Modulus (GPa) = 24.25641 28.06414 26.16027
#
# Velocity S-wave (km/s) = 3.17698 3.41725 3.29930
# Velocity P-wave (km/s) = 5.47578 6.01784 5.75320
#
# Compressibility (1/GPa) = 0.02517787
#
# Stress axis : x y z
#
# Youngs Moduli (GPa) = 96.67403 84.78969 46.35765
#
# Poissons Ratio (x) = 0.34654 0.16111
# Poissons Ratio (y) = 0.39511 0.07896
# Poissons Ratio (z) = 0.33598 0.14442
#
# Static dielectric constant tensor:
#      x y z
#    x 2.059000 0.000000 0.000000 
#    y 0.000000 1.886760 0.000000 
#    z 0.000000 0.000000 2.010470 
# 
# From -- ./inp_files/5612.got.cif
#   From: 2010.05.17/outbox.cif.g08.bks.cpg/sg56_3_cif.got.tgz:5612.got - 2010.06.03 13:42:01.
