data_PCOD9433539
_publ_section_title
;
Structure prediction by ZEFSAII (Michael W. Deem and Ramdas Pophale) SiO2 
 PCOD9433539
Probable space group: P C C N
;
_chemical_formula_sum "Si O2"
_cell_formula_units_Z 64
_cell_length_a 12.951898
_cell_length_b 24.114903
_cell_length_c 9.591187
_cell_angle_alpha 90.000000
_cell_angle_beta 90.000000
_cell_angle_gamma 90.000000
_cell_volume 2995.651536
_symmetry_space_group_name_H-M "P C C N"
_symmetry_group_IT_number 56
_symmetry_cell_setting 'orthorhombic'
loop_
_space_group_symop_operation_xyz
x,y,z
1/2-x,1/2-y,z
1/2+x,-y,1/2-z
-x,1/2+y,1/2-z
-x,-y,-z
1/2+x,1/2+y,-z
1/2-x,y,1/2+z
x,1/2-y,1/2+z
loop_
_atom_site_type_symbol
_atom_site_label
_atom_site_fract_x
_atom_site_fract_y
_atom_site_fract_z
Si Si1 0.339879 0.967781 0.196089
Si Si2 0.956157 0.420920 0.049921
Si Si3 0.548516 0.704900 0.883957
Si Si4 0.736312 0.844069 0.512025
Si Si5 0.026007 0.307643 0.937676
Si Si6 0.612926 0.471899 0.830369
Si Si7 0.986550 0.078079 0.092695
Si Si8 0.830119 0.590057 0.780815
O O1 0.229974 0.960755 0.121955
O O2 0.382894 0.928276 0.315612
O O3 0.321697 0.027215 0.269718
O O4 0.427568 0.962621 0.076313
O O5 0.888844 0.443877 0.178246
O O6 0.064517 0.413362 0.131151
O O7 0.952962 0.360170 0.974990
O O8 0.526698 0.711629 0.721579
O O9 0.515257 0.641950 0.913736
O O10 0.666948 0.702309 0.937762
O O11 0.499002 0.755597 0.966136
O O12 0.853625 0.825386 0.540224
O O13 0.684419 0.867244 0.653792
O O14 0.747417 0.892763 0.397831
O O15 0.568953 0.535085 0.836672
O O16 0.535497 0.441894 0.936559
#
# Coordination Sequence:
#
# PCOD9433539 Si02
#       8
#     8   8   8   8   8   8   8   8
#     4  12  24  41  68 100 142 182 232 286 359 437
#     4  11  24  45  63  99 138 181 237 287 360 433
#     4  12  25  45  68  94 140 184 238 292 351 417
#     4  11  24  42  65 103 141 179 241 278 356 444
#     4  11  27  43  69  97 136 191 237 294 353 424
#     4  11  25  41  72 100 139 185 226 293 371 427
#     4  11  25  45  64 106 142 178 238 291 357 439
#     4  11  24  38  65  99 144 187 216 288 353 428
#
# _framework density 21.364303
#
# number of rings (size 3 to 8) (size 9 to 14) (size 15 to 20)
#    0.000    0.750    3.750    3.000   10.500    1.000 
#    0.000    0.000    0.000    4.500    0.000    0.000 
#    0.000    0.000    0.000    0.000    0.000    0.000 
#
# Total GULP energy -356775.545862 kJ/mol
# GULP energy per Si atom -5574.617904 kJ/mol
# Density = 2.131568 g / cm^3
# Si number density = 21.364303 Si / 1000 Ang^3
#
#
#
# Elastic Constant Matrix: (Units=GPa)
#
#
# Indices 1 2 3 4 5 6 
#
# 1 53.1359 22.7431 12.6044 0.0000 0.0000 0.0000
# 2 22.7431 118.1249 47.8137 0.0000 0.0000 0.0000
# 3 12.6044 47.8137 138.6949 0.0000 0.0000 0.0000
# 4 0.0000 0.0000 0.0000 27.9830 0.0000 0.0000
# 5 0.0000 0.0000 0.0000 0.0000 25.4747 0.0000
# 6 0.0000 0.0000 0.0000 0.0000 0.0000 30.1106
#
#
#
# Elastic Compliance Matrix: (Units=1/GPa)
#
#
# Indices 1 2 3 4 5 6 
#
# 1 0.020551 -0.003720 -0.000585 0.000000 0.000000 0.000000
# 2 -0.003720 0.010512 -0.003286 0.000000 0.000000 0.000000
# 3 -0.000585 -0.003286 0.008396 0.000000 0.000000 0.000000
# 4 0.000000 0.000000 0.000000 0.035736 0.000000 0.000000
# 5 0.000000 0.000000 0.000000 0.000000 0.039255 0.000000
# 6 0.000000 0.000000 0.000000 0.000000 0.000000 0.033211
#
#
# Mechanical properties :
#
#
# Convention : Reuss Voigt Hill
#
# Bulk Modulus (GPa) = 41.19169 52.91980 47.05575
# Shear Modulus (GPa) = 29.25107 31.83329 30.54218
#
# Velocity S-wave (km/s) = 3.70423 3.86427 3.78509
# Velocity P-wave (km/s) = 6.13331 6.68835 6.41684
#
# Compressibility (1/GPa) = 0.02427674
#
# Stress axis : x y z
#
# Youngs Moduli (GPa) = 48.66031 95.13114 119.10437
#
# Poissons Ratio (x) = 0.35387 0.06970
# Poissons Ratio (y) = 0.18101 0.39135
# Poissons Ratio (z) = 0.02848 0.31258
#
# Static dielectric constant tensor:
#      x y z
#    x 1.883400 0.000000 0.000000 
#    y 0.000000 1.827540 0.000000 
#    z 0.000000 0.000000 1.789940 
# 
# From -- ./inp_files/3696.got.cif
#   From: 2010.05.17/outbox.cif.g08.bks.cpg/sg56_2_cif.got.tgz:3696.got - 2010.06.03 13:42:01.
