data_PCOD9433070
_publ_section_title
;
Structure prediction by ZEFSAII (Michael W. Deem and Ramdas Pophale) SiO2 
 PCOD9433070
Probable space group: P C C N
;
_chemical_formula_sum "Si O2"
_cell_formula_units_Z 24
_cell_length_a 9.254132
_cell_length_b 17.592553
_cell_length_c 5.189734
_cell_angle_alpha 90.000000
_cell_angle_beta 90.000000
_cell_angle_gamma 90.000000
_cell_volume 844.908456
_symmetry_space_group_name_H-M "P C C N"
_symmetry_group_IT_number 56
_symmetry_cell_setting 'orthorhombic'
loop_
_space_group_symop_operation_xyz
x,y,z
1/2-x,1/2-y,z
1/2+x,-y,1/2-z
-x,1/2+y,1/2-z
-x,-y,-z
1/2+x,1/2+y,-z
1/2-x,y,1/2+z
x,1/2-y,1/2+z
loop_
_atom_site_type_symbol
_atom_site_label
_atom_site_fract_x
_atom_site_fract_y
_atom_site_fract_z
Si Si1 0.918903 0.943838 0.800476
Si Si2 0.677961 0.411051 0.577012
Si Si3 0.589745 0.782857 0.548211
O O1 0.884036 0.868704 0.960395
O O2 0.026896 0.913924 0.574447
O O3 0.806468 0.998180 0.651543
O O4 0.000000 0.000000 0.000000
O O5 0.711229 0.379154 0.862117
O O6 0.750000 0.750000 0.597219
O O7 0.515888 0.764381 0.819246
#
# Coordination Sequence:
#
# PCOD9433070 Si02
#       3
#     8   8   8
#     4  11  25  42  71 106 149 192 251 301 363 448
#     4  11  24  39  66 101 139 182 242 290 355 418
#     4  10  25  41  65 101 145 184 228 300 381 430
#
# _framework density 28.405449000000001
#
# number of rings (size 3 to 8) (size 9 to 14) (size 15 to 20)
#    0.000    1.333    3.333    0.000   18.667    0.000 
#    0.000    0.000    0.000    6.000    0.000    0.000 
#    0.000    0.000    0.000    0.000    0.000    0.000 
#
# Total GULP energy -134197.363911 kJ/mol
# GULP energy per Si atom -5591.556830 kJ/mol
# Density = 2.834080 g / cm^3
# Si number density = 28.405449 Si / 1000 Ang^3
#
#
#
# Elastic Constant Matrix: (Units=GPa)
#
#
# Indices 1 2 3 4 5 6 
#
# 1 52.1354 -2.7488 8.7673 0.0000 0.0000 0.0000
# 2 -2.7488 153.4971 34.7995 0.0000 0.0000 0.0000
# 3 8.7673 34.7995 262.5872 0.0000 0.0000 0.0000
# 4 0.0000 0.0000 0.0000 61.4642 0.0000 0.0000
# 5 0.0000 0.0000 0.0000 0.0000 35.5003 0.0000
# 6 0.0000 0.0000 0.0000 0.0000 0.0000 35.2112
#
#
#
# Elastic Compliance Matrix: (Units=1/GPa)
#
#
# Indices 1 2 3 4 5 6 
#
# 1 0.019327 0.000508 -0.000713 0.000000 0.000000 0.000000
# 2 0.000508 0.006730 -0.000909 0.000000 0.000000 0.000000
# 3 -0.000713 -0.000909 0.003952 0.000000 0.000000 0.000000
# 4 0.000000 0.000000 0.000000 0.016270 0.000000 0.000000
# 5 0.000000 0.000000 0.000000 0.000000 0.028169 0.000000
# 6 0.000000 0.000000 0.000000 0.000000 0.000000 0.028400
#
#
# Mechanical properties :
#
#
# Convention : Reuss Voigt Hill
#
# Bulk Modulus (GPa) = 35.99414 61.09507 48.54461
# Shear Modulus (GPa) = 43.73056 54.92860 49.32958
#
# Velocity S-wave (km/s) = 3.92792 4.40220 4.17180
# Velocity P-wave (km/s) = 5.76806 6.88433 6.35077
#
# Compressibility (1/GPa) = 0.02778230
#
# Stress axis : x y z
#
# Youngs Moduli (GPa) = 51.74001 148.59026 253.00481
#
# Poissons Ratio (x) = -0.07543 0.18029
# Poissons Ratio (y) = -0.02627 0.22994
# Poissons Ratio (z) = 0.03687 0.13504
#
# Static dielectric constant tensor:
#      x y z
#    x 2.582130 0.000000 0.000000 
#    y 0.000000 2.235330 0.000000 
#    z 0.000000 0.000000 2.387790 
# 
# From -- ./inp_files/179.got.cif
#   From: 2010.05.17/outbox.cif.g08.bks.cpg/sg56_1_cif.got.tgz:179.got - 2010.06.03 13:42:01.
