data_PCOD9433334
_publ_section_title
;
Structure prediction by ZEFSAII (Michael W. Deem and Ramdas Pophale) SiO2 
 PCOD9433334
Probable space group: P C C N
;
_chemical_formula_sum "Si O2"
_cell_formula_units_Z 40
_cell_length_a 8.386384
_cell_length_b 11.716719
_cell_length_c 18.204066
_cell_angle_alpha 90.000000
_cell_angle_beta 90.000000
_cell_angle_gamma 90.000000
_cell_volume 1788.747995
_symmetry_space_group_name_H-M "P C C N"
_symmetry_group_IT_number 56
_symmetry_cell_setting 'orthorhombic'
loop_
_space_group_symop_operation_xyz
x,y,z
1/2-x,1/2-y,z
1/2+x,-y,1/2-z
-x,1/2+y,1/2-z
-x,-y,-z
1/2+x,1/2+y,-z
1/2-x,y,1/2+z
x,1/2-y,1/2+z
loop_
_atom_site_type_symbol
_atom_site_label
_atom_site_fract_x
_atom_site_fract_y
_atom_site_fract_z
Si Si1 0.750000 0.750000 0.779941
Si Si2 0.441133 0.114835 0.840229
Si Si3 0.750000 0.250000 0.382780
Si Si4 0.486689 0.125976 0.110803
Si Si5 0.415080 0.841178 0.476888
Si Si6 0.255364 0.426555 0.481707
O O1 0.657466 0.662924 0.727326
O O2 0.625248 0.809354 0.832912
O O3 0.617405 0.173173 0.841640
O O4 0.345805 0.138521 0.916322
O O5 0.443425 0.977904 0.842213
O O6 0.647293 0.174897 0.439961
O O7 0.589757 0.223622 0.069450
O O8 0.383795 0.063645 0.046875
O O9 0.602896 0.866177 0.482851
O O10 0.319274 0.954127 0.451783
#
# Coordination Sequence:
#
# PCOD9433334 Si02
#       6
#     4   8   4   8   8   8
#     4  12  30  48  70 100 156 206 238 292 368 462
#     4  12  27  46  73 105 147 195 249 303 373 440
#     4  12  22  40  70 108 136 180 242 310 364 422
#     4  12  24  48  73 106 149 191 247 305 369 445
#     4  11  22  38  77 109 142 176 241 311 369 424
#     4  11  22  44  75 110 140 187 244 316 367 423
#
# _framework density 22.362009
#
# number of rings (size 3 to 8) (size 9 to 14) (size 15 to 20)
#    0.000    0.400    6.000    3.000    0.000    3.200 
#    0.000    1.000    0.000    0.000    0.000    0.000 
#    0.000    0.000    0.000    0.000    0.000    0.000 
#
# Total GULP energy -223510.062453 kJ/mol
# GULP energy per Si atom -5587.751561 kJ/mol
# Density = 2.231111 g / cm^3
# Si number density = 22.362009 Si / 1000 Ang^3
#
#
#
# Elastic Constant Matrix: (Units=GPa)
#
#
# Indices 1 2 3 4 5 6 
#
# 1 101.4694 60.9544 30.2037 0.0000 0.0000 0.0000
# 2 60.9544 142.7927 30.8304 0.0000 0.0000 0.0000
# 3 30.2037 30.8304 87.4433 0.0000 0.0000 0.0000
# 4 0.0000 0.0000 0.0000 22.7578 0.0000 0.0000
# 5 0.0000 0.0000 0.0000 0.0000-1090.2645 0.0000
# 6 0.0000 0.0000 0.0000 0.0000 0.0000 45.4194
#
#
#
# Elastic Compliance Matrix: (Units=1/GPa)
#
#
# Indices 1 2 3 4 5 6 
#
# 1 0.013917 -0.005307 -0.002936 0.000000 0.000000 0.000000
# 2 -0.005307 0.009604 -0.001553 0.000000 0.000000 0.000000
# 3 -0.002936 -0.001553 0.012998 0.000000 0.000000 0.000000
# 4 0.000000 0.000000 0.000000 0.043941 0.000000 0.000000
# 5 0.000000 0.000000 0.000000 0.000000 -0.000917 0.000000
# 6 0.000000 0.000000 0.000000 0.000000 0.000000 0.022017
#
#
# Mechanical properties :
#
#
# Convention : Reuss Voigt Hill
#
# Bulk Modulus (GPa) = 59.07821 63.96471 61.52146
# Shear Modulus (GPa) = 39.43418 -190.43634 -75.50108
#
# Velocity S-wave (km/s) = 4.20390 -9.23826 -5.81691
# Velocity P-wave (km/s) = 7.07390 9.22647 4.18854
#
# Compressibility (1/GPa) = 0.01692671
#
# Stress axis : x y z
#
# Youngs Moduli (GPa) = 71.85410 104.12479 76.93697
#
# Poissons Ratio (x) = 0.55258 0.22589
# Poissons Ratio (y) = 0.38132 0.11949
# Poissons Ratio (z) = 0.21096 0.16171
#
# Static dielectric constant tensor:
#      x y z
#    x 1.848120 0.000000 0.000000 
#    y 0.000000 1.882920 0.000000 
#    z 0.000000 0.000000 1.750480 
# 
# From -- ./inp_files/14525.got.cif
#   From: 2010.05.17/outbox.cif.g08.bks.cpg/sg56_8_cif.got.tgz:14525.got - 2010.06.03 13:42:01.
