data_PCOD9433140
_publ_section_title
;
Structure prediction by ZEFSAII (Michael W. Deem and Ramdas Pophale) SiO2 
 PCOD9433140
Probable space group: P C C N
;
_chemical_formula_sum "Si O2"
_cell_formula_units_Z 24
_cell_length_a 5.827815
_cell_length_b 19.533687
_cell_length_c 9.169181
_cell_angle_alpha 90.000000
_cell_angle_beta 90.000000
_cell_angle_gamma 90.000000
_cell_volume 1043.807774
_symmetry_space_group_name_H-M "P C C N"
_symmetry_group_IT_number 56
_symmetry_cell_setting 'orthorhombic'
loop_
_space_group_symop_operation_xyz
x,y,z
1/2-x,1/2-y,z
1/2+x,-y,1/2-z
-x,1/2+y,1/2-z
-x,-y,-z
1/2+x,1/2+y,-z
1/2-x,y,1/2+z
x,1/2-y,1/2+z
loop_
_atom_site_type_symbol
_atom_site_label
_atom_site_fract_x
_atom_site_fract_y
_atom_site_fract_z
Si Si1 0.733671 0.847496 0.725329
Si Si2 0.922504 0.312517 0.524675
Si Si3 0.531679 0.080186 0.024946
O O1 0.555820 0.804851 0.627624
O O2 0.893316 0.883572 0.605700
O O3 0.583916 0.899888 0.821608
O O4 0.897041 0.813018 0.844335
O O5 0.750000 0.250000 0.542787
O O6 0.782636 0.384392 0.524586
O O7 0.500000 0.000000 0.000000
#
# Coordination Sequence:
#
# PCOD9433140 Si02
#       3
#     8   8   8
#     4  10  26  45  74 108 145 196 246 304 377 440
#     4  11  26  49  75 109 151 197 253 315 374 452
#     4  11  26  43  74 107 148 195 246 310 369 445
#
# _framework density 22.992737999999999
#
# number of rings (size 3 to 8) (size 9 to 14) (size 15 to 20)
#    0.000    1.333    0.000    2.000    9.333   16.000 
#    0.000    5.000    0.000    0.000    0.000    0.000 
#    0.000    0.000    0.000    0.000    0.000    0.000 
#
# Total GULP energy -134493.849473 kJ/mol
# GULP energy per Si atom -5603.910395 kJ/mol
# Density = 2.294041 g / cm^3
# Si number density = 22.992738 Si / 1000 Ang^3
#
#
#
# Elastic Constant Matrix: (Units=GPa)
#
#
# Indices 1 2 3 4 5 6 
#
# 1 108.4144 39.3540 23.6992 0.0000 0.0000 0.0000
# 2 39.3540 110.4666 5.7885 0.0000 0.0000 0.0000
# 3 23.6992 5.7885 117.2991 0.0000 0.0000 0.0000
# 4 0.0000 0.0000 0.0000 11.4077 0.0000 0.0000
# 5 0.0000 0.0000 0.0000 0.0000 28.4907 0.0000
# 6 0.0000 0.0000 0.0000 0.0000 0.0000 30.6427
#
#
#
# Elastic Compliance Matrix: (Units=1/GPa)
#
#
# Indices 1 2 3 4 5 6 
#
# 1 0.011063 -0.003834 -0.002046 0.000000 0.000000 0.000000
# 2 -0.003834 0.010405 0.000261 0.000000 0.000000 0.000000
# 3 -0.002046 0.000261 0.008926 0.000000 0.000000 0.000000
# 4 0.000000 0.000000 0.000000 0.087660 0.000000 0.000000
# 5 0.000000 0.000000 0.000000 0.000000 0.035099 0.000000
# 6 0.000000 0.000000 0.000000 0.000000 0.000000 0.032634
#
#
# Mechanical properties :
#
#
# Convention : Reuss Voigt Hill
#
# Bulk Modulus (GPa) = 52.20369 52.65149 52.42759
# Shear Modulus (GPa) = 24.58101 31.93079 28.25590
#
# Velocity S-wave (km/s) = 3.27322 3.73061 3.50938
# Velocity P-wave (km/s) = 6.08597 6.44248 6.26676
#
# Compressibility (1/GPa) = 0.01915573
#
# Stress axis : x y z
#
# Youngs Moduli (GPa) = 90.39293 96.11064 112.03612
#
# Poissons Ratio (x) = 0.36848 0.22922
# Poissons Ratio (y) = 0.34656 -0.02926
# Poissons Ratio (z) = 0.18494 -0.02510
#
# Static dielectric constant tensor:
#      x y z
#    x 1.868950 0.000000 0.000000 
#    y 0.000000 1.868970 0.000000 
#    z 0.000000 0.000000 1.795970 
# 
# From -- ./inp_files/1490.got.cif
#   From: 2010.05.17/outbox.cif.g08.bks.cpg/sg56_1_cif.got.tgz:1490.got - 2010.06.03 13:42:01.
