data_PCOD9433650
_publ_section_title
;
Structure prediction by ZEFSAII (Michael W. Deem and Ramdas Pophale) SiO2 
 PCOD9433650
Probable space group: P C C N
;
_chemical_formula_sum "Si O2"
_cell_formula_units_Z 32
_cell_length_a 6.694953
_cell_length_b 10.047743
_cell_length_c 17.956100
_cell_angle_alpha 90.000000
_cell_angle_beta 90.000000
_cell_angle_gamma 90.000000
_cell_volume 1207.891892
_symmetry_space_group_name_H-M "P C C N"
_symmetry_group_IT_number 56
_symmetry_cell_setting 'orthorhombic'
loop_
_space_group_symop_operation_xyz
x,y,z
1/2-x,1/2-y,z
1/2+x,-y,1/2-z
-x,1/2+y,1/2-z
-x,-y,-z
1/2+x,1/2+y,-z
1/2-x,y,1/2+z
x,1/2-y,1/2+z
loop_
_atom_site_type_symbol
_atom_site_label
_atom_site_fract_x
_atom_site_fract_y
_atom_site_fract_z
Si Si1 0.098090 0.141833 0.293769
Si Si2 0.428141 0.836677 0.062929
Si Si3 0.652808 0.397252 0.147477
Si Si4 0.773873 0.610627 0.440540
O O1 0.250000 0.250000 0.264125
O O2 0.985696 0.225294 0.358283
O O3 0.972754 0.094818 0.223843
O O4 0.192724 0.017249 0.338684
O O5 0.250000 0.750000 0.027805
O O6 0.329911 0.976594 0.084174
O O7 0.624033 0.855595 0.011362
O O8 0.750000 0.250000 0.143605
O O9 0.509427 0.418748 0.075178
O O10 0.750000 0.750000 0.397782
#
# Coordination Sequence:
#
# PCOD9433650 Si02
#       4
#     8   8   8   8
#     4  12  24  43  69 101 140 184 235 288 353 423
#     4  11  25  45  71 101 139 184 237 297 354 419
#     4  12  25  44  71 104 145 187 233 291 355 426
#     4  11  25  45  68 102 139 185 237 288 356 419
#
# _framework density 26.492436999999999
#
# number of rings (size 3 to 8) (size 9 to 14) (size 15 to 20)
#    0.000    0.500    0.000    8.250    0.000    7.000 
#    0.000    0.000    0.000    0.000    0.000    0.000 
#    0.000    0.000    0.000    0.000    0.000    0.000 
#
# Total GULP energy -178655.038341 kJ/mol
# GULP energy per Si atom -5582.969948 kJ/mol
# Density = 2.643214 g / cm^3
# Si number density = 26.492437 Si / 1000 Ang^3
#
#
#
# Elastic Constant Matrix: (Units=GPa)
#
#
# Indices 1 2 3 4 5 6 
#
# 1 164.4943 62.3963 84.2166 0.0000 0.0000 0.0000
# 2 62.3963 138.1986 12.3448 0.0000 0.0000 0.0000
# 3 84.2166 12.3448 162.4268 0.0000 0.0000 0.0000
# 4 0.0000 0.0000 0.0000 25.9702 0.0000 0.0000
# 5 0.0000 0.0000 0.0000 0.0000 75.4403 0.0000
# 6 0.0000 0.0000 0.0000 0.0000 0.0000 63.5756
#
#
#
# Elastic Compliance Matrix: (Units=1/GPa)
#
#
# Indices 1 2 3 4 5 6 
#
# 1 0.010206 -0.004163 -0.004975 0.000000 0.000000 0.000000
# 2 -0.004163 0.008984 0.001476 0.000000 0.000000 0.000000
# 3 -0.004975 0.001476 0.008624 0.000000 0.000000 0.000000
# 4 0.000000 0.000000 0.000000 0.038506 0.000000 0.000000
# 5 0.000000 0.000000 0.000000 0.000000 0.013256 0.000000
# 6 0.000000 0.000000 0.000000 0.000000 0.000000 0.015729
#
#
# Mechanical properties :
#
#
# Convention : Reuss Voigt Hill
#
# Bulk Modulus (GPa) = 80.07499 87.00391 83.53945
# Shear Modulus (GPa) = 43.55709 53.40802 48.48255
#
# Velocity S-wave (km/s) = 4.05919 4.49483 4.28255
# Velocity P-wave (km/s) = 7.22915 7.73630 7.48702
#
# Compressibility (1/GPa) = 0.01248829
#
# Stress axis : x y z
#
# Youngs Moduli (GPa) = 97.98526 111.31033 115.95576
#
# Poissons Ratio (x) = 0.46343 0.57689
# Poissons Ratio (y) = 0.40795 -0.17114
# Poissons Ratio (z) = 0.48748 -0.16428
#
# Static dielectric constant tensor:
#      x y z
#    x 2.176710 0.000000 0.000000 
#    y 0.000000 2.035100 0.000000 
#    z 0.000000 0.000000 1.988490 
# 
# From -- ./inp_files/17260.got.cif
#   From: 2010.05.17/outbox.cif.g08.bks.cpg/sg56_9_cif.got.tgz:17260.got - 2010.06.03 13:42:01.
