data_PCOD9433151
_publ_section_title
;
Structure prediction by ZEFSAII (Michael W. Deem and Ramdas Pophale) SiO2 
 PCOD9433151
Probable space group: P C C N
;
_chemical_formula_sum "Si O2"
_cell_formula_units_Z 28
_cell_length_a 4.700391
_cell_length_b 7.877614
_cell_length_c 30.371947
_cell_angle_alpha 90.000000
_cell_angle_beta 90.000000
_cell_angle_gamma 90.000000
_cell_volume 1124.608382
_symmetry_space_group_name_H-M "P C C N"
_symmetry_group_IT_number 56
_symmetry_cell_setting 'orthorhombic'
loop_
_space_group_symop_operation_xyz
x,y,z
1/2-x,1/2-y,z
1/2+x,-y,1/2-z
-x,1/2+y,1/2-z
-x,-y,-z
1/2+x,1/2+y,-z
1/2-x,y,1/2+z
x,1/2-y,1/2+z
loop_
_atom_site_type_symbol
_atom_site_label
_atom_site_fract_x
_atom_site_fract_y
_atom_site_fract_z
Si Si1 0.604298 0.435037 0.874921
Si Si2 0.750000 0.750000 0.426040
Si Si3 0.905294 0.068821 0.775432
Si Si4 0.750000 0.750000 0.058225
Si Si5 0.750000 0.250000 0.006660
O O1 0.750000 0.250000 0.872570
O O2 0.790633 0.588309 0.894309
O O3 0.505919 0.473310 0.825415
O O4 0.358737 0.397055 0.910027
O O5 0.492504 0.805641 0.458440
O O6 0.750000 0.250000 0.774953
O O7 0.672180 0.940313 0.756544
O O8 0.485028 0.820051 0.028880
#
# Coordination Sequence:
#
# PCOD9433151 Si02
#       5
#     8   4   8   4   4
#     4  11  28  49  75 107 149 194 241 299 373 435
#     4  11  28  46  73 108 148 190 251 296 362 431
#     4  11  27  47  76 110 148 191 244 304 372 443
#     4  11  24  48  75 102 154 190 243 306 364 429
#     4  10  26  46  74 110 142 196 248 302 360 430
#
# _framework density 24.897556999999999
#
# number of rings (size 3 to 8) (size 9 to 14) (size 15 to 20)
#    0.000    1.143    1.429    0.857   16.000    6.857 
#    0.000    0.000    0.000    0.000    0.000    0.000 
#    0.000    0.000    0.000    0.000    0.000    0.000 
#
# Total GULP energy -156116.310906 kJ/mol
# GULP energy per Si atom -5575.582532 kJ/mol
# Density = 2.484089 g / cm^3
# Si number density = 24.897557 Si / 1000 Ang^3
#
#
#
# Elastic Constant Matrix: (Units=GPa)
#
#
# Indices 1 2 3 4 5 6 
#
# 1 119.6265 37.4657 33.2651 0.0000 0.0000 0.0000
# 2 37.4657 109.8158 82.6469 0.0000 0.0000 0.0000
# 3 33.2651 82.6469 168.2797 0.0000 0.0000 0.0000
# 4 0.0000 0.0000 0.0000 55.7139 0.0000 0.0000
# 5 0.0000 0.0000 0.0000 0.0000 -295.6150 0.0000
# 6 0.0000 0.0000 0.0000 0.0000 0.0000 30.6384
#
#
#
# Elastic Compliance Matrix: (Units=1/GPa)
#
#
# Indices 1 2 3 4 5 6 
#
# 1 0.009381 -0.002863 -0.000448 0.000000 0.000000 0.000000
# 2 -0.002863 0.015319 -0.006958 0.000000 0.000000 0.000000
# 3 -0.000448 -0.006958 0.009448 0.000000 0.000000 0.000000
# 4 0.000000 0.000000 0.000000 0.017949 0.000000 0.000000
# 5 0.000000 0.000000 0.000000 0.000000 -0.003383 0.000000
# 6 0.000000 0.000000 0.000000 0.000000 0.000000 0.032639
#
#
# Mechanical properties :
#
#
# Convention : Reuss Voigt Hill
#
# Bulk Modulus (GPa) = 73.47474 78.27527 75.87501
# Shear Modulus (GPa) = 46.98012 -25.56293 10.70859
#
# Velocity S-wave (km/s) = 4.34860 -3.20773 2.07615
# Velocity P-wave (km/s) = 7.40194 4.21756 6.02397
#
# Compressibility (1/GPa) = 0.01361012
#
# Stress axis : x y z
#
# Youngs Moduli (GPa) = 106.60222 65.27685 105.83955
#
# Poissons Ratio (x) = 0.18689 0.04744
# Poissons Ratio (y) = 0.30521 0.73641
# Poissons Ratio (z) = 0.04778 0.45418
#
# Static dielectric constant tensor:
#      x y z
#    x 2.027440 0.000000 0.000000 
#    y 0.000000 2.051430 0.000000 
#    z 0.000000 0.000000 1.946460 
# 
# From -- ./inp_files/21458.got.cif
#   From: 2010.05.17/outbox.cif.g08.bks.cpg/sg56_11_cif.got.tgz:21458.got - 2010.06.03 13:42:01.
