data_PCOD9433097
_publ_section_title
;
Structure prediction by ZEFSAII (Michael W. Deem and Ramdas Pophale) SiO2 
 PCOD9433097
Probable space group: P C C N
;
_chemical_formula_sum "Si O2"
_cell_formula_units_Z 64
_cell_length_a 14.526319
_cell_length_b 8.840565
_cell_length_c 24.794333
_cell_angle_alpha 90.000000
_cell_angle_beta 90.000000
_cell_angle_gamma 90.000000
_cell_volume 3184.109749
_symmetry_space_group_name_H-M "P C C N"
_symmetry_group_IT_number 56
_symmetry_cell_setting 'orthorhombic'
loop_
_space_group_symop_operation_xyz
x,y,z
1/2-x,1/2-y,z
1/2+x,-y,1/2-z
-x,1/2+y,1/2-z
-x,-y,-z
1/2+x,1/2+y,-z
1/2-x,y,1/2+z
x,1/2-y,1/2+z
loop_
_atom_site_type_symbol
_atom_site_label
_atom_site_fract_x
_atom_site_fract_y
_atom_site_fract_z
Si Si1 0.104139 0.114376 0.910477
Si Si2 0.445817 0.678409 0.642812
Si Si3 0.354868 0.687376 0.757465
Si Si4 0.155642 0.164732 0.034031
Si Si5 0.233871 0.413825 0.310830
Si Si6 0.917734 0.411356 0.156318
Si Si7 0.846623 0.305442 0.455295
Si Si8 0.958142 0.222297 0.060121
O O1 0.188094 0.104668 0.869334
O O2 0.027971 0.216712 0.880722
O O3 0.064372 0.946804 0.920094
O O4 0.135919 0.169633 0.969462
O O5 0.402810 0.716212 0.700622
O O6 0.492219 0.514728 0.651319
O O7 0.367543 0.709020 0.598174
O O8 0.250000 0.750000 0.757002
O O9 0.335374 0.515323 0.775503
O O10 0.416517 0.770618 0.802587
O O11 0.250000 0.250000 0.045993
O O12 0.067665 0.241801 0.062026
O O13 0.156912 0.987326 0.051151
O O14 0.250000 0.250000 0.285865
O O15 0.332293 0.490488 0.322147
O O16 0.904445 0.340294 0.097238
O O17 0.750000 0.250000 0.478671
O O18 0.925295 0.270244 0.498692
#
# Coordination Sequence:
#
# PCOD9433097 Si02
#       8
#     8   8   8   8   8   8   8   8
#     4  11  21  41  69  94 134 169 221 268 332 393
#     4  12  24  43  66  94 130 178 217 265 334 400
#     4  10  25  46  65  94 132 168 223 280 326 391
#     4  11  24  42  66  99 134 177 219 274 330 398
#     4  11  22  42  68  99 126 168 220 279 331 386
#     4  11  26  38  69 100 127 170 220 273 332 382
#     4  11  25  41  66  95 135 181 214 267 339 402
#     4  11  23  44  64  99 136 171 218 277 326 403
#
# _framework density 20.099809
#
# number of rings (size 3 to 8) (size 9 to 14) (size 15 to 20)
#    0.000    1.000    5.000    1.500    7.000    0.500 
#    0.000    1.250    0.000    0.000    0.000    0.000 
#    0.000    0.000    0.000    0.000    0.000    0.000 
#
# Total GULP energy -357285.159346 kJ/mol
# GULP energy per Si atom -5582.580615 kJ/mol
# Density = 2.005406 g / cm^3
# Si number density = 20.099809 Si / 1000 Ang^3
#
#
#
# Elastic Constant Matrix: (Units=GPa)
#
#
# Indices 1 2 3 4 5 6 
#
# 1 74.1652 24.8862 5.3414 0.0000 0.0000 0.0000
# 2 24.8862 74.2765 31.3115 0.0000 0.0000 0.0000
# 3 5.3414 31.3115 82.4724 0.0000 0.0000 0.0000
# 4 0.0000 0.0000 0.0000 22.8630 0.0000 0.0000
# 5 0.0000 0.0000 0.0000 0.0000 61.6376 0.0000
# 6 0.0000 0.0000 0.0000 0.0000 0.0000 21.2999
#
#
#
# Elastic Compliance Matrix: (Units=1/GPa)
#
#
# Indices 1 2 3 4 5 6 
#
# 1 0.015280 -0.005598 0.001136 0.000000 0.000000 0.000000
# 2 -0.005598 0.018080 -0.006502 0.000000 0.000000 0.000000
# 3 0.001136 -0.006502 0.014520 0.000000 0.000000 0.000000
# 4 0.000000 0.000000 0.000000 0.043739 0.000000 0.000000
# 5 0.000000 0.000000 0.000000 0.000000 0.016224 0.000000
# 6 0.000000 0.000000 0.000000 0.000000 0.000000 0.046949
#
#
# Mechanical properties :
#
#
# Convention : Reuss Voigt Hill
#
# Bulk Modulus (GPa) = 38.53308 39.33247 38.93278
# Shear Modulus (GPa) = 26.97310 32.45178 29.71244
#
# Velocity S-wave (km/s) = 3.66725 4.02248 3.84897
# Velocity P-wave (km/s) = 6.09460 6.41755 6.25815
#
# Compressibility (1/GPa) = 0.02595173
#
# Stress axis : x y z
#
# Youngs Moduli (GPa) = 65.44435 55.31061 68.87014
#
# Poissons Ratio (x) = 0.30965 -0.07823
# Poissons Ratio (y) = 0.36639 0.44776
# Poissons Ratio (z) = -0.07434 0.35961
#
# Static dielectric constant tensor:
#      x y z
#    x 1.723480 0.000000 0.000000 
#    y 0.000000 1.748720 0.000000 
#    z 0.000000 0.000000 1.698480 
# 
# From -- ./inp_files/21151.got.cif
#   From: 2010.05.17/outbox.cif.g08.bks.cpg/sg56_11_cif.got.tgz:21151.got - 2010.06.03 13:42:01.
