data_PCOD9433326
_publ_section_title
;
Structure prediction by ZEFSAII (Michael W. Deem and Ramdas Pophale) SiO2 
 PCOD9433326
Probable space group: P C C N
;
_chemical_formula_sum "Si O2"
_cell_formula_units_Z 32
_cell_length_a 14.805912
_cell_length_b 5.076729
_cell_length_c 19.881714
_cell_angle_alpha 90.000000
_cell_angle_beta 90.000000
_cell_angle_gamma 90.000000
_cell_volume 1494.421018
_symmetry_space_group_name_H-M "P C C N"
_symmetry_group_IT_number 56
_symmetry_cell_setting 'orthorhombic'
loop_
_space_group_symop_operation_xyz
x,y,z
1/2-x,1/2-y,z
1/2+x,-y,1/2-z
-x,1/2+y,1/2-z
-x,-y,-z
1/2+x,1/2+y,-z
1/2-x,y,1/2+z
x,1/2-y,1/2+z
loop_
_atom_site_type_symbol
_atom_site_label
_atom_site_fract_x
_atom_site_fract_y
_atom_site_fract_z
Si Si1 0.118162 0.259930 0.502075
Si Si2 0.308059 0.016292 0.639422
Si Si3 0.492905 0.158779 0.707971
Si Si4 0.079990 0.741643 0.928716
O O1 0.172748 0.389879 0.563021
O O2 0.117953 0.471446 0.443094
O O3 0.018142 0.234634 0.534684
O O4 0.137576 0.980439 0.467294
O O5 0.250000 0.250000 0.671784
O O6 0.405682 0.018045 0.674164
O O7 0.250000 0.750000 0.640961
O O8 0.464587 0.417282 0.750197
O O9 0.558076 0.276183 0.649935
#
# Coordination Sequence:
#
# PCOD9433326 Si02
#       4
#     8   8   8   8
#     4   9  17  31  53  80 108 139 179 237 304 349
#     4  11  22  37  59  87 119 154 199 259 315 362
#     4  11  22  37  59  87 119 162 212 246 284 357
#     4   9  17  31  53  80 108 139 184 240 287 340
#
# _framework density 21.412973999999998
#
# number of rings (size 3 to 8) (size 9 to 14) (size 15 to 20)
#    0.000    2.000    0.000    4.500    0.000    8.000 
#    0.000    0.000    0.000   22.500    0.000    0.000 
#    0.000    0.000    0.000    0.000    0.000    0.500 
#
# Total GULP energy -178375.538627 kJ/mol
# GULP energy per Si atom -5574.235582 kJ/mol
# Density = 2.136424 g / cm^3
# Si number density = 21.412974 Si / 1000 Ang^3
#
#
#
# Elastic Constant Matrix: (Units=GPa)
#
#
# Indices 1 2 3 4 5 6 
#
# 1 39.1121 11.5825 7.8815 0.0000 0.0000 0.0000
# 2 11.5825 145.8469 40.6514 0.0000 0.0000 0.0000
# 3 7.8815 40.6514 84.7289 0.0000 0.0000 0.0000
# 4 0.0000 0.0000 0.0000 18.2341 0.0000 0.0000
# 5 0.0000 0.0000 0.0000 0.0000 9.1868 0.0000
# 6 0.0000 0.0000 0.0000 0.0000 0.0000 30.8405
#
#
#
# Elastic Compliance Matrix: (Units=1/GPa)
#
#
# Indices 1 2 3 4 5 6 
#
# 1 0.026387 -0.001629 -0.001673 0.000000 0.000000 0.000000
# 2 -0.001629 0.008016 -0.003694 0.000000 0.000000 0.000000
# 3 -0.001673 -0.003694 0.013730 0.000000 0.000000 0.000000
# 4 0.000000 0.000000 0.000000 0.054842 0.000000 0.000000
# 5 0.000000 0.000000 0.000000 0.000000 0.108851 0.000000
# 6 0.000000 0.000000 0.000000 0.000000 0.000000 0.032425
#
#
# Mechanical properties :
#
#
# Convention : Reuss Voigt Hill
#
# Bulk Modulus (GPa) = 29.29073 43.32428 36.30751
# Shear Modulus (GPa) = 18.54431 25.62378 22.08404
#
# Velocity S-wave (km/s) = 2.94603 3.46301 3.21493
# Velocity P-wave (km/s) = 5.02800 6.02217 5.54740
#
# Compressibility (1/GPa) = 0.03414049
#
# Stress axis : x y z
#
# Youngs Moduli (GPa) = 37.89725 124.75746 72.83134
#
# Poissons Ratio (x) = 0.20326 0.12184
# Poissons Ratio (y) = 0.06175 0.26905
# Poissons Ratio (z) = 0.06340 0.46087
#
# Static dielectric constant tensor:
#      x y z
#    x 1.882350 0.000000 0.000000 
#    y 0.000000 1.764450 0.000000 
#    z 0.000000 0.000000 1.776510 
# 
# From -- ./inp_files/13765.got.cif
#   From: 2010.05.17/outbox.cif.g08.bks.cpg/sg56_7_cif.got.tgz:13765.got - 2010.06.03 13:42:01.
