data_PCOD9433963
_publ_section_title
;
Structure prediction by ZEFSAII (Michael W. Deem and Ramdas Pophale) SiO2 
 PCOD9433963
Probable space group: P C C N
;
_chemical_formula_sum "Si O2"
_cell_formula_units_Z 60
_cell_length_a 9.000000
_cell_length_b 27.000000
_cell_length_c 12.000000
_cell_angle_alpha 90.000000
_cell_angle_beta 90.000000
_cell_angle_gamma 90.000000
_cell_volume 2916.000000
_symmetry_space_group_name_H-M "P C C N"
_symmetry_group_IT_number 56
_symmetry_cell_setting 'orthorhombic'
loop_
_space_group_symop_operation_xyz
x,y,z
1/2-x,1/2-y,z
1/2+x,-y,1/2-z
-x,1/2+y,1/2-z
-x,-y,-z
1/2+x,1/2+y,-z
1/2-x,y,1/2+z
x,1/2-y,1/2+z
loop_
_atom_site_type_symbol
_atom_site_label
_atom_site_fract_x
_atom_site_fract_y
_atom_site_fract_z
Si Si1 0.574704 0.663455 0.035689
Si Si2 0.318508 0.110251 0.683653
Si Si3 0.254407 0.614982 0.835775
Si Si4 0.250000 0.250000 0.836517
Si Si5 0.030073 0.975323 0.880707
Si Si6 0.468878 0.418681 0.785985
Si Si7 0.493704 0.819839 0.204424
Si Si8 0.267587 0.805029 0.004324
O O1 0.676411 0.706191 0.089755
O O2 0.571818 0.612133 0.103871
O O3 0.402254 0.681060 0.037457
O O4 0.634921 0.648074 0.914228
O O5 0.390888 0.057164 0.659802
O O6 0.144348 0.103277 0.695474
O O7 0.391559 0.133468 0.796110
O O8 0.341104 0.566677 0.881608
O O9 0.369529 0.655080 0.784229
O O10 0.135886 0.594893 0.747972
O O11 0.179492 0.649003 0.929198
O O12 0.390504 0.225295 0.771448
O O13 0.055744 0.022840 0.802054
O O14 0.000000 0.000000 0.000000
O O15 0.391075 0.802567 0.101635
O O16 0.250000 0.750000 0.952326
#
# Coordination Sequence:
#
# PCOD9433963 Si02
#       8
#     8   8   8   4   8   8   8   8
#     4  12  24  45  65  97 140 180 225 292 343 411
#     4  11  25  45  67  99 138 178 232 291 350 416
#     4  11  26  44  69 105 135 182 237 284 353 424
#     4  12  26  42  68 102 138 182 232 290 340 410
#     4  11  22  46  71  95 139 181 224 292 355 410
#     4  12  24  43  72  99 136 182 234 287 354 415
#     4  11  24  43  67  97 137 177 230 281 338 414
#     4  12  24  43  67  98 138 180 228 287 343 419
#
# _framework density 20.576132000000001
#
# number of rings (size 3 to 8) (size 9 to 14) (size 15 to 20)
#    0.000    0.533    8.000    0.800    1.867    2.133 
#    0.000    0.667    0.000    0.000    0.000    0.000 
#    0.000    0.000    0.000    0.000    0.000    0.000 
#
# Total GULP energy -334433.499421 kJ/mol
# GULP energy per Si atom -5573.891657 kJ/mol
# Density = 2.052930 g / cm^3
# Si number density = 20.576132 Si / 1000 Ang^3
#
#
#
# Elastic Constant Matrix: (Units=GPa)
#
#
# Indices 1 2 3 4 5 6 
#
# 1 99.7828 35.3365 31.6613 0.0000 0.0000 0.0000
# 2 35.3365 149.1400 41.7647 0.0000 0.0000 0.0000
# 3 31.6613 41.7647 49.9530 0.0000 0.0000 0.0000
# 4 0.0000 0.0000 0.0000 42.4340 0.0000 0.0000
# 5 0.0000 0.0000 0.0000 0.0000 21.5524 0.0000
# 6 0.0000 0.0000 0.0000 0.0000 0.0000 42.6665
#
#
#
# Elastic Compliance Matrix: (Units=1/GPa)
#
#
# Indices 1 2 3 4 5 6 
#
# 1 0.012654 -0.000982 -0.007199 0.000000 0.000000 0.000000
# 2 -0.000982 0.008831 -0.006761 0.000000 0.000000 0.000000
# 3 -0.007199 -0.006761 0.030235 0.000000 0.000000 0.000000
# 4 0.000000 0.000000 0.000000 0.023566 0.000000 0.000000
# 5 0.000000 0.000000 0.000000 0.000000 0.046398 0.000000
# 6 0.000000 0.000000 0.000000 0.000000 0.000000 0.023438
#
#
# Mechanical properties :
#
#
# Convention : Reuss Voigt Hill
#
# Bulk Modulus (GPa) = 45.79821 57.37786 51.58804
# Shear Modulus (GPa) = 27.42964 34.00483 30.71723
#
# Velocity S-wave (km/s) = 3.65510 4.06967 3.86794
# Velocity P-wave (km/s) = 6.33398 7.07313 6.71373
#
# Compressibility (1/GPa) = 0.02183491
#
# Stress axis : x y z
#
# Youngs Moduli (GPa) = 79.02714 113.23555 33.07474
#
# Poissons Ratio (x) = 0.11121 0.23811
# Poissons Ratio (y) = 0.07761 0.22362
# Poissons Ratio (z) = 0.56893 0.76559
#
# Static dielectric constant tensor:
#      x y z
#    x 1.751010 0.000000 0.000000 
#    y 0.000000 1.705730 0.000000 
#    z 0.000000 0.000000 1.808040 
# 
# From -- ./inp_files/6542.got.cif
#   From: 2010.05.17/outbox.ucp.g08.bks.cvg/sg56_4_cif.got.tgz:6542.got - 2010.06.11 16:37:52.
