data_PCOD9433922
_publ_section_title
;
Structure prediction by ZEFSAII (Michael W. Deem and Ramdas Pophale) SiO2 
 PCOD9433922
Probable space group: P C C N
;
_chemical_formula_sum "Si O2"
_cell_formula_units_Z 44
_cell_length_a 9.000000
_cell_length_b 30.000000
_cell_length_c 9.000000
_cell_angle_alpha 90.000000
_cell_angle_beta 90.000000
_cell_angle_gamma 90.000000
_cell_volume 2430.000000
_symmetry_space_group_name_H-M "P C C N"
_symmetry_group_IT_number 56
_symmetry_cell_setting 'orthorhombic'
loop_
_space_group_symop_operation_xyz
x,y,z
1/2-x,1/2-y,z
1/2+x,-y,1/2-z
-x,1/2+y,1/2-z
-x,-y,-z
1/2+x,1/2+y,-z
1/2-x,y,1/2+z
x,1/2-y,1/2+z
loop_
_atom_site_type_symbol
_atom_site_label
_atom_site_fract_x
_atom_site_fract_y
_atom_site_fract_z
Si Si1 0.337386 0.430175 0.761181
Si Si2 0.447025 0.405501 0.430379
Si Si3 0.385107 0.907895 0.564476
Si Si4 0.250000 0.750000 0.314776
Si Si5 0.332224 0.961547 0.256689
Si Si6 0.665628 0.178510 0.935583
O O1 0.386640 0.417481 0.594165
O O2 0.179461 0.409558 0.805846
O O3 0.445867 0.407440 0.882656
O O4 0.332518 0.484817 0.775583
O O5 0.559168 0.444313 0.374617
O O6 0.529368 0.357189 0.432624
O O7 0.367392 0.934429 0.408662
O O8 0.319238 0.940362 0.693729
O O9 0.302810 0.858960 0.561938
O O10 0.169385 0.786288 0.425630
O O11 0.328737 0.786557 0.203802
#
# Coordination Sequence:
#
# PCOD9433922 Si02
#       6
#     8   8   8   4   8   8
#     4  12  22  36  56  84 122 166 192 231 276 334
#     4  11  23  37  56  83 120 152 197 237 284 336
#     4  11  21  36  59  84 120 152 197 239 281 332
#     4  10  20  38  68  86 106 132 190 240 300 362
#     4  11  21  36  55  85 119 163 204 233 265 326
#     4  10  21  39  62  89 106 142 184 244 295 347
#
# _framework density 18.106995999999999
#
# number of rings (size 3 to 8) (size 9 to 14) (size 15 to 20)
#    0.000    1.091    0.000    9.818    0.000    0.000 
#    0.000    0.000    0.000   18.545    0.000    0.000 
#    0.000    0.000    0.000    0.000    0.000    0.000 
#
# Total GULP energy -245140.099214 kJ/mol
# GULP energy per Si atom -5571.365891 kJ/mol
# Density = 1.806578 g / cm^3
# Si number density = 18.106996 Si / 1000 Ang^3
#
#
#
# Elastic Constant Matrix: (Units=GPa)
#
#
# Indices 1 2 3 4 5 6 
#
# 1 66.5333 39.4710 6.9893 0.0000 0.0000 0.0000
# 2 39.4710 180.6547 44.8428 0.0000 0.0000 0.0000
# 3 6.9893 44.8428 116.6692 0.0000 0.0000 0.0000
# 4 0.0000 0.0000 0.0000 43.3070 0.0000 0.0000
# 5 0.0000 0.0000 0.0000 0.0000 32.1082 0.0000
# 6 0.0000 0.0000 0.0000 0.0000 0.0000 23.3328
#
#
#
# Elastic Compliance Matrix: (Units=1/GPa)
#
#
# Indices 1 2 3 4 5 6 
#
# 1 0.017291 -0.003892 0.000460 0.000000 0.000000 0.000000
# 2 -0.003892 0.006995 -0.002456 0.000000 0.000000 0.000000
# 3 0.000460 -0.002456 0.009487 0.000000 0.000000 0.000000
# 4 0.000000 0.000000 0.000000 0.023091 0.000000 0.000000
# 5 0.000000 0.000000 0.000000 0.000000 0.031145 0.000000
# 6 0.000000 0.000000 0.000000 0.000000 0.000000 0.042858
#
#
# Mechanical properties :
#
#
# Convention : Reuss Voigt Hill
#
# Bulk Modulus (GPa) = 45.45758 60.71816 53.08787
# Shear Modulus (GPa) = 33.33891 37.91990 35.62940
#
# Velocity S-wave (km/s) = 4.29560 4.58122 4.44071
# Velocity P-wave (km/s) = 7.05424 7.84788 7.46162
#
# Compressibility (1/GPa) = 0.02199853
#
# Stress axis : x y z
#
# Youngs Moduli (GPa) = 57.83464 142.95294 105.40197
#
# Poissons Ratio (x) = 0.55638 -0.04850
# Poissons Ratio (y) = 0.22509 0.25882
# Poissons Ratio (z) = -0.02661 0.35103
#
# Static dielectric constant tensor:
#      x y z
#    x 1.746310 0.000000 0.000000 
#    y 0.000000 1.565640 0.000000 
#    z 0.000000 0.000000 1.653270 
# 
# From -- ./inp_files/2174.got.cif
#   From: 2010.05.17/outbox.ucp.g08.bks.cvg/sg56_2_cif.got.tgz:2174.got - 2010.06.11 16:37:52.
