data_PCOD9433812
_publ_section_title
;
Structure prediction by ZEFSAII (Michael W. Deem and Ramdas Pophale) SiO2 
 PCOD9433812
Probable space group: P C C N
;
_chemical_formula_sum "Si O2"
_cell_formula_units_Z 32
_cell_length_a 8.122058
_cell_length_b 11.980494
_cell_length_c 13.962569
_cell_angle_alpha 90.000000
_cell_angle_beta 90.000000
_cell_angle_gamma 90.000000
_cell_volume 1358.645469
_symmetry_space_group_name_H-M "P C C N"
_symmetry_group_IT_number 56
_symmetry_cell_setting 'orthorhombic'
loop_
_space_group_symop_operation_xyz
x,y,z
1/2-x,1/2-y,z
1/2+x,-y,1/2-z
-x,1/2+y,1/2-z
-x,-y,-z
1/2+x,1/2+y,-z
1/2-x,y,1/2+z
x,1/2-y,1/2+z
loop_
_atom_site_type_symbol
_atom_site_label
_atom_site_fract_x
_atom_site_fract_y
_atom_site_fract_z
Si Si1 0.897462 0.949198 0.885569
Si Si2 0.075578 0.733676 0.823485
Si Si3 0.667171 0.604764 0.214186
Si Si4 0.833462 0.011604 0.556835
O O1 0.743632 0.935641 0.813812
O O2 0.994115 0.830067 0.889832
O O3 0.025026 0.025688 0.828303
O O4 0.819276 0.999875 0.982234
O O5 0.250000 0.750000 0.770179
O O6 0.134130 0.627145 0.886485
O O7 0.933058 0.713238 0.745659
O O8 0.803853 0.588107 0.132829
O O9 0.000000 0.000000 0.500000
#
# Coordination Sequence:
#
# PCOD9433812 Si02
#       4
#     8   8   8   8
#     4  12  24  50  73 112 154 195 253 314 376 456
#     4  12  26  49  74 110 153 201 253 312 381 457
#     4  12  24  48  75 107 152 194 245 317 374 448
#     4  12  26  49  75 108 153 199 252 318 378 444
#
# _framework density 23.552871
#
# number of rings (size 3 to 8) (size 9 to 14) (size 15 to 20)
#    0.000    0.000    7.500    1.500    0.000    0.000 
#   18.000    0.000    0.000    0.000    0.000    0.000 
#    0.000    0.000    0.000    0.000    0.000    0.000 
#
# Total GULP energy -178485.931205 kJ/mol
# GULP energy per Si atom -5577.685350 kJ/mol
# Density = 2.349926 g / cm^3
# Si number density = 23.552871 Si / 1000 Ang^3
#
#
#
# Elastic Constant Matrix: (Units=GPa)
#
#
# Indices 1 2 3 4 5 6 
#
# 1 133.8001 45.3046 45.7586 0.0000 0.0000 0.0000
# 2 45.3046 102.6501 53.4277 0.0000 0.0000 0.0000
# 3 45.7586 53.4277 108.1821 0.0000 0.0000 0.0000
# 4 0.0000 0.0000 0.0000 22.6229 0.0000 0.0000
# 5 0.0000 0.0000 0.0000 0.0000 54.6303 0.0000
# 6 0.0000 0.0000 0.0000 0.0000 0.0000 41.0987
#
#
#
# Elastic Compliance Matrix: (Units=1/GPa)
#
#
# Indices 1 2 3 4 5 6 
#
# 1 0.009286 -0.002765 -0.002562 0.000000 0.000000 0.000000
# 2 -0.002765 0.013936 -0.005713 0.000000 0.000000 0.000000
# 3 -0.002562 -0.005713 0.013149 0.000000 0.000000 0.000000
# 4 0.000000 0.000000 0.000000 0.044203 0.000000 0.000000
# 5 0.000000 0.000000 0.000000 0.000000 0.018305 0.000000
# 6 0.000000 0.000000 0.000000 0.000000 0.000000 0.024332
#
#
# Mechanical properties :
#
#
# Convention : Reuss Voigt Hill
#
# Bulk Modulus (GPa) = 69.97635 70.40157 70.18896
# Shear Modulus (GPa) = 33.32130 37.01314 35.16722
#
# Velocity S-wave (km/s) = 3.76539 3.96850 3.86828
# Velocity P-wave (km/s) = 6.97704 7.13824 7.05810
#
# Compressibility (1/GPa) = 0.01429054
#
# Stress axis : x y z
#
# Youngs Moduli (GPa) = 107.68510 71.75894 76.05171
#
# Poissons Ratio (x) = 0.19840 0.19488
# Poissons Ratio (y) = 0.29773 0.43447
# Poissons Ratio (z) = 0.27594 0.40995
#
# Static dielectric constant tensor:
#      x y z
#    x 1.976230 0.000000 0.000000 
#    y 0.000000 2.035090 0.000000 
#    z 0.000000 0.000000 1.888000 
# 
# From -- ./inp_files/10143.got.cif
#   From: 2010.05.17/outbox.cif.g08.bks.cpg/sg56_6_cif.got.tgz:10143.got - 2010.06.03 13:42:01.
