data_PCOD9433177
_publ_section_title
;
Structure prediction by ZEFSAII (Michael W. Deem and Ramdas Pophale) SiO2 
 PCOD9433177
Probable space group: P C C N
;
_chemical_formula_sum "Si O2"
_cell_formula_units_Z 48
_cell_length_a 7.380745
_cell_length_b 15.973237
_cell_length_c 13.479555
_cell_angle_alpha 90.000000
_cell_angle_beta 90.000000
_cell_angle_gamma 90.000000
_cell_volume 1589.163902
_symmetry_space_group_name_H-M "P C C N"
_symmetry_group_IT_number 56
_symmetry_cell_setting 'orthorhombic'
loop_
_space_group_symop_operation_xyz
x,y,z
1/2-x,1/2-y,z
1/2+x,-y,1/2-z
-x,1/2+y,1/2-z
-x,-y,-z
1/2+x,1/2+y,-z
1/2-x,y,1/2+z
x,1/2-y,1/2+z
loop_
_atom_site_type_symbol
_atom_site_label
_atom_site_fract_x
_atom_site_fract_y
_atom_site_fract_z
Si Si1 0.356101 0.332867 0.126212
Si Si2 0.388999 0.100990 0.817777
Si Si3 0.697358 0.155219 0.053259
Si Si4 0.250000 0.250000 0.449669
Si Si5 0.769335 0.483441 0.911971
Si Si6 0.023470 0.613835 0.740752
Si Si7 0.250000 0.750000 0.136687
O O1 0.250000 0.250000 0.170745
O O2 0.483144 0.365197 0.214890
O O3 0.267714 0.417267 0.080073
O O4 0.405801 0.286795 0.023508
O O5 0.325967 0.175005 0.888558
O O6 0.523990 0.038753 0.874921
O O7 0.359862 0.951185 0.676888
O O8 0.750000 0.250000 0.091033
O O9 0.782686 0.064320 0.016031
O O10 0.670341 0.181138 0.937803
O O11 0.574373 0.127004 0.144637
O O12 0.815959 0.585375 0.725214
O O13 0.091582 0.701644 0.693495
#
# Coordination Sequence:
#
# PCOD9433177 Si02
#       7
#     8   8   8   4   8   8   4
#     4  10  27  56  83 123 172 236 293 368 456 533
#     4  12  28  49  84 125 169 229 290 371 442 537
#     4   9  21  43  78 124 176 233 290 360 461 535
#     4  10  26  52  82 120 174 224 294 354 448 534
#     4  11  28  53  84 128 177 226 303 371 453 533
#     4  11  24  46  81 124 178 227 294 360 452 535
#     4   8  18  40  70 114 176 232 286 360 432 546
#
# _framework density 30.204564999999999
#
# number of rings (size 3 to 8) (size 9 to 14) (size 15 to 20)
#    1.000    0.667    1.667    0.000    9.333    2.000 
#    9.000    0.833    0.000    3.000    0.000    0.000 
#    0.000    0.000    0.000    0.000    0.000    0.000 
#
# Total GULP energy -267425.051025 kJ/mol
# GULP energy per Si atom -5571.355230 kJ/mol
# Density = 3.013582 g / cm^3
# Si number density = 30.204565 Si / 1000 Ang^3
#
#
#
# Elastic Constant Matrix: (Units=GPa)
#
#
# Indices 1 2 3 4 5 6 
#
# 1 155.0765 56.1069 31.8904 0.0000 0.0000 0.0000
# 2 56.1069 216.9886 62.9610 0.0000 0.0000 0.0000
# 3 31.8904 62.9610 168.8485 0.0000 0.0000 0.0000
# 4 0.0000 0.0000 0.0000 49.9355 0.0000 0.0000
# 5 0.0000 0.0000 0.0000 0.0000 27.3826 0.0000
# 6 0.0000 0.0000 0.0000 0.0000 0.0000 49.2035
#
#
#
# Elastic Compliance Matrix: (Units=1/GPa)
#
#
# Indices 1 2 3 4 5 6 
#
# 1 0.007197 -0.001644 -0.000746 0.000000 0.000000 0.000000
# 2 -0.001644 0.005543 -0.001756 0.000000 0.000000 0.000000
# 3 -0.000746 -0.001756 0.006718 0.000000 0.000000 0.000000
# 4 0.000000 0.000000 0.000000 0.020026 0.000000 0.000000
# 5 0.000000 0.000000 0.000000 0.000000 0.036519 0.000000
# 6 0.000000 0.000000 0.000000 0.000000 0.000000 0.020324
#
#
# Mechanical properties :
#
#
# Convention : Reuss Voigt Hill
#
# Bulk Modulus (GPa) = 89.56862 93.64779 91.60820
# Shear Modulus (GPa) = 46.14969 51.30133 48.72551
#
# Velocity S-wave (km/s) = 3.91308 4.12571 4.02080
# Velocity P-wave (km/s) = 7.08058 7.33261 7.20770
#
# Compressibility (1/GPa) = 0.01116462
#
# Stress axis : x y z
#
# Youngs Moduli (GPa) = 138.95054 180.39526 148.84622
#
# Poissons Ratio (x) = 0.29664 0.11105
# Poissons Ratio (y) = 0.22849 0.26144
# Poissons Ratio (z) = 0.10367 0.31686
#
# Static dielectric constant tensor:
#      x y z
#    x 2.658580 0.000000 0.000000 
#    y 0.000000 2.494470 0.000000 
#    z 0.000000 0.000000 2.489300 
# 
# From -- ./inp_files/12342.got.cif
#   From: 2010.05.17/outbox.cif.g08.bks.cpg/sg56_7_cif.got.tgz:12342.got - 2010.06.03 13:42:01.
