data_PCOD9433192
_publ_section_title
;
Structure prediction by ZEFSAII (Michael W. Deem and Ramdas Pophale) SiO2 
 PCOD9433192
Probable space group: P C C N
;
_chemical_formula_sum "Si O2"
_cell_formula_units_Z 40
_cell_length_a 12.614688
_cell_length_b 23.340616
_cell_length_c 7.587865
_cell_angle_alpha 90.000000
_cell_angle_beta 90.000000
_cell_angle_gamma 90.000000
_cell_volume 2234.129909
_symmetry_space_group_name_H-M "P C C N"
_symmetry_group_IT_number 56
_symmetry_cell_setting 'orthorhombic'
loop_
_space_group_symop_operation_xyz
x,y,z
1/2-x,1/2-y,z
1/2+x,-y,1/2-z
-x,1/2+y,1/2-z
-x,-y,-z
1/2+x,1/2+y,-z
1/2-x,y,1/2+z
x,1/2-y,1/2+z
loop_
_atom_site_type_symbol
_atom_site_label
_atom_site_fract_x
_atom_site_fract_y
_atom_site_fract_z
Si Si1 0.001075 0.918643 0.151232
Si Si2 0.625817 0.560528 0.488314
Si Si3 0.603027 0.805514 0.553025
Si Si4 0.344752 0.183127 0.852096
Si Si5 0.148335 0.485481 0.624326
O O1 0.966817 0.938965 0.345611
O O2 0.113330 0.948107 0.105165
O O3 0.981118 0.850597 0.131015
O O4 0.917366 0.948677 0.018057
O O5 0.641653 0.627157 0.531824
O O6 0.613734 0.533506 0.680764
O O7 0.729319 0.530765 0.402857
O O8 0.717003 0.810519 0.649973
O O9 0.590878 0.736911 0.566988
O O10 0.618759 0.822195 0.349178
#
# Coordination Sequence:
#
# PCOD9433192 Si02
#       5
#     8   8   8   8   8
#     4  11  22  35  51  75 111 144 184 219 264 323
#     4  12  19  37  53  76 109 144 184 221 275 319
#     4  11  19  31  46  73 106 137 180 212 257 328
#     4  11  19  29  49  72 101 145 172 212 269 318
#     4  11  22  34  53  76 108 149 178 224 264 322
#
# _framework density 17.904063000000001
#
# number of rings (size 3 to 8) (size 9 to 14) (size 15 to 20)
#    0.000    0.800    6.000    5.400    0.000    0.000 
#    0.000    0.000    0.000    0.000    0.000    0.000 
#    0.000   33.600    0.000    0.000    0.000    0.000 
#
# Total GULP energy -222973.741458 kJ/mol
# GULP energy per Si atom -5574.343536 kJ/mol
# Density = 1.786331 g / cm^3
# Si number density = 17.904063 Si / 1000 Ang^3
#
#
#
# Elastic Constant Matrix: (Units=GPa)
#
#
# Indices 1 2 3 4 5 6 
#
# 1 132.9412 112.1775 64.8052 0.0000 0.0000 0.0000
# 2 112.1775 179.2118 42.1324 0.0000 0.0000 0.0000
# 3 64.8052 42.1324 117.3067 0.0000 0.0000 0.0000
# 4 0.0000 0.0000 0.0000 43.6747 0.0000 0.0000
# 5 0.0000 0.0000 0.0000 0.0000 -225.9295 0.0000
# 6 0.0000 0.0000 0.0000 0.0000 0.0000 18.5841
#
#
#
# Elastic Compliance Matrix: (Units=1/GPa)
#
#
# Indices 1 2 3 4 5 6 
#
# 1 0.020420 -0.011064 -0.007307 0.000000 0.000000 0.000000
# 2 -0.011064 0.012089 0.001770 0.000000 0.000000 0.000000
# 3 -0.007307 0.001770 0.011926 0.000000 0.000000 0.000000
# 4 0.000000 0.000000 0.000000 0.022897 0.000000 0.000000
# 5 0.000000 0.000000 0.000000 0.000000 -0.004426 0.000000
# 6 0.000000 0.000000 0.000000 0.000000 0.000000 0.053809
#
#
# Mechanical properties :
#
#
# Convention : Reuss Voigt Hill
#
# Bulk Modulus (GPa) = 89.02243 96.41000 92.71621
# Shear Modulus (GPa) = 32.53908 -18.71117 6.91395
#
# Velocity S-wave (km/s) = 4.26774 -3.23628 1.96724
# Velocity P-wave (km/s) = 8.60899 6.32458 7.55364
#
# Compressibility (1/GPa) = 0.01123312
#
# Stress axis : x y z
#
# Youngs Moduli (GPa) = 48.97116 82.71719 83.85294
#
# Poissons Ratio (x) = 0.91519 0.61273
# Poissons Ratio (y) = 0.54182 -0.14844
# Poissons Ratio (z) = 0.35784 -0.14643
#
# Static dielectric constant tensor:
#      x y z
#    x 1.595970 0.000000 0.000000 
#    y 0.000000 1.716880 0.000000 
#    z 0.000000 0.000000 1.638100 
# 
# From -- ./inp_files/3448.got.cif
#   From: 2010.05.17/outbox.cif.g08.bks.cpg/sg56_2_cif.got.tgz:3448.got - 2010.06.03 13:42:01.
