data_PCOD9433605
_publ_section_title
;
Structure prediction by ZEFSAII (Michael W. Deem and Ramdas Pophale) SiO2 
 PCOD9433605
Probable space group: P C C N
;
_chemical_formula_sum "Si O2"
_cell_formula_units_Z 24
_cell_length_a 7.626328
_cell_length_b 7.016156
_cell_length_c 17.023980
_cell_angle_alpha 90.000000
_cell_angle_beta 90.000000
_cell_angle_gamma 90.000000
_cell_volume 910.910728
_symmetry_space_group_name_H-M "P C C N"
_symmetry_group_IT_number 56
_symmetry_cell_setting 'orthorhombic'
loop_
_space_group_symop_operation_xyz
x,y,z
1/2-x,1/2-y,z
1/2+x,-y,1/2-z
-x,1/2+y,1/2-z
-x,-y,-z
1/2+x,1/2+y,-z
1/2-x,y,1/2+z
x,1/2-y,1/2+z
loop_
_atom_site_type_symbol
_atom_site_label
_atom_site_fract_x
_atom_site_fract_y
_atom_site_fract_z
Si Si1 0.003261 0.603380 0.823622
Si Si2 0.404544 0.481025 0.851180
Si Si3 0.923811 0.336577 0.945710
O O1 0.501220 0.684260 0.857973
O O2 0.965596 0.609456 0.731562
O O3 0.198607 0.524099 0.840851
O O4 0.876183 0.453457 0.866177
O O5 0.450955 0.336300 0.920499
O O6 0.750000 0.250000 0.982381
O O7 0.000000 0.500000 0.000000
#
# Coordination Sequence:
#
# PCOD9433605 Si02
#       3
#     8   8   8
#     4  11  24  46  79 117 154 200 263 328 395 477
#     4  11  24  46  81 116 154 200 263 327 398 473
#     4  12  29  51  75 112 159 212 262 327 402 479
#
# _framework density 26.347259999999999
#
# number of rings (size 3 to 8) (size 9 to 14) (size 15 to 20)
#    0.000    0.667    3.333    3.000    4.667    5.333 
#    6.000    0.000    0.000    0.000    0.000    0.000 
#    0.000    0.000    0.000    0.000    0.000    0.000 
#
# Total GULP energy -134789.377392 kJ/mol
# GULP energy per Si atom -5616.224058 kJ/mol
# Density = 2.628729 g / cm^3
# Si number density = 26.347260 Si / 1000 Ang^3
#
#
#
# Elastic Constant Matrix: (Units=GPa)
#
#
# Indices 1 2 3 4 5 6 
#
# 1 105.5396 70.6163 33.0234 0.0000 0.0000 0.0000
# 2 70.6163 222.4936 60.8613 0.0000 0.0000 0.0000
# 3 33.0234 60.8613 106.4824 0.0000 0.0000 0.0000
# 4 0.0000 0.0000 0.0000 67.9432 0.0000 0.0000
# 5 0.0000 0.0000 0.0000 0.0000 31.2735 0.0000
# 6 0.0000 0.0000 0.0000 0.0000 0.0000 50.0827
#
#
#
# Elastic Compliance Matrix: (Units=1/GPa)
#
#
# Indices 1 2 3 4 5 6 
#
# 1 0.012340 -0.003402 -0.001883 0.000000 0.000000 0.000000
# 2 -0.003402 0.006265 -0.002526 0.000000 0.000000 0.000000
# 3 -0.001883 -0.002526 0.011419 0.000000 0.000000 0.000000
# 4 0.000000 0.000000 0.000000 0.014718 0.000000 0.000000
# 5 0.000000 0.000000 0.000000 0.000000 0.031976 0.000000
# 6 0.000000 0.000000 0.000000 0.000000 0.000000 0.019967
#
#
# Mechanical properties :
#
#
# Convention : Reuss Voigt Hill
#
# Bulk Modulus (GPa) = 69.42791 84.83527 77.13159
# Shear Modulus (GPa) = 42.69591 47.86086 45.27839
#
# Velocity S-wave (km/s) = 4.02992 4.26671 4.15001
# Velocity P-wave (km/s) = 6.93267 7.51944 7.23201
#
# Compressibility (1/GPa) = 0.01440343
#
# Stress axis : x y z
#
# Youngs Moduli (GPa) = 81.03565 159.61502 87.57413
#
# Poissons Ratio (x) = 0.54294 0.16489
# Poissons Ratio (y) = 0.27565 0.22121
# Poissons Ratio (z) = 0.15258 0.40318
#
# Static dielectric constant tensor:
#      x y z
#    x 2.085070 0.000000 0.000000 
#    y 0.000000 2.052180 0.000000 
#    z 0.000000 0.000000 2.103320 
# 
# From -- ./inp_files/9924.got.cif
#   From: 2010.05.17/outbox.cif.g08.bks.cpg/sg56_5_cif.got.tgz:9924.got - 2010.06.03 13:42:01.
