data_PCOD9433179
_publ_section_title
;
Structure prediction by ZEFSAII (Michael W. Deem and Ramdas Pophale) SiO2 
 PCOD9433179
Probable space group: P C C N
;
_chemical_formula_sum "Si O2"
_cell_formula_units_Z 40
_cell_length_a 5.867660
_cell_length_b 11.588567
_cell_length_c 26.278483
_cell_angle_alpha 90.000000
_cell_angle_beta 90.000000
_cell_angle_gamma 90.000000
_cell_volume 1786.878270
_symmetry_space_group_name_H-M "P C C N"
_symmetry_group_IT_number 56
_symmetry_cell_setting 'orthorhombic'
loop_
_space_group_symop_operation_xyz
x,y,z
1/2-x,1/2-y,z
1/2+x,-y,1/2-z
-x,1/2+y,1/2-z
-x,-y,-z
1/2+x,1/2+y,-z
1/2-x,y,1/2+z
x,1/2-y,1/2+z
loop_
_atom_site_type_symbol
_atom_site_label
_atom_site_fract_x
_atom_site_fract_y
_atom_site_fract_z
Si Si1 0.496769 0.971912 0.085465
Si Si2 0.495286 0.812127 0.991967
Si Si3 0.424051 0.644078 0.256460
Si Si4 0.779855 0.869058 0.848166
Si Si5 0.171207 0.020342 0.821820
O O1 0.695871 0.954958 0.126678
O O2 0.519579 0.080692 0.047297
O O3 0.292557 0.017111 0.120981
O O4 0.475270 0.863063 0.049162
O O5 0.250000 0.750000 0.982477
O O6 0.750000 0.750000 0.989328
O O7 0.250000 0.750000 0.255401
O O8 0.610399 0.655005 0.301184
O O9 0.528197 0.625411 0.200737
O O10 0.319275 0.520473 0.273184
O O11 0.750000 0.750000 0.878855
O O12 0.030848 0.902925 0.832164
#
# Coordination Sequence:
#
# PCOD9433179 Si02
#       5
#     8   8   8   8   8
#     4  10  27  44  73 108 138 184 244 301 358 441
#     4  11  27  51  79 107 146 187 235 305 382 437
#     4  11  22  40  63  98 140 193 232 293 351 418
#     4  11  22  39  70  97 138 184 242 290 349 421
#     4  11  23  41  66 100 143 187 240 293 353 428
#
# _framework density 22.385407000000001
#
# number of rings (size 3 to 8) (size 9 to 14) (size 15 to 20)
#    0.000    1.200    4.000    0.600    8.400    1.600 
#    3.600    0.000    0.000    0.000    0.000    0.000 
#    0.000    0.000    0.000    0.000    0.000    0.000 
#
# Total GULP energy -222817.380899 kJ/mol
# GULP energy per Si atom -5570.434522 kJ/mol
# Density = 2.233446 g / cm^3
# Si number density = 22.385407 Si / 1000 Ang^3
#
#
#
# Elastic Constant Matrix: (Units=GPa)
#
#
# Indices 1 2 3 4 5 6 
#
# 1 63.6587 9.7924 19.2426 0.0000 0.0000 0.0000
# 2 9.7924 30.7770 18.3587 0.0000 0.0000 0.0000
# 3 19.2426 18.3587 104.0701 0.0000 0.0000 0.0000
# 4 0.0000 0.0000 0.0000 41.2584 0.0000 0.0000
# 5 0.0000 0.0000 0.0000 0.0000 -15.1128 0.0000
# 6 0.0000 0.0000 0.0000 0.0000 0.0000 36.6228
#
#
#
# Elastic Compliance Matrix: (Units=1/GPa)
#
#
# Indices 1 2 3 4 5 6 
#
# 1 0.017061 -0.003964 -0.002455 0.000000 0.000000 0.000000
# 2 -0.003964 0.037234 -0.005835 0.000000 0.000000 0.000000
# 3 -0.002455 -0.005835 0.011092 0.000000 0.000000 0.000000
# 4 0.000000 0.000000 0.000000 0.024237 0.000000 0.000000
# 5 0.000000 0.000000 0.000000 0.000000 -0.066169 0.000000
# 6 0.000000 0.000000 0.000000 0.000000 0.000000 0.027305
#
#
# Mechanical properties :
#
#
# Convention : Reuss Voigt Hill
#
# Bulk Modulus (GPa) = 24.46300 32.58811 28.52555
# Shear Modulus (GPa) = 56.24585 22.62782 39.43684
#
# Velocity S-wave (km/s) = 5.01803 3.18280 4.20184
# Velocity P-wave (km/s) = 6.67278 5.30060 6.02588
#
# Compressibility (1/GPa) = 0.04087807
#
# Stress axis : x y z
#
# Youngs Moduli (GPa) = 58.61436 26.85729 90.15257
#
# Poissons Ratio (x) = 0.10645 0.22135
# Poissons Ratio (y) = 0.23233 0.52608
# Poissons Ratio (z) = 0.14392 0.15672
#
# Static dielectric constant tensor:
#      x y z
#    x 1.916230 0.000000 0.000000 
#    y 0.000000 1.959810 0.000000 
#    z 0.000000 0.000000 1.841280 
# 
# From -- ./inp_files/21506.got.cif
#   From: 2010.05.17/outbox.cif.g08.bks.cpg/sg56_11_cif.got.tgz:21506.got - 2010.06.03 13:42:01.
