data_PCOD9433113
_publ_section_title
;
Structure prediction by ZEFSAII (Michael W. Deem and Ramdas Pophale) SiO2 
 PCOD9433113
Probable space group: P C C N
;
_chemical_formula_sum "Si O2"
_cell_formula_units_Z 32
_cell_length_a 28.087177
_cell_length_b 4.904899
_cell_length_c 9.534995
_cell_angle_alpha 90.000000
_cell_angle_beta 90.000000
_cell_angle_gamma 90.000000
_cell_volume 1313.586359
_symmetry_space_group_name_H-M "P C C N"
_symmetry_group_IT_number 56
_symmetry_cell_setting 'orthorhombic'
loop_
_space_group_symop_operation_xyz
x,y,z
1/2-x,1/2-y,z
1/2+x,-y,1/2-z
-x,1/2+y,1/2-z
-x,-y,-z
1/2+x,1/2+y,-z
1/2-x,y,1/2+z
x,1/2-y,1/2+z
loop_
_atom_site_type_symbol
_atom_site_label
_atom_site_fract_x
_atom_site_fract_y
_atom_site_fract_z
Si Si1 0.619629 0.802716 0.205386
Si Si2 0.515919 0.918594 0.659072
Si Si3 0.333093 0.677009 0.676176
Si Si4 0.705892 0.943702 0.562481
O O1 0.567947 0.719482 0.153762
O O2 0.634573 0.592367 0.328644
O O3 0.630417 0.104367 0.256667
O O4 0.659847 0.741513 0.090608
O O5 0.485161 0.686892 0.741052
O O6 0.500000 0.000000 0.500000
O O7 0.308003 0.826469 0.548307
O O8 0.292234 0.588187 0.786172
O O9 0.750000 0.750000 0.527785
#
# Coordination Sequence:
#
# PCOD9433113 Si02
#       4
#     8   8   8   8
#     4  10  26  46  79 108 159 197 262 311 393 449
#     4  12  28  47  80 120 162 208 268 328 398 471
#     4  10  25  47  76 109 151 202 252 314 383 456
#     4  10  26  50  78 110 151 200 261 312 385 462
#
# _framework density 24.360787999999999
#
# number of rings (size 3 to 8) (size 9 to 14) (size 15 to 20)
#    1.500    0.000    0.000    2.250   10.500    2.000 
#    4.500    1.250    0.000    0.000    0.000    0.000 
#    0.000    0.000    0.000    0.000    0.000    0.000 
#
# Total GULP energy -178665.493123 kJ/mol
# GULP energy per Si atom -5583.296660 kJ/mol
# Density = 2.430534 g / cm^3
# Si number density = 24.360788 Si / 1000 Ang^3
#
#
#
# Elastic Constant Matrix: (Units=GPa)
#
#
# Indices 1 2 3 4 5 6 
#
# 1 124.6150 8.8045 13.5112 0.0000 0.0000 0.0000
# 2 8.8045 122.3935 26.7164 0.0000 0.0000 0.0000
# 3 13.5112 26.7164 94.9327 0.0000 0.0000 0.0000
# 4 0.0000 0.0000 0.0000 56.3410 0.0000 0.0000
# 5 0.0000 0.0000 0.0000 0.0000 6.1123 0.0000
# 6 0.0000 0.0000 0.0000 0.0000 0.0000 39.8044
#
#
#
# Elastic Compliance Matrix: (Units=1/GPa)
#
#
# Indices 1 2 3 4 5 6 
#
# 1 0.008165 -0.000356 -0.001062 0.000000 0.000000 0.000000
# 2 -0.000356 0.008721 -0.002404 0.000000 0.000000 0.000000
# 3 -0.001062 -0.002404 0.011361 0.000000 0.000000 0.000000
# 4 0.000000 0.000000 0.000000 0.017749 0.000000 0.000000
# 5 0.000000 0.000000 0.000000 0.000000 0.163603 0.000000
# 6 0.000000 0.000000 0.000000 0.000000 0.000000 0.025123
#
#
# Mechanical properties :
#
#
# Convention : Reuss Voigt Hill
#
# Bulk Modulus (GPa) = 48.53271 48.88949 48.71110
# Shear Modulus (GPa) = 20.06159 39.97884 30.02022
#
# Velocity S-wave (km/s) = 2.87282 4.05546 3.51425
# Velocity P-wave (km/s) = 5.56505 6.48394 6.04199
#
# Compressibility (1/GPa) = 0.02060466
#
# Stress axis : x y z
#
# Youngs Moduli (GPa) = 122.47425 114.67091 88.01768
#
# Poissons Ratio (x) = 0.04077 0.09348
# Poissons Ratio (y) = 0.04354 0.21156
# Poissons Ratio (z) = 0.13007 0.27562
#
# Static dielectric constant tensor:
#      x y z
#    x 2.335370 0.000000 0.000000 
#    y 0.000000 1.988370 0.000000 
#    z 0.000000 0.000000 1.993790 
# 
# From -- ./inp_files/5053.got.cif
#   From: 2010.05.17/outbox.cif.g08.bks.cpg/sg56_3_cif.got.tgz:5053.got - 2010.06.03 13:42:01.
