data_PCOD9433612
_publ_section_title
;
Structure prediction by ZEFSAII (Michael W. Deem and Ramdas Pophale) SiO2 
 PCOD9433612
Probable space group: P C C N
;
_chemical_formula_sum "Si O2"
_cell_formula_units_Z 56
_cell_length_a 9.325383
_cell_length_b 21.012524
_cell_length_c 14.322754
_cell_angle_alpha 90.000000
_cell_angle_beta 90.000000
_cell_angle_gamma 90.000000
_cell_volume 2806.541270
_symmetry_space_group_name_H-M "P C C N"
_symmetry_group_IT_number 56
_symmetry_cell_setting 'orthorhombic'
loop_
_space_group_symop_operation_xyz
x,y,z
1/2-x,1/2-y,z
1/2+x,-y,1/2-z
-x,1/2+y,1/2-z
-x,-y,-z
1/2+x,1/2+y,-z
1/2-x,y,1/2+z
x,1/2-y,1/2+z
loop_
_atom_site_type_symbol
_atom_site_label
_atom_site_fract_x
_atom_site_fract_y
_atom_site_fract_z
Si Si1 0.143277 0.971031 0.046542
Si Si2 0.969175 0.392819 0.275857
Si Si3 0.769414 0.129274 0.598062
Si Si4 0.477568 0.180870 0.679507
Si Si5 0.715184 0.591919 0.365111
Si Si6 0.581559 0.755582 0.657000
Si Si7 0.040378 0.204417 0.546761
O O1 0.089727 0.931709 0.136698
O O2 0.243493 0.028099 0.081840
O O3 0.228186 0.926983 0.972920
O O4 0.000000 0.000000 0.000000
O O5 0.851562 0.390493 0.193199
O O6 0.110230 0.419476 0.222831
O O7 0.015027 0.322924 0.312999
O O8 0.621663 0.160800 0.628839
O O9 0.877597 0.179438 0.550979
O O10 0.359411 0.126702 0.668562
O O11 0.498987 0.200071 0.786495
O O12 0.429459 0.246259 0.629877
O O13 0.636709 0.642248 0.433851
O O14 0.750000 0.750000 0.682536
O O15 0.570112 0.741218 0.548092
#
# Coordination Sequence:
#
# PCOD9433612 Si02
#       7
#     8   8   8   8   8   8   8
#     4  12  28  47  72  99 141 194 239 290 351 417
#     4  11  27  47  70 108 140 182 245 291 353 428
#     4  11  26  48  68 103 141 183 233 295 357 421
#     4  12  21  44  70 103 141 175 224 292 358 413
#     4  11  24  47  71  97 144 186 238 290 342 424
#     4  12  23  41  75 104 137 182 228 286 361 428
#     4  11  25  42  70 106 140 175 233 291 350 435
#
# _framework density 19.953386999999999
#
# number of rings (size 3 to 8) (size 9 to 14) (size 15 to 20)
#    0.000    0.571    5.714    2.571    6.000    2.286 
#    0.000    0.000    0.000    0.000    0.000    0.000 
#    0.000    0.000    0.000    0.000    0.000    0.000 
#
# Total GULP energy -313142.315015 kJ/mol
# GULP energy per Si atom -5591.827054 kJ/mol
# Density = 1.990797 g / cm^3
# Si number density = 19.953387 Si / 1000 Ang^3
#
#
#
# Elastic Constant Matrix: (Units=GPa)
#
#
# Indices 1 2 3 4 5 6 
#
# 1 115.8719 53.1390 42.0865 0.0000 0.0000 0.0000
# 2 53.1390 88.9459 52.5143 0.0000 0.0000 0.0000
# 3 42.0865 52.5143 127.0334 0.0000 0.0000 0.0000
# 4 0.0000 0.0000 0.0000 33.5521 0.0000 0.0000
# 5 0.0000 0.0000 0.0000 0.0000 29.4169 0.0000
# 6 0.0000 0.0000 0.0000 0.0000 0.0000 38.7933
#
#
#
# Elastic Compliance Matrix: (Units=1/GPa)
#
#
# Indices 1 2 3 4 5 6 
#
# 1 0.012058 -0.006410 -0.001345 0.000000 0.000000 0.000000
# 2 -0.006410 0.018280 -0.005433 0.000000 0.000000 0.000000
# 3 -0.001345 -0.005433 0.010564 0.000000 0.000000 0.000000
# 4 0.000000 0.000000 0.000000 0.029804 0.000000 0.000000
# 5 0.000000 0.000000 0.000000 0.000000 0.033994 0.000000
# 6 0.000000 0.000000 0.000000 0.000000 0.000000 0.025778
#
#
# Mechanical properties :
#
#
# Convention : Reuss Voigt Hill
#
# Bulk Modulus (GPa) = 68.84400 69.70342 69.27371
# Shear Modulus (GPa) = 30.92215 32.62656 31.77436
#
# Velocity S-wave (km/s) = 3.94092 4.04807 3.99485
# Velocity P-wave (km/s) = 7.43540 7.54043 7.48810
#
# Compressibility (1/GPa) = 0.01452559
#
# Stress axis : x y z
#
# Youngs Moduli (GPa) = 82.92999 54.70457 94.66433
#
# Poissons Ratio (x) = 0.35065 0.12734
# Poissons Ratio (y) = 0.53157 0.51433
# Poissons Ratio (z) = 0.11156 0.29722
#
# Static dielectric constant tensor:
#      x y z
#    x 1.712440 0.000000 0.000000 
#    y 0.000000 1.681480 0.000000 
#    z 0.000000 0.000000 1.694370 
# 
# From -- ./inp_files/10854.got.cif
#   From: 2010.05.17/outbox.cif.g08.bks.cpg/sg56_6_cif.got.tgz:10854.got - 2010.06.03 13:42:01.
