data_PCOD9433429
_publ_section_title
;
Structure prediction by ZEFSAII (Michael W. Deem and Ramdas Pophale) SiO2 
 PCOD9433429
Probable space group: P C C N
;
_chemical_formula_sum "Si O2"
_cell_formula_units_Z 52
_cell_length_a 5.234431
_cell_length_b 21.537808
_cell_length_c 18.419081
_cell_angle_alpha 90.000000
_cell_angle_beta 90.000000
_cell_angle_gamma 90.000000
_cell_volume 2076.533483
_symmetry_space_group_name_H-M "P C C N"
_symmetry_group_IT_number 56
_symmetry_cell_setting 'orthorhombic'
loop_
_space_group_symop_operation_xyz
x,y,z
1/2-x,1/2-y,z
1/2+x,-y,1/2-z
-x,1/2+y,1/2-z
-x,-y,-z
1/2+x,1/2+y,-z
1/2-x,y,1/2+z
x,1/2-y,1/2+z
loop_
_atom_site_type_symbol
_atom_site_label
_atom_site_fract_x
_atom_site_fract_y
_atom_site_fract_z
Si Si1 0.939670 0.705177 0.119304
Si Si2 0.376315 0.635958 0.337761
Si Si3 0.676382 0.558782 0.977233
Si Si4 0.750000 0.250000 0.752890
Si Si5 0.479727 0.472592 0.171576
Si Si6 0.830561 0.368285 0.001590
Si Si7 0.715214 0.907192 0.707772
O O1 0.750000 0.750000 0.076771
O O2 0.825240 0.642839 0.154102
O O3 0.025124 0.746550 0.188067
O O4 0.148524 0.679536 0.064033
O O5 0.218640 0.690189 0.297500
O O6 0.426025 0.656782 0.419976
O O7 0.594734 0.625852 0.277974
O O8 0.220937 0.571603 0.344535
O O9 0.716894 0.547058 0.891183
O O10 0.464954 0.612298 0.990184
O O11 0.952955 0.576593 0.010614
O O12 0.500000 0.500000 0.000000
O O13 0.411014 0.454699 0.253905
O O14 0.523787 0.545966 0.167693
#
# Coordination Sequence:
#
# PCOD9433429 Si02
#       7
#     8   8   8   4   8   8   8
#     4  12  28  47  72 106 146 197 252 311 374 443
#     4  11  24  46  69 106 141 190 245 304 367 445
#     4  11  24  45  72 107 148 195 240 303 375 451
#     4  12  26  46  76 100 144 194 250 314 370 442
#     4  11  23  39  72 104 144 182 243 299 373 438
#     4  11  27  47  72 105 150 190 252 301 375 445
#     4  12  22  42  70 105 141 187 241 305 367 445
#
# _framework density 25.041734999999999
#
# number of rings (size 3 to 8) (size 9 to 14) (size 15 to 20)
#    0.000    0.615    6.154    1.385    2.154    4.308 
#    5.538    0.000    0.000    0.000    0.000    0.000 
#    0.000    0.000    0.000    0.000    0.000    0.000 
#
# Total GULP energy -290468.061729 kJ/mol
# GULP energy per Si atom -5585.924264 kJ/mol
# Density = 2.498474 g / cm^3
# Si number density = 25.041735 Si / 1000 Ang^3
#
#
#
# Elastic Constant Matrix: (Units=GPa)
#
#
# Indices 1 2 3 4 5 6 
#
# 1 58.4915 0.1882 -15.0330 0.0000 0.0000 0.0000
# 2 0.1882 47.7336 26.5376 0.0000 0.0000 0.0000
# 3 -15.0330 26.5376 94.0646 0.0000 0.0000 0.0000
# 4 0.0000 0.0000 0.0000 26.6678 0.0000 0.0000
# 5 0.0000 0.0000 0.0000 0.0000 34.0833 0.0000
# 6 0.0000 0.0000 0.0000 0.0000 0.0000 29.7111
#
#
#
# Elastic Compliance Matrix: (Units=1/GPa)
#
#
# Indices 1 2 3 4 5 6 
#
# 1 0.017985 -0.001979 0.003433 0.000000 0.000000 0.000000
# 2 -0.001979 0.025065 -0.007388 0.000000 0.000000 0.000000
# 3 0.003433 -0.007388 0.013264 0.000000 0.000000 0.000000
# 4 0.000000 0.000000 0.000000 0.037498 0.000000 0.000000
# 5 0.000000 0.000000 0.000000 0.000000 0.029340 0.000000
# 6 0.000000 0.000000 0.000000 0.000000 0.000000 0.033657
#
#
# Mechanical properties :
#
#
# Convention : Reuss Voigt Hill
#
# Bulk Modulus (GPa) = 22.49967 24.85280 23.67624
# Shear Modulus (GPa) = 27.24906 30.66557 28.95731
#
# Velocity S-wave (km/s) = 3.30228 3.50319 3.40422
# Velocity P-wave (km/s) = 4.85227 5.12925 4.99268
#
# Compressibility (1/GPa) = 0.04444509
#
# Stress axis : x y z
#
# Youngs Moduli (GPa) = 55.60154 39.89702 75.39331
#
# Poissons Ratio (x) = 0.07897 -0.25880
# Poissons Ratio (y) = 0.11005 0.55697
# Poissons Ratio (z) = -0.19086 0.29474
#
# Static dielectric constant tensor:
#      x y z
#    x 2.131360 0.000000 0.000000 
#    y 0.000000 2.038570 0.000000 
#    z 0.000000 0.000000 1.976330 
# 
# From -- ./inp_files/17576.got.cif
#   From: 2010.05.17/outbox.cif.g08.bks.cpg/sg56_9_cif.got.tgz:17576.got - 2010.06.03 13:42:01.
