data_PCOD9433791
_publ_section_title
;
Structure prediction by ZEFSAII (Michael W. Deem and Ramdas Pophale) SiO2 
 PCOD9433791
Probable space group: P C C N
;
_chemical_formula_sum "Si O2"
_cell_formula_units_Z 32
_cell_length_a 4.871235
_cell_length_b 32.678669
_cell_length_c 8.251479
_cell_angle_alpha 90.000000
_cell_angle_beta 90.000000
_cell_angle_gamma 90.000000
_cell_volume 1313.515614
_symmetry_space_group_name_H-M "P C C N"
_symmetry_group_IT_number 56
_symmetry_cell_setting 'orthorhombic'
loop_
_space_group_symop_operation_xyz
x,y,z
1/2-x,1/2-y,z
1/2+x,-y,1/2-z
-x,1/2+y,1/2-z
-x,-y,-z
1/2+x,1/2+y,-z
1/2-x,y,1/2+z
x,1/2-y,1/2+z
loop_
_atom_site_type_symbol
_atom_site_label
_atom_site_fract_x
_atom_site_fract_y
_atom_site_fract_z
Si Si1 0.628481 0.671620 0.730905
Si Si2 0.890569 0.576805 0.234956
Si Si3 0.590963 0.455666 0.937046
Si Si4 0.649562 0.203672 0.088433
O O1 0.642800 0.623989 0.686865
O O2 0.489379 0.696008 0.584311
O O3 0.417517 0.676271 0.880725
O O4 0.917697 0.690653 0.782325
O O5 0.006302 0.573862 0.415781
O O6 0.100148 0.552483 0.118358
O O7 0.597805 0.555259 0.216771
O O8 0.500000 0.500000 0.000000
O O9 0.750000 0.250000 0.105342
#
# Coordination Sequence:
#
# PCOD9433791 Si02
#       4
#     8   8   8   8
#     4  12  25  46  70 100 134 177 226 280 341 411
#     4  12  24  43  68  98 135 180 228 280 338 405
#     4  12  24  42  66 100 139 182 229 282 339 402
#     4  12  26  45  69  98 132 171 219 278 341 408
#
# _framework density 24.362098
#
# number of rings (size 3 to 8) (size 9 to 14) (size 15 to 20)
#    0.000    0.000    0.000   11.250    0.000    2.000 
#    0.000    1.250    0.000    0.000    0.000    0.000 
#    0.000    0.000    0.000    0.000    0.000    0.000 
#
# Total GULP energy -179549.711332 kJ/mol
# GULP energy per Si atom -5610.928479 kJ/mol
# Density = 2.430665 g / cm^3
# Si number density = 24.362098 Si / 1000 Ang^3
#
#
#
# Elastic Constant Matrix: (Units=GPa)
#
#
# Indices 1 2 3 4 5 6 
#
# 1 128.6276 46.7011 10.1160 0.0000 0.0000 0.0000
# 2 46.7011 158.8736 6.3929 0.0000 0.0000 0.0000
# 3 10.1160 6.3929 79.1565 0.0000 0.0000 0.0000
# 4 0.0000 0.0000 0.0000 30.9790 0.0000 0.0000
# 5 0.0000 0.0000 0.0000 0.0000 29.5292 0.0000
# 6 0.0000 0.0000 0.0000 0.0000 0.0000 28.7269
#
#
#
# Elastic Compliance Matrix: (Units=1/GPa)
#
#
# Indices 1 2 3 4 5 6 
#
# 1 0.008769 -0.002541 -0.000915 0.000000 0.000000 0.000000
# 2 -0.002541 0.007051 -0.000245 0.000000 0.000000 0.000000
# 3 -0.000915 -0.000245 0.012770 0.000000 0.000000 0.000000
# 4 0.000000 0.000000 0.000000 0.032280 0.000000 0.000000
# 5 0.000000 0.000000 0.000000 0.000000 0.033865 0.000000
# 6 0.000000 0.000000 0.000000 0.000000 0.000000 0.034811
#
#
# Mechanical properties :
#
#
# Convention : Reuss Voigt Hill
#
# Bulk Modulus (GPa) = 47.19676 54.78641 50.99159
# Shear Modulus (GPa) = 34.71988 38.07687 36.39838
#
# Velocity S-wave (km/s) = 3.77922 3.95771 3.86950
# Velocity P-wave (km/s) = 6.20149 6.58953 6.39845
#
# Compressibility (1/GPa) = 0.02118790
#
# Stress axis : x y z
#
# Youngs Moduli (GPa) = 114.03990 141.82339 78.30880
#
# Poissons Ratio (x) = 0.36034 0.07169
# Poissons Ratio (y) = 0.28975 0.01917
# Poissons Ratio (z) = 0.10440 0.03471
#
# Static dielectric constant tensor:
#      x y z
#    x 1.886000 0.000000 0.000000 
#    y 0.000000 1.911510 0.000000 
#    z 0.000000 0.000000 1.976130 
# 
# From -- ./inp_files/1595.got.cif
#   From: 2010.05.17/outbox.cif.g08.bks.cpg/sg56_1_cif.got.tgz:1595.got - 2010.06.03 13:42:01.
