data_PCOD9433689
_publ_section_title
;
Structure prediction by ZEFSAII (Michael W. Deem and Ramdas Pophale) SiO2 
 PCOD9433689
Probable space group: P C C N
;
_chemical_formula_sum "Si O2"
_cell_formula_units_Z 32
_cell_length_a 5.909658
_cell_length_b 10.730502
_cell_length_c 19.529175
_cell_angle_alpha 90.000000
_cell_angle_beta 90.000000
_cell_angle_gamma 90.000000
_cell_volume 1238.415233
_symmetry_space_group_name_H-M "P C C N"
_symmetry_group_IT_number 56
_symmetry_cell_setting 'orthorhombic'
loop_
_space_group_symop_operation_xyz
x,y,z
1/2-x,1/2-y,z
1/2+x,-y,1/2-z
-x,1/2+y,1/2-z
-x,-y,-z
1/2+x,1/2+y,-z
1/2-x,y,1/2+z
x,1/2-y,1/2+z
loop_
_atom_site_type_symbol
_atom_site_label
_atom_site_fract_x
_atom_site_fract_y
_atom_site_fract_z
Si Si1 0.684577 0.097393 0.527223
Si Si2 0.583061 0.862278 0.075951
Si Si3 0.647859 0.116173 0.799865
Si Si4 0.081501 0.134247 0.160341
O O1 0.542570 0.164803 0.587826
O O2 0.850006 0.148813 0.467364
O O3 0.500000 0.000000 0.500000
O O4 0.852378 0.004075 0.564086
O O5 0.750000 0.750000 0.053716
O O6 0.581503 0.866370 0.158040
O O7 0.750000 0.250000 0.817038
O O8 0.605507 0.114636 0.719448
O O9 0.779467 0.997221 0.831903
O O10 0.250000 0.250000 0.174867
#
# Coordination Sequence:
#
# PCOD9433689 Si02
#       4
#     8   8   8   8
#     4  11  25  50  72 117 153 207 268 329 403 484
#     4  11  25  48  78 108 154 211 267 329 400 488
#     4  12  25  50  76 113 160 211 267 327 409 488
#     4  12  26  48  80 120 164 208 267 343 405 484
#
# _framework density 25.839476000000001
#
# number of rings (size 3 to 8) (size 9 to 14) (size 15 to 20)
#    0.000    0.500    2.500    5.250    0.000    1.000 
#    9.000    0.000    0.000    0.000    0.000    0.000 
#    0.000    0.000    0.000    0.000    0.000    0.000 
#
# Total GULP energy -178310.167413 kJ/mol
# GULP energy per Si atom -5572.192732 kJ/mol
# Density = 2.578066 g / cm^3
# Si number density = 25.839476 Si / 1000 Ang^3
#
#
#
# Elastic Constant Matrix: (Units=GPa)
#
#
# Indices 1 2 3 4 5 6 
#
# 1 55.8504 22.1015 15.0532 0.0000 0.0000 0.0000
# 2 22.1015 151.2832 -7.4269 0.0000 0.0000 0.0000
# 3 15.0532 -7.4269 125.8190 0.0000 0.0000 0.0000
# 4 0.0000 0.0000 0.0000 23.5758 0.0000 0.0000
# 5 0.0000 0.0000 0.0000 0.0000 45.1670 0.0000
# 6 0.0000 0.0000 0.0000 0.0000 0.0000 73.1275
#
#
#
# Elastic Compliance Matrix: (Units=1/GPa)
#
#
# Indices 1 2 3 4 5 6 
#
# 1 0.019784 -0.003015 -0.002545 0.000000 0.000000 0.000000
# 2 -0.003015 0.007089 0.000779 0.000000 0.000000 0.000000
# 3 -0.002545 0.000779 0.008298 0.000000 0.000000 0.000000
# 4 0.000000 0.000000 0.000000 0.042416 0.000000 0.000000
# 5 0.000000 0.000000 0.000000 0.000000 0.022140 0.000000
# 6 0.000000 0.000000 0.000000 0.000000 0.000000 0.013675
#
#
# Mechanical properties :
#
#
# Convention : Reuss Voigt Hill
#
# Bulk Modulus (GPa) = 39.04832 43.60090 41.32461
# Shear Modulus (GPa) = 38.02248 48.58905 43.30577
#
# Velocity S-wave (km/s) = 3.84016 4.34108 4.09828
# Velocity P-wave (km/s) = 5.89976 6.48360 6.19856
#
# Compressibility (1/GPa) = 0.02560930
#
# Stress axis : x y z
#
# Youngs Moduli (GPa) = 50.54552 141.06594 120.50502
#
# Poissons Ratio (x) = 0.42535 0.30668
# Poissons Ratio (y) = 0.15241 -0.09390
# Poissons Ratio (z) = 0.12864 -0.10992
#
# Static dielectric constant tensor:
#      x y z
#    x 3.439690 0.000000 0.000000 
#    y 0.000000 2.340440 0.000000 
#    z 0.000000 0.000000 2.024170 
# 
# From -- ./inp_files/17264.got.cif
#   From: 2010.05.17/outbox.cif.g08.bks.cpg/sg56_9_cif.got.tgz:17264.got - 2010.06.03 13:42:01.
