data_PCOD9433445
_publ_section_title
;
Structure prediction by ZEFSAII (Michael W. Deem and Ramdas Pophale) SiO2 
 PCOD9433445
Probable space group: P C C N
;
_chemical_formula_sum "Si O2"
_cell_formula_units_Z 48
_cell_length_a 24.057249
_cell_length_b 9.617521
_cell_length_c 10.645707
_cell_angle_alpha 90.000000
_cell_angle_beta 90.000000
_cell_angle_gamma 90.000000
_cell_volume 2463.108912
_symmetry_space_group_name_H-M "P C C N"
_symmetry_group_IT_number 56
_symmetry_cell_setting 'orthorhombic'
loop_
_space_group_symop_operation_xyz
x,y,z
1/2-x,1/2-y,z
1/2+x,-y,1/2-z
-x,1/2+y,1/2-z
-x,-y,-z
1/2+x,1/2+y,-z
1/2-x,y,1/2+z
x,1/2-y,1/2+z
loop_
_atom_site_type_symbol
_atom_site_label
_atom_site_fract_x
_atom_site_fract_y
_atom_site_fract_z
Si Si1 0.715845 0.103364 0.456079
Si Si2 0.009664 0.769988 0.623431
Si Si3 0.590455 0.038851 0.475441
Si Si4 0.562879 0.740566 0.377406
Si Si5 0.773036 0.406606 0.724929
Si Si6 0.602322 0.469838 0.271988
O O1 0.750000 0.250000 0.454739
O O2 0.729612 0.029069 0.586996
O O3 0.736463 0.025445 0.332690
O O4 0.649381 0.116109 0.454379
O O5 0.041241 0.628454 0.584704
O O6 0.971291 0.803520 0.502806
O O7 0.976530 0.756004 0.754490
O O8 0.057416 0.882612 0.650374
O O9 0.590083 0.887636 0.412456
O O10 0.583389 0.023129 0.625848
O O11 0.604994 0.620687 0.335249
O O12 0.750000 0.250000 0.709029
O O13 0.836816 0.402693 0.767799
#
# Coordination Sequence:
#
# PCOD9433445 Si02
#       6
#     8   8   8   8   8   8
#     4   9  18  36  61  88 116 148 196 255 310 364
#     4  12  22  41  66  90 128 171 216 256 305 372
#     4  11  23  42  63  93 133 165 204 269 317 362
#     4  12  24  41  62  90 132 172 210 256 312 372
#     4   9  18  36  60  88 117 147 196 255 308 365
#     4  11  23  41  64  94 128 167 211 260 314 376
#
# _framework density 19.487566999999999
#
# number of rings (size 3 to 8) (size 9 to 14) (size 15 to 20)
#    0.000    1.333    3.333    4.000    0.000    0.000 
#    6.000    0.833    0.000    4.000    0.000    0.000 
#    0.000    0.000    0.000    0.000    0.000    0.000 
#
# Total GULP energy -267665.846424 kJ/mol
# GULP energy per Si atom -5576.371800 kJ/mol
# Density = 1.944321 g / cm^3
# Si number density = 19.487567 Si / 1000 Ang^3
#
#
#
# Elastic Constant Matrix: (Units=GPa)
#
#
# Indices 1 2 3 4 5 6 
#
# 1 76.0675 24.0014 27.1922 0.0000 0.0000 0.0000
# 2 24.0014 89.3171 8.8204 0.0000 0.0000 0.0000
# 3 27.1922 8.8204 143.4153 0.0000 0.0000 0.0000
# 4 0.0000 0.0000 0.0000 20.6593 0.0000 0.0000
# 5 0.0000 0.0000 0.0000 0.0000 33.2067 0.0000
# 6 0.0000 0.0000 0.0000 0.0000 0.0000 8.3051
#
#
#
# Elastic Compliance Matrix: (Units=1/GPa)
#
#
# Indices 1 2 3 4 5 6 
#
# 1 0.015315 -0.003852 -0.002667 0.000000 0.000000 0.000000
# 2 -0.003852 0.012233 -0.000022 0.000000 0.000000 0.000000
# 3 -0.002667 -0.000022 0.007480 0.000000 0.000000 0.000000
# 4 0.000000 0.000000 0.000000 0.048404 0.000000 0.000000
# 5 0.000000 0.000000 0.000000 0.000000 0.030114 0.000000
# 6 0.000000 0.000000 0.000000 0.000000 0.000000 0.120407
#
#
# Mechanical properties :
#
#
# Convention : Reuss Voigt Hill
#
# Bulk Modulus (GPa) = 45.56604 47.64754 46.60679
# Shear Modulus (GPa) = 19.65783 29.01996 24.33889
#
# Velocity S-wave (km/s) = 3.17951 3.86314 3.53787
# Velocity P-wave (km/s) = 6.07552 6.66347 6.37627
#
# Compressibility (1/GPa) = 0.02194617
#
# Stress axis : x y z
#
# Youngs Moduli (GPa) = 65.29547 81.74352 133.69406
#
# Poissons Ratio (x) = 0.31488 0.35655
# Poissons Ratio (y) = 0.25152 0.00294
# Poissons Ratio (z) = 0.17414 0.00180
#
# Static dielectric constant tensor:
#      x y z
#    x 1.694830 0.000000 0.000000 
#    y 0.000000 1.685400 0.000000 
#    z 0.000000 0.000000 1.746000 
# 
# From -- ./inp_files/8868.got.cif
#   From: 2010.05.17/outbox.cif.g08.bks.cpg/sg56_5_cif.got.tgz:8868.got - 2010.06.03 13:42:01.
