data_PCOD9433983
_publ_section_title
;
Structure prediction by ZEFSAII (Michael W. Deem and Ramdas Pophale) SiO2 
 PCOD9433983
Probable space group: P B C M
;
_chemical_formula_sum "Si O2"
_cell_formula_units_Z 64
_cell_length_a 21.229909
_cell_length_b 22.698797
_cell_length_c 8.676458
_cell_angle_alpha 90.000000
_cell_angle_beta 90.000000
_cell_angle_gamma 90.000000
_cell_volume 4181.127800
_symmetry_space_group_name_H-M "P B C M"
_symmetry_group_IT_number 57
_symmetry_cell_setting 'orthorhombic'
loop_
_space_group_symop_operation_xyz
x,y,z
-x,-y,1/2+z
x,1/2-y,-z
-x,1/2+y,1/2-z
-x,-y,-z
x,y,1/2-z
-x,1/2+y,z
x,1/2-y,1/2+z
loop_
_atom_site_type_symbol
_atom_site_label
_atom_site_fract_x
_atom_site_fract_y
_atom_site_fract_z
Si Si1 0.617336 0.083865 0.433841
Si Si2 0.134351 0.684664 0.935828
Si Si3 0.039470 0.584988 0.936159
Si Si4 0.224839 0.029651 0.065028
Si Si5 0.362465 0.048101 0.065079
Si Si6 0.253859 0.606269 0.564012
Si Si7 0.490127 0.433577 0.433933
Si Si8 0.092183 0.462857 0.065962
O O1 0.614598 0.079231 0.250000
O O2 0.678754 0.119475 0.487541
O O3 0.549165 0.102590 0.498819
O O4 0.629283 0.019271 0.507852
O O5 0.133402 0.686884 0.750000
O O6 0.076330 0.643187 0.986697
O O7 0.198934 0.651284 0.980239
O O8 0.131116 0.750000 0.000000
O O9 0.043143 0.582153 0.750000
O O10 0.966167 0.579087 0.980852
O O11 0.074435 0.527184 0.999988
O O12 0.219640 0.030687 0.250000
O O13 0.290168 0.062238 0.022941
O O14 0.232677 0.960422 0.020434
O O15 0.160920 0.053918 0.993922
O O16 0.368580 0.049240 0.250000
O O17 0.420231 0.083485 0.990365
O O18 0.261057 0.606574 0.750000
O O19 0.500000 0.500000 0.500000
O O20 0.492892 0.435389 0.250000
O O21 0.093200 0.466005 0.250000
#
# Coordination Sequence:
#
# PCOD9433983 Si02
#       8
#     8   8   8   8   8   8   8   8
#     4  10  17  24  36  53  73  98 132 174 204 235
#     4  10  20  34  49  62  83 111 141 177 219 262
#     4   9  18  33  45  59  84 112 135 168 220 262
#     4   9  16  27  41  56  81 112 137 166 215 256
#     4   9  16  25  35  49  73 106 137 164 201 245
#     4   9  17  30  43  55  76 108 137 168 211 256
#     4  10  16  23  34  49  71 100 134 169 201 236
#     4  10  18  26  44  66  83 105 140 178 208 252
#
# _framework density 15.306875
#
# number of rings (size 3 to 8) (size 9 to 14) (size 15 to 20)
#    0.000    2.500    1.250    5.250    0.000    4.000 
#    0.000    0.000    0.000    0.000    0.000    0.000 
#    0.000    0.000    0.000    1.125    0.000   16.875 
#
# Total GULP energy -356361.317989 kJ/mol
# GULP energy per Si atom -5568.145594 kJ/mol
# Density = 1.527204 g / cm^3
# Si number density = 15.306875 Si / 1000 Ang^3
#
#
#
# Elastic Constant Matrix: (Units=GPa)
#
#
# Indices 1 2 3 4 5 6 
#
# 1 177.4828 41.5218 42.0799 0.0000 0.0000 0.0000
# 2 41.5218 41.5509 12.2940 0.0000 0.0000 0.0000
# 3 42.0799 12.2940 40.1256 0.0000 0.0000 0.0000
# 4 0.0000 0.0000 0.0000 12.9471 0.0000 0.0000
# 5 0.0000 0.0000 0.0000 0.0000 28.7085 0.0000
# 6 0.0000 0.0000 0.0000 0.0000 0.0000 9.3894
#
#
#
# Elastic Compliance Matrix: (Units=1/GPa)
#
#
# Indices 1 2 3 4 5 6 
#
# 1 0.008956 -0.006786 -0.007313 0.000000 0.000000 0.000000
# 2 -0.006786 0.031608 -0.002568 0.000000 0.000000 0.000000
# 3 -0.007313 -0.002568 0.033377 0.000000 0.000000 0.000000
# 4 0.000000 0.000000 0.000000 0.077237 0.000000 0.000000
# 5 0.000000 0.000000 0.000000 0.000000 0.034833 0.000000
# 6 0.000000 0.000000 0.000000 0.000000 0.000000 0.106504
#
#
# Mechanical properties :
#
#
# Convention : Reuss Voigt Hill
#
# Bulk Modulus (GPa) = 24.62579 50.10564 37.36571
# Shear Modulus (GPa) = 14.73260 21.09324 17.91292
#
# Velocity S-wave (km/s) = 3.10576 3.71620 3.42461
# Velocity P-wave (km/s) = 5.38367 7.15672 6.33256
#
# Compressibility (1/GPa) = 0.04060784
#
# Stress axis : x y z
#
# Youngs Moduli (GPa) = 111.66120 31.63796 29.96031
#
# Poissons Ratio (x) = 0.21469 0.21909
# Poissons Ratio (y) = 0.75770 0.07694
# Poissons Ratio (z) = 0.81656 0.08125
#
# Static dielectric constant tensor:
#      x y z
#    x 1.587430 0.000000 0.000000 
#    y 0.000000 1.462640 0.000000 
#    z 0.000000 0.000000 1.515630 
# 
# From -- ./inp_files/8794.got.cif
#   From: 2010.05.17/outbox.cif.g08.bks.cpg/sg57_5_cif.got.tgz:8794.got - 2010.06.03 13:58:18.
