data_PCOD9433533
_publ_section_title
;
Structure prediction by ZEFSAII (Michael W. Deem and Ramdas Pophale) SiO2 
 PCOD9433533
Probable space group: P C C N
;
_chemical_formula_sum "Si O2"
_cell_formula_units_Z 40
_cell_length_a 8.732370
_cell_length_b 12.278896
_cell_length_c 14.241150
_cell_angle_alpha 90.000000
_cell_angle_beta 90.000000
_cell_angle_gamma 90.000000
_cell_volume 1526.991117
_symmetry_space_group_name_H-M "P C C N"
_symmetry_group_IT_number 56
_symmetry_cell_setting 'orthorhombic'
loop_
_space_group_symop_operation_xyz
x,y,z
1/2-x,1/2-y,z
1/2+x,-y,1/2-z
-x,1/2+y,1/2-z
-x,-y,-z
1/2+x,1/2+y,-z
1/2-x,y,1/2+z
x,1/2-y,1/2+z
loop_
_atom_site_type_symbol
_atom_site_label
_atom_site_fract_x
_atom_site_fract_y
_atom_site_fract_z
Si Si1 0.850476 0.357080 0.424881
Si Si2 0.074760 0.108557 0.546694
Si Si3 0.296129 0.363056 0.877041
Si Si4 0.303381 0.433761 0.196013
Si Si5 0.601988 0.309198 0.120592
O O1 0.750000 0.250000 0.407118
O O2 0.794033 0.454471 0.360684
O O3 0.845865 0.389170 0.535637
O O4 0.025994 0.353782 0.393445
O O5 0.211693 0.132981 0.475489
O O6 0.150174 0.116523 0.650218
O O7 0.962263 0.210780 0.554707
O O8 0.000000 0.000000 0.500000
O O9 0.250000 0.250000 0.827227
O O10 0.228709 0.451289 0.805536
O O11 0.463302 0.369387 0.175399
O O12 0.750000 0.250000 0.168623
#
# Coordination Sequence:
#
# PCOD9433533 Si02
#       5
#     8   8   8   8   8
#     4  11  25  47  77 104 147 198 254 317 387 454
#     4  12  25  46  73 107 153 198 247 307 382 456
#     4  12  26  47  74 107 154 196 246 318 383 454
#     4  12  27  47  74 111 148 199 255 311 384 459
#     4  11  23  47  76 108 145 198 248 313 374 455
#
# _framework density 26.195305999999999
#
# number of rings (size 3 to 8) (size 9 to 14) (size 15 to 20)
#    0.000    0.400    4.000    4.800    5.600    0.000 
#    0.000    5.000    0.000    0.000    0.000    0.000 
#    0.000    0.000    0.000    0.000    0.000    0.000 
#
# Total GULP energy -223698.326145 kJ/mol
# GULP energy per Si atom -5592.458154 kJ/mol
# Density = 2.613568 g / cm^3
# Si number density = 26.195306 Si / 1000 Ang^3
#
#
#
# Elastic Constant Matrix: (Units=GPa)
#
#
# Indices 1 2 3 4 5 6 
#
# 1 102.5720 24.2737 -4.5494 0.0000 0.0000 0.0000
# 2 24.2737 76.1183 -7.0930 0.0000 0.0000 0.0000
# 3 -4.5494 -7.0930 73.2991 0.0000 0.0000 0.0000
# 4 0.0000 0.0000 0.0000 19.2795 0.0000 0.0000
# 5 0.0000 0.0000 0.0000 0.0000 27.1715 0.0000
# 6 0.0000 0.0000 0.0000 0.0000 0.0000 43.1046
#
#
#
# Elastic Compliance Matrix: (Units=1/GPa)
#
#
# Indices 1 2 3 4 5 6 
#
# 1 0.010553 -0.003334 0.000332 0.000000 0.000000 0.000000
# 2 -0.003334 0.014310 0.001178 0.000000 0.000000 0.000000
# 3 0.000332 0.001178 0.013777 0.000000 0.000000 0.000000
# 4 0.000000 0.000000 0.000000 0.051869 0.000000 0.000000
# 5 0.000000 0.000000 0.000000 0.000000 0.036803 0.000000
# 6 0.000000 0.000000 0.000000 0.000000 0.000000 0.023199
#
#
# Mechanical properties :
#
#
# Convention : Reuss Voigt Hill
#
# Bulk Modulus (GPa) = 28.57749 30.80577 29.69163
# Shear Modulus (GPa) = 30.15233 33.86832 32.01033
#
# Velocity S-wave (km/s) = 3.39641 3.59961 3.49949
# Velocity P-wave (km/s) = 5.12970 5.39091 5.26192
#
# Compressibility (1/GPa) = 0.03499257
#
# Stress axis : x y z
#
# Youngs Moduli (GPa) = 94.75923 69.87877 72.58298
#
# Poissons Ratio (x) = 0.23300 -0.02412
# Poissons Ratio (y) = 0.31596 -0.08549
# Poissons Ratio (z) = -0.03149 -0.08231
#
# Static dielectric constant tensor:
#      x y z
#    x 2.138790 0.000000 0.000000 
#    y 0.000000 2.568880 0.000000 
#    z 0.000000 0.000000 2.085770 
# 
# From -- ./inp_files/14592.got.cif
#   From: 2010.05.17/outbox.cif.g08.bks.cpg/sg56_8_cif.got.tgz:14592.got - 2010.06.03 13:42:01.
