data_PCOD9433879
_publ_section_title
;
Structure prediction by ZEFSAII (Michael W. Deem and Ramdas Pophale) SiO2 
 PCOD9433879
Probable space group: P C C N
;
_chemical_formula_sum "Si O2"
_cell_formula_units_Z 28
_cell_length_a 4.788213
_cell_length_b 10.165202
_cell_length_c 24.067277
_cell_angle_alpha 90.000000
_cell_angle_beta 90.000000
_cell_angle_gamma 90.000000
_cell_volume 1171.430240
_symmetry_space_group_name_H-M "P C C N"
_symmetry_group_IT_number 56
_symmetry_cell_setting 'orthorhombic'
loop_
_space_group_symop_operation_xyz
x,y,z
1/2-x,1/2-y,z
1/2+x,-y,1/2-z
-x,1/2+y,1/2-z
-x,-y,-z
1/2+x,1/2+y,-z
1/2-x,y,1/2+z
x,1/2-y,1/2+z
loop_
_atom_site_type_symbol
_atom_site_label
_atom_site_fract_x
_atom_site_fract_y
_atom_site_fract_z
Si Si1 0.250000 0.250000 0.854658
Si Si2 0.537702 0.485839 0.287981
Si Si3 0.500000 0.000000 0.000000
Si Si4 0.491519 0.341644 0.608696
Si Si5 0.250000 0.750000 0.065002
O O1 0.114298 0.363068 0.817004
O O2 0.498156 0.297510 0.895350
O O3 0.810155 0.450020 0.253061
O O4 0.618965 0.587006 0.336400
O O5 0.428476 0.948737 0.936717
O O6 0.648670 0.131973 0.973738
O O7 0.750000 0.250000 0.623237
O O8 0.250000 0.250000 0.583223
#
# Coordination Sequence:
#
# PCOD9433879 Si02
#       5
#     4   8   4   8   4
#     4  12  28  52  76 112 156 212 262 320 396 470
#     4  12  28  50  77 112 154 205 261 321 386 462
#     4  12  28  52  78 118 152 212 254 332 388 478
#     4  12  29  49  76 113 156 200 256 321 392 459
#     4  12  28  50  80 112 164 200 270 320 402 474
#
# _framework density 23.902408000000001
#
# number of rings (size 3 to 8) (size 9 to 14) (size 15 to 20)
#    0.000    0.000    4.286    3.429   12.000    2.286 
#    0.000    0.000    0.000    0.000    0.000    0.000 
#    0.000    0.000    0.000    0.000    0.000    0.000 
#
# Total GULP energy -156016.374594 kJ/mol
# GULP energy per Si atom -5572.013378 kJ/mol
# Density = 2.384800 g / cm^3
# Si number density = 23.902408 Si / 1000 Ang^3
#
#
#
# Elastic Constant Matrix: (Units=GPa)
#
#
# Indices 1 2 3 4 5 6 
#
# 1 69.2241 7.5347 9.0173 0.0000 0.0000 0.0000
# 2 7.5347 105.3052 21.1448 0.0000 0.0000 0.0000
# 3 9.0173 21.1448 133.7559 0.0000 0.0000 0.0000
# 4 0.0000 0.0000 0.0000 -3.7637 0.0000 0.0000
# 5 0.0000 0.0000 0.0000 0.0000 -104.7910 0.0000
# 6 0.0000 0.0000 0.0000 0.0000 0.0000 28.5802
#
#
#
# Elastic Compliance Matrix: (Units=1/GPa)
#
#
# Indices 1 2 3 4 5 6 
#
# 1 0.014652 -0.000878 -0.000849 0.000000 0.000000 0.000000
# 2 -0.000878 0.009860 -0.001500 0.000000 0.000000 0.000000
# 3 -0.000849 -0.001500 0.007771 0.000000 0.000000 0.000000
# 4 0.000000 0.000000 0.000000 -0.265692 0.000000 0.000000
# 5 0.000000 0.000000 0.000000 0.000000 -0.009543 0.000000
# 6 0.000000 0.000000 0.000000 0.000000 0.000000 0.034989
#
#
# Mechanical properties :
#
#
# Convention : Reuss Voigt Hill
#
# Bulk Modulus (GPa) = 38.71491 42.63096 40.67293
# Shear Modulus (GPa) = -25.92009 2.04432 -11.93788
#
# Velocity S-wave (km/s) = -3.29662 0.92582 -2.23725
# Velocity P-wave (km/s) = 1.31985 4.36085 3.22172
#
# Compressibility (1/GPa) = 0.02582984
#
# Stress axis : x y z
#
# Youngs Moduli (GPa) = 68.25011 101.41864 128.69020
#
# Poissons Ratio (x) = 0.08903 0.10926
# Poissons Ratio (y) = 0.05992 0.19298
# Poissons Ratio (z) = 0.05794 0.15208
#
# Static dielectric constant tensor:
#      x y z
#    x 1.935960 0.000000 0.000000 
#    y 0.000000 1.868250 0.000000 
#    z 0.000000 0.000000 1.697460 
# 
# From -- ./inp_files/17220.got.cif
#   From: 2010.05.17/outbox.cif.g08.bks.cpg/sg56_9_cif.got.tgz:17220.got - 2010.06.03 13:42:01.
