data_PCOD9433961
_publ_section_title
;
Structure prediction by ZEFSAII (Michael W. Deem and Ramdas Pophale) SiO2 
 PCOD9433961
Probable space group: P C C N
;
_chemical_formula_sum "Si O2"
_cell_formula_units_Z 60
_cell_length_a 12.000000
_cell_length_b 12.000000
_cell_length_c 21.000000
_cell_angle_alpha 90.000000
_cell_angle_beta 90.000000
_cell_angle_gamma 90.000000
_cell_volume 3024.000000
_symmetry_space_group_name_H-M "P C C N"
_symmetry_group_IT_number 56
_symmetry_cell_setting 'orthorhombic'
loop_
_space_group_symop_operation_xyz
x,y,z
1/2-x,1/2-y,z
1/2+x,-y,1/2-z
-x,1/2+y,1/2-z
-x,-y,-z
1/2+x,1/2+y,-z
1/2-x,y,1/2+z
x,1/2-y,1/2+z
loop_
_atom_site_type_symbol
_atom_site_label
_atom_site_fract_x
_atom_site_fract_y
_atom_site_fract_z
Si Si1 0.854093 0.830745 0.228787
Si Si2 0.649144 0.832303 0.464195
Si Si3 0.579306 0.149591 0.596525
Si Si4 0.592033 0.232674 0.227354
Si Si5 0.047919 0.117298 0.903189
Si Si6 0.218484 0.929976 0.726308
Si Si7 0.250000 0.750000 0.503336
Si Si8 0.709076 0.065815 0.413603
O O1 0.750000 0.750000 0.241349
O O2 0.898079 0.822903 0.156761
O O3 0.963629 0.800946 0.269353
O O4 0.819658 0.959017 0.238667
O O5 0.750000 0.750000 0.454978
O O6 0.548475 0.816838 0.415215
O O7 0.594602 0.827568 0.533432
O O8 0.692562 0.957126 0.455256
O O9 0.618371 0.208739 0.660514
O O10 0.655570 0.196019 0.540244
O O11 0.579658 0.015000 0.598121
O O12 0.672551 0.128958 0.242863
O O13 0.625815 0.332491 0.275252
O O14 0.913761 0.119007 0.903283
O O15 0.246890 0.964757 0.655099
O O16 0.212378 0.848282 0.550025
#
# Coordination Sequence:
#
# PCOD9433961 Si02
#       8
#     8   8   8   8   8   8   4   8
#     4  12  28  41  70 100 134 178 223 282 329 401
#     4  11  24  42  67  98 131 171 216 272 332 396
#     4  11  23  40  71  92 127 175 221 271 323 407
#     4  11  25  45  67  97 134 179 223 277 338 397
#     4  11  21  49  64  96 132 174 225 266 336 391
#     4  11  25  45  67  97 134 179 223 277 338 397
#     4  12  20  42  68 100 116 166 230 254 336 386
#     4  11  23  40  71  92 127 175 221 271 323 407
#
# _framework density 19.841270000000002
#
# number of rings (size 3 to 8) (size 9 to 14) (size 15 to 20)
#    0.000    0.800    5.333    2.800    7.467    0.000 
#    0.000    0.667    0.000    0.000    0.000    0.000 
#    0.000    0.000    0.000    0.000    0.000    0.000 
#
# Total GULP energy -335047.624307 kJ/mol
# GULP energy per Si atom -5584.127072 kJ/mol
# Density = 1.979611 g / cm^3
# Si number density = 19.841270 Si / 1000 Ang^3
#
#
#
# Elastic Constant Matrix: (Units=GPa)
#
#
# Indices 1 2 3 4 5 6 
#
# 1 76.7841 41.0447 -9.3273 0.0000 0.0000 0.0000
# 2 41.0447 55.0040 -18.0218 0.0000 0.0000 0.0000
# 3 -9.3273 -18.0218 39.1062 0.0000 0.0000 0.0000
# 4 0.0000 0.0000 0.0000 24.7959 0.0000 0.0000
# 5 0.0000 0.0000 0.0000 0.0000 4.7961 0.0000
# 6 0.0000 0.0000 0.0000 0.0000 0.0000 29.6234
#
#
#
# Elastic Compliance Matrix: (Units=1/GPa)
#
#
# Indices 1 2 3 4 5 6 
#
# 1 0.021908 -0.017239 -0.002719 0.000000 0.000000 0.000000
# 2 -0.017239 0.034979 0.012008 0.000000 0.000000 0.000000
# 3 -0.002719 0.012008 0.030457 0.000000 0.000000 0.000000
# 4 0.000000 0.000000 0.000000 0.040329 0.000000 0.000000
# 5 0.000000 0.000000 0.000000 0.000000 0.208503 0.000000
# 6 0.000000 0.000000 0.000000 0.000000 0.000000 0.033757
#
#
# Mechanical properties :
#
#
# Convention : Reuss Voigt Hill
#
# Bulk Modulus (GPa) = 13.99710 22.03171 18.01441
# Shear Modulus (GPa) = 12.20559 22.32299 17.26429
#
# Velocity S-wave (km/s) = 2.48294 3.35786 2.95298
# Velocity P-wave (km/s) = 3.91022 5.11485 4.55256
#
# Compressibility (1/GPa) = 0.07144335
#
# Stress axis : x y z
#
# Youngs Moduli (GPa) = 45.64455 28.58856 32.83354
#
# Poissons Ratio (x) = 0.49285 0.08928
# Poissons Ratio (y) = 0.78688 -0.39427
# Poissons Ratio (z) = 0.12411 -0.34329
#
# Static dielectric constant tensor:
#      x y z
#    x 1.584250 0.000000 0.000000 
#    y 0.000000 1.632210 0.000000 
#    z 0.000000 0.000000 1.719840 
# 
# From -- ./inp_files/18795.got.cif
#   From: 2010.05.17/outbox.ucp.g08.bks.cvg/sg56_10_cif.got.tgz:18795.got - 2010.06.11 16:37:52.
