data_PCOD9433809
_publ_section_title
;
Structure prediction by ZEFSAII (Michael W. Deem and Ramdas Pophale) SiO2 
 PCOD9433809
Probable space group: P C C N
;
_chemical_formula_sum "Si O2"
_cell_formula_units_Z 32
_cell_length_a 5.009881
_cell_length_b 16.269510
_cell_length_c 16.461917
_cell_angle_alpha 90.000000
_cell_angle_beta 90.000000
_cell_angle_gamma 90.000000
_cell_volume 1341.783018
_symmetry_space_group_name_H-M "P C C N"
_symmetry_group_IT_number 56
_symmetry_cell_setting 'orthorhombic'
loop_
_space_group_symop_operation_xyz
x,y,z
1/2-x,1/2-y,z
1/2+x,-y,1/2-z
-x,1/2+y,1/2-z
-x,-y,-z
1/2+x,1/2+y,-z
1/2-x,y,1/2+z
x,1/2-y,1/2+z
loop_
_atom_site_type_symbol
_atom_site_label
_atom_site_fract_x
_atom_site_fract_y
_atom_site_fract_z
Si Si1 0.250000 0.250000 0.577144
Si Si2 0.853053 0.497183 0.087641
Si Si3 0.250000 0.750000 0.039278
Si Si4 0.609058 0.160090 0.178056
Si Si5 0.165027 0.908686 0.143691
O O1 0.497007 0.239939 0.518003
O O2 0.321610 0.323673 0.637625
O O3 0.767360 0.406668 0.116642
O O4 0.592477 0.553945 0.097750
O O5 0.088816 0.528264 0.147133
O O6 0.000000 0.500000 0.000000
O O7 0.273215 0.830389 0.094219
O O8 0.750000 0.250000 0.181678
O O9 0.591941 0.122565 0.267055
#
# Coordination Sequence:
#
# PCOD9433809 Si02
#       5
#     4   8   4   8   8
#     4  12  28  44  78 108 156 198 262 310 396 466
#     4  12  28  49  78 114 156 205 262 331 391 468
#     4  12  24  48  72 114 146 212 250 334 390 476
#     4  12  28  49  78 113 158 209 262 324 399 471
#     4  12  27  48  78 110 156 199 270 318 397 467
#
# _framework density 23.848865
#
# number of rings (size 3 to 8) (size 9 to 14) (size 15 to 20)
#    0.000    0.000    2.500    6.750    7.000    1.000 
#    0.000    0.000    0.000    0.000    0.000    0.000 
#    0.000    0.000    0.000    0.000    0.000    0.000 
#
# Total GULP energy -179260.707840 kJ/mol
# GULP energy per Si atom -5601.897120 kJ/mol
# Density = 2.379458 g / cm^3
# Si number density = 23.848865 Si / 1000 Ang^3
#
#
#
# Elastic Constant Matrix: (Units=GPa)
#
#
# Indices 1 2 3 4 5 6 
#
# 1 133.3195 49.5330 27.7695 0.0000 0.0000 0.0000
# 2 49.5330 156.1383 58.1042 0.0000 0.0000 0.0000
# 3 27.7695 58.1042 136.4379 0.0000 0.0000 0.0000
# 4 0.0000 0.0000 0.0000 43.4565 0.0000 0.0000
# 5 0.0000 0.0000 0.0000 0.0000 3.4684 0.0000
# 6 0.0000 0.0000 0.0000 0.0000 0.0000 39.3913
#
#
#
# Elastic Compliance Matrix: (Units=1/GPa)
#
#
# Indices 1 2 3 4 5 6 
#
# 1 0.008558 -0.002456 -0.000696 0.000000 0.000000 0.000000
# 2 -0.002456 0.008316 -0.003041 0.000000 0.000000 0.000000
# 3 -0.000696 -0.003041 0.008766 0.000000 0.000000 0.000000
# 4 0.000000 0.000000 0.000000 0.023011 0.000000 0.000000
# 5 0.000000 0.000000 0.000000 0.000000 0.288317 0.000000
# 6 0.000000 0.000000 0.000000 0.000000 0.000000 0.025386
#
#
# Mechanical properties :
#
#
# Convention : Reuss Voigt Hill
#
# Bulk Modulus (GPa) = 75.45327 77.41212 76.43269
# Shear Modulus (GPa) = 13.18706 36.62918 24.90812
#
# Velocity S-wave (km/s) = 2.35402 3.92329 3.23525
# Velocity P-wave (km/s) = 6.25263 7.28374 6.78779
#
# Compressibility (1/GPa) = 0.01325324
#
# Stress axis : x y z
#
# Youngs Moduli (GPa) = 116.84644 120.25688 114.07421
#
# Poissons Ratio (x) = 0.29535 0.07939
# Poissons Ratio (y) = 0.28698 0.34695
# Poissons Ratio (z) = 0.08132 0.36575
#
# Static dielectric constant tensor:
#      x y z
#    x 1.922330 0.000000 0.000000 
#    y 0.000000 1.961740 0.000000 
#    z 0.000000 0.000000 1.889460 
# 
# From -- ./inp_files/13746.got.cif
#   From: 2010.05.17/outbox.cif.g08.bks.cpg/sg56_7_cif.got.tgz:13746.got - 2010.06.03 13:42:01.
