data_PCOD9433704
_publ_section_title
;
Structure prediction by ZEFSAII (Michael W. Deem and Ramdas Pophale) SiO2 
 PCOD9433704
Probable space group: P C C N
;
_chemical_formula_sum "Si O2"
_cell_formula_units_Z 24
_cell_length_a 7.976169
_cell_length_b 8.329040
_cell_length_c 14.606381
_cell_angle_alpha 90.000000
_cell_angle_beta 90.000000
_cell_angle_gamma 90.000000
_cell_volume 970.357842
_symmetry_space_group_name_H-M "P C C N"
_symmetry_group_IT_number 56
_symmetry_cell_setting 'orthorhombic'
loop_
_space_group_symop_operation_xyz
x,y,z
1/2-x,1/2-y,z
1/2+x,-y,1/2-z
-x,1/2+y,1/2-z
-x,-y,-z
1/2+x,1/2+y,-z
1/2-x,y,1/2+z
x,1/2-y,1/2+z
loop_
_atom_site_type_symbol
_atom_site_label
_atom_site_fract_x
_atom_site_fract_y
_atom_site_fract_z
Si Si1 0.366364 0.616247 0.653401
Si Si2 0.055750 0.190632 0.005588
Si Si3 0.886662 0.640547 0.305505
O O1 0.250000 0.750000 0.700501
O O2 0.448529 0.701338 0.565575
O O3 0.233220 0.477801 0.637442
O O4 0.499068 0.563501 0.729419
O O5 0.250000 0.250000 0.988335
O O6 0.016609 0.229064 0.112476
O O7 0.000000 0.000000 0.000000
O O8 0.750000 0.750000 0.254851
#
# Coordination Sequence:
#
# PCOD9433704 Si02
#       3
#     8   8   8
#     4  12  25  48  78 110 158 207 267 328 407 481
#     4  11  26  49  79 118 161 207 269 332 408 480
#     4  11  26  46  74 115 152 210 265 329 403 479
#
# _framework density 24.733145
#
# number of rings (size 3 to 8) (size 9 to 14) (size 15 to 20)
#    0.000    0.667    3.333    3.000    4.667    6.667 
#    0.000    0.000    0.000    0.000    0.000    0.000 
#    0.000    0.000    0.000    0.000    0.000    0.000 
#
# Total GULP energy -133701.455180 kJ/mol
# GULP energy per Si atom -5570.893966 kJ/mol
# Density = 2.467685 g / cm^3
# Si number density = 24.733145 Si / 1000 Ang^3
#
#
#
# Elastic Constant Matrix: (Units=GPa)
#
#
# Indices 1 2 3 4 5 6 
#
# 1 123.7260 44.8062 75.5319 0.0000 0.0000 0.0000
# 2 44.8062 83.1830 31.6189 0.0000 0.0000 0.0000
# 3 75.5319 31.6189 171.7568 0.0000 0.0000 0.0000
# 4 0.0000 0.0000 0.0000 30.8193 0.0000 0.0000
# 5 0.0000 0.0000 0.0000 0.0000 49.6236 0.0000
# 6 0.0000 0.0000 0.0000 0.0000 0.0000 47.1531
#
#
#
# Elastic Compliance Matrix: (Units=1/GPa)
#
#
# Indices 1 2 3 4 5 6 
#
# 1 0.012793 -0.005110 -0.004685 0.000000 0.000000 0.000000
# 2 -0.005110 0.014967 -0.000508 0.000000 0.000000 0.000000
# 3 -0.004685 -0.000508 0.007976 0.000000 0.000000 0.000000
# 4 0.000000 0.000000 0.000000 0.032447 0.000000 0.000000
# 5 0.000000 0.000000 0.000000 0.000000 0.020152 0.000000
# 6 0.000000 0.000000 0.000000 0.000000 0.000000 0.021207
#
#
# Mechanical properties :
#
#
# Convention : Reuss Voigt Hill
#
# Bulk Modulus (GPa) = 66.09494 75.84223 70.96859
# Shear Modulus (GPa) = 36.98412 40.63312 38.80862
#
# Velocity S-wave (km/s) = 3.87114 4.05762 3.96548
# Velocity P-wave (km/s) = 6.83829 7.25832 7.05143
#
# Compressibility (1/GPa) = 0.01512975
#
# Stress axis : x y z
#
# Youngs Moduli (GPa) = 78.16680 66.81201 125.37453
#
# Poissons Ratio (x) = 0.34141 0.58741
# Poissons Ratio (y) = 0.39944 0.06371
# Poissons Ratio (z) = 0.36623 0.03395
#
# Static dielectric constant tensor:
#      x y z
#    x 1.958140 0.000000 0.000000 
#    y 0.000000 2.293720 0.000000 
#    z 0.000000 0.000000 1.897450 
# 
# From -- ./inp_files/9920.got.cif
#   From: 2010.05.17/outbox.cif.g08.bks.cpg/sg56_5_cif.got.tgz:9920.got - 2010.06.03 13:42:01.
