data_PCOD9433798
_publ_section_title
;
Structure prediction by ZEFSAII (Michael W. Deem and Ramdas Pophale) SiO2 
 PCOD9433798
Probable space group: P C C N
;
_chemical_formula_sum "Si O2"
_cell_formula_units_Z 44
_cell_length_a 27.757063
_cell_length_b 4.896009
_cell_length_c 14.161118
_cell_angle_alpha 90.000000
_cell_angle_beta 90.000000
_cell_angle_gamma 90.000000
_cell_volume 1924.479371
_symmetry_space_group_name_H-M "P C C N"
_symmetry_group_IT_number 56
_symmetry_cell_setting 'orthorhombic'
loop_
_space_group_symop_operation_xyz
x,y,z
1/2-x,1/2-y,z
1/2+x,-y,1/2-z
-x,1/2+y,1/2-z
-x,-y,-z
1/2+x,1/2+y,-z
1/2-x,y,1/2+z
x,1/2-y,1/2+z
loop_
_atom_site_type_symbol
_atom_site_label
_atom_site_fract_x
_atom_site_fract_y
_atom_site_fract_z
Si Si1 0.391163 0.775898 0.608416
Si Si2 0.115325 0.941754 0.399386
Si Si3 0.250000 0.250000 0.010390
Si Si4 0.320575 0.447777 0.865104
Si Si5 0.467521 0.003526 0.745514
Si Si6 0.171338 0.292351 0.158394
O O1 0.396670 0.693794 0.499511
O O2 0.439004 0.901119 0.653427
O O3 0.374035 0.495932 0.656896
O O4 0.348967 0.996266 0.629753
O O5 0.155215 0.741419 0.354540
O O6 0.069874 0.967554 0.331182
O O7 0.139736 0.238020 0.407799
O O8 0.277383 0.451948 0.939397
O O9 0.210360 0.378596 0.080138
O O10 0.307732 0.322944 0.763219
O O11 0.513409 0.809646 0.761119
#
# Coordination Sequence:
#
# PCOD9433798 Si02
#       6
#     8   8   4   8   8   8
#     4  12  24  46  72  98 140 182 221 283 355 398
#     4  12  24  46  72  98 140 182 221 283 355 398
#     4  12  26  42  72 108 136 178 254 266 324 408
#     4  12  24  44  69 101 139 186 226 280 339 400
#     4  12  26  44  74 103 134 173 236 284 338 422
#     4  12  24  44  69 101 139 186 226 280 339 400
#
# _framework density 22.863327000000002
#
# number of rings (size 3 to 8) (size 9 to 14) (size 15 to 20)
#    0.000    0.000    7.273    2.727    0.000    4.364 
#    0.000    3.636    0.000    0.000    0.000    0.000 
#    0.000    0.000    0.000    0.000    0.000    0.000 
#
# Total GULP energy -246427.443169 kJ/mol
# GULP energy per Si atom -5600.623708 kJ/mol
# Density = 2.281129 g / cm^3
# Si number density = 22.863327 Si / 1000 Ang^3
#
#
#
# Elastic Constant Matrix: (Units=GPa)
#
#
# Indices 1 2 3 4 5 6 
#
# 1 85.1702 4.8442 24.2737 0.0000 0.0000 0.0000
# 2 4.8442 85.2523 -7.6706 0.0000 0.0000 0.0000
# 3 24.2737 -7.6706 129.1027 0.0000 0.0000 0.0000
# 4 0.0000 0.0000 0.0000 23.6569 0.0000 0.0000
# 5 0.0000 0.0000 0.0000 0.0000 40.9915 0.0000
# 6 0.0000 0.0000 0.0000 0.0000 0.0000 15.9615
#
#
#
# Elastic Compliance Matrix: (Units=1/GPa)
#
#
# Indices 1 2 3 4 5 6 
#
# 1 0.012478 -0.000925 -0.002401 0.000000 0.000000 0.000000
# 2 -0.000925 0.011862 0.000879 0.000000 0.000000 0.000000
# 3 -0.002401 0.000879 0.008249 0.000000 0.000000 0.000000
# 4 0.000000 0.000000 0.000000 0.042271 0.000000 0.000000
# 5 0.000000 0.000000 0.000000 0.000000 0.024395 0.000000
# 6 0.000000 0.000000 0.000000 0.000000 0.000000 0.062651
#
#
# Mechanical properties :
#
#
# Convention : Reuss Voigt Hill
#
# Bulk Modulus (GPa) = 36.10876 38.04665 37.07771
# Shear Modulus (GPa) = 28.40386 34.66052 31.53219
#
# Velocity S-wave (km/s) = 3.52850 3.89779 3.71773
# Velocity P-wave (km/s) = 5.69456 6.07734 5.88906
#
# Compressibility (1/GPa) = 0.02769411
#
# Stress axis : x y z
#
# Youngs Moduli (GPa) = 80.14025 84.30631 121.22060
#
# Poissons Ratio (x) = 0.07799 0.29106
# Poissons Ratio (y) = 0.07414 -0.10651
# Poissons Ratio (z) = 0.19242 -0.07408
#
# Static dielectric constant tensor:
#      x y z
#    x 1.852220 0.000000 0.000000 
#    y 0.000000 1.803970 0.000000 
#    z 0.000000 0.000000 1.870500 
# 
# From -- ./inp_files/13349.got.cif
#   From: 2010.05.17/outbox.cif.g08.bks.cpg/sg56_7_cif.got.tgz:13349.got - 2010.06.03 13:42:01.
