data_PCOD9433346
_publ_section_title
;
Structure prediction by ZEFSAII (Michael W. Deem and Ramdas Pophale) SiO2 
 PCOD9433346
Probable space group: P C C N
;
_chemical_formula_sum "Si O2"
_cell_formula_units_Z 32
_cell_length_a 9.929677
_cell_length_b 17.330897
_cell_length_c 8.807078
_cell_angle_alpha 90.000000
_cell_angle_beta 90.000000
_cell_angle_gamma 90.000000
_cell_volume 1515.611897
_symmetry_space_group_name_H-M "P C C N"
_symmetry_group_IT_number 56
_symmetry_cell_setting 'orthorhombic'
loop_
_space_group_symop_operation_xyz
x,y,z
1/2-x,1/2-y,z
1/2+x,-y,1/2-z
-x,1/2+y,1/2-z
-x,-y,-z
1/2+x,1/2+y,-z
1/2-x,y,1/2+z
x,1/2-y,1/2+z
loop_
_atom_site_type_symbol
_atom_site_label
_atom_site_fract_x
_atom_site_fract_y
_atom_site_fract_z
Si Si1 0.662360 0.338152 0.154716
Si Si2 0.897496 0.933333 0.439495
Si Si3 0.568564 0.291070 0.483906
Si Si4 0.127590 0.014712 0.893457
O O1 0.622629 0.301935 0.314931
O O2 0.657705 0.429321 0.169703
O O3 0.811769 0.320806 0.094111
O O4 0.560538 0.298522 0.032626
O O5 0.945555 0.848977 0.493506
O O6 0.752158 0.954074 0.508410
O O7 0.897687 0.935292 0.256797
O O8 0.000000 0.000000 0.500000
O O9 0.000000 0.000000 0.000000
#
# Coordination Sequence:
#
# PCOD9433346 Si02
#       4
#     8   8   8   8
#     4  11  22  40  66 101 132 178 222 279 342 405
#     4  12  24  44  69 103 134 175 235 288 340 412
#     4  11  24  40  70 101 141 173 233 283 346 408
#     4  12  26  42  71  97 137 180 228 282 348 410
#
# _framework density 21.113585
#
# number of rings (size 3 to 8) (size 9 to 14) (size 15 to 20)
#    0.000    0.500    5.000    4.500    7.000    0.000 
#    0.000    1.250    0.000    0.000    0.000    0.000 
#    0.000    0.000    0.000    0.000    0.000    0.000 
#
# Total GULP energy -178829.928703 kJ/mol
# GULP energy per Si atom -5588.435272 kJ/mol
# Density = 2.106553 g / cm^3
# Si number density = 21.113585 Si / 1000 Ang^3
#
#
#
# Elastic Constant Matrix: (Units=GPa)
#
#
# Indices 1 2 3 4 5 6 
#
# 1 121.6369 5.2860 48.6790 0.0000 0.0000 0.0000
# 2 5.2860 55.7293 -4.0823 0.0000 0.0000 0.0000
# 3 48.6790 -4.0823 158.5058 0.0000 0.0000 0.0000
# 4 0.0000 0.0000 0.0000 25.2596 0.0000 0.0000
# 5 0.0000 0.0000 0.0000 0.0000 33.7656 0.0000
# 6 0.0000 0.0000 0.0000 0.0000 0.0000 39.4394
#
#
#
# Elastic Compliance Matrix: (Units=1/GPa)
#
#
# Indices 1 2 3 4 5 6 
#
# 1 0.009441 -0.001110 -0.002928 0.000000 0.000000 0.000000
# 2 -0.001110 0.018108 0.000807 0.000000 0.000000 0.000000
# 3 -0.002928 0.000807 0.007229 0.000000 0.000000 0.000000
# 4 0.000000 0.000000 0.000000 0.039589 0.000000 0.000000
# 5 0.000000 0.000000 0.000000 0.000000 0.029616 0.000000
# 6 0.000000 0.000000 0.000000 0.000000 0.000000 0.025355
#
#
# Mechanical properties :
#
#
# Convention : Reuss Voigt Hill
#
# Bulk Modulus (GPa) = 35.31468 48.40416 41.85942
# Shear Modulus (GPa) = 34.42591 38.75885 36.59238
#
# Velocity S-wave (km/s) = 4.04234 4.28919 4.16759
# Velocity P-wave (km/s) = 6.20884 6.89238 6.55952
#
# Compressibility (1/GPa) = 0.02831684
#
# Stress axis : x y z
#
# Youngs Moduli (GPa) = 105.91814 55.22327 138.33244
#
# Poissons Ratio (x) = 0.06130 0.40505
# Poissons Ratio (y) = 0.11757 -0.11167
# Poissons Ratio (z) = 0.31014 -0.04458
#
# Static dielectric constant tensor:
#      x y z
#    x 1.763040 0.000000 0.000000 
#    y 0.000000 1.873860 0.000000 
#    z 0.000000 0.000000 1.771720 
# 
# From -- ./inp_files/1908.got.cif
#   From: 2010.05.17/outbox.cif.g08.bks.cpg/sg56_1_cif.got.tgz:1908.got - 2010.06.03 13:42:01.
