data_PCOD9433190
_publ_section_title
;
Structure prediction by ZEFSAII (Michael W. Deem and Ramdas Pophale) SiO2 
 PCOD9433190
Probable space group: P C C N
;
_chemical_formula_sum "Si O2"
_cell_formula_units_Z 48
_cell_length_a 8.312080
_cell_length_b 15.701014
_cell_length_c 17.637188
_cell_angle_alpha 90.000000
_cell_angle_beta 90.000000
_cell_angle_gamma 90.000000
_cell_volume 2301.795621
_symmetry_space_group_name_H-M "P C C N"
_symmetry_group_IT_number 56
_symmetry_cell_setting 'orthorhombic'
loop_
_space_group_symop_operation_xyz
x,y,z
1/2-x,1/2-y,z
1/2+x,-y,1/2-z
-x,1/2+y,1/2-z
-x,-y,-z
1/2+x,1/2+y,-z
1/2-x,y,1/2+z
x,1/2-y,1/2+z
loop_
_atom_site_type_symbol
_atom_site_label
_atom_site_fract_x
_atom_site_fract_y
_atom_site_fract_z
Si Si1 0.268644 0.344349 0.116207
Si Si2 0.566735 0.093711 0.521698
Si Si3 0.232871 0.655904 0.114759
Si Si4 0.629321 0.993438 0.790650
Si Si5 0.561419 0.596202 0.520954
Si Si6 0.223929 0.505443 0.864118
O O1 0.250000 0.250000 0.147680
O O2 0.433893 0.357909 0.070756
O O3 0.238671 0.416582 0.178331
O O4 0.133024 0.360819 0.052547
O O5 0.622732 0.135780 0.443439
O O6 0.500000 0.000000 0.500000
O O7 0.718444 0.078102 0.577788
O O8 0.250000 0.750000 0.147995
O O9 0.202452 0.580618 0.174692
O O10 0.076592 0.649403 0.060788
O O11 0.642867 0.995884 0.700501
O O12 0.448411 0.981678 0.822754
O O13 0.500000 0.500000 0.500000
O O14 0.698370 0.577519 0.583552
#
# Coordination Sequence:
#
# PCOD9433190 Si02
#       6
#     8   8   8   8   8   8
#     4  12  23  38  63  95 130 164 210 264 315 373
#     4  12  20  38  67  94 121 161 217 257 310 368
#     4  11  22  39  64  91 125 166 211 257 311 376
#     4  11  23  42  61  89 132 164 210 254 319 388
#     4  11  18  42  65  88 122 168 213 264 309 366
#     4  11  22  39  71  87 124 176 204 257 326 369
#
# _framework density 20.853283000000001
#
# number of rings (size 3 to 8) (size 9 to 14) (size 15 to 20)
#    0.000    0.667    8.333    2.000    0.000    0.000 
#    0.000    6.667    0.000    0.000    0.000    0.000 
#    0.000    0.000    0.000    0.000    0.000    0.000 
#
# Total GULP energy -268217.297007 kJ/mol
# GULP energy per Si atom -5587.860354 kJ/mol
# Density = 2.080582 g / cm^3
# Si number density = 20.853283 Si / 1000 Ang^3
#
#
#
# Elastic Constant Matrix: (Units=GPa)
#
#
# Indices 1 2 3 4 5 6 
#
# 1 56.8394 21.3093 -9.2928 0.0000 0.0000 0.0000
# 2 21.3093 127.1173 12.3913 0.0000 0.0000 0.0000
# 3 -9.2928 12.3913 68.2946 0.0000 0.0000 0.0000
# 4 0.0000 0.0000 0.0000 0.2024 0.0000 0.0000
# 5 0.0000 0.0000 0.0000 0.0000 37.0030 0.0000
# 6 0.0000 0.0000 0.0000 0.0000 0.0000 19.2974
#
#
#
# Elastic Compliance Matrix: (Units=1/GPa)
#
#
# Indices 1 2 3 4 5 6 
#
# 1 0.019478 -0.003587 0.003301 0.000000 0.000000 0.000000
# 2 -0.003587 0.008669 -0.002061 0.000000 0.000000 0.000000
# 3 0.003301 -0.002061 0.015466 0.000000 0.000000 0.000000
# 4 0.000000 0.000000 0.000000 4.940202 0.000000 0.000000
# 5 0.000000 0.000000 0.000000 0.000000 0.027025 0.000000
# 6 0.000000 0.000000 0.000000 0.000000 0.000000 0.051820
#
#
# Mechanical properties :
#
#
# Convention : Reuss Voigt Hill
#
# Bulk Modulus (GPa) = 25.69444 33.45186 29.57315
# Shear Modulus (GPa) = 0.98419 26.49013 13.73716
#
# Velocity S-wave (km/s) = 0.68774 3.56801 2.56940
# Velocity P-wave (km/s) = 3.60263 5.74896 4.79737
#
# Compressibility (1/GPa) = 0.03891893
#
# Stress axis : x y z
#
# Youngs Moduli (GPa) = 51.34018 115.35421 64.65972
#
# Poissons Ratio (x) = 0.41377 -0.21345
# Poissons Ratio (y) = 0.18416 0.13326
# Poissons Ratio (z) = -0.16948 0.23774
#
# Static dielectric constant tensor:
#      x y z
#    x 1.824780 0.000000 0.000000 
#    y 0.000000 1.743620 0.000000 
#    z 0.000000 0.000000 1.728550 
# 
# From -- ./inp_files/14781.got.cif
#   From: 2010.05.17/outbox.cif.g08.bks.cpg/sg56_8_cif.got.tgz:14781.got - 2010.06.03 13:42:01.
