data_PCOD9433978
_publ_section_title
;
Structure prediction by ZEFSAII (Michael W. Deem and Ramdas Pophale) SiO2 
 PCOD9433978
Probable space group: P B C M
;
_chemical_formula_sum "Si O2"
_cell_formula_units_Z 56
_cell_length_a 19.263302
_cell_length_b 8.220763
_cell_length_c 19.535908
_cell_angle_alpha 90.000000
_cell_angle_beta 90.000000
_cell_angle_gamma 90.000000
_cell_volume 3093.687643
_symmetry_space_group_name_H-M "P B C M"
_symmetry_group_IT_number 57
_symmetry_cell_setting 'orthorhombic'
loop_
_space_group_symop_operation_xyz
x,y,z
-x,-y,1/2+z
x,1/2-y,-z
-x,1/2+y,1/2-z
-x,-y,-z
x,y,1/2-z
-x,1/2+y,z
x,1/2-y,1/2+z
loop_
_atom_site_type_symbol
_atom_site_label
_atom_site_fract_x
_atom_site_fract_y
_atom_site_fract_z
Si Si1 0.892153 0.618392 0.172630
Si Si2 0.352783 0.055379 0.428706
Si Si3 0.589046 0.882503 0.419065
Si Si4 0.031144 0.462514 0.327700
Si Si5 0.201665 0.407777 0.957627
Si Si6 0.928181 0.072596 0.029760
Si Si7 0.566643 0.249459 0.917662
O O1 0.865040 0.608447 0.250000
O O2 0.939092 0.781007 0.167143
O O3 0.834192 0.624279 0.115249
O O4 0.948271 0.474975 0.161463
O O5 0.392799 0.083990 0.500955
O O6 0.358580 0.237105 0.395579
O O7 0.274049 0.002986 0.444641
O O8 0.389448 0.904913 0.390999
O O9 0.513784 0.799959 0.409251
O O10 0.585444 0.068936 0.390925
O O11 0.043987 0.521769 0.250000
O O12 0.066618 0.561333 0.388580
O O13 0.223588 0.250000 0.000000
O O14 0.140134 0.483215 0.002784
O O15 0.924387 0.250000 0.000000
O O16 0.000000 0.000000 0.000000
O O17 0.578725 0.250000 0.000000
#
# Coordination Sequence:
#
# PCOD9433978 Si02
#       7
#     8   8   8   8   8   8   8
#     4  10  21  36  56  77  98 134 176 222 276 324
#     4  10  19  28  41  67  99 141 168 209 264 314
#     4  10  15  25  43  65  96 140 167 211 250 319
#     4  10  20  35  55  78  99 128 178 229 269 325
#     4  12  22  36  51  73 112 138 171 222 271 324
#     4  12  23  36  55  77 102 142 180 222 279 327
#     4  10  15  24  44  65  95 139 175 202 255 315
#
# _framework density 18.101375999999998
#
# number of rings (size 3 to 8) (size 9 to 14) (size 15 to 20)
#    0.000    1.429    7.143    2.143    0.000    1.714 
#    0.000    0.000    0.000    0.000    0.000    0.000 
#    0.000    1.143    0.000    0.000    0.000    0.429 
#
# Total GULP energy -311781.043256 kJ/mol
# GULP energy per Si atom -5567.518630 kJ/mol
# Density = 1.806018 g / cm^3
# Si number density = 18.101376 Si / 1000 Ang^3
#
#
#
# Elastic Constant Matrix: (Units=GPa)
#
#
# Indices 1 2 3 4 5 6 
#
# 1 93.1327 13.1592 23.7105 0.0000 0.0000 0.0000
# 2 13.1592 83.5024 9.0136 0.0000 0.0000 0.0000
# 3 23.7105 9.0136 70.9420 0.0000 0.0000 0.0000
# 4 0.0000 0.0000 0.0000 11.6146 0.0000 0.0000
# 5 0.0000 0.0000 0.0000 0.0000 0.2791 0.0000
# 6 0.0000 0.0000 0.0000 0.0000 0.0000 22.3482
#
#
#
# Elastic Compliance Matrix: (Units=1/GPa)
#
#
# Indices 1 2 3 4 5 6 
#
# 1 0.011911 -0.001467 -0.003794 0.000000 0.000000 0.000000
# 2 -0.001467 0.012323 -0.001075 0.000000 0.000000 0.000000
# 3 -0.003794 -0.001075 0.015501 0.000000 0.000000 0.000000
# 4 0.000000 0.000000 0.000000 0.086098 0.000000 0.000000
# 5 0.000000 0.000000 0.000000 0.000000 3.582944 0.000000
# 6 0.000000 0.000000 0.000000 0.000000 0.000000 0.044746
#
#
# Mechanical properties :
#
#
# Convention : Reuss Voigt Hill
#
# Bulk Modulus (GPa) = 36.95439 37.70484 37.32961
# Shear Modulus (GPa) = 1.32443 20.29463 10.80953
#
# Velocity S-wave (km/s) = 0.85631 3.35201 2.44635
# Velocity P-wave (km/s) = 4.63004 5.98802 5.35227
#
# Compressibility (1/GPa) = 0.02706039
#
# Stress axis : x y z
#
# Youngs Moduli (GPa) = 83.95801 81.14889 64.51274
#
# Poissons Ratio (x) = 0.11908 0.24479
# Poissons Ratio (y) = 0.12320 0.06937
# Poissons Ratio (z) = 0.31857 0.08726
#
# Static dielectric constant tensor:
#      x y z
#    x 1.556250 0.000000 0.000000 
#    y 0.000000 1.713810 0.000000 
#    z 0.000000 0.000000 1.605540 
# 
# From -- ./inp_files/25564.got.cif
#   From: 2010.05.17/outbox.cif.g08.bks.cpg/sg57_13_cif.got.tgz:25564.got - 2010.06.03 13:58:18.
