data_PCOD9433663
_publ_section_title
;
Structure prediction by ZEFSAII (Michael W. Deem and Ramdas Pophale) SiO2 
 PCOD9433663
Probable space group: P C C N
;
_chemical_formula_sum "Si O2"
_cell_formula_units_Z 40
_cell_length_a 8.381787
_cell_length_b 8.383365
_cell_length_c 24.072532
_cell_angle_alpha 90.000000
_cell_angle_beta 90.000000
_cell_angle_gamma 90.000000
_cell_volume 1691.518563
_symmetry_space_group_name_H-M "P C C N"
_symmetry_group_IT_number 56
_symmetry_cell_setting 'orthorhombic'
loop_
_space_group_symop_operation_xyz
x,y,z
1/2-x,1/2-y,z
1/2+x,-y,1/2-z
-x,1/2+y,1/2-z
-x,-y,-z
1/2+x,1/2+y,-z
1/2-x,y,1/2+z
x,1/2-y,1/2+z
loop_
_atom_site_type_symbol
_atom_site_label
_atom_site_fract_x
_atom_site_fract_y
_atom_site_fract_z
Si Si1 0.650709 0.085008 0.679037
Si Si2 0.750000 0.250000 0.003562
Si Si3 0.480540 0.154685 0.576953
Si Si4 0.346653 0.997748 0.076476
Si Si5 0.250000 0.250000 0.322764
Si Si6 0.598990 0.132624 0.801441
O O1 0.750000 0.250000 0.677823
O O2 0.499029 0.130775 0.643017
O O3 0.622473 0.041634 0.743276
O O4 0.722128 0.925671 0.650592
O O5 0.870611 0.346409 0.963093
O O6 0.646767 0.362407 0.044717
O O7 0.339160 0.034947 0.564109
O O8 0.432012 0.336156 0.564718
O O9 0.388371 0.958552 0.140256
O O10 0.425431 0.284546 0.296555
O O11 0.750000 0.250000 0.803919
#
# Coordination Sequence:
#
# PCOD9433663 Si02
#       6
#     8   4   8   8   4   8
#     4  11  26  46  72 115 152 189 254 307 376 469
#     4  12  24  48  70 104 140 196 264 310 380 464
#     4  11  25  46  73 104 147 195 247 321 383 448
#     4  11  25  46  73 104 147 195 247 321 383 448
#     4  12  28  44  80 112 150 216 232 312 392 454
#     4  11  26  46  72 115 152 189 254 307 376 469
#
# _framework density 23.647392
#
# number of rings (size 3 to 8) (size 9 to 14) (size 15 to 20)
#    0.000    0.800    2.000    3.600   11.200    0.000 
#    0.000    0.000    0.000    0.000    0.000    0.000 
#    0.000    0.000    0.000    0.000    0.000    0.000 
#
# Total GULP energy -222954.831446 kJ/mol
# GULP energy per Si atom -5573.870786 kJ/mol
# Density = 2.359357 g / cm^3
# Si number density = 23.647392 Si / 1000 Ang^3
#
#
#
# Elastic Constant Matrix: (Units=GPa)
#
#
# Indices 1 2 3 4 5 6 
#
# 1 93.1069 21.8183 20.3499 0.0000 0.0000 0.0000
# 2 21.8183 118.4373 29.6906 0.0000 0.0000 0.0000
# 3 20.3499 29.6906 130.1121 0.0000 0.0000 0.0000
# 4 0.0000 0.0000 0.0000 -95.1547 0.0000 0.0000
# 5 0.0000 0.0000 0.0000 0.0000 -33.5655 0.0000
# 6 0.0000 0.0000 0.0000 0.0000 0.0000 -13.7898
#
#
#
# Elastic Compliance Matrix: (Units=1/GPa)
#
#
# Indices 1 2 3 4 5 6 
#
# 1 0.011457 -0.001762 -0.001390 0.000000 0.000000 0.000000
# 2 -0.001762 0.009227 -0.001830 0.000000 0.000000 0.000000
# 3 -0.001390 -0.001830 0.008321 0.000000 0.000000 0.000000
# 4 0.000000 0.000000 0.000000 -0.010509 0.000000 0.000000
# 5 0.000000 0.000000 0.000000 0.000000 -0.029793 0.000000
# 6 0.000000 0.000000 0.000000 0.000000 0.000000 -0.072518
#
#
# Mechanical properties :
#
#
# Convention : Reuss Voigt Hill
#
# Bulk Modulus (GPa) = 52.51928 53.93045 53.22486
# Shear Modulus (GPa) = -74.06917 -10.51550 -42.29233
#
# Velocity S-wave (km/s) = -5.60271 -2.11103 -4.23360
# Velocity P-wave (km/s) = 4.42676 4.11262 1.15814
#
# Compressibility (1/GPa) = 0.01904063
#
# Stress axis : x y z
#
# Youngs Moduli (GPa) = 87.28249 108.38190 120.18359
#
# Poissons Ratio (x) = 0.19099 0.16703
# Poissons Ratio (y) = 0.15381 0.21992
# Poissons Ratio (z) = 0.12130 0.19832
#
# Static dielectric constant tensor:
#      x y z
#    x 1.449070 0.000000 0.000000 
#    y 0.000000 2.340910 0.000000 
#    z 0.000000 0.000000 1.858620 
# 
# From -- ./inp_files/20383.got.cif
#   From: 2010.05.17/outbox.cif.g08.bks.cpg/sg56_11_cif.got.tgz:20383.got - 2010.06.03 13:42:01.
