data_PCOD9433896
_publ_section_title
;
Structure prediction by ZEFSAII (Michael W. Deem and Ramdas Pophale) SiO2 
 PCOD9433896
Probable space group: P C C N
;
_chemical_formula_sum "Si O2"
_cell_formula_units_Z 48
_cell_length_a 7.485980
_cell_length_b 21.836287
_cell_length_c 11.119275
_cell_angle_alpha 90.000000
_cell_angle_beta 90.000000
_cell_angle_gamma 90.000000
_cell_volume 1817.623493
_symmetry_space_group_name_H-M "P C C N"
_symmetry_group_IT_number 56
_symmetry_cell_setting 'orthorhombic'
loop_
_space_group_symop_operation_xyz
x,y,z
1/2-x,1/2-y,z
1/2+x,-y,1/2-z
-x,1/2+y,1/2-z
-x,-y,-z
1/2+x,1/2+y,-z
1/2-x,y,1/2+z
x,1/2-y,1/2+z
loop_
_atom_site_type_symbol
_atom_site_label
_atom_site_fract_x
_atom_site_fract_y
_atom_site_fract_z
Si Si1 0.951786 0.277962 0.412911
Si Si2 0.760363 0.486268 0.890768
Si Si3 0.388500 0.385376 0.596243
Si Si4 0.635810 0.471752 0.138486
Si Si5 0.953622 0.268677 0.158280
Si Si6 0.689395 0.882288 0.644892
O O1 0.750000 0.250000 0.419130
O O2 0.033080 0.252170 0.288376
O O3 0.035428 0.262462 0.541280
O O4 0.001978 0.349308 0.390407
O O5 0.906048 0.540989 0.901037
O O6 0.577618 0.525812 0.874335
O O7 0.803348 0.448951 0.769646
O O8 0.726398 0.450282 0.014521
O O9 0.550391 0.340849 0.626965
O O10 0.269745 0.368347 0.715337
O O11 0.320992 0.367412 0.464292
O O12 0.678597 0.544435 0.141435
O O13 0.750000 0.250000 0.168834
#
# Coordination Sequence:
#
# PCOD9433896 Si02
#       6
#     8   8   8   8   8   8
#     4   9  18  33  54  74 105 141 182 228 280 334
#     4   9  18  34  59  83 116 153 188 237 286 344
#     4   9  18  33  55  81 110 145 186 229 275 336
#     4   9  18  34  59  83 118 150 190 237 287 343
#     4   9  18  33  54  78 108 144 181 230 280 331
#     4   9  18  33  55  79 110 145 182 230 278 332
#
# _framework density 26.408110000000001
#
# number of rings (size 3 to 8) (size 9 to 14) (size 15 to 20)
#    0.000    3.000    0.000    0.000    0.000    2.667 
#    0.000    3.333   99.000    0.000    0.000    0.000 
#    0.000    0.000    0.000    0.000    0.000    0.000 
#
# Total GULP energy -267430.385469 kJ/mol
# GULP energy per Si atom -5571.466364 kJ/mol
# Density = 2.634800 g / cm^3
# Si number density = 26.408110 Si / 1000 Ang^3
#
#
#
# Elastic Constant Matrix: (Units=GPa)
#
#
# Indices 1 2 3 4 5 6 
#
# 1 61.1126 -5.3597 38.7452 0.0000 0.0000 0.0000
# 2 -5.3597 28.4844 20.7547 0.0000 0.0000 0.0000
# 3 38.7452 20.7547 271.3862 0.0000 0.0000 0.0000
# 4 0.0000 0.0000 0.0000 15.5339 0.0000 0.0000
# 5 0.0000 0.0000 0.0000 0.0000 26.4866 0.0000
# 6 0.0000 0.0000 0.0000 0.0000 0.0000 40.8176
#
#
#
# Elastic Compliance Matrix: (Units=1/GPa)
#
#
# Indices 1 2 3 4 5 6 
#
# 1 0.018866 0.005838 -0.003140 0.000000 0.000000 0.000000
# 2 0.005838 0.038985 -0.003815 0.000000 0.000000 0.000000
# 3 -0.003140 -0.003815 0.004425 0.000000 0.000000 0.000000
# 4 0.000000 0.000000 0.000000 0.064375 0.000000 0.000000
# 5 0.000000 0.000000 0.000000 0.000000 0.037755 0.000000
# 6 0.000000 0.000000 0.000000 0.000000 0.000000 0.024499
#
#
# Mechanical properties :
#
#
# Convention : Reuss Voigt Hill
#
# Bulk Modulus (GPa) = 16.65516 52.14041 34.39779
# Shear Modulus (GPa) = 23.67950 37.02383 30.35167
#
# Velocity S-wave (km/s) = 2.99770 3.74837 3.39386
# Velocity P-wave (km/s) = 4.27810 6.20650 5.33024
#
# Compressibility (1/GPa) = 0.06004144
#
# Stress axis : x y z
#
# Youngs Moduli (GPa) = 53.00571 25.65094 225.99858
#
# Poissons Ratio (x) = -0.14974 0.70961
# Poissons Ratio (y) = -0.30943 0.86215
# Poissons Ratio (z) = 0.16643 0.09785
#
# Static dielectric constant tensor:
#      x y z
#    x 2.083790 0.000000 0.000000 
#    y 0.000000 2.051400 0.000000 
#    z 0.000000 0.000000 2.170870 
# 
# From -- ./inp_files/6425.got.cif
#   From: 2010.05.17/outbox.cif.g08.bks.cpg/sg56_4_cif.got.tgz:6425.got - 2010.06.03 13:42:01.
