data_PCOD9433341
_publ_section_title
;
Structure prediction by ZEFSAII (Michael W. Deem and Ramdas Pophale) SiO2 
 PCOD9433341
Probable space group: P C C N
;
_chemical_formula_sum "Si O2"
_cell_formula_units_Z 48
_cell_length_a 25.975006
_cell_length_b 4.805029
_cell_length_c 16.429005
_cell_angle_alpha 90.000000
_cell_angle_beta 90.000000
_cell_angle_gamma 90.000000
_cell_volume 2050.514910
_symmetry_space_group_name_H-M "P C C N"
_symmetry_group_IT_number 56
_symmetry_cell_setting 'orthorhombic'
loop_
_space_group_symop_operation_xyz
x,y,z
1/2-x,1/2-y,z
1/2+x,-y,1/2-z
-x,1/2+y,1/2-z
-x,-y,-z
1/2+x,1/2+y,-z
1/2-x,y,1/2+z
x,1/2-y,1/2+z
loop_
_atom_site_type_symbol
_atom_site_label
_atom_site_fract_x
_atom_site_fract_y
_atom_site_fract_z
Si Si1 0.861646 0.867558 0.559951
Si Si2 0.805674 0.374401 0.496403
Si Si3 0.487977 0.735732 0.299327
Si Si4 0.117086 0.057997 0.774293
Si Si5 0.632702 0.428641 0.839230
Si Si6 0.952888 0.628338 0.450023
O O1 0.814972 0.691361 0.521328
O O2 0.865893 0.745800 0.650115
O O3 0.912749 0.787775 0.508265
O O4 0.846845 0.188057 0.547677
O O5 0.750000 0.250000 0.511045
O O6 0.821609 0.372341 0.402111
O O7 0.521925 0.941868 0.242672
O O8 0.436686 0.917798 0.304017
O O9 0.517691 0.687957 0.382530
O O10 0.124679 0.264154 0.697157
O O11 0.141189 0.779045 0.735656
O O12 0.581342 0.406841 0.897206
O O13 0.000000 0.500000 0.500000
#
# Coordination Sequence:
#
# PCOD9433341 Si02
#       6
#     8   8   8   8   8   8
#     4  11  25  42  71 101 133 173 223 285 335 405
#     4  11  25  49  71  96 129 173 222 285 354 409
#     4  12  23  39  61  90 138 188 220 259 320 389
#     4  12  22  43  62 100 136 174 219 276 330 396
#     4  11  24  42  68  93 136 175 226 274 335 403
#     4  11  22  40  62  99 137 182 228 264 322 406
#
# _framework density 23.408757000000001
#
# number of rings (size 3 to 8) (size 9 to 14) (size 15 to 20)
#    0.000    0.667    5.000    3.500    0.000    0.000 
#    0.000   13.333    0.000    0.000    0.000    0.000 
#    0.000    0.000    0.000    0.000    0.000    0.000 
#
# Total GULP energy -268060.010956 kJ/mol
# GULP energy per Si atom -5584.583562 kJ/mol
# Density = 2.335548 g / cm^3
# Si number density = 23.408757 Si / 1000 Ang^3
#
#
#
# Elastic Constant Matrix: (Units=GPa)
#
#
# Indices 1 2 3 4 5 6 
#
# 1 65.2711 -5.4102 5.5270 0.0000 0.0000 0.0000
# 2 -5.4102 94.5851 6.0354 0.0000 0.0000 0.0000
# 3 5.5270 6.0354 94.4889 0.0000 0.0000 0.0000
# 4 0.0000 0.0000 0.0000 28.7146 0.0000 0.0000
# 5 0.0000 0.0000 0.0000 0.0000 12.6983 0.0000
# 6 0.0000 0.0000 0.0000 0.0000 0.0000 21.8821
#
#
#
# Elastic Compliance Matrix: (Units=1/GPa)
#
#
# Indices 1 2 3 4 5 6 
#
# 1 0.015481 0.000947 -0.000966 0.000000 0.000000 0.000000
# 2 0.000947 0.010674 -0.000737 0.000000 0.000000 0.000000
# 3 -0.000966 -0.000737 0.010687 0.000000 0.000000 0.000000
# 4 0.000000 0.000000 0.000000 0.034826 0.000000 0.000000
# 5 0.000000 0.000000 0.000000 0.000000 0.078751 0.000000
# 6 0.000000 0.000000 0.000000 0.000000 0.000000 0.045699
#
#
# Mechanical properties :
#
#
# Convention : Reuss Voigt Hill
#
# Bulk Modulus (GPa) = 28.30500 29.62772 28.96636
# Shear Modulus (GPa) = 23.87710 29.20521 26.54115
#
# Velocity S-wave (km/s) = 3.19722 3.53600 3.37087
# Velocity P-wave (km/s) = 5.07420 5.41804 5.24894
#
# Compressibility (1/GPa) = 0.03532944
#
# Stress axis : x y z
#
# Youngs Moduli (GPa) = 64.59524 93.68820 93.57301
#
# Poissons Ratio (x) = -0.08874 0.09039
# Poissons Ratio (y) = -0.06118 0.06898
# Poissons Ratio (z) = 0.06240 0.06906
#
# Static dielectric constant tensor:
#      x y z
#    x 1.938750 0.000000 0.000000 
#    y 0.000000 1.838730 0.000000 
#    z 0.000000 0.000000 1.919220 
# 
# From -- ./inp_files/13369.got.cif
#   From: 2010.05.17/outbox.cif.g08.bks.cpg/sg56_7_cif.got.tgz:13369.got - 2010.06.03 13:42:01.
