data_PCOD9433694
_publ_section_title
;
Structure prediction by ZEFSAII (Michael W. Deem and Ramdas Pophale) SiO2 
 PCOD9433694
Probable space group: P C C N
;
_chemical_formula_sum "Si O2"
_cell_formula_units_Z 32
_cell_length_a 12.029385
_cell_length_b 11.216992
_cell_length_c 9.099409
_cell_angle_alpha 90.000000
_cell_angle_beta 90.000000
_cell_angle_gamma 90.000000
_cell_volume 1227.815244
_symmetry_space_group_name_H-M "P C C N"
_symmetry_group_IT_number 56
_symmetry_cell_setting 'orthorhombic'
loop_
_space_group_symop_operation_xyz
x,y,z
1/2-x,1/2-y,z
1/2+x,-y,1/2-z
-x,1/2+y,1/2-z
-x,-y,-z
1/2+x,1/2+y,-z
1/2-x,y,1/2+z
x,1/2-y,1/2+z
loop_
_atom_site_type_symbol
_atom_site_label
_atom_site_fract_x
_atom_site_fract_y
_atom_site_fract_z
Si Si1 0.223739 0.449471 0.419836
Si Si2 0.237456 0.886123 0.202594
Si Si3 0.474009 0.625787 0.420905
Si Si4 0.583935 0.756875 0.155411
O O1 0.174375 0.547662 0.307343
O O2 0.237433 0.525060 0.566405
O O3 0.135067 0.347479 0.442933
O O4 0.327266 0.367580 0.354078
O O5 0.250000 0.750000 0.161986
O O6 0.132602 0.888157 0.316463
O O7 0.500000 0.500000 0.500000
O O8 0.560823 0.693055 0.311333
O O9 0.473109 0.706126 0.567907
#
# Coordination Sequence:
#
# PCOD9433694 Si02
#       4
#     8   8   8   8
#     4  11  25  51  80 112 156 220 271 317 410 501
#     4  12  28  48  76 116 164 207 262 335 414 480
#     4  12  28  50  76 122 156 205 275 343 406 477
#     4  11  26  50  85 110 159 215 273 338 401 495
#
# _framework density 26.062553000000001
#
# number of rings (size 3 to 8) (size 9 to 14) (size 15 to 20)
#    0.000    0.500    2.500    3.750    7.000    5.000 
#    0.000    0.000    0.000    0.000    0.000    0.000 
#    0.000    0.000    0.000    0.000    0.000    0.000 
#
# Total GULP energy -178403.006849 kJ/mol
# GULP energy per Si atom -5575.093964 kJ/mol
# Density = 2.600323 g / cm^3
# Si number density = 26.062553 Si / 1000 Ang^3
#
#
#
# Elastic Constant Matrix: (Units=GPa)
#
#
# Indices 1 2 3 4 5 6 
#
# 1 76.5268 58.5615 33.2361 0.0000 0.0000 0.0000
# 2 58.5615 210.2118 78.9647 0.0000 0.0000 0.0000
# 3 33.2361 78.9647 171.0190 0.0000 0.0000 0.0000
# 4 0.0000 0.0000 0.0000 67.3573 0.0000 0.0000
# 5 0.0000 0.0000 0.0000 0.0000 48.8517 0.0000
# 6 0.0000 0.0000 0.0000 0.0000 0.0000 26.4348
#
#
#
# Elastic Compliance Matrix: (Units=1/GPa)
#
#
# Indices 1 2 3 4 5 6 
#
# 1 0.016858 -0.004193 -0.001340 0.000000 0.000000 0.000000
# 2 -0.004193 0.006798 -0.002324 0.000000 0.000000 0.000000
# 3 -0.001340 -0.002324 0.007181 0.000000 0.000000 0.000000
# 4 0.000000 0.000000 0.000000 0.014846 0.000000 0.000000
# 5 0.000000 0.000000 0.000000 0.000000 0.020470 0.000000
# 6 0.000000 0.000000 0.000000 0.000000 0.000000 0.037829
#
#
# Mechanical properties :
#
#
# Convention : Reuss Voigt Hill
#
# Bulk Modulus (GPa) = 66.12602 88.80910 77.46756
# Shear Modulus (GPa) = 40.08417 47.66179 43.87298
#
# Velocity S-wave (km/s) = 3.92599 4.28102 4.10734
# Velocity P-wave (km/s) = 6.78073 7.65412 7.23062
#
# Compressibility (1/GPa) = 0.01512264
#
# Stress axis : x y z
#
# Youngs Moduli (GPa) = 59.31913 147.09762 139.25901
#
# Poissons Ratio (x) = 0.61677 0.18664
# Poissons Ratio (y) = 0.24872 0.32365
# Poissons Ratio (z) = 0.07950 0.34187
#
# Static dielectric constant tensor:
#      x y z
#    x 2.254170 0.000000 0.000000 
#    y 0.000000 2.128150 0.000000 
#    z 0.000000 0.000000 2.183080 
# 
# From -- ./inp_files/3866.got.cif
#   From: 2010.05.17/outbox.cif.g08.bks.cpg/sg56_2_cif.got.tgz:3866.got - 2010.06.03 13:42:01.
