data_PCOD9433503
_publ_section_title
;
Structure prediction by ZEFSAII (Michael W. Deem and Ramdas Pophale) SiO2 
 PCOD9433503
Probable space group: P C C N
;
_chemical_formula_sum "Si O2"
_cell_formula_units_Z 48
_cell_length_a 13.710234
_cell_length_b 15.850151
_cell_length_c 9.380596
_cell_angle_alpha 90.000000
_cell_angle_beta 90.000000
_cell_angle_gamma 90.000000
_cell_volume 2038.490555
_symmetry_space_group_name_H-M "P C C N"
_symmetry_group_IT_number 56
_symmetry_cell_setting 'orthorhombic'
loop_
_space_group_symop_operation_xyz
x,y,z
1/2-x,1/2-y,z
1/2+x,-y,1/2-z
-x,1/2+y,1/2-z
-x,-y,-z
1/2+x,1/2+y,-z
1/2-x,y,1/2+z
x,1/2-y,1/2+z
loop_
_atom_site_type_symbol
_atom_site_label
_atom_site_fract_x
_atom_site_fract_y
_atom_site_fract_z
Si Si1 0.454495 0.383960 0.416661
Si Si2 0.840551 0.385170 0.760277
Si Si3 0.145651 0.631744 0.565312
Si Si4 0.349668 0.076420 0.182029
Si Si5 0.134435 0.063521 0.128875
Si Si6 0.942328 0.691982 0.590050
O O1 0.563445 0.375088 0.356629
O O2 0.435960 0.428821 0.566691
O O3 0.391854 0.429318 0.294703
O O4 0.417043 0.288214 0.437431
O O5 0.745735 0.357477 0.848552
O O6 0.843783 0.346933 0.602100
O O7 0.836453 0.487074 0.739831
O O8 0.118936 0.532228 0.580110
O O9 0.055916 0.682949 0.631552
O O10 0.246632 0.088946 0.104761
O O11 0.375605 0.150176 0.289940
O O12 0.069683 0.131807 0.046915
#
# Coordination Sequence:
#
# PCOD9433503 Si02
#       6
#     8   8   8   8   8   8
#     4  12  26  41  67 100 138 170 218 268 331 398
#     4  11  25  46  69  98 126 174 225 276 323 385
#     4  11  25  45  73  93 130 173 225 276 323 384
#     4  11  25  40  70  99 129 175 221 268 322 392
#     4  11  23  45  67  95 134 175 220 269 323 387
#     4  12  24  44  66  98 135 178 210 270 336 385
#
# _framework density 23.546834
#
# number of rings (size 3 to 8) (size 9 to 14) (size 15 to 20)
#    0.000    0.667    3.333    4.000    9.333    4.667 
#    0.000    1.667    0.000    0.000    0.000    0.000 
#    0.000    0.000    0.000    0.000    0.000    0.000 
#
# Total GULP energy -268854.787207 kJ/mol
# GULP energy per Si atom -5601.141400 kJ/mol
# Density = 2.349324 g / cm^3
# Si number density = 23.546834 Si / 1000 Ang^3
#
#
#
# Elastic Constant Matrix: (Units=GPa)
#
#
# Indices 1 2 3 4 5 6 
#
# 1 78.3903 16.5505 -12.8525 0.0000 0.0000 0.0000
# 2 16.5505 52.9050 5.7489 0.0000 0.0000 0.0000
# 3 -12.8525 5.7489 54.7152 0.0000 0.0000 0.0000
# 4 0.0000 0.0000 0.0000 12.4565 0.0000 0.0000
# 5 0.0000 0.0000 0.0000 0.0000 28.2907 0.0000
# 6 0.0000 0.0000 0.0000 0.0000 0.0000 4.4028
#
#
#
# Elastic Compliance Matrix: (Units=1/GPa)
#
#
# Indices 1 2 3 4 5 6 
#
# 1 0.014442 -0.004943 0.003912 0.000000 0.000000 0.000000
# 2 -0.004943 0.020812 -0.003348 0.000000 0.000000 0.000000
# 3 0.003912 -0.003348 0.019547 0.000000 0.000000 0.000000
# 4 0.000000 0.000000 0.000000 0.080279 0.000000 0.000000
# 5 0.000000 0.000000 0.000000 0.000000 0.035347 0.000000
# 6 0.000000 0.000000 0.000000 0.000000 0.000000 0.227128
#
#
# Mechanical properties :
#
#
# Convention : Reuss Voigt Hill
#
# Bulk Modulus (GPa) = 21.71903 22.76712 22.24308
# Shear Modulus (GPa) = 11.85786 20.80090 16.32938
#
# Velocity S-wave (km/s) = 2.24651 2.97540 2.63627
# Velocity P-wave (km/s) = 3.99660 4.63615 4.32821
#
# Compressibility (1/GPa) = 0.04604257
#
# Stress axis : x y z
#
# Youngs Moduli (GPa) = 69.24436 48.04944 51.15863
#
# Poissons Ratio (x) = 0.23750 -0.20012
# Poissons Ratio (y) = 0.34227 0.17127
# Poissons Ratio (z) = -0.27086 0.16086
#
# Static dielectric constant tensor:
#      x y z
#    x 1.884560 0.000000 0.000000 
#    y 0.000000 1.886920 0.000000 
#    z 0.000000 0.000000 1.844520 
# 
# From -- ./inp_files/3388.got.cif
#   From: 2010.05.17/outbox.cif.g08.bks.cpg/sg56_2_cif.got.tgz:3388.got - 2010.06.03 13:42:01.
