data_PCOD9433202
_publ_section_title
;
Structure prediction by ZEFSAII (Michael W. Deem and Ramdas Pophale) SiO2 
 PCOD9433202
Probable space group: P C C N
;
_chemical_formula_sum "Si O2"
_cell_formula_units_Z 56
_cell_length_a 14.086091
_cell_length_b 7.887679
_cell_length_c 21.030749
_cell_angle_alpha 90.000000
_cell_angle_beta 90.000000
_cell_angle_gamma 90.000000
_cell_volume 2336.654263
_symmetry_space_group_name_H-M "P C C N"
_symmetry_group_IT_number 56
_symmetry_cell_setting 'orthorhombic'
loop_
_space_group_symop_operation_xyz
x,y,z
1/2-x,1/2-y,z
1/2+x,-y,1/2-z
-x,1/2+y,1/2-z
-x,-y,-z
1/2+x,1/2+y,-z
1/2-x,y,1/2+z
x,1/2-y,1/2+z
loop_
_atom_site_type_symbol
_atom_site_label
_atom_site_fract_x
_atom_site_fract_y
_atom_site_fract_z
Si Si1 0.847220 0.355507 0.068384
Si Si2 0.541213 0.677156 0.888562
Si Si3 0.945866 0.654581 0.610212
Si Si4 0.157523 0.821623 0.731872
Si Si5 0.352032 0.168117 0.001280
Si Si6 0.741711 0.557787 0.161689
Si Si7 0.975391 0.648312 0.759460
O O1 0.750000 0.250000 0.069419
O O2 0.942560 0.258718 0.086230
O O3 0.832644 0.498858 0.123050
O O4 0.851025 0.465635 0.004340
O O5 0.530840 0.477317 0.899906
O O6 0.621534 0.762961 0.929950
O O7 0.550964 0.716398 0.813961
O O8 0.933417 0.772740 0.549199
O O9 0.844500 0.560281 0.611548
O O10 0.950069 0.694543 0.686139
O O11 0.250000 0.750000 0.692622
O O12 0.089848 0.667464 0.754352
O O13 0.212278 0.919626 0.787746
O O14 0.079618 0.975438 0.717862
O O15 0.250000 0.250000 0.984854
O O16 0.750000 0.750000 0.186514
#
# Coordination Sequence:
#
# PCOD9433202 Si02
#       7
#     8   8   8   8   8   8   8
#     4  12  21  39  71  99 135 176 246 298 362 449
#     4  12  25  43  67 108 140 185 233 314 376 431
#     4  11  22  44  72  99 136 196 241 301 360 446
#     4  11  25  44  70 109 148 196 247 311 375 453
#     4  12  25  46  68  98 141 191 248 301 365 447
#     4  11  19  38  71 102 132 181 247 303 353 431
#     4  11  24  45  72 106 149 189 246 306 385 449
#
# _framework density 23.965889000000001
#
# number of rings (size 3 to 8) (size 9 to 14) (size 15 to 20)
#    0.000    0.571    7.143    2.143    2.000    2.286 
#    2.571    2.143    0.000    0.000    0.000    0.000 
#    0.000    0.000    0.000    0.000    0.000    0.000 
#
# Total GULP energy -311956.461432 kJ/mol
# GULP energy per Si atom -5570.651097 kJ/mol
# Density = 2.391134 g / cm^3
# Si number density = 23.965889 Si / 1000 Ang^3
#
#
#
# Elastic Constant Matrix: (Units=GPa)
#
#
# Indices 1 2 3 4 5 6 
#
# 1 93.5320 38.0763 15.6278 0.0000 0.0000 0.0000
# 2 38.0763 81.6966 15.9508 0.0000 0.0000 0.0000
# 3 15.6278 15.9508 83.6273 0.0000 0.0000 0.0000
# 4 0.0000 0.0000 0.0000 14.5250 0.0000 0.0000
# 5 0.0000 0.0000 0.0000 0.0000 26.2108 0.0000
# 6 0.0000 0.0000 0.0000 0.0000 0.0000 32.0191
#
#
#
# Elastic Compliance Matrix: (Units=1/GPa)
#
#
# Indices 1 2 3 4 5 6 
#
# 1 0.013342 -0.005953 -0.001358 0.000000 0.000000 0.000000
# 2 -0.005953 0.015370 -0.001819 0.000000 0.000000 0.000000
# 3 -0.001358 -0.001819 0.012559 0.000000 0.000000 0.000000
# 4 0.000000 0.000000 0.000000 0.068847 0.000000 0.000000
# 5 0.000000 0.000000 0.000000 0.000000 0.038152 0.000000
# 6 0.000000 0.000000 0.000000 0.000000 0.000000 0.031231
#
#
# Mechanical properties :
#
#
# Convention : Reuss Voigt Hill
#
# Bulk Modulus (GPa) = 43.45859 44.24064 43.84962
# Shear Modulus (GPa) = 24.33902 27.16436 25.75169
#
# Velocity S-wave (km/s) = 3.19026 3.37034 3.28153
# Velocity P-wave (km/s) = 5.63411 5.80048 5.71790
#
# Compressibility (1/GPa) = 0.02301041
#
# Stress axis : x y z
#
# Youngs Moduli (GPa) = 74.95188 65.06103 79.62708
#
# Poissons Ratio (x) = 0.38732 0.10812
# Poissons Ratio (y) = 0.44620 0.14486
# Poissons Ratio (z) = 0.10177 0.11836
#
# Static dielectric constant tensor:
#      x y z
#    x 1.987310 0.000000 0.000000 
#    y 0.000000 2.047900 0.000000 
#    z 0.000000 0.000000 1.926070 
# 
# From -- ./inp_files/19109.got.cif
#   From: 2010.05.17/outbox.cif.g08.bks.cpg/sg56_10_cif.got.tgz:19109.got - 2010.06.03 13:42:01.
