data_PCOD9433074
_publ_section_title
;
Structure prediction by ZEFSAII (Michael W. Deem and Ramdas Pophale) SiO2 
 PCOD9433074
Probable space group: P C C N
;
_chemical_formula_sum "Si O2"
_cell_formula_units_Z 40
_cell_length_a 19.166182
_cell_length_b 11.802480
_cell_length_c 8.704740
_cell_angle_alpha 90.000000
_cell_angle_beta 90.000000
_cell_angle_gamma 90.000000
_cell_volume 1969.086002
_symmetry_space_group_name_H-M "P C C N"
_symmetry_group_IT_number 56
_symmetry_cell_setting 'orthorhombic'
loop_
_space_group_symop_operation_xyz
x,y,z
1/2-x,1/2-y,z
1/2+x,-y,1/2-z
-x,1/2+y,1/2-z
-x,-y,-z
1/2+x,1/2+y,-z
1/2-x,y,1/2+z
x,1/2-y,1/2+z
loop_
_atom_site_type_symbol
_atom_site_label
_atom_site_fract_x
_atom_site_fract_y
_atom_site_fract_z
Si Si1 0.841348 0.297272 0.072213
Si Si2 0.000718 0.370693 0.052043
Si Si3 0.090766 0.277885 0.317547
Si Si4 0.719817 0.105115 0.390903
Si Si5 0.689349 0.844641 0.420491
O O1 0.922415 0.325210 0.071613
O O2 0.808246 0.342394 0.231393
O O3 0.825371 0.166763 0.026289
O O4 0.798559 0.361645 0.937349
O O5 0.044040 0.355726 0.208625
O O6 0.000000 0.500000 0.000000
O O7 0.040772 0.295300 0.926367
O O8 0.136399 0.194759 0.211737
O O9 0.145482 0.344502 0.422527
O O10 0.715171 0.970506 0.387741
O O11 0.750000 0.750000 0.430836
#
# Coordination Sequence:
#
# PCOD9433074 Si02
#       5
#     8   8   8   8   8
#     4  11  24  43  65 102 129 183 217 279 341 395
#     4  11  24  43  69  94 144 179 225 278 336 415
#     4  10  25  43  64 105 126 180 231 264 350 404
#     4  11  25  42  70  96 137 169 234 276 343 402
#     4  11  25  43  70 100 136 175 229 290 344 401
#
# _framework density 20.313994000000001
#
# number of rings (size 3 to 8) (size 9 to 14) (size 15 to 20)
#    0.000    1.200    0.000    5.400   11.200    3.200 
#    0.000    5.000    0.000    0.000    0.000    0.000 
#    0.000    0.000    0.000    0.000    0.000    0.000 
#
# Total GULP energy -223615.166224 kJ/mol
# GULP energy per Si atom -5590.379156 kJ/mol
# Density = 2.026776 g / cm^3
# Si number density = 20.313994 Si / 1000 Ang^3
#
#
#
# Elastic Constant Matrix: (Units=GPa)
#
#
# Indices 1 2 3 4 5 6 
#
# 1 148.3656 37.3915 53.6189 0.0000 0.0000 0.0000
# 2 37.3915 111.8776 24.8105 0.0000 0.0000 0.0000
# 3 53.6189 24.8105 115.3555 0.0000 0.0000 0.0000
# 4 0.0000 0.0000 0.0000 9.8896 0.0000 0.0000
# 5 0.0000 0.0000 0.0000 0.0000 26.5614 0.0000
# 6 0.0000 0.0000 0.0000 0.0000 0.0000 21.5791
#
#
#
# Elastic Compliance Matrix: (Units=1/GPa)
#
#
# Indices 1 2 3 4 5 6 
#
# 1 0.008535 -0.002072 -0.003522 0.000000 0.000000 0.000000
# 2 -0.002072 0.009889 -0.001164 0.000000 0.000000 0.000000
# 3 -0.003522 -0.001164 0.010556 0.000000 0.000000 0.000000
# 4 0.000000 0.000000 0.000000 0.101117 0.000000 0.000000
# 5 0.000000 0.000000 0.000000 0.000000 0.037649 0.000000
# 6 0.000000 0.000000 0.000000 0.000000 0.000000 0.046341
#
#
# Mechanical properties :
#
#
# Convention : Reuss Voigt Hill
#
# Bulk Modulus (GPa) = 64.65991 67.47118 66.06555
# Shear Modulus (GPa) = 21.48173 28.92451 25.20312
#
# Velocity S-wave (km/s) = 3.25543 3.77752 3.52615
# Velocity P-wave (km/s) = 6.78452 7.23273 7.01221
#
# Compressibility (1/GPa) = 0.01546553
#
# Stress axis : x y z
#
# Youngs Moduli (GPa) = 117.16627 101.12428 94.73203
#
# Poissons Ratio (x) = 0.20948 0.33361
# Poissons Ratio (y) = 0.24272 0.11027
# Poissons Ratio (z) = 0.41261 0.11771
#
# Static dielectric constant tensor:
#      x y z
#    x 1.698790 0.000000 0.000000 
#    y 0.000000 1.700600 0.000000 
#    z 0.000000 0.000000 1.751150 
# 
# From -- ./inp_files/2587.got.cif
#   From: 2010.05.17/outbox.cif.g08.bks.cpg/sg56_2_cif.got.tgz:2587.got - 2010.06.03 13:42:01.
