data_PCOD9433017
_publ_section_title
;
Structure prediction by ZEFSAII (Michael W. Deem and Ramdas Pophale) SiO2 
 PCOD9433017
Probable space group: P C C N
;
_chemical_formula_sum "Si O2"
_cell_formula_units_Z 40
_cell_length_a 8.837570
_cell_length_b 11.348547
_cell_length_c 18.014130
_cell_angle_alpha 90.000000
_cell_angle_beta 90.000000
_cell_angle_gamma 90.000000
_cell_volume 1806.701561
_symmetry_space_group_name_H-M "P C C N"
_symmetry_group_IT_number 56
_symmetry_cell_setting 'orthorhombic'
loop_
_space_group_symop_operation_xyz
x,y,z
1/2-x,1/2-y,z
1/2+x,-y,1/2-z
-x,1/2+y,1/2-z
-x,-y,-z
1/2+x,1/2+y,-z
1/2-x,y,1/2+z
x,1/2-y,1/2+z
loop_
_atom_site_type_symbol
_atom_site_label
_atom_site_fract_x
_atom_site_fract_y
_atom_site_fract_z
Si Si1 0.745449 0.890053 0.800434
Si Si2 0.941406 0.987784 0.167850
Si Si3 0.568674 0.742716 0.086816
Si Si4 0.147191 0.642180 0.470615
Si Si5 0.396074 0.528758 0.570766
O O1 0.750000 0.750000 0.786951
O O2 0.914912 0.935732 0.810802
O O3 0.675257 0.966896 0.733926
O O4 0.646772 0.924461 0.873497
O O5 0.875759 0.049489 0.094308
O O6 0.983247 0.855379 0.144694
O O7 0.750000 0.750000 0.085188
O O8 0.489847 0.865242 0.107956
O O9 0.502780 0.698077 0.007417
O O10 0.250000 0.750000 0.443146
O O11 0.241171 0.580432 0.536677
O O12 0.500000 0.500000 0.500000
#
# Coordination Sequence:
#
# PCOD9433017 Si02
#       5
#     8   8   8   8   8
#     4  12  32  50  74 114 150 207 253 316 382 461
#     4  12  28  49  74 105 157 197 257 307 385 453
#     4  11  24  45  80 110 151 197 250 313 378 447
#     4  10  24  46  73 117 144 200 249 315 375 453
#     4  11  26  46  78 110 152 193 254 312 384 452
#
# _framework density 22.139793999999998
#
# number of rings (size 3 to 8) (size 9 to 14) (size 15 to 20)
#    0.000    0.800    2.000    2.400   16.800    0.000 
#    0.000    0.000    0.000    0.000    0.000    0.000 
#    0.000    0.000    0.000    0.000    0.000    0.000 
#
# Total GULP energy -223891.042425 kJ/mol
# GULP energy per Si atom -5597.276061 kJ/mol
# Density = 2.208940 g / cm^3
# Si number density = 22.139794 Si / 1000 Ang^3
#
#
#
# Elastic Constant Matrix: (Units=GPa)
#
#
# Indices 1 2 3 4 5 6 
#
# 1 119.7186 26.8036 21.4190 0.0000 0.0000 0.0000
# 2 26.8036 81.6791 -8.0344 0.0000 0.0000 0.0000
# 3 21.4190 -8.0344 23.9588 0.0000 0.0000 0.0000
# 4 0.0000 0.0000 0.0000 19.5770 0.0000 0.0000
# 5 0.0000 0.0000 0.0000 0.0000 13.0870 0.0000
# 6 0.0000 0.0000 0.0000 0.0000 0.0000 36.2566
#
#
#
# Elastic Compliance Matrix: (Units=1/GPa)
#
#
# Indices 1 2 3 4 5 6 
#
# 1 0.011635 -0.005007 -0.012081 0.000000 0.000000 0.000000
# 2 -0.005007 0.014815 0.009444 0.000000 0.000000 0.000000
# 3 -0.012081 0.009444 0.055705 0.000000 0.000000 0.000000
# 4 0.000000 0.000000 0.000000 0.051080 0.000000 0.000000
# 5 0.000000 0.000000 0.000000 0.000000 0.076412 0.000000
# 6 0.000000 0.000000 0.000000 0.000000 0.000000 0.027581
#
#
# Mechanical properties :
#
#
# Convention : Reuss Voigt Hill
#
# Bulk Modulus (GPa) = 14.95464 33.97032 24.46248
# Shear Modulus (GPa) = 18.19470 26.12866 22.16168
#
# Velocity S-wave (km/s) = 2.86983 3.43908 3.16727
# Velocity P-wave (km/s) = 4.21314 5.58091 4.94455
#
# Compressibility (1/GPa) = 0.06686887
#
# Stress axis : x y z
#
# Youngs Moduli (GPa) = 85.94622 67.49958 17.95158
#
# Poissons Ratio (x) = 0.33794 0.21687
# Poissons Ratio (y) = 0.43029 -0.16953
# Poissons Ratio (z) = 1.03829 -0.63746
#
# Static dielectric constant tensor:
#      x y z
#    x 1.903160 0.000000 0.000000 
#    y 0.000000 1.833180 0.000000 
#    z 0.000000 0.000000 1.846850 
# 
# From -- ./inp_files/14408.got.cif
#   From: 2010.05.17/outbox.cif.g08.bks.cpg/sg56_8_cif.got.tgz:14408.got - 2010.06.03 13:42:01.
