data_PCOD9433301
_publ_section_title
;
Structure prediction by ZEFSAII (Michael W. Deem and Ramdas Pophale) SiO2 
 PCOD9433301
Probable space group: P C C N
;
_chemical_formula_sum "Si O2"
_cell_formula_units_Z 48
_cell_length_a 9.649373
_cell_length_b 16.950742
_cell_length_c 14.249190
_cell_angle_alpha 90.000000
_cell_angle_beta 90.000000
_cell_angle_gamma 90.000000
_cell_volume 2330.654972
_symmetry_space_group_name_H-M "P C C N"
_symmetry_group_IT_number 56
_symmetry_cell_setting 'orthorhombic'
loop_
_space_group_symop_operation_xyz
x,y,z
1/2-x,1/2-y,z
1/2+x,-y,1/2-z
-x,1/2+y,1/2-z
-x,-y,-z
1/2+x,1/2+y,-z
1/2-x,y,1/2+z
x,1/2-y,1/2+z
loop_
_atom_site_type_symbol
_atom_site_label
_atom_site_fract_x
_atom_site_fract_y
_atom_site_fract_z
Si Si1 0.669262 0.994514 0.986270
Si Si2 0.430330 0.321239 0.343107
Si Si3 0.358332 0.177904 0.062954
Si Si4 0.509590 0.663994 0.243363
Si Si5 0.271266 0.608803 0.674604
Si Si6 0.276674 0.039991 0.309913
O O1 0.701300 0.911640 0.933380
O O2 0.722377 0.068817 0.927824
O O3 0.746918 0.989038 0.084893
O O4 0.500000 0.000000 0.000000
O O5 0.412769 0.317888 0.455939
O O6 0.405843 0.234402 0.304541
O O7 0.584425 0.346649 0.315393
O O8 0.332718 0.388532 0.299707
O O9 0.250000 0.250000 0.076992
O O10 0.473029 0.177493 0.145247
O O11 0.356942 0.663342 0.200891
O O12 0.577455 0.581139 0.212589
O O13 0.260206 0.534385 0.743814
#
# Coordination Sequence:
#
# PCOD9433301 Si02
#       6
#     8   8   8   8   8   8
#     4  11  21  43  70  96 128 178 222 277 332 403
#     4  11  24  45  66  94 134 180 223 278 335 415
#     4  11  22  43  72  97 127 180 235 278 327 403
#     4  12  25  42  64 103 133 168 221 283 341 400
#     4  12  24  41  66  98 137 171 218 279 351 395
#     4  11  22  41  71  94 125 175 231 269 326 407
#
# _framework density 20.59507
#
# number of rings (size 3 to 8) (size 9 to 14) (size 15 to 20)
#    0.000    0.667    5.000    6.000    0.000    0.667 
#    3.000    1.667    0.000    0.000    0.000    0.000 
#    0.000    0.000    0.000    0.000    0.000    0.000 
#
# Total GULP energy -268132.382838 kJ/mol
# GULP energy per Si atom -5586.091309 kJ/mol
# Density = 2.054820 g / cm^3
# Si number density = 20.595070 Si / 1000 Ang^3
#
#
#
# Elastic Constant Matrix: (Units=GPa)
#
#
# Indices 1 2 3 4 5 6 
#
# 1 106.4865 15.2464 15.3788 0.0000 0.0000 0.0000
# 2 15.2464 94.4601 14.0601 0.0000 0.0000 0.0000
# 3 15.3788 14.0601 78.4597 0.0000 0.0000 0.0000
# 4 0.0000 0.0000 0.0000 -4.4131 0.0000 0.0000
# 5 0.0000 0.0000 0.0000 0.0000 25.5756 0.0000
# 6 0.0000 0.0000 0.0000 0.0000 0.0000 34.6227
#
#
#
# Elastic Compliance Matrix: (Units=1/GPa)
#
#
# Indices 1 2 3 4 5 6 
#
# 1 0.009826 -0.001335 -0.001687 0.000000 0.000000 0.000000
# 2 -0.001335 0.011058 -0.001720 0.000000 0.000000 0.000000
# 3 -0.001687 -0.001720 0.013384 0.000000 0.000000 0.000000
# 4 0.000000 0.000000 0.000000 -0.226596 0.000000 0.000000
# 5 0.000000 0.000000 0.000000 0.000000 0.039100 0.000000
# 6 0.000000 0.000000 0.000000 0.000000 0.000000 0.028883
#
#
# Mechanical properties :
#
#
# Convention : Reuss Voigt Hill
#
# Bulk Modulus (GPa) = 40.34740 40.97522 40.66131
# Shear Modulus (GPa) = -46.90380 26.80511 -10.04935
#
# Velocity S-wave (km/s) = -4.77742 3.61159 -2.21135
# Velocity P-wave (km/s) = 3.28608 6.10985 3.64225
#
# Compressibility (1/GPa) = 0.02478474
#
# Stress axis : x y z
#
# Youngs Moduli (GPa) = 101.77526 90.43270 74.71486
#
# Poissons Ratio (x) = 0.12071 0.12602
# Poissons Ratio (y) = 0.13585 0.12851
# Poissons Ratio (z) = 0.17166 0.15554
#
# Static dielectric constant tensor:
#      x y z
#    x 1.790750 0.000000 0.000000 
#    y 0.000000 1.731300 0.000000 
#    z 0.000000 0.000000 1.755600 
# 
# From -- ./inp_files/10660.got.cif
#   From: 2010.05.17/outbox.cif.g08.bks.cpg/sg56_6_cif.got.tgz:10660.got - 2010.06.03 13:42:01.
