data_PCOD9433888
_publ_section_title
;
Structure prediction by ZEFSAII (Michael W. Deem and Ramdas Pophale) SiO2 
 PCOD9433888
Probable space group: P C C N
;
_chemical_formula_sum "Si O2"
_cell_formula_units_Z 32
_cell_length_a 8.985780
_cell_length_b 12.116022
_cell_length_c 9.270289
_cell_angle_alpha 90.000000
_cell_angle_beta 90.000000
_cell_angle_gamma 90.000000
_cell_volume 1009.274053
_symmetry_space_group_name_H-M "P C C N"
_symmetry_group_IT_number 56
_symmetry_cell_setting 'orthorhombic'
loop_
_space_group_symop_operation_xyz
x,y,z
1/2-x,1/2-y,z
1/2+x,-y,1/2-z
-x,1/2+y,1/2-z
-x,-y,-z
1/2+x,1/2+y,-z
1/2-x,y,1/2+z
x,1/2-y,1/2+z
loop_
_atom_site_type_symbol
_atom_site_label
_atom_site_fract_x
_atom_site_fract_y
_atom_site_fract_z
Si Si1 0.392567 0.201074 0.140435
Si Si2 0.304076 0.871790 0.233297
Si Si3 0.111893 0.441883 0.889428
Si Si4 0.962300 0.119027 0.935356
O O1 0.250000 0.250000 0.221289
O O2 0.489365 0.281836 0.039545
O O3 0.476894 0.138469 0.271105
O O4 0.310661 0.132210 0.011654
O O5 0.250000 0.750000 0.285697
O O6 0.482678 0.884017 0.209999
O O7 0.216103 0.875914 0.081497
O O8 0.228219 0.520859 0.809008
O O9 0.000000 0.500000 0.000000
O O10 0.000000 0.000000 0.000000
#
# Coordination Sequence:
#
# PCOD9433888 Si02
#       4
#     8   8   8   8
#     4  12  30  60  95 144 201 268 349 420 517 622
#     4  12  30  59  94 144 205 256 342 423 515 604
#     4  12  30  54  95 135 198 262 335 414 514 604
#     4  12  31  57  97 140 198 265 334 427 514 615
#
# _framework density 31.705953999999998
#
# number of rings (size 3 to 8) (size 9 to 14) (size 15 to 20)
#    0.000    0.000    5.000    0.750   10.500    3.000 
#    4.500    0.000    0.000    0.000    0.000    0.000 
#    0.000    0.000    0.000    0.000    0.000    0.000 
#
# Total GULP energy -179286.542148 kJ/mol
# GULP energy per Si atom -5602.704442 kJ/mol
# Density = 3.163379 g / cm^3
# Si number density = 31.705954 Si / 1000 Ang^3
#
#
#
# Elastic Constant Matrix: (Units=GPa)
#
#
# Indices 1 2 3 4 5 6 
#
# 1 219.3949 55.8817 70.6104 0.0000 0.0000 0.0000
# 2 55.8817 183.1353 105.1441 0.0000 0.0000 0.0000
# 3 70.6104 105.1441 245.1087 0.0000 0.0000 0.0000
# 4 0.0000 0.0000 0.0000 70.9619 0.0000 0.0000
# 5 0.0000 0.0000 0.0000 0.0000 68.7764 0.0000
# 6 0.0000 0.0000 0.0000 0.0000 0.0000 78.8650
#
#
#
# Elastic Compliance Matrix: (Units=1/GPa)
#
#
# Indices 1 2 3 4 5 6 
#
# 1 0.005146 -0.000954 -0.001073 0.000000 0.000000 0.000000
# 2 -0.000954 0.007422 -0.002909 0.000000 0.000000 0.000000
# 3 -0.001073 -0.002909 0.005637 0.000000 0.000000 0.000000
# 4 0.000000 0.000000 0.000000 0.014092 0.000000 0.000000
# 5 0.000000 0.000000 0.000000 0.000000 0.014540 0.000000
# 6 0.000000 0.000000 0.000000 0.000000 0.000000 0.012680
#
#
# Mechanical properties :
#
#
# Convention : Reuss Voigt Hill
#
# Bulk Modulus (GPa) = 120.01317 123.43459 121.72388
# Shear Modulus (GPa) = 69.28412 71.45416 70.36914
#
# Velocity S-wave (km/s) = 4.67969 4.75241 4.71619
# Velocity P-wave (km/s) = 8.19350 8.31441 8.25418
#
# Compressibility (1/GPa) = 0.00833242
#
# Stress axis : x y z
#
# Youngs Moduli (GPa) = 194.30867 134.74140 177.40629
#
# Poissons Ratio (x) = 0.12857 0.19040
# Poissons Ratio (y) = 0.18541 0.51603
# Poissons Ratio (z) = 0.20854 0.39193
#
# Static dielectric constant tensor:
#      x y z
#    x 3.535080 0.000000 0.000000 
#    y 0.000000 3.278940 0.000000 
#    z 0.000000 0.000000 2.574170 
# 
# From -- ./inp_files/6066.got.cif
#   From: 2010.05.17/outbox.cif.g08.bks.cpg/sg56_4_cif.got.tgz:6066.got - 2010.06.03 13:42:01.
