data_PCOD9433856
_publ_section_title
;
Structure prediction by ZEFSAII (Michael W. Deem and Ramdas Pophale) SiO2 
 PCOD9433856
Probable space group: P C C N
;
_chemical_formula_sum "Si O2"
_cell_formula_units_Z 32
_cell_length_a 13.317642
_cell_length_b 5.015425
_cell_length_c 21.870518
_cell_angle_alpha 90.000000
_cell_angle_beta 90.000000
_cell_angle_gamma 90.000000
_cell_volume 1460.811388
_symmetry_space_group_name_H-M "P C C N"
_symmetry_group_IT_number 56
_symmetry_cell_setting 'orthorhombic'
loop_
_space_group_symop_operation_xyz
x,y,z
1/2-x,1/2-y,z
1/2+x,-y,1/2-z
-x,1/2+y,1/2-z
-x,-y,-z
1/2+x,1/2+y,-z
1/2-x,y,1/2+z
x,1/2-y,1/2+z
loop_
_atom_site_type_symbol
_atom_site_label
_atom_site_fract_x
_atom_site_fract_y
_atom_site_fract_z
Si Si1 0.925888 0.748659 0.498244
Si Si2 0.250000 0.250000 0.403332
Si Si3 0.750000 0.250000 0.184363
Si Si4 0.814504 0.518179 0.381235
Si Si5 0.061411 0.597379 0.733269
O O1 0.847280 0.776600 0.553411
O O2 0.859636 0.682209 0.438229
O O3 0.000000 0.500000 0.500000
O O4 0.000000 0.000000 0.500000
O O5 0.234886 0.501201 0.359960
O O6 0.844959 0.301563 0.227287
O O7 0.750000 0.250000 0.396710
O O8 0.902953 0.426015 0.336496
O O9 0.750000 0.750000 0.347370
O O10 0.025854 0.312035 0.757593
#
# Coordination Sequence:
#
# PCOD9433856 Si02
#       5
#     8   4   4   8   8
#     4  12  28  48  75 109 144 196 248 301 373 440
#     4  12  28  50  72 106 154 192 240 308 374 438
#     4  12  28  50  72 108 154 192 242 306 374 444
#     4  12  26  50  77 104 150 196 254 310 364 444
#     4  12  28  48  76 111 147 197 249 305 375 439
#
# _framework density 21.905633999999999
#
# number of rings (size 3 to 8) (size 9 to 14) (size 15 to 20)
#    0.000    0.000    2.500    6.000   14.000    0.000 
#    0.000    0.000    0.000    0.000    0.000    0.000 
#    0.000    0.000    0.000    0.000    0.000    0.000 
#
# Total GULP energy -179203.434609 kJ/mol
# GULP energy per Si atom -5600.107332 kJ/mol
# Density = 2.185578 g / cm^3
# Si number density = 21.905634 Si / 1000 Ang^3
#
#
#
# Elastic Constant Matrix: (Units=GPa)
#
#
# Indices 1 2 3 4 5 6 
#
# 1 86.5078 18.0642 27.4180 0.0000 0.0000 0.0000
# 2 18.0642 149.5100 27.5909 0.0000 0.0000 0.0000
# 3 27.4180 27.5909 108.7124 0.0000 0.0000 0.0000
# 4 0.0000 0.0000 0.0000 46.4697 0.0000 0.0000
# 5 0.0000 0.0000 0.0000 0.0000 27.6072 0.0000
# 6 0.0000 0.0000 0.0000 0.0000 0.0000 62.2834
#
#
#
# Elastic Compliance Matrix: (Units=1/GPa)
#
#
# Indices 1 2 3 4 5 6 
#
# 1 0.012702 -0.000990 -0.002952 0.000000 0.000000 0.000000
# 2 -0.000990 0.007094 -0.001551 0.000000 0.000000 0.000000
# 3 -0.002952 -0.001551 0.010337 0.000000 0.000000 0.000000
# 4 0.000000 0.000000 0.000000 0.021519 0.000000 0.000000
# 5 0.000000 0.000000 0.000000 0.000000 0.036222 0.000000
# 6 0.000000 0.000000 0.000000 0.000000 0.000000 0.016056
#
#
# Mechanical properties :
#
#
# Convention : Reuss Voigt Hill
#
# Bulk Modulus (GPa) = 52.22737 54.54183 53.38460
# Shear Modulus (GPa) = 41.22042 45.38253 43.30147
#
# Velocity S-wave (km/s) = 4.34259 4.55656 4.45086
# Velocity P-wave (km/s) = 7.00271 7.25504 7.12999
#
# Compressibility (1/GPa) = 0.01914705
#
# Stress axis : x y z
#
# Youngs Moduli (GPa) = 78.72738 140.95788 96.74192
#
# Poissons Ratio (x) = 0.13953 0.28561
# Poissons Ratio (y) = 0.07793 0.15003
# Poissons Ratio (z) = 0.23243 0.21861
#
# Static dielectric constant tensor:
#      x y z
#    x 1.927610 0.000000 0.000000 
#    y 0.000000 1.746790 0.000000 
#    z 0.000000 0.000000 1.798730 
# 
# From -- ./inp_files/18535.got.cif
#   From: 2010.05.17/outbox.cif.g08.bks.cpg/sg56_10_cif.got.tgz:18535.got - 2010.06.03 13:42:01.
