data_PCOD9433509
_publ_section_title
;
Structure prediction by ZEFSAII (Michael W. Deem and Ramdas Pophale) SiO2 
 PCOD9433509
Probable space group: P C C N
;
_chemical_formula_sum "Si O2"
_cell_formula_units_Z 40
_cell_length_a 7.923915
_cell_length_b 11.576508
_cell_length_c 18.502387
_cell_angle_alpha 90.000000
_cell_angle_beta 90.000000
_cell_angle_gamma 90.000000
_cell_volume 1697.247372
_symmetry_space_group_name_H-M "P C C N"
_symmetry_group_IT_number 56
_symmetry_cell_setting 'orthorhombic'
loop_
_space_group_symop_operation_xyz
x,y,z
1/2-x,1/2-y,z
1/2+x,-y,1/2-z
-x,1/2+y,1/2-z
-x,-y,-z
1/2+x,1/2+y,-z
1/2-x,y,1/2+z
x,1/2-y,1/2+z
loop_
_atom_site_type_symbol
_atom_site_label
_atom_site_fract_x
_atom_site_fract_y
_atom_site_fract_z
Si Si1 0.389347 0.971781 0.673808
Si Si2 0.520199 0.571668 0.324827
Si Si3 0.070999 0.802950 0.875684
Si Si4 0.489235 0.337627 0.963379
Si Si5 0.884264 0.923659 0.553158
O O1 0.195703 0.005828 0.680170
O O2 0.498991 0.089320 0.667594
O O3 0.451892 0.906005 0.744816
O O4 0.415528 0.900419 0.600954
O O5 0.548715 0.691597 0.366868
O O6 0.392253 0.491829 0.370971
O O7 0.250000 0.750000 0.852470
O O8 0.079914 0.838269 0.959518
O O9 0.460601 0.204498 0.941634
O O10 0.307136 0.400314 0.971878
O O11 0.000000 0.000000 0.500000
#
# Coordination Sequence:
#
# PCOD9433509 Si02
#       5
#     8   8   8   8   8
#     4  12  28  47  75 108 147 193 249 300 371 445
#     4  12  27  49  74 105 149 194 240 307 372 439
#     4  12  26  47  75 107 148 191 244 303 367 437
#     4  11  26  45  75 110 144 191 247 300 362 437
#     4  11  23  45  76 106 148 190 244 299 361 430
#
# _framework density 23.567571000000001
#
# number of rings (size 3 to 8) (size 9 to 14) (size 15 to 20)
#    0.000    0.400    2.000    6.000    8.400    0.000 
#    0.000    0.000    0.000    0.000    0.000    0.000 
#    0.000    0.000    0.000    0.000    0.000    0.000 
#
# Total GULP energy -224357.413596 kJ/mol
# GULP energy per Si atom -5608.935340 kJ/mol
# Density = 2.351393 g / cm^3
# Si number density = 23.567571 Si / 1000 Ang^3
#
#
#
# Elastic Constant Matrix: (Units=GPa)
#
#
# Indices 1 2 3 4 5 6 
#
# 1 92.7706 16.5378 22.1142 0.0000 0.0000 0.0000
# 2 16.5378 130.0457 39.5365 0.0000 0.0000 0.0000
# 3 22.1142 39.5365 115.9574 0.0000 0.0000 0.0000
# 4 0.0000 0.0000 0.0000 39.2463 0.0000 0.0000
# 5 0.0000 0.0000 0.0000 0.0000 37.4662 0.0000
# 6 0.0000 0.0000 0.0000 0.0000 0.0000 33.7648
#
#
#
# Elastic Compliance Matrix: (Units=1/GPa)
#
#
# Indices 1 2 3 4 5 6 
#
# 1 0.011382 -0.000879 -0.001871 0.000000 0.000000 0.000000
# 2 -0.000879 0.008647 -0.002781 0.000000 0.000000 0.000000
# 3 -0.001871 -0.002781 0.009929 0.000000 0.000000 0.000000
# 4 0.000000 0.000000 0.000000 0.025480 0.000000 0.000000
# 5 0.000000 0.000000 0.000000 0.000000 0.026691 0.000000
# 6 0.000000 0.000000 0.000000 0.000000 0.000000 0.029617
#
#
# Mechanical properties :
#
#
# Convention : Reuss Voigt Hill
#
# Bulk Modulus (GPa) = 52.91890 55.01674 53.96782
# Shear Modulus (GPa) = 38.72839 39.46781 39.09810
#
# Velocity S-wave (km/s) = 4.05815 4.09671 4.07748
# Velocity P-wave (km/s) = 6.66791 6.76552 6.71689
#
# Compressibility (1/GPa) = 0.01889684
#
# Stress axis : x y z
#
# Youngs Moduli (GPa) = 87.85866 115.65118 100.71755
#
# Poissons Ratio (x) = 0.10161 0.18845
# Poissons Ratio (y) = 0.07719 0.28005
# Poissons Ratio (z) = 0.16439 0.32158
#
# Static dielectric constant tensor:
#      x y z
#    x 1.906040 0.000000 0.000000 
#    y 0.000000 1.899850 0.000000 
#    z 0.000000 0.000000 1.855680 
# 
# From -- ./inp_files/14428.got.cif
#   From: 2010.05.17/outbox.cif.g08.bks.cpg/sg56_8_cif.got.tgz:14428.got - 2010.06.03 13:42:01.
