data_PCOD9433018
_publ_section_title
;
Structure prediction by ZEFSAII (Michael W. Deem and Ramdas Pophale) SiO2 
 PCOD9433018
Probable space group: P C C N
;
_chemical_formula_sum "Si O2"
_cell_formula_units_Z 36
_cell_length_a 15.174719
_cell_length_b 5.081114
_cell_length_c 20.168961
_cell_angle_alpha 90.000000
_cell_angle_beta 90.000000
_cell_angle_gamma 90.000000
_cell_volume 1555.117193
_symmetry_space_group_name_H-M "P C C N"
_symmetry_group_IT_number 56
_symmetry_cell_setting 'orthorhombic'
loop_
_space_group_symop_operation_xyz
x,y,z
1/2-x,1/2-y,z
1/2+x,-y,1/2-z
-x,1/2+y,1/2-z
-x,-y,-z
1/2+x,1/2+y,-z
1/2-x,y,1/2+z
x,1/2-y,1/2+z
loop_
_atom_site_type_symbol
_atom_site_label
_atom_site_fract_x
_atom_site_fract_y
_atom_site_fract_z
Si Si1 0.536319 0.939546 0.393454
Si Si2 0.651276 0.644950 0.766678
Si Si3 0.750000 0.750000 0.592422
Si Si4 0.627302 0.371445 0.179834
Si Si5 0.426101 0.187618 0.971856
O O1 0.606087 0.936750 0.335185
O O2 0.453951 0.769966 0.365397
O O3 0.581612 0.880361 0.464043
O O4 0.477496 0.193025 0.409317
O O5 0.750000 0.750000 0.777923
O O6 0.898319 0.607832 0.731371
O O7 0.654677 0.385027 0.721193
O O8 0.800108 0.524938 0.634926
O O9 0.827828 0.882833 0.549665
O O10 0.500000 0.000000 0.000000
#
# Coordination Sequence:
#
# PCOD9433018 Si02
#       5
#     8   8   4   8   8
#     4  10  25  45  69 104 145 187 240 300 360 430
#     4  12  26  42  72 108 142 187 236 299 363 430
#     4  10  24  48  74 104 146 192 248 298 360 444
#     4  11  25  46  72 103 145 189 241 294 365 432
#     4  10  24  46  74 102 143 195 244 298 364 433
#
# _framework density 23.149380000000001
#
# number of rings (size 3 to 8) (size 9 to 14) (size 15 to 20)
#    0.000    1.333    1.111    2.000   10.889    0.000 
#    4.000    0.000    0.000    0.000    0.000    0.000 
#    0.000    0.000    0.000    0.000    0.000    0.000 
#
# Total GULP energy -200793.936874 kJ/mol
# GULP energy per Si atom -5577.609358 kJ/mol
# Density = 2.309669 g / cm^3
# Si number density = 23.149380 Si / 1000 Ang^3
#
#
#
# Elastic Constant Matrix: (Units=GPa)
#
#
# Indices 1 2 3 4 5 6 
#
# 1 132.8810 40.4487 75.3866 0.0000 0.0000 0.0000
# 2 40.4487 105.3322 41.0040 0.0000 0.0000 0.0000
# 3 75.3866 41.0040 113.2910 0.0000 0.0000 0.0000
# 4 0.0000 0.0000 0.0000 5.7078 0.0000 0.0000
# 5 0.0000 0.0000 0.0000 0.0000 54.1484 0.0000
# 6 0.0000 0.0000 0.0000 0.0000 0.0000 26.5296
#
#
#
# Elastic Compliance Matrix: (Units=1/GPa)
#
#
# Indices 1 2 3 4 5 6 
#
# 1 0.012376 -0.001800 -0.007584 0.000000 0.000000 0.000000
# 2 -0.001800 0.011313 -0.002896 0.000000 0.000000 0.000000
# 3 -0.007584 -0.002896 0.014922 0.000000 0.000000 0.000000
# 4 0.000000 0.000000 0.000000 0.175199 0.000000 0.000000
# 5 0.000000 0.000000 0.000000 0.000000 0.018468 0.000000
# 6 0.000000 0.000000 0.000000 0.000000 0.000000 0.037694
#
#
# Mechanical properties :
#
#
# Convention : Reuss Voigt Hill
#
# Bulk Modulus (GPa) = 71.17834 73.90921 72.54377
# Shear Modulus (GPa) = 16.71040 30.25483 23.48261
#
# Velocity S-wave (km/s) = 2.68964 3.61908 3.18841
# Velocity P-wave (km/s) = 6.36080 7.03279 6.70521
#
# Compressibility (1/GPa) = 0.01404922
#
# Stress axis : x y z
#
# Youngs Moduli (GPa) = 80.80207 88.39654 67.01733
#
# Poissons Ratio (x) = 0.15914 0.50824
# Poissons Ratio (y) = 0.14547 0.19412
# Poissons Ratio (z) = 0.61277 0.25604
#
# Static dielectric constant tensor:
#      x y z
#    x 2.033130 0.000000 0.000000 
#    y 0.000000 2.091170 0.000000 
#    z 0.000000 0.000000 2.056080 
# 
# From -- ./inp_files/18923.got.cif
#   From: 2010.05.17/outbox.cif.g08.bks.cpg/sg56_10_cif.got.tgz:18923.got - 2010.06.03 13:42:01.
