data_PCOD9433553
_publ_section_title
;
Structure prediction by ZEFSAII (Michael W. Deem and Ramdas Pophale) SiO2 
 PCOD9433553
Probable space group: P C C N
;
_chemical_formula_sum "Si O2"
_cell_formula_units_Z 40
_cell_length_a 6.287123
_cell_length_b 12.659413
_cell_length_c 21.984697
_cell_angle_alpha 90.000000
_cell_angle_beta 90.000000
_cell_angle_gamma 90.000000
_cell_volume 1749.790321
_symmetry_space_group_name_H-M "P C C N"
_symmetry_group_IT_number 56
_symmetry_cell_setting 'orthorhombic'
loop_
_space_group_symop_operation_xyz
x,y,z
1/2-x,1/2-y,z
1/2+x,-y,1/2-z
-x,1/2+y,1/2-z
-x,-y,-z
1/2+x,1/2+y,-z
1/2-x,y,1/2+z
x,1/2-y,1/2+z
loop_
_atom_site_type_symbol
_atom_site_label
_atom_site_fract_x
_atom_site_fract_y
_atom_site_fract_z
Si Si1 0.628615 0.843668 0.643889
Si Si2 0.697801 0.956358 0.959568
Si Si3 0.940317 0.172877 0.977828
Si Si4 0.268444 0.624783 0.232619
Si Si5 0.053130 0.986081 0.344029
O O1 0.750000 0.750000 0.678536
O O2 0.519669 0.783970 0.587219
O O3 0.467594 0.899362 0.689024
O O4 0.786240 0.934913 0.621581
O O5 0.841364 0.060995 0.957960
O O6 0.599727 0.933474 0.893388
O O7 0.500000 0.000000 0.000000
O O8 0.852324 0.861782 0.982900
O O9 0.750000 0.250000 0.001830
O O10 0.250000 0.750000 0.227496
O O11 0.317828 0.593028 0.301434
O O12 0.076362 0.560579 0.202709
#
# Coordination Sequence:
#
# PCOD9433553 Si02
#       5
#     8   8   8   8   8
#     4  12  22  39  75 104 132 182 242 287 348 428
#     4  11  24  43  71 102 140 185 237 294 368 429
#     4  11  24  42  72 103 139 183 240 293 354 437
#     4  12  25  43  71 103 138 185 239 287 360 431
#     4  12  24  43  71 100 145 184 229 307 357 428
#
# _framework density 22.859881999999999
#
# number of rings (size 3 to 8) (size 9 to 14) (size 15 to 20)
#    0.000    0.400    8.000    1.800    0.000    0.000 
#    0.000    1.000   13.200    0.000    0.000    0.000 
#    0.000    0.000    0.000    0.000    0.000    0.000 
#
# Total GULP energy -223390.964085 kJ/mol
# GULP energy per Si atom -5584.774102 kJ/mol
# Density = 2.280785 g / cm^3
# Si number density = 22.859882 Si / 1000 Ang^3
#
#
#
# Elastic Constant Matrix: (Units=GPa)
#
#
# Indices 1 2 3 4 5 6 
#
# 1 100.3266 28.4341 40.4213 0.0000 0.0000 0.0000
# 2 28.4341 58.9013 24.5948 0.0000 0.0000 0.0000
# 3 40.4213 24.5948 102.8700 0.0000 0.0000 0.0000
# 4 0.0000 0.0000 0.0000 27.1102 0.0000 0.0000
# 5 0.0000 0.0000 0.0000 0.0000 40.5562 0.0000
# 6 0.0000 0.0000 0.0000 0.0000 0.0000 43.5677
#
#
#
# Elastic Compliance Matrix: (Units=1/GPa)
#
#
# Indices 1 2 3 4 5 6 
#
# 1 0.012854 -0.004550 -0.003963 0.000000 0.000000 0.000000
# 2 -0.004550 0.020471 -0.003106 0.000000 0.000000 0.000000
# 3 -0.003963 -0.003106 0.012021 0.000000 0.000000 0.000000
# 4 0.000000 0.000000 0.000000 0.036886 0.000000 0.000000
# 5 0.000000 0.000000 0.000000 0.000000 0.024657 0.000000
# 6 0.000000 0.000000 0.000000 0.000000 0.000000 0.022953
#
#
# Mechanical properties :
#
#
# Convention : Reuss Voigt Hill
#
# Bulk Modulus (GPa) = 45.23496 49.88871 47.56183
# Shear Modulus (GPa) = 31.16236 33.49002 32.32619
#
# Velocity S-wave (km/s) = 3.69615 3.83170 3.76453
# Velocity P-wave (km/s) = 6.16816 6.43793 6.30449
#
# Compressibility (1/GPa) = 0.02210680
#
# Stress axis : x y z
#
# Youngs Moduli (GPa) = 77.79896 48.84887 83.18908
#
# Poissons Ratio (x) = 0.22228 0.32966
# Poissons Ratio (y) = 0.35401 0.25842
# Poissons Ratio (z) = 0.30830 0.15175
#
# Static dielectric constant tensor:
#      x y z
#    x 2.004820 0.000000 0.000000 
#    y 0.000000 1.877220 0.000000 
#    z 0.000000 0.000000 1.839850 
# 
# From -- ./inp_files/19975.got.cif
#   From: 2010.05.17/outbox.cif.g08.bks.cpg/sg56_10_cif.got.tgz:19975.got - 2010.06.03 13:42:01.
