data_PCOD9433054
_publ_section_title
;
Structure prediction by ZEFSAII (Michael W. Deem and Ramdas Pophale) SiO2 
 PCOD9433054
Probable space group: P C C N
;
_chemical_formula_sum "Si O2"
_cell_formula_units_Z 40
_cell_length_a 8.512402
_cell_length_b 17.805945
_cell_length_c 9.948579
_cell_angle_alpha 90.000000
_cell_angle_beta 90.000000
_cell_angle_gamma 90.000000
_cell_volume 1507.919667
_symmetry_space_group_name_H-M "P C C N"
_symmetry_group_IT_number 56
_symmetry_cell_setting 'orthorhombic'
loop_
_space_group_symop_operation_xyz
x,y,z
1/2-x,1/2-y,z
1/2+x,-y,1/2-z
-x,1/2+y,1/2-z
-x,-y,-z
1/2+x,1/2+y,-z
1/2-x,y,1/2+z
x,1/2-y,1/2+z
loop_
_atom_site_type_symbol
_atom_site_label
_atom_site_fract_x
_atom_site_fract_y
_atom_site_fract_z
Si Si1 0.236575 0.956509 0.237741
Si Si2 0.007747 0.356934 0.130784
Si Si3 0.250000 0.250000 0.276814
Si Si4 0.403669 0.896010 0.493276
Si Si5 0.750000 0.250000 0.504083
Si Si6 0.764293 0.597514 0.080135
O O1 0.363846 0.913358 0.334589
O O2 0.225200 0.945783 0.076777
O O3 0.071435 0.915615 0.269372
O O4 0.229832 0.039681 0.296915
O O5 0.123776 0.293800 0.187812
O O6 0.098992 0.409649 0.027492
O O7 0.864105 0.307204 0.078475
O O8 0.304848 0.318505 0.368323
O O9 0.369152 0.812010 0.552792
O O10 0.589417 0.907553 0.515814
#
# Coordination Sequence:
#
# PCOD9433054 Si02
#       6
#     8   8   4   8   4   8
#     4  11  27  49  77 112 158 195 264 311 397 457
#     4  11  25  48  73 109 151 205 253 320 380 461
#     4  12  24  46  78 106 154 196 272 308 398 452
#     4  11  25  50  76 117 152 206 253 322 388 464
#     4  10  24  48  72 106 156 194 264 308 392 450
#     4  12  26  49  75 113 152 203 256 324 386 468
#
# _framework density 26.526613000000001
#
# number of rings (size 3 to 8) (size 9 to 14) (size 15 to 20)
#    0.000    0.800    2.000    4.200    2.800    6.400 
#   25.200    0.000    0.000    0.000    0.000    0.000 
#    0.000    0.000    0.000    0.000    0.000    0.000 
#
# Total GULP energy -223538.825865 kJ/mol
# GULP energy per Si atom -5588.470647 kJ/mol
# Density = 2.646624 g / cm^3
# Si number density = 26.526613 Si / 1000 Ang^3
#
#
#
# Elastic Constant Matrix: (Units=GPa)
#
#
# Indices 1 2 3 4 5 6 
#
# 1 109.0713 9.5841 20.1437 0.0000 0.0000 0.0000
# 2 9.5841 152.9794 -15.4355 0.0000 0.0000 0.0000
# 3 20.1437 -15.4355 47.1712 0.0000 0.0000 0.0000
# 4 0.0000 0.0000 0.0000 33.7234 0.0000 0.0000
# 5 0.0000 0.0000 0.0000 0.0000 44.4741 0.0000
# 6 0.0000 0.0000 0.0000 0.0000 0.0000 44.6755
#
#
#
# Elastic Compliance Matrix: (Units=1/GPa)
#
#
# Indices 1 2 3 4 5 6 
#
# 1 0.010132 -0.001108 -0.004689 0.000000 0.000000 0.000000
# 2 -0.001108 0.006881 0.002725 0.000000 0.000000 0.000000
# 3 -0.004689 0.002725 0.024093 0.000000 0.000000 0.000000
# 4 0.000000 0.000000 0.000000 0.029653 0.000000 0.000000
# 5 0.000000 0.000000 0.000000 0.000000 0.022485 0.000000
# 6 0.000000 0.000000 0.000000 0.000000 0.000000 0.022384
#
#
# Mechanical properties :
#
#
# Convention : Reuss Voigt Hill
#
# Bulk Modulus (GPa) = 28.60263 37.53407 33.06835
# Shear Modulus (GPa) = 37.47393 44.23659 40.85526
#
# Velocity S-wave (km/s) = 3.76266 4.08809 3.92875
# Velocity P-wave (km/s) = 5.44819 6.03851 5.75093
#
# Compressibility (1/GPa) = 0.03496182
#
# Stress axis : x y z
#
# Youngs Moduli (GPa) = 98.70048 145.32431 41.50519
#
# Poissons Ratio (x) = 0.16100 0.19462
# Poissons Ratio (y) = 0.10935 -0.11309
# Poissons Ratio (z) = 0.46282 -0.39597
#
# Static dielectric constant tensor:
#      x y z
#    x 2.194470 0.000000 0.000000 
#    y 0.000000 2.120730 0.000000 
#    z 0.000000 0.000000 2.270650 
# 
# From -- ./inp_files/6247.got.cif
#   From: 2010.05.17/outbox.cif.g08.bks.cpg/sg56_4_cif.got.tgz:6247.got - 2010.06.03 13:42:01.
