data_PCOD9433923
_publ_section_title
;
Structure prediction by ZEFSAII (Michael W. Deem and Ramdas Pophale) SiO2 
 PCOD9433923
Probable space group: P C C N
;
_chemical_formula_sum "Si O2"
_cell_formula_units_Z 64
_cell_length_a 12.000000
_cell_length_b 9.000000
_cell_length_c 30.000000
_cell_angle_alpha 90.000000
_cell_angle_beta 90.000000
_cell_angle_gamma 90.000000
_cell_volume 3240.000000
_symmetry_space_group_name_H-M "P C C N"
_symmetry_group_IT_number 56
_symmetry_cell_setting 'orthorhombic'
loop_
_space_group_symop_operation_xyz
x,y,z
1/2-x,1/2-y,z
1/2+x,-y,1/2-z
-x,1/2+y,1/2-z
-x,-y,-z
1/2+x,1/2+y,-z
1/2-x,y,1/2+z
x,1/2-y,1/2+z
loop_
_atom_site_type_symbol
_atom_site_label
_atom_site_fract_x
_atom_site_fract_y
_atom_site_fract_z
Si Si1 0.976158 0.984962 0.143291
Si Si2 0.802449 0.892032 0.069010
Si Si3 0.988180 0.501178 0.143268
Si Si4 0.379669 0.745123 0.592845
Si Si5 0.384775 0.253448 0.188825
Si Si6 0.617883 0.752732 0.207170
Si Si7 0.641490 0.146676 0.065872
Si Si8 0.000735 0.322125 0.494417
O O1 0.065257 0.874744 0.121504
O O2 0.879773 0.984468 0.104343
O O3 0.926912 0.901324 0.186439
O O4 0.045008 0.128656 0.159039
O O5 0.750000 0.750000 0.094237
O O6 0.879611 0.814526 0.030951
O O7 0.703062 0.994185 0.049732
O O8 0.925720 0.616939 0.175100
O O9 0.906295 0.398349 0.114135
O O10 0.061004 0.594499 0.108054
O O11 0.069173 0.404432 0.173351
O O12 0.250000 0.750000 0.600282
O O13 0.409607 0.775793 0.541948
O O14 0.250000 0.250000 0.183001
O O15 0.412502 0.276936 0.241054
O O16 0.750000 0.750000 0.205777
O O17 0.750000 0.250000 0.067478
O O18 0.541910 0.225782 0.037087
O O19 0.000000 0.500000 0.500000
#
# Coordination Sequence:
#
# PCOD9433923 Si02
#       8
#     8   8   8   8   8   8   8   8
#     4  10  20  39  64  88 126 165 208 260 316 376
#     4  11  23  41  67  94 125 169 213 261 317 377
#     4  11  24  40  63  97 122 159 219 254 310 378
#     4  10  22  40  63  83 121 168 207 254 317 375
#     4  11  23  39  62  93 129 162 205 261 319 375
#     4  10  21  40  64  91 125 166 206 257 318 381
#     4  12  23  41  65  91 130 165 207 269 314 373
#     4  11  24  42  61  92 125 167 215 260 318 373
#
# _framework density 19.753086
#
# number of rings (size 3 to 8) (size 9 to 14) (size 15 to 20)
#    0.000    1.250    1.250    6.000    1.750    2.000 
#    0.000    0.000    0.000    7.500    0.000    0.000 
#    0.000    0.000    0.000    0.000    0.000    0.000 
#
# Total GULP energy -356883.584138 kJ/mol
# GULP energy per Si atom -5576.306002 kJ/mol
# Density = 1.970813 g / cm^3
# Si number density = 19.753086 Si / 1000 Ang^3
#
#
#
# Elastic Constant Matrix: (Units=GPa)
#
#
# Indices 1 2 3 4 5 6 
#
# 1 69.9875 23.9560 35.9512 0.0000 0.0000 0.0000
# 2 23.9560 96.8759 41.9144 0.0000 0.0000 0.0000
# 3 35.9512 41.9144 87.4401 0.0000 0.0000 0.0000
# 4 0.0000 0.0000 0.0000 35.8568 0.0000 0.0000
# 5 0.0000 0.0000 0.0000 0.0000 23.5141 0.0000
# 6 0.0000 0.0000 0.0000 0.0000 0.0000 40.7609
#
#
#
# Elastic Compliance Matrix: (Units=1/GPa)
#
#
# Indices 1 2 3 4 5 6 
#
# 1 0.018309 -0.001603 -0.006759 0.000000 0.000000 0.000000
# 2 -0.001603 0.013164 -0.005651 0.000000 0.000000 0.000000
# 3 -0.006759 -0.005651 0.016924 0.000000 0.000000 0.000000
# 4 0.000000 0.000000 0.000000 0.027889 0.000000 0.000000
# 5 0.000000 0.000000 0.000000 0.000000 0.042528 0.000000
# 6 0.000000 0.000000 0.000000 0.000000 0.000000 0.024533
#
#
# Mechanical properties :
#
#
# Convention : Reuss Voigt Hill
#
# Bulk Modulus (GPa) = 49.09078 50.88297 49.98688
# Shear Modulus (GPa) = 28.06400 30.19181 29.12791
#
# Velocity S-wave (km/s) = 3.77336 3.91379 3.84422
# Velocity P-wave (km/s) = 6.62499 6.79994 6.71303
#
# Compressibility (1/GPa) = 0.02037042
#
# Stress axis : x y z
#
# Youngs Moduli (GPa) = 54.61749 75.96551 59.08645
#
# Poissons Ratio (x) = 0.12178 0.39939
# Poissons Ratio (y) = 0.08755 0.33390
# Poissons Ratio (z) = 0.36918 0.42928
#
# Static dielectric constant tensor:
#      x y z
#    x 1.684680 0.000000 0.000000 
#    y 0.000000 1.757670 0.000000 
#    z 0.000000 0.000000 1.717470 
# 
# From -- ./inp_files/23543.got.cif
#   From: 2010.05.17/outbox.ucp.g08.bks.cvg/sg56_12_cif.got.tgz:23543.got - 2010.06.11 16:37:52.
