data_PCOD9433421
_publ_section_title
;
Structure prediction by ZEFSAII (Michael W. Deem and Ramdas Pophale) SiO2 
 PCOD9433421
Probable space group: P C C N
;
_chemical_formula_sum "Si O2"
_cell_formula_units_Z 40
_cell_length_a 15.031634
_cell_length_b 5.583270
_cell_length_c 17.585012
_cell_angle_alpha 90.000000
_cell_angle_beta 90.000000
_cell_angle_gamma 90.000000
_cell_volume 1475.833935
_symmetry_space_group_name_H-M "P C C N"
_symmetry_group_IT_number 56
_symmetry_cell_setting 'orthorhombic'
loop_
_space_group_symop_operation_xyz
x,y,z
1/2-x,1/2-y,z
1/2+x,-y,1/2-z
-x,1/2+y,1/2-z
-x,-y,-z
1/2+x,1/2+y,-z
1/2-x,y,1/2+z
x,1/2-y,1/2+z
loop_
_atom_site_type_symbol
_atom_site_label
_atom_site_fract_x
_atom_site_fract_y
_atom_site_fract_z
Si Si1 0.560902 0.666430 0.809680
Si Si2 0.923169 0.230961 0.936621
Si Si3 0.623245 0.129418 0.605154
Si Si4 0.109528 0.380534 0.863750
Si Si5 0.798337 0.009067 0.347726
O O1 0.595909 0.473901 0.872806
O O2 0.459869 0.663078 0.836758
O O3 0.580853 0.595382 0.723958
O O4 0.607940 0.926052 0.811962
O O5 0.838426 0.409943 0.928915
O O6 0.018792 0.349728 0.915666
O O7 0.916673 0.124036 0.020154
O O8 0.666157 0.389135 0.612976
O O9 0.658854 0.870876 0.625506
O O10 0.750000 0.250000 0.315700
O O11 0.750000 0.750000 0.344976
#
# Coordination Sequence:
#
# PCOD9433421 Si02
#       5
#     8   8   8   8   8
#     4  11  23  41  68 101 131 164 216 269 335 377
#     4  11  24  41  69 100 133 164 217 269 338 378
#     4  11  23  38  65 106 133 161 202 275 343 384
#     4  11  23  37  66 105 134 160 204 274 346 382
#     4  12  26  43  64  91 127 182 225 260 301 400
#
# _framework density 27.103318999999999
#
# number of rings (size 3 to 8) (size 9 to 14) (size 15 to 20)
#    0.000    0.800    4.000    5.400    5.600    0.000 
#    0.000    0.000    0.000    7.200    0.000    0.000 
#    0.000    0.000    0.000    0.000    0.000    0.000 
#
# Total GULP energy -223205.415482 kJ/mol
# GULP energy per Si atom -5580.135387 kJ/mol
# Density = 2.704163 g / cm^3
# Si number density = 27.103319 Si / 1000 Ang^3
#
#
#
# Elastic Constant Matrix: (Units=GPa)
#
#
# Indices 1 2 3 4 5 6 
#
# 1 67.7694 65.6075 7.8320 0.0000 0.0000 0.0000
# 2 65.6075 265.3629 67.1259 0.0000 0.0000 0.0000
# 3 7.8320 67.1259 181.9880 0.0000 0.0000 0.0000
# 4 0.0000 0.0000 0.0000 40.3377 0.0000 0.0000
# 5 0.0000 0.0000 0.0000 0.0000 -13.0671 0.0000
# 6 0.0000 0.0000 0.0000 0.0000 0.0000 70.7960
#
#
#
# Elastic Compliance Matrix: (Units=1/GPa)
#
#
# Indices 1 2 3 4 5 6 
#
# 1 0.019576 -0.005103 0.001040 0.000000 0.000000 0.000000
# 2 -0.005103 0.005486 -0.001804 0.000000 0.000000 0.000000
# 3 0.001040 -0.001804 0.006116 0.000000 0.000000 0.000000
# 4 0.000000 0.000000 0.000000 0.024791 0.000000 0.000000
# 5 0.000000 0.000000 0.000000 0.000000 -0.076528 0.000000
# 6 0.000000 0.000000 0.000000 0.000000 0.000000 0.014125
#
#
# Mechanical properties :
#
#
# Convention : Reuss Voigt Hill
#
# Bulk Modulus (GPa) = 51.43132 88.47235 69.95184
# Shear Modulus (GPa) = 424.41314 44.58364 234.49839
#
# Velocity S-wave (km/s) = 12.52720 4.06020 9.31171
# Velocity P-wave (km/s) = 15.10822 7.39552 11.89437
#
# Compressibility (1/GPa) = 0.01944340
#
# Stress axis : x y z
#
# Youngs Moduli (GPa) = 51.08328 182.26909 163.51788
#
# Poissons Ratio (x) = 0.93010 -0.17001
# Poissons Ratio (y) = 0.26067 0.29499
# Poissons Ratio (z) = -0.05311 0.32882
#
# Static dielectric constant tensor:
#      x y z
#    x 2.296210 0.000000 0.000000 
#    y 0.000000 2.334990 0.000000 
#    z 0.000000 0.000000 2.106500 
# 
# From -- ./inp_files/16772.got.cif
#   From: 2010.05.17/outbox.cif.g08.bks.cpg/sg56_9_cif.got.tgz:16772.got - 2010.06.03 13:42:01.
