data_PCOD9433863
_publ_section_title
;
Structure prediction by ZEFSAII (Michael W. Deem and Ramdas Pophale) SiO2 
 PCOD9433863
Probable space group: P C C N
;
_chemical_formula_sum "Si O2"
_cell_formula_units_Z 40
_cell_length_a 14.693522
_cell_length_b 11.820322
_cell_length_c 9.799268
_cell_angle_alpha 90.000000
_cell_angle_beta 90.000000
_cell_angle_gamma 90.000000
_cell_volume 1701.958046
_symmetry_space_group_name_H-M "P C C N"
_symmetry_group_IT_number 56
_symmetry_cell_setting 'orthorhombic'
loop_
_space_group_symop_operation_xyz
x,y,z
1/2-x,1/2-y,z
1/2+x,-y,1/2-z
-x,1/2+y,1/2-z
-x,-y,-z
1/2+x,1/2+y,-z
1/2-x,y,1/2+z
x,1/2-y,1/2+z
loop_
_atom_site_type_symbol
_atom_site_label
_atom_site_fract_x
_atom_site_fract_y
_atom_site_fract_z
Si Si1 0.842279 0.714151 0.066159
Si Si2 0.445305 0.058341 0.122011
Si Si3 0.997233 0.889603 0.096397
Si Si4 0.244011 0.007183 0.774039
Si Si5 0.813351 0.141696 0.964271
O O1 0.750000 0.750000 0.992904
O O2 0.901382 0.822212 0.112543
O O3 0.851283 0.988456 0.312360
O O4 0.908632 0.667815 0.952586
O O5 0.217546 0.934500 0.907678
O O6 0.511651 0.073463 0.248168
O O7 0.500000 0.000000 0.000000
O O8 0.301047 0.119990 0.826191
O O9 0.081430 0.818792 0.036653
O O10 0.000000 0.000000 0.000000
O O11 0.304066 0.936971 0.668137
O O12 0.750000 0.250000 0.954818
#
# Coordination Sequence:
#
# PCOD9433863 Si02
#       5
#     8   8   8   8   8
#     4  12  27  49  83 119 163 218 280 348 427 497
#     4  12  28  49  81 118 160 214 278 350 419 509
#     4  12  28  52  80 118 166 214 280 350 426 515
#     4  12  26  53  80 117 165 211 282 344 422 515
#     4  12  28  52  80 117 164 217 273 351 434 509
#
# _framework density 23.502341999999999
#
# number of rings (size 3 to 8) (size 9 to 14) (size 15 to 20)
#    0.000    0.000    6.000    1.800    5.600    3.200 
#    0.000    0.000    0.000    0.000    0.000    0.000 
#    0.000    0.000    0.000    0.000    0.000    0.000 
#
# Total GULP energy -223065.951710 kJ/mol
# GULP energy per Si atom -5576.648793 kJ/mol
# Density = 2.344885 g / cm^3
# Si number density = 23.502342 Si / 1000 Ang^3
#
#
#
# Elastic Constant Matrix: (Units=GPa)
#
#
# Indices 1 2 3 4 5 6 
#
# 1 98.2765 36.5920 48.2933 0.0000 0.0000 0.0000
# 2 36.5920 81.2615 54.3171 0.0000 0.0000 0.0000
# 3 48.2933 54.3171 172.0505 0.0000 0.0000 0.0000
# 4 0.0000 0.0000 0.0000 19.0203 0.0000 0.0000
# 5 0.0000 0.0000 0.0000 0.0000 38.6703 0.0000
# 6 0.0000 0.0000 0.0000 0.0000 0.0000 54.6590
#
#
#
# Elastic Compliance Matrix: (Units=1/GPa)
#
#
# Indices 1 2 3 4 5 6 
#
# 1 0.012884 -0.004290 -0.002262 0.000000 0.000000 0.000000
# 2 -0.004290 0.017026 -0.004171 0.000000 0.000000 0.000000
# 3 -0.002262 -0.004171 0.007764 0.000000 0.000000 0.000000
# 4 0.000000 0.000000 0.000000 0.052575 0.000000 0.000000
# 5 0.000000 0.000000 0.000000 0.000000 0.025860 0.000000
# 6 0.000000 0.000000 0.000000 0.000000 0.000000 0.018295
#
#
# Mechanical properties :
#
#
# Convention : Reuss Voigt Hill
#
# Bulk Modulus (GPa) = 61.62143 69.99926 65.81034
# Shear Modulus (GPa) = 31.00598 36.62900 33.81749
#
# Velocity S-wave (km/s) = 3.63612 3.95210 3.79740
# Velocity P-wave (km/s) = 6.62606 7.11857 6.87673
#
# Compressibility (1/GPa) = 0.01622812
#
# Stress axis : x y z
#
# Youngs Moduli (GPa) = 77.61429 58.73524 128.79882
#
# Poissons Ratio (x) = 0.25195 0.29138
# Poissons Ratio (y) = 0.33293 0.53722
# Poissons Ratio (z) = 0.17558 0.24498
#
# Static dielectric constant tensor:
#      x y z
#    x 1.926680 0.000000 0.000000 
#    y 0.000000 2.012060 0.000000 
#    z 0.000000 0.000000 1.818870 
# 
# From -- ./inp_files/3232.got.cif
#   From: 2010.05.17/outbox.cif.g08.bks.cpg/sg56_2_cif.got.tgz:3232.got - 2010.06.03 13:42:01.
