data_PCOD9433233
_publ_section_title
;
Structure prediction by ZEFSAII (Michael W. Deem and Ramdas Pophale) SiO2 
 PCOD9433233
Probable space group: P C C N
;
_chemical_formula_sum "Si O2"
_cell_formula_units_Z 48
_cell_length_a 8.464993
_cell_length_b 15.208016
_cell_length_c 18.929673
_cell_angle_alpha 90.000000
_cell_angle_beta 90.000000
_cell_angle_gamma 90.000000
_cell_volume 2436.925632
_symmetry_space_group_name_H-M "P C C N"
_symmetry_group_IT_number 56
_symmetry_cell_setting 'orthorhombic'
loop_
_space_group_symop_operation_xyz
x,y,z
1/2-x,1/2-y,z
1/2+x,-y,1/2-z
-x,1/2+y,1/2-z
-x,-y,-z
1/2+x,1/2+y,-z
1/2-x,y,1/2+z
x,1/2-y,1/2+z
loop_
_atom_site_type_symbol
_atom_site_label
_atom_site_fract_x
_atom_site_fract_y
_atom_site_fract_z
Si Si1 0.627728 0.074757 0.982403
Si Si2 0.649519 0.666957 0.328856
Si Si3 0.802939 0.341219 0.232221
Si Si4 0.818129 0.008692 0.847883
Si Si5 0.917837 0.731811 0.981050
Si Si6 0.900310 0.105835 0.095682
O O1 0.712651 0.048161 0.910412
O O2 0.541443 0.169765 0.978906
O O3 0.758774 0.077741 0.044170
O O4 0.500000 0.000000 0.000000
O O5 0.750000 0.750000 0.303294
O O6 0.473634 0.671241 0.301874
O O7 0.735665 0.576464 0.313414
O O8 0.638103 0.674730 0.413543
O O9 0.750000 0.250000 0.267189
O O10 0.825117 0.418642 0.287687
O O11 0.679706 0.360339 0.168437
O O12 0.980091 0.971948 0.882355
O O13 0.750000 0.750000 0.019478
O O14 0.002966 0.817385 0.946432
#
# Coordination Sequence:
#
# PCOD9433233 Si02
#       6
#     8   8   8   8   8   8
#     4  12  23  40  63  93 128 162 211 267 319 377
#     4  11  20  41  67  92 121 169 220 260 307 389
#     4  12  23  40  63  94 131 170 212 264 317 384
#     4  12  25  39  63  99 133 161 209 275 329 367
#     4  11  20  39  70  90 117 163 224 255 302 378
#     4  12  22  42  68  91 121 177 219 253 309 395
#
# _framework density 19.696950000000001
#
# number of rings (size 3 to 8) (size 9 to 14) (size 15 to 20)
#    0.000    0.333    8.333    2.000    0.000    1.333 
#    0.000    1.667    0.000    2.000    0.000    0.000 
#    0.000    0.000    0.000    0.000    0.000    0.000 
#
# Total GULP energy -268192.551370 kJ/mol
# GULP energy per Si atom -5587.344820 kJ/mol
# Density = 1.965212 g / cm^3
# Si number density = 19.696950 Si / 1000 Ang^3
#
#
#
# Elastic Constant Matrix: (Units=GPa)
#
#
# Indices 1 2 3 4 5 6 
#
# 1 158.5466 71.2980 43.7340 0.0000 0.0000 0.0000
# 2 71.2980 135.4352 47.4285 0.0000 0.0000 0.0000
# 3 43.7340 47.4285 49.7461 0.0000 0.0000 0.0000
# 4 0.0000 0.0000 0.0000 1.6524 0.0000 0.0000
# 5 0.0000 0.0000 0.0000 0.0000 8.0587 0.0000
# 6 0.0000 0.0000 0.0000 0.0000 0.0000 50.0003
#
#
#
# Elastic Compliance Matrix: (Units=1/GPa)
#
#
# Indices 1 2 3 4 5 6 
#
# 1 0.009059 -0.002972 -0.005130 0.000000 0.000000 0.000000
# 2 -0.002972 0.012060 -0.008885 0.000000 0.000000 0.000000
# 3 -0.005130 -0.008885 0.033083 0.000000 0.000000 0.000000
# 4 0.000000 0.000000 0.000000 0.605188 0.000000 0.000000
# 5 0.000000 0.000000 0.000000 0.000000 0.124090 0.000000
# 6 0.000000 0.000000 0.000000 0.000000 0.000000 0.020000
#
#
# Mechanical properties :
#
#
# Convention : Reuss Voigt Hill
#
# Bulk Modulus (GPa) = 49.43864 74.29431 61.86648
# Shear Modulus (GPa) = 5.92278 24.02677 14.97478
#
# Velocity S-wave (km/s) = 1.73594 3.49638 2.76027
# Velocity P-wave (km/s) = 5.40112 7.35528 6.45261
#
# Compressibility (1/GPa) = 0.02022709
#
# Stress axis : x y z
#
# Youngs Moduli (GPa) = 110.38529 82.92026 30.22686
#
# Poissons Ratio (x) = 0.24648 0.15507
# Poissons Ratio (y) = 0.32812 0.26856
# Poissons Ratio (z) = 0.56632 0.73672
#
# Static dielectric constant tensor:
#      x y z
#    x 1.760090 0.000000 0.000000 
#    y 0.000000 1.726180 0.000000 
#    z 0.000000 0.000000 1.654370 
# 
# From -- ./inp_files/14834.got.cif
#   From: 2010.05.17/outbox.cif.g08.bks.cpg/sg56_8_cif.got.tgz:14834.got - 2010.06.03 13:42:01.
