data_PCOD9433382
_publ_section_title
;
Structure prediction by ZEFSAII (Michael W. Deem and Ramdas Pophale) SiO2 
 PCOD9433382
Probable space group: P C C N
;
_chemical_formula_sum "Si O2"
_cell_formula_units_Z 48
_cell_length_a 13.848098
_cell_length_b 7.986764
_cell_length_c 19.143209
_cell_angle_alpha 90.000000
_cell_angle_beta 90.000000
_cell_angle_gamma 90.000000
_cell_volume 2117.267450
_symmetry_space_group_name_H-M "P C C N"
_symmetry_group_IT_number 56
_symmetry_cell_setting 'orthorhombic'
loop_
_space_group_symop_operation_xyz
x,y,z
1/2-x,1/2-y,z
1/2+x,-y,1/2-z
-x,1/2+y,1/2-z
-x,-y,-z
1/2+x,1/2+y,-z
1/2-x,y,1/2+z
x,1/2-y,1/2+z
loop_
_atom_site_type_symbol
_atom_site_label
_atom_site_fract_x
_atom_site_fract_y
_atom_site_fract_z
Si Si1 0.637272 0.265389 0.572945
Si Si2 0.750000 0.750000 0.518702
Si Si3 0.520977 0.831225 0.834059
Si Si4 0.939866 0.444917 0.303564
Si Si5 0.750000 0.250000 0.321970
Si Si6 0.349197 0.528336 0.561783
Si Si7 0.555620 0.910769 0.565420
O O1 0.750000 0.250000 0.569895
O O2 0.587384 0.360238 0.636140
O O3 0.608373 0.349678 0.498494
O O4 0.606575 0.078099 0.591877
O O5 0.733718 0.582015 0.474754
O O6 0.643612 0.780645 0.553125
O O7 0.516268 0.919447 0.759138
O O8 0.561115 0.643324 0.820356
O O9 0.579159 0.901806 0.900082
O O10 0.836774 0.356865 0.286476
O O11 0.981548 0.357785 0.374157
O O12 0.697045 0.375388 0.374227
O O13 0.500000 0.000000 0.500000
#
# Coordination Sequence:
#
# PCOD9433382 Si02
#       7
#     8   4   8   8   4   8   8
#     4  11  22  43  69 102 137 178 234 290 354 421
#     4  12  22  38  70 106 136 178 234 292 358 422
#     4  11  26  45  70 100 145 184 235 295 365 431
#     4  11  26  47  68 101 141 192 233 293 362 428
#     4  12  24  44  70  94 140 188 238 294 348 428
#     4  12  22  41  67 106 133 184 235 291 356 425
#     4  11  23  44  68 100 141 177 230 298 349 422
#
# _framework density 22.670732000000001
#
# number of rings (size 3 to 8) (size 9 to 14) (size 15 to 20)
#    0.000    0.667    2.500    6.500    1.167    2.667 
#    0.000    0.833    0.000    0.000    0.000    0.000 
#    0.000    0.000    0.000    0.000    0.000    0.000 
#
# Total GULP energy -267444.929729 kJ/mol
# GULP energy per Si atom -5571.769369 kJ/mol
# Density = 2.261913 g / cm^3
# Si number density = 22.670732 Si / 1000 Ang^3
#
#
#
# Elastic Constant Matrix: (Units=GPa)
#
#
# Indices 1 2 3 4 5 6 
#
# 1 90.9946 23.8642 43.3191 0.0000 0.0000 0.0000
# 2 23.8642 55.4553 -10.2735 0.0000 0.0000 0.0000
# 3 43.3191 -10.2735 69.9483 0.0000 0.0000 0.0000
# 4 0.0000 0.0000 0.0000 3.1463 0.0000 0.0000
# 5 0.0000 0.0000 0.0000 0.0000 32.4207 0.0000
# 6 0.0000 0.0000 0.0000 0.0000 0.0000 17.7134
#
#
#
# Elastic Compliance Matrix: (Units=1/GPa)
#
#
# Indices 1 2 3 4 5 6 
#
# 1 0.021173 -0.011863 -0.014855 0.000000 0.000000 0.000000
# 2 -0.011863 0.025184 0.011046 0.000000 0.000000 0.000000
# 3 -0.014855 0.011046 0.025118 0.000000 0.000000 0.000000
# 4 0.000000 0.000000 0.000000 0.317837 0.000000 0.000000
# 5 0.000000 0.000000 0.000000 0.000000 0.030844 0.000000
# 6 0.000000 0.000000 0.000000 0.000000 0.000000 0.056454
#
#
# Mechanical properties :
#
#
# Convention : Reuss Voigt Hill
#
# Bulk Modulus (GPa) = 24.91872 36.69087 30.80480
# Shear Modulus (GPa) = 9.59082 21.28863 15.43972
#
# Velocity S-wave (km/s) = 2.05905 3.06769 2.61251
# Velocity P-wave (km/s) = 4.08269 5.36349 4.76631
#
# Compressibility (1/GPa) = 0.04013047
#
# Stress axis : x y z
#
# Youngs Moduli (GPa) = 47.23080 39.70781 39.81202
#
# Poissons Ratio (x) = 0.47106 0.59139
# Poissons Ratio (y) = 0.56031 -0.43975
# Poissons Ratio (z) = 0.70159 -0.43860
#
# Static dielectric constant tensor:
#      x y z
#    x 2.105550 0.000000 0.000000 
#    y 0.000000 1.903850 0.000000 
#    z 0.000000 0.000000 1.844410 
# 
# From -- ./inp_files/16200.got.cif
#   From: 2010.05.17/outbox.cif.g08.bks.cpg/sg56_9_cif.got.tgz:16200.got - 2010.06.03 13:42:01.
