data_PCOD9433906
_publ_section_title
;
Structure prediction by ZEFSAII (Michael W. Deem and Ramdas Pophale) SiO2 
 PCOD9433906
Probable space group: P C C N
;
_chemical_formula_sum "Si O2"
_cell_formula_units_Z 48
_cell_length_a 24.000000
_cell_length_b 12.000000
_cell_length_c 9.000000
_cell_angle_alpha 90.000000
_cell_angle_beta 90.000000
_cell_angle_gamma 90.000000
_cell_volume 2592.000000
_symmetry_space_group_name_H-M "P C C N"
_symmetry_group_IT_number 56
_symmetry_cell_setting 'orthorhombic'
loop_
_space_group_symop_operation_xyz
x,y,z
1/2-x,1/2-y,z
1/2+x,-y,1/2-z
-x,1/2+y,1/2-z
-x,-y,-z
1/2+x,1/2+y,-z
1/2-x,y,1/2+z
x,1/2-y,1/2+z
loop_
_atom_site_type_symbol
_atom_site_label
_atom_site_fract_x
_atom_site_fract_y
_atom_site_fract_z
Si Si1 0.541265 0.877703 0.096438
Si Si2 0.307712 0.623705 0.046926
Si Si3 0.966221 0.872383 0.089436
Si Si4 0.578500 0.486191 0.850559
Si Si5 0.691174 0.129785 0.812798
Si Si6 0.425587 0.985581 0.160928
O O1 0.552330 0.750116 0.132372
O O2 0.475409 0.901199 0.118721
O O3 0.574936 0.975938 0.180185
O O4 0.558829 0.902839 0.928558
O O5 0.304516 0.632668 0.867385
O O6 0.360723 0.549922 0.096437
O O7 0.315592 0.745968 0.120222
O O8 0.248421 0.583850 0.114682
O O9 0.031958 0.891584 0.117391
O O10 0.935334 0.973950 0.171971
O O11 0.948219 0.901980 0.923065
O O12 0.635864 0.061710 0.855814
#
# Coordination Sequence:
#
# PCOD9433906 Si02
#       6
#     8   8   8   8   8   8
#     4  10  21  34  59  86 116 152 188 227 286 338
#     4  11  23  39  60  87 112 151 186 238 287 337
#     4  10  19  38  55  86 116 152 185 232 282 337
#     4  10  21  35  60  83 118 148 188 233 284 334
#     4  11  23  39  61  85 116 146 191 235 287 339
#     4  10  21  37  56  87 116 148 188 236 280 340
#
# _framework density 18.518519000000001
#
# number of rings (size 3 to 8) (size 9 to 14) (size 15 to 20)
#    0.000    1.667    1.667    4.000    4.667    0.000 
#    6.000    0.000    0.000    6.000    0.000    0.000 
#    0.000    0.000    0.000    0.000    0.000    0.000 
#
# Total GULP energy -267417.568840 kJ/mol
# GULP energy per Si atom -5571.199351 kJ/mol
# Density = 1.847637 g / cm^3
# Si number density = 18.518519 Si / 1000 Ang^3
#
#
#
# Elastic Constant Matrix: (Units=GPa)
#
#
# Indices 1 2 3 4 5 6 
#
# 1 152.3592 42.0051 23.9427 0.0000 0.0000 0.0000
# 2 42.0051 67.0847 13.8010 0.0000 0.0000 0.0000
# 3 23.9427 13.8010 52.5528 0.0000 0.0000 0.0000
# 4 0.0000 0.0000 0.0000 18.8601 0.0000 0.0000
# 5 0.0000 0.0000 0.0000 0.0000 29.7155 0.0000
# 6 0.0000 0.0000 0.0000 0.0000 0.0000 18.7420
#
#
#
# Elastic Compliance Matrix: (Units=1/GPa)
#
#
# Indices 1 2 3 4 5 6 
#
# 1 0.008241 -0.004638 -0.002536 0.000000 0.000000 0.000000
# 2 -0.004638 0.018368 -0.002711 0.000000 0.000000 0.000000
# 3 -0.002536 -0.002711 0.020896 0.000000 0.000000 0.000000
# 4 0.000000 0.000000 0.000000 0.053022 0.000000 0.000000
# 5 0.000000 0.000000 0.000000 0.000000 0.033652 0.000000
# 6 0.000000 0.000000 0.000000 0.000000 0.000000 0.053356
#
#
# Mechanical properties :
#
#
# Convention : Reuss Voigt Hill
#
# Bulk Modulus (GPa) = 36.05603 47.94383 41.99993
# Shear Modulus (GPa) = 23.08928 26.28005 24.68467
#
# Velocity S-wave (km/s) = 3.53487 3.77121 3.65495
# Velocity P-wave (km/s) = 6.01439 6.70139 6.36716
#
# Compressibility (1/GPa) = 0.02773461
#
# Stress axis : x y z
#
# Youngs Moduli (GPa) = 121.34811 54.44143 47.85632
#
# Poissons Ratio (x) = 0.25251 0.12138
# Poissons Ratio (y) = 0.56283 0.12972
# Poissons Ratio (z) = 0.30779 0.14757
#
# Static dielectric constant tensor:
#      x y z
#    x 1.609850 0.000000 0.000000 
#    y 0.000000 1.596600 0.000000 
#    z 0.000000 0.000000 1.666790 
# 
# From -- ./inp_files/2793.got.cif
#   From: 2010.05.17/outbox.ucp.g08.bks.cvg/sg56_2_cif.got.tgz:2793.got - 2010.06.11 16:37:52.
