data_PCOD9433501
_publ_section_title
;
Structure prediction by ZEFSAII (Michael W. Deem and Ramdas Pophale) SiO2 
 PCOD9433501
Probable space group: P C C N
;
_chemical_formula_sum "Si O2"
_cell_formula_units_Z 32
_cell_length_a 23.520796
_cell_length_b 6.474764
_cell_length_c 9.320848
_cell_angle_alpha 90.000000
_cell_angle_beta 90.000000
_cell_angle_gamma 90.000000
_cell_volume 1419.486885
_symmetry_space_group_name_H-M "P C C N"
_symmetry_group_IT_number 56
_symmetry_cell_setting 'orthorhombic'
loop_
_space_group_symop_operation_xyz
x,y,z
1/2-x,1/2-y,z
1/2+x,-y,1/2-z
-x,1/2+y,1/2-z
-x,-y,-z
1/2+x,1/2+y,-z
1/2-x,y,1/2+z
x,1/2-y,1/2+z
loop_
_atom_site_type_symbol
_atom_site_label
_atom_site_fract_x
_atom_site_fract_y
_atom_site_fract_z
Si Si1 0.141999 0.685986 0.567827
Si Si2 0.935537 0.526496 0.951585
Si Si3 0.700568 0.415698 0.209879
Si Si4 0.131529 0.300406 0.770391
O O1 0.082343 0.793996 0.589209
O O2 0.151687 0.647646 0.402306
O O3 0.186080 0.854899 0.627746
O O4 0.149088 0.485423 0.664483
O O5 0.916059 0.668297 0.817335
O O6 0.897161 0.611815 0.084928
O O7 0.000000 0.500000 0.000000
O O8 0.750000 0.250000 0.171567
O O9 0.688488 0.662117 0.202864
#
# Coordination Sequence:
#
# PCOD9433501 Si02
#       4
#     8   8   8   8
#     4  11  23  45  65 102 143 172 243 293 341 440
#     4  11  26  42  70 102 146 193 233 295 358 428
#     4  11  24  44  70  97 135 183 232 294 358 420
#     4  11  24  45  67 105 143 185 240 295 356 432
#
# _framework density 22.543358000000001
#
# number of rings (size 3 to 8) (size 9 to 14) (size 15 to 20)
#    0.000    1.000    5.000    0.750    3.500    2.000 
#    0.000    2.500    0.000    0.000    0.000    0.000 
#    0.000    0.000    0.000    0.000    0.000    0.000 
#
# Total GULP energy -178145.203481 kJ/mol
# GULP energy per Si atom -5567.037609 kJ/mol
# Density = 2.249205 g / cm^3
# Si number density = 22.543358 Si / 1000 Ang^3
#
#
#
# Elastic Constant Matrix: (Units=GPa)
#
#
# Indices 1 2 3 4 5 6 
#
# 1 80.0736 47.7855 3.5803 0.0000 0.0000 0.0000
# 2 47.7855 128.8979 17.2914 0.0000 0.0000 0.0000
# 3 3.5803 17.2914 97.6762 0.0000 0.0000 0.0000
# 4 0.0000 0.0000 0.0000 51.2628 0.0000 0.0000
# 5 0.0000 0.0000 0.0000 0.0000 18.0575 0.0000
# 6 0.0000 0.0000 0.0000 0.0000 0.0000 35.7171
#
#
#
# Elastic Compliance Matrix: (Units=1/GPa)
#
#
# Indices 1 2 3 4 5 6 
#
# 1 0.016058 -0.006017 0.000477 0.000000 0.000000 0.000000
# 2 -0.006017 0.010201 -0.001585 0.000000 0.000000 0.000000
# 3 0.000477 -0.001585 0.010501 0.000000 0.000000 0.000000
# 4 0.000000 0.000000 0.000000 0.019507 0.000000 0.000000
# 5 0.000000 0.000000 0.000000 0.000000 0.055379 0.000000
# 6 0.000000 0.000000 0.000000 0.000000 0.000000 0.027998
#
#
# Mechanical properties :
#
#
# Convention : Reuss Voigt Hill
#
# Bulk Modulus (GPa) = 44.42695 49.32910 46.87802
# Shear Modulus (GPa) = 30.97919 36.87353 33.92636
#
# Velocity S-wave (km/s) = 3.71105 4.04873 3.88356
# Velocity P-wave (km/s) = 6.17354 6.61708 6.39915
#
# Compressibility (1/GPa) = 0.02250886
#
# Stress axis : x y z
#
# Youngs Moduli (GPa) = 62.27439 98.02583 95.22822
#
# Poissons Ratio (x) = 0.58982 -0.04538
# Poissons Ratio (y) = 0.37470 0.15097
# Poissons Ratio (z) = -0.02968 0.15541
#
# Static dielectric constant tensor:
#      x y z
#    x 1.907100 0.000000 0.000000 
#    y 0.000000 1.953080 0.000000 
#    z 0.000000 0.000000 1.778300 
# 
# From -- ./inp_files/2015.got.cif
#   From: 2010.05.17/outbox.cif.g08.bks.cpg/sg56_2_cif.got.tgz:2015.got - 2010.06.03 13:42:01.
