data_PCOD9433363
_publ_section_title
;
Structure prediction by ZEFSAII (Michael W. Deem and Ramdas Pophale) SiO2 
 PCOD9433363
Probable space group: P C C N
;
_chemical_formula_sum "Si O2"
_cell_formula_units_Z 32
_cell_length_a 10.330896
_cell_length_b 18.131819
_cell_length_c 8.492734
_cell_angle_alpha 90.000000
_cell_angle_beta 90.000000
_cell_angle_gamma 90.000000
_cell_volume 1590.841407
_symmetry_space_group_name_H-M "P C C N"
_symmetry_group_IT_number 56
_symmetry_cell_setting 'orthorhombic'
loop_
_space_group_symop_operation_xyz
x,y,z
1/2-x,1/2-y,z
1/2+x,-y,1/2-z
-x,1/2+y,1/2-z
-x,-y,-z
1/2+x,1/2+y,-z
1/2-x,y,1/2+z
x,1/2-y,1/2+z
loop_
_atom_site_type_symbol
_atom_site_label
_atom_site_fract_x
_atom_site_fract_y
_atom_site_fract_z
Si Si1 0.139849 0.999865 0.578222
Si Si2 0.342239 0.832180 0.989748
Si Si3 0.103176 0.057487 0.927048
Si Si4 0.569433 0.195959 0.371721
O O1 0.169710 0.914102 0.558896
O O2 0.122763 0.029257 0.751659
O O3 0.257074 0.047381 0.506406
O O4 0.000000 0.000000 0.500000
O O5 0.190591 0.812427 0.009057
O O6 0.440790 0.784279 0.100385
O O7 0.388175 0.824550 0.807552
O O8 0.042947 0.139867 0.922784
O O9 0.000000 0.000000 0.000000
#
# Coordination Sequence:
#
# PCOD9433363 Si02
#       4
#     8   8   8   8
#     4  12  24  44  69  98 138 178 228 280 348 411
#     4  11  22  41  67 102 136 179 223 284 347 408
#     4  12  25  43  70 103 132 180 234 290 340 414
#     4  11  23  40  68 101 136 175 233 283 345 410
#
# _framework density 20.115141000000001
#
# number of rings (size 3 to 8) (size 9 to 14) (size 15 to 20)
#    0.000    0.500    5.000    6.000    3.500    0.000 
#    0.000    1.250    0.000    0.000    0.000    0.000 
#    0.000    0.000    0.000    0.000    0.000    0.000 
#
# Total GULP energy -178262.187782 kJ/mol
# GULP energy per Si atom -5570.693368 kJ/mol
# Density = 2.006936 g / cm^3
# Si number density = 20.115141 Si / 1000 Ang^3
#
#
#
# Elastic Constant Matrix: (Units=GPa)
#
#
# Indices 1 2 3 4 5 6 
#
# 1 131.2846 38.5489 74.4271 0.0000 0.0000 0.0000
# 2 38.5489 101.2826 33.0455 0.0000 0.0000 0.0000
# 3 74.4271 33.0455 120.5729 0.0000 0.0000 0.0000
# 4 0.0000 0.0000 0.0000 25.6644 0.0000 0.0000
# 5 0.0000 0.0000 0.0000 0.0000 42.2343 0.0000
# 6 0.0000 0.0000 0.0000 0.0000 0.0000 44.0881
#
#
#
# Elastic Compliance Matrix: (Units=1/GPa)
#
#
# Indices 1 2 3 4 5 6 
#
# 1 0.012229 -0.002407 -0.006889 0.000000 0.000000 0.000000
# 2 -0.002407 0.011317 -0.001616 0.000000 0.000000 0.000000
# 3 -0.006889 -0.001616 0.012989 0.000000 0.000000 0.000000
# 4 0.000000 0.000000 0.000000 0.038964 0.000000 0.000000
# 5 0.000000 0.000000 0.000000 0.000000 0.023677 0.000000
# 6 0.000000 0.000000 0.000000 0.000000 0.000000 0.022682
#
#
# Mechanical properties :
#
#
# Convention : Reuss Voigt Hill
#
# Bulk Modulus (GPa) = 67.97521 71.68699 69.83110
# Shear Modulus (GPa) = 33.65038 36.20528 34.92783
#
# Velocity S-wave (km/s) = 4.09453 4.24713 4.17153
# Velocity P-wave (km/s) = 7.49800 7.73088 7.61533
#
# Compressibility (1/GPa) = 0.01471125
#
# Stress axis : x y z
#
# Youngs Moduli (GPa) = 81.77015 88.36549 76.98683
#
# Poissons Ratio (x) = 0.21268 0.53039
# Poissons Ratio (y) = 0.19681 0.12440
# Poissons Ratio (z) = 0.56334 0.14279
#
# Static dielectric constant tensor:
#      x y z
#    x 1.628770 0.000000 0.000000 
#    y 0.000000 4.813160 0.000000 
#    z 0.000000 0.000000 1.695180 
# 
# From -- ./inp_files/1941.got.cif
#   From: 2010.05.17/outbox.cif.g08.bks.cpg/sg56_1_cif.got.tgz:1941.got - 2010.06.03 13:42:01.
