data_PCOD9433908
_publ_section_title
;
Structure prediction by ZEFSAII (Michael W. Deem and Ramdas Pophale) SiO2 
 PCOD9433908
Probable space group: P C C N
;
_chemical_formula_sum "Si O2"
_cell_formula_units_Z 56
_cell_length_a 6.000000
_cell_length_b 21.000000
_cell_length_c 24.000000
_cell_angle_alpha 90.000000
_cell_angle_beta 90.000000
_cell_angle_gamma 90.000000
_cell_volume 3024.000000
_symmetry_space_group_name_H-M "P C C N"
_symmetry_group_IT_number 56
_symmetry_cell_setting 'orthorhombic'
loop_
_space_group_symop_operation_xyz
x,y,z
1/2-x,1/2-y,z
1/2+x,-y,1/2-z
-x,1/2+y,1/2-z
-x,-y,-z
1/2+x,1/2+y,-z
1/2-x,y,1/2+z
x,1/2-y,1/2+z
loop_
_atom_site_type_symbol
_atom_site_label
_atom_site_fract_x
_atom_site_fract_y
_atom_site_fract_z
Si Si1 0.806756 0.924742 0.546672
Si Si2 0.517498 0.661023 0.968752
Si Si3 0.866911 0.429543 0.056228
Si Si4 0.750000 0.250000 0.947858
Si Si5 0.610082 0.684607 0.762255
Si Si6 0.750000 0.250000 0.169308
Si Si7 0.364241 0.342813 0.628498
Si Si8 0.401961 0.314934 0.368506
O O1 0.619549 0.894222 0.507590
O O2 0.814849 0.877004 0.598816
O O3 0.022754 0.923098 0.505443
O O4 0.779367 0.998680 0.562190
O O5 0.314764 0.625584 0.939282
O O6 0.693926 0.678707 0.920695
O O7 0.425989 0.715814 0.010162
O O8 0.041410 0.408957 0.103782
O O9 0.620165 0.203382 0.905268
O O10 0.750000 0.750000 0.759000
O O11 0.374637 0.700015 0.790703
O O12 0.745741 0.647705 0.811239
O O13 0.576498 0.667162 0.697146
O O14 0.557811 0.210825 0.136742
O O15 0.250000 0.250000 0.371982
#
# Coordination Sequence:
#
# PCOD9433908 Si02
#       8
#     8   8   8   4   8   4   8   8
#     4  10  21  39  59  85 119 162 196 241 295 357
#     4  11  22  37  59  90 126 152 194 249 300 366
#     4  10  21  38  59  83 120 160 202 238 294 358
#     4  12  23  35  58  94 128 154 188 248 312 354
#     4   9  20  36  60  83 115 153 196 244 296 354
#     4  10  19  39  58  86 118 152 194 240 314 346
#     4  10  22  38  58  88 117 156 199 249 294 356
#     4  11  21  40  60  89 121 153 198 245 298 361
#
# _framework density 18.518519000000001
#
# number of rings (size 3 to 8) (size 9 to 14) (size 15 to 20)
#    0.000    1.714    2.857    1.714    0.000    4.571 
#    2.571    0.000    6.286    0.000    0.000    0.000 
#    0.000    0.000    0.000    0.000    0.000    0.000 
#
# Total GULP energy -312042.157401 kJ/mol
# GULP energy per Si atom -5572.181382 kJ/mol
# Density = 1.847637 g / cm^3
# Si number density = 18.518519 Si / 1000 Ang^3
#
#
#
# Elastic Constant Matrix: (Units=GPa)
#
#
# Indices 1 2 3 4 5 6 
#
# 1 60.5878 6.8096 42.5147 0.0000 0.0000 0.0000
# 2 6.8096 63.1197 49.5714 0.0000 0.0000 0.0000
# 3 42.5147 49.5714 164.9090 0.0000 0.0000 0.0000
# 4 0.0000 0.0000 0.0000 15.1544 0.0000 0.0000
# 5 0.0000 0.0000 0.0000 0.0000 22.3785 0.0000
# 6 0.0000 0.0000 0.0000 0.0000 0.0000 24.9121
#
#
#
# Elastic Compliance Matrix: (Units=1/GPa)
#
#
# Indices 1 2 3 4 5 6 
#
# 1 0.020455 0.002533 -0.006035 0.000000 0.000000 0.000000
# 2 0.002533 0.021052 -0.006981 0.000000 0.000000 0.000000
# 3 -0.006035 -0.006981 0.009718 0.000000 0.000000 0.000000
# 4 0.000000 0.000000 0.000000 0.065987 0.000000 0.000000
# 5 0.000000 0.000000 0.000000 0.000000 0.044686 0.000000
# 6 0.000000 0.000000 0.000000 0.000000 0.000000 0.040141
#
#
# Mechanical properties :
#
#
# Convention : Reuss Voigt Hill
#
# Bulk Modulus (GPa) = 33.04801 54.04531 43.54666
# Shear Modulus (GPa) = 21.45066 25.13705 23.29386
#
# Velocity S-wave (km/s) = 3.40713 3.68829 3.55049
# Velocity P-wave (km/s) = 5.77604 6.88373 6.35407
#
# Compressibility (1/GPa) = 0.03025901
#
# Stress axis : x y z
#
# Youngs Moduli (GPa) = 48.88797 47.50035 102.89849
#
# Poissons Ratio (x) = -0.12030 0.62097
# Poissons Ratio (y) = -0.12382 0.71836
# Poissons Ratio (z) = 0.29503 0.33161
#
# Static dielectric constant tensor:
#      x y z
#    x 1.742540 0.000000 0.000000 
#    y 0.000000 1.630800 0.000000 
#    z 0.000000 0.000000 1.639130 
# 
# From -- ./inp_files/20141.got.cif
#   From: 2010.05.17/outbox.ucp.g08.bks.cvg/sg56_11_cif.got.tgz:20141.got - 2010.06.11 16:37:52.
