data_PCOD9433939
_publ_section_title
;
Structure prediction by ZEFSAII (Michael W. Deem and Ramdas Pophale) SiO2 
 PCOD9433939
Probable space group: P C C N
;
_chemical_formula_sum "Si O2"
_cell_formula_units_Z 56
_cell_length_a 6.000000
_cell_length_b 30.000000
_cell_length_c 15.000000
_cell_angle_alpha 90.000000
_cell_angle_beta 90.000000
_cell_angle_gamma 90.000000
_cell_volume 2700.000000
_symmetry_space_group_name_H-M "P C C N"
_symmetry_group_IT_number 56
_symmetry_cell_setting 'orthorhombic'
loop_
_space_group_symop_operation_xyz
x,y,z
1/2-x,1/2-y,z
1/2+x,-y,1/2-z
-x,1/2+y,1/2-z
-x,-y,-z
1/2+x,1/2+y,-z
1/2-x,y,1/2+z
x,1/2-y,1/2+z
loop_
_atom_site_type_symbol
_atom_site_label
_atom_site_fract_x
_atom_site_fract_y
_atom_site_fract_z
Si Si1 0.516030 0.432494 0.881041
Si Si2 0.618714 0.074214 0.182867
Si Si3 0.186763 0.345312 0.406575
Si Si4 0.997400 0.369564 0.743677
Si Si5 0.521905 0.979699 0.097018
Si Si6 0.112789 0.796407 0.238205
Si Si7 0.871773 0.842550 0.395500
O O1 0.499963 0.419474 0.777359
O O2 0.490009 0.384840 0.930451
O O3 0.275200 0.457101 0.901007
O O4 0.770288 0.455007 0.890473
O O5 0.557106 0.023748 0.157703
O O6 0.524093 0.112106 0.115025
O O7 0.877669 0.085147 0.207674
O O8 0.367789 0.366705 0.337163
O O9 0.704219 0.335434 0.259863
O O10 0.057233 0.308145 0.344681
O O11 0.153071 0.353406 0.663181
O O12 0.305516 0.332614 0.501175
O O13 0.500000 0.000000 0.000000
O O14 0.250000 0.750000 0.230286
O O15 0.988778 0.803818 0.334444
#
# Coordination Sequence:
#
# PCOD9433939 Si02
#       7
#     8   8   8   8   8   8   8
#     4  12  24  43  66  99 144 193 247 304 370 444
#     4  11  23  41  64  96 139 194 241 303 368 437
#     4  11  23  42  71 106 139 192 247 303 378 452
#     4  10  21  43  69  96 145 184 241 292 386 441
#     4  12  28  41  64 103 143 193 255 312 367 436
#     4  10  23  46  71 103 142 186 234 306 379 459
#     4  10  23  41  70 103 140 189 241 302 373 457
#
# _framework density 20.740741
#
# number of rings (size 3 to 8) (size 9 to 14) (size 15 to 20)
#    0.000    1.143    4.286    3.000    4.000    4.571 
#    0.000    4.286    0.000    0.000    0.000    0.000 
#    0.000    0.000    0.000    0.000    0.000    0.000 
#
# Total GULP energy -311740.113522 kJ/mol
# GULP energy per Si atom -5566.787741 kJ/mol
# Density = 2.069353 g / cm^3
# Si number density = 20.740741 Si / 1000 Ang^3
#
#
#
# Elastic Constant Matrix: (Units=GPa)
#
#
# Indices 1 2 3 4 5 6 
#
# 1 146.3465 42.6306 51.4439 0.0000 0.0000 0.0000
# 2 42.6306 96.1647 29.0374 0.0000 0.0000 0.0000
# 3 51.4439 29.0374 142.8002 0.0000 0.0000 0.0000
# 4 0.0000 0.0000 0.0000 24.1339 0.0000 0.0000
# 5 0.0000 0.0000 0.0000 0.0000 38.9585 0.0000
# 6 0.0000 0.0000 0.0000 0.0000 0.0000 52.6740
#
#
#
# Elastic Compliance Matrix: (Units=1/GPa)
#
#
# Indices 1 2 3 4 5 6 
#
# 1 0.008595 -0.003063 -0.002473 0.000000 0.000000 0.000000
# 2 -0.003063 0.012171 -0.001371 0.000000 0.000000 0.000000
# 3 -0.002473 -0.001371 0.008173 0.000000 0.000000 0.000000
# 4 0.000000 0.000000 0.000000 0.041435 0.000000 0.000000
# 5 0.000000 0.000000 0.000000 0.000000 0.025668 0.000000
# 6 0.000000 0.000000 0.000000 0.000000 0.000000 0.018985
#
#
# Mechanical properties :
#
#
# Convention : Reuss Voigt Hill
#
# Bulk Modulus (GPa) = 66.12708 70.17057 68.14883
# Shear Modulus (GPa) = 37.34581 40.63327 38.98954
#
# Velocity S-wave (km/s) = 4.24795 4.43098 4.34043
# Velocity P-wave (km/s) = 7.48412 7.75137 7.61892
#
# Compressibility (1/GPa) = 0.01512240
#
# Stress axis : x y z
#
# Youngs Moduli (GPa) = 116.34805 82.16327 122.35885
#
# Poissons Ratio (x) = 0.25169 0.30264
# Poissons Ratio (y) = 0.35641 0.16779
# Poissons Ratio (z) = 0.28778 0.11267
#
# Static dielectric constant tensor:
#      x y z
#    x 1.817600 0.000000 0.000000 
#    y 0.000000 1.932150 0.000000 
#    z 0.000000 0.000000 1.832870 
# 
# From -- ./inp_files/9835.got.cif
#   From: 2010.05.17/outbox.ucp.g08.bks.cvg/sg56_5_cif.got.tgz:9835.got - 2010.06.11 16:37:52.
