data_PCOD9433868
_publ_section_title
;
Structure prediction by ZEFSAII (Michael W. Deem and Ramdas Pophale) SiO2 
 PCOD9433868
Probable space group: P C C N
;
_chemical_formula_sum "Si O2"
_cell_formula_units_Z 24
_cell_length_a 7.159727
_cell_length_b 13.484499
_cell_length_c 9.301641
_cell_angle_alpha 90.000000
_cell_angle_beta 90.000000
_cell_angle_gamma 90.000000
_cell_volume 898.030015
_symmetry_space_group_name_H-M "P C C N"
_symmetry_group_IT_number 56
_symmetry_cell_setting 'orthorhombic'
loop_
_space_group_symop_operation_xyz
x,y,z
1/2-x,1/2-y,z
1/2+x,-y,1/2-z
-x,1/2+y,1/2-z
-x,-y,-z
1/2+x,1/2+y,-z
1/2-x,y,1/2+z
x,1/2-y,1/2+z
loop_
_atom_site_type_symbol
_atom_site_label
_atom_site_fract_x
_atom_site_fract_y
_atom_site_fract_z
Si Si1 0.668838 0.148376 0.701811
Si Si2 0.548721 0.954695 0.821941
Si Si3 0.151287 0.149114 0.974377
O O1 0.750000 0.250000 0.765687
O O2 0.845264 0.086734 0.642734
O O3 0.975751 0.326085 0.576201
O O4 0.565657 0.073204 0.809826
O O5 0.585195 0.913641 0.661241
O O6 0.705433 0.911078 0.925417
O O7 0.250000 0.250000 0.924338
#
# Coordination Sequence:
#
# PCOD9433868 Si02
#       3
#     8   8   8
#     4  12  27  49  79 119 151 211 258 321 392 458
#     4  12  28  50  77 114 161 202 262 323 385 461
#     4  12  27  51  77 114 158 205 260 321 387 464
#
# _framework density 26.725162999999998
#
# number of rings (size 3 to 8) (size 9 to 14) (size 15 to 20)
#    0.000    0.000    6.667    2.000    0.000    5.333 
#    0.000    0.000    0.000    0.000    0.000    0.000 
#    0.000    0.000    0.000    0.000    0.000    0.000 
#
# Total GULP energy -135020.639289 kJ/mol
# GULP energy per Si atom -5625.859970 kJ/mol
# Density = 2.666433 g / cm^3
# Si number density = 26.725163 Si / 1000 Ang^3
#
#
#
# Elastic Constant Matrix: (Units=GPa)
#
#
# Indices 1 2 3 4 5 6 
#
# 1 146.0633 31.7455 2.1681 0.0000 0.0000 0.0000
# 2 31.7455 190.9984 -2.5388 0.0000 0.0000 0.0000
# 3 2.1681 -2.5388 51.4037 0.0000 0.0000 0.0000
# 4 0.0000 0.0000 0.0000 24.9307 0.0000 0.0000
# 5 0.0000 0.0000 0.0000 0.0000 16.3912 0.0000
# 6 0.0000 0.0000 0.0000 0.0000 0.0000 44.6883
#
#
#
# Elastic Compliance Matrix: (Units=1/GPa)
#
#
# Indices 1 2 3 4 5 6 
#
# 1 0.007110 -0.001186 -0.000358 0.000000 0.000000 0.000000
# 2 -0.001186 0.005437 0.000319 0.000000 0.000000 0.000000
# 3 -0.000358 0.000319 0.019485 0.000000 0.000000 0.000000
# 4 0.000000 0.000000 0.000000 0.040111 0.000000 0.000000
# 5 0.000000 0.000000 0.000000 0.000000 0.061008 0.000000
# 6 0.000000 0.000000 0.000000 0.000000 0.000000 0.022377
#
#
# Mechanical properties :
#
#
# Convention : Reuss Voigt Hill
#
# Bulk Modulus (GPa) = 33.80816 50.13501 41.97158
# Shear Modulus (GPa) = 29.79025 41.00809 35.39917
#
# Velocity S-wave (km/s) = 3.34232 3.92144 3.64340
# Velocity P-wave (km/s) = 5.25096 6.26927 5.78257
#
# Compressibility (1/GPa) = 0.02957866
#
# Stress axis : x y z
#
# Youngs Moduli (GPa) = 140.65640 183.92249 51.32234
#
# Poissons Ratio (x) = 0.21821 0.01840
# Poissons Ratio (y) = 0.16688 -0.01635
# Poissons Ratio (z) = 0.05042 -0.05859
#
# Static dielectric constant tensor:
#      x y z
#    x 2.066740 0.000000 0.000000 
#    y 0.000000 2.072960 0.000000 
#    z 0.000000 0.000000 1.989000 
# 
# From -- ./inp_files/1798.got.cif
#   From: 2010.05.17/outbox.cif.g08.bks.cpg/sg56_1_cif.got.tgz:1798.got - 2010.06.03 13:42:01.
