data_PCOD9433155
_publ_section_title
;
Structure prediction by ZEFSAII (Michael W. Deem and Ramdas Pophale) SiO2 
 PCOD9433155
Probable space group: P C C N
;
_chemical_formula_sum "Si O2"
_cell_formula_units_Z 40
_cell_length_a 10.052113
_cell_length_b 18.007988
_cell_length_c 9.629247
_cell_angle_alpha 90.000000
_cell_angle_beta 90.000000
_cell_angle_gamma 90.000000
_cell_volume 1743.070214
_symmetry_space_group_name_H-M "P C C N"
_symmetry_group_IT_number 56
_symmetry_cell_setting 'orthorhombic'
loop_
_space_group_symop_operation_xyz
x,y,z
1/2-x,1/2-y,z
1/2+x,-y,1/2-z
-x,1/2+y,1/2-z
-x,-y,-z
1/2+x,1/2+y,-z
1/2-x,y,1/2+z
x,1/2-y,1/2+z
loop_
_atom_site_type_symbol
_atom_site_label
_atom_site_fract_x
_atom_site_fract_y
_atom_site_fract_z
Si Si1 0.981723 0.681658 0.830272
Si Si2 0.762859 0.334832 0.342457
Si Si3 0.732176 0.939416 0.761795
Si Si4 0.348567 0.973323 0.489071
Si Si5 0.961145 0.830159 0.659736
O O1 0.895658 0.613307 0.772510
O O2 0.937884 0.756211 0.750335
O O3 0.135144 0.669219 0.786633
O O4 0.957933 0.686704 0.994923
O O5 0.750000 0.250000 0.396516
O O6 0.826080 0.390931 0.453499
O O7 0.888509 0.143656 0.309901
O O8 0.767589 0.971652 0.910505
O O9 0.705709 0.008511 0.661999
O O10 0.853944 0.891021 0.703051
O O11 0.500000 0.000000 0.500000
#
# Coordination Sequence:
#
# PCOD9433155 Si02
#       5
#     8   8   8   8   8
#     4  11  25  48  71 111 149 200 250 309 384 467
#     4  10  26  47  73 105 151 194 251 306 384 457
#     4  12  27  47  77 110 147 197 254 318 379 461
#     4  12  28  48  78 110 154 199 256 319 391 457
#     4  11  27  45  76 109 153 196 254 312 381 458
#
# _framework density 22.948013
#
# number of rings (size 3 to 8) (size 9 to 14) (size 15 to 20)
#    0.000    0.800    4.000    0.600    8.400    9.600 
#    0.000    0.000    0.000    0.000    0.000    0.000 
#    0.000    0.000    0.000    0.000    0.000    0.000 
#
# Total GULP energy -224185.143806 kJ/mol
# GULP energy per Si atom -5604.628595 kJ/mol
# Density = 2.289578 g / cm^3
# Si number density = 22.948013 Si / 1000 Ang^3
#
#
#
# Elastic Constant Matrix: (Units=GPa)
#
#
# Indices 1 2 3 4 5 6 
#
# 1 92.0311 42.9137 14.8251 0.0000 0.0000 0.0000
# 2 42.9137 145.7256 56.5198 0.0000 0.0000 0.0000
# 3 14.8251 56.5198 102.8324 0.0000 0.0000 0.0000
# 4 0.0000 0.0000 0.0000 46.9098 0.0000 0.0000
# 5 0.0000 0.0000 0.0000 0.0000 35.5104 0.0000
# 6 0.0000 0.0000 0.0000 0.0000 0.0000 40.9465
#
#
#
# Elastic Compliance Matrix: (Units=1/GPa)
#
#
# Indices 1 2 3 4 5 6 
#
# 1 0.012602 -0.003821 0.000283 0.000000 0.000000 0.000000
# 2 -0.003821 0.009880 -0.004879 0.000000 0.000000 0.000000
# 3 0.000283 -0.004879 0.012366 0.000000 0.000000 0.000000
# 4 0.000000 0.000000 0.000000 0.021318 0.000000 0.000000
# 5 0.000000 0.000000 0.000000 0.000000 0.028161 0.000000
# 6 0.000000 0.000000 0.000000 0.000000 0.000000 0.024422
#
#
# Mechanical properties :
#
#
# Convention : Reuss Voigt Hill
#
# Bulk Modulus (GPa) = 55.51450 63.23405 59.37428
# Shear Modulus (GPa) = 37.99785 39.76204 38.87995
#
# Velocity S-wave (km/s) = 4.07360 4.16709 4.12061
# Velocity P-wave (km/s) = 6.80952 7.12517 6.96913
#
# Compressibility (1/GPa) = 0.01801331
#
# Stress axis : x y z
#
# Youngs Moduli (GPa) = 79.35289 101.21548 80.86948
#
# Poissons Ratio (x) = 0.38674 -0.02291
# Poissons Ratio (y) = 0.30320 0.39460
# Poissons Ratio (z) = -0.02248 0.49388
#
# Static dielectric constant tensor:
#      x y z
#    x 1.847890 0.000000 0.000000 
#    y 0.000000 1.815450 0.000000 
#    z 0.000000 0.000000 1.805360 
# 
# From -- ./inp_files/2568.got.cif
#   From: 2010.05.17/outbox.cif.g08.bks.cpg/sg56_2_cif.got.tgz:2568.got - 2010.06.03 13:42:01.
