data_PCOD9433773
_publ_section_title
;
Structure prediction by ZEFSAII (Michael W. Deem and Ramdas Pophale) SiO2 
 PCOD9433773
Probable space group: P C C N
;
_chemical_formula_sum "Si O2"
_cell_formula_units_Z 32
_cell_length_a 5.178133
_cell_length_b 17.313681
_cell_length_c 13.780464
_cell_angle_alpha 90.000000
_cell_angle_beta 90.000000
_cell_angle_gamma 90.000000
_cell_volume 1235.453640
_symmetry_space_group_name_H-M "P C C N"
_symmetry_group_IT_number 56
_symmetry_cell_setting 'orthorhombic'
loop_
_space_group_symop_operation_xyz
x,y,z
1/2-x,1/2-y,z
1/2+x,-y,1/2-z
-x,1/2+y,1/2-z
-x,-y,-z
1/2+x,1/2+y,-z
1/2-x,y,1/2+z
x,1/2-y,1/2+z
loop_
_atom_site_type_symbol
_atom_site_label
_atom_site_fract_x
_atom_site_fract_y
_atom_site_fract_z
Si Si1 0.823165 0.628884 0.795228
Si Si2 0.466452 0.342984 0.386020
Si Si3 0.750279 0.486744 0.433703
Si Si4 0.750000 0.250000 0.735510
Si Si5 0.250000 0.250000 0.063754
O O1 0.748575 0.616718 0.682403
O O2 0.097907 0.674399 0.809147
O O3 0.783202 0.547190 0.846650
O O4 0.636620 0.686603 0.860826
O O5 0.706798 0.399880 0.398013
O O6 0.535907 0.275101 0.314058
O O7 0.398114 0.305622 0.488609
O O8 0.500000 0.500000 0.500000
O O9 0.000000 0.500000 0.500000
#
# Coordination Sequence:
#
# PCOD9433773 Si02
#       5
#     8   8   8   4   4
#     4  12  28  51  80 124 168 225 289 359 442 516
#     4  12  28  49  80 116 167 219 284 352 430 518
#     4  12  32  53  83 121 169 230 288 359 437 524
#     4  12  26  48  80 120 158 228 276 356 434 508
#     4  12  22  52  76 114 168 210 292 344 432 512
#
# _framework density 25.901415
#
# number of rings (size 3 to 8) (size 9 to 14) (size 15 to 20)
#    0.000    0.000    7.500    0.000   14.000    1.000 
#    0.000    0.000    0.000    0.000    0.000    0.000 
#    0.000    0.000    0.000    0.000    0.000    0.000 
#
# Total GULP energy -178473.909413 kJ/mol
# GULP energy per Si atom -5577.309669 kJ/mol
# Density = 2.584246 g / cm^3
# Si number density = 25.901415 Si / 1000 Ang^3
#
#
#
# Elastic Constant Matrix: (Units=GPa)
#
#
# Indices 1 2 3 4 5 6 
#
# 1 156.1183 20.0553 52.1942 0.0000 0.0000 0.0000
# 2 20.0553 112.7960 37.0933 0.0000 0.0000 0.0000
# 3 52.1942 37.0933 190.8861 0.0000 0.0000 0.0000
# 4 0.0000 0.0000 0.0000 44.7963 0.0000 0.0000
# 5 0.0000 0.0000 0.0000 0.0000 21.3288 0.0000
# 6 0.0000 0.0000 0.0000 0.0000 0.0000 35.9815
#
#
#
# Elastic Compliance Matrix: (Units=1/GPa)
#
#
# Indices 1 2 3 4 5 6 
#
# 1 0.007096 -0.000666 -0.001811 0.000000 0.000000 0.000000
# 2 -0.000666 0.009533 -0.001670 0.000000 0.000000 0.000000
# 3 -0.001811 -0.001670 0.006058 0.000000 0.000000 0.000000
# 4 0.000000 0.000000 0.000000 0.022323 0.000000 0.000000
# 5 0.000000 0.000000 0.000000 0.000000 0.046885 0.000000
# 6 0.000000 0.000000 0.000000 0.000000 0.000000 0.027792
#
#
# Mechanical properties :
#
#
# Convention : Reuss Voigt Hill
#
# Bulk Modulus (GPa) = 69.47729 75.38735 72.43232
# Shear Modulus (GPa) = 37.65594 43.78517 40.72056
#
# Velocity S-wave (km/s) = 3.81703 4.11597 3.96932
# Velocity P-wave (km/s) = 6.80502 7.19423 7.00233
#
# Compressibility (1/GPa) = 0.01439319
#
# Stress axis : x y z
#
# Youngs Moduli (GPa) = 140.91616 104.89525 165.05798
#
# Poissons Ratio (x) = 0.06988 0.29891
# Poissons Ratio (y) = 0.09388 0.27571
# Poissons Ratio (z) = 0.25519 0.17521
#
# Static dielectric constant tensor:
#      x y z
#    x 2.471050 0.000000 0.000000 
#    y 0.000000 2.625640 0.000000 
#    z 0.000000 0.000000 1.194720 
# 
# From -- ./inp_files/5456.got.cif
#   From: 2010.05.17/outbox.cif.g08.bks.cpg/sg56_3_cif.got.tgz:5456.got - 2010.06.03 13:42:01.
