data_PCOD9433069
_publ_section_title
;
Structure prediction by ZEFSAII (Michael W. Deem and Ramdas Pophale) SiO2 
 PCOD9433069
Probable space group: P C C N
;
_chemical_formula_sum "Si O2"
_cell_formula_units_Z 60
_cell_length_a 6.105386
_cell_length_b 17.290869
_cell_length_c 28.419643
_cell_angle_alpha 90.000000
_cell_angle_beta 90.000000
_cell_angle_gamma 90.000000
_cell_volume 3000.188659
_symmetry_space_group_name_H-M "P C C N"
_symmetry_group_IT_number 56
_symmetry_cell_setting 'orthorhombic'
loop_
_space_group_symop_operation_xyz
x,y,z
1/2-x,1/2-y,z
1/2+x,-y,1/2-z
-x,1/2+y,1/2-z
-x,-y,-z
1/2+x,1/2+y,-z
1/2-x,y,1/2+z
x,1/2-y,1/2+z
loop_
_atom_site_type_symbol
_atom_site_label
_atom_site_fract_x
_atom_site_fract_y
_atom_site_fract_z
Si Si1 0.360597 0.666563 0.290538
Si Si2 0.000090 0.218622 0.448599
Si Si3 0.250000 0.250000 0.747776
Si Si4 0.582552 0.433559 0.395282
Si Si5 0.863389 0.170617 0.304748
Si Si6 0.404651 0.463457 0.047982
Si Si7 0.708199 0.085617 0.114839
Si Si8 0.900078 0.817147 0.447665
O O1 0.250000 0.750000 0.299174
O O2 0.614430 0.689556 0.284177
O O3 0.279227 0.640462 0.239108
O O4 0.282743 0.609484 0.330865
O O5 0.250000 0.250000 0.435245
O O6 0.000138 0.218615 0.505051
O O7 0.750000 0.250000 0.434661
O O8 0.008911 0.132158 0.429171
O O9 0.411286 0.200736 0.781312
O O10 0.621852 0.391175 0.345795
O O11 0.791519 0.468972 0.421783
O O12 0.421270 0.505202 0.388733
O O13 0.750000 0.250000 0.322475
O O14 0.578843 0.425712 0.083308
O O15 0.235070 0.394100 0.037368
O O16 0.500000 0.500000 0.000000
O O17 0.572508 0.153444 0.089807
O O18 0.750000 0.750000 0.426542
#
# Coordination Sequence:
#
# PCOD9433069 Si02
#       8
#     8   8   4   8   8   8   8   8
#     4   9  21  39  64  95 124 168 221 282 341 414
#     4  11  26  43  71 105 137 180 234 294 346 415
#     4   8  18  38  68  86 128 160 212 288 352 402
#     4  11  25  42  63  98 133 177 229 276 351 422
#     4   9  20  41  64  95 124 168 218 280 342 413
#     4  11  25  44  66  91 142 179 219 284 348 412
#     4  11  25  40  65  96 129 182 219 282 352 411
#     4  10  25  40  64  99 128 174 232 278 336 407
#
# _framework density 19.998743000000001
#
# number of rings (size 3 to 8) (size 9 to 14) (size 15 to 20)
#    0.000    2.133    0.000    2.000   13.067    7.467 
#    4.800    0.000    0.000    0.000    0.000    0.000 
#    0.000    0.000    0.000    0.000    0.000    0.000 
#
# Total GULP energy -334492.441049 kJ/mol
# GULP energy per Si atom -5574.874017 kJ/mol
# Density = 1.995323 g / cm^3
# Si number density = 19.998743 Si / 1000 Ang^3
#
#
#
# Elastic Constant Matrix: (Units=GPa)
#
#
# Indices 1 2 3 4 5 6 
#
# 1 89.7153 24.7139 31.6469 0.0000 0.0000 0.0000
# 2 24.7139 60.8443 10.6410 0.0000 0.0000 0.0000
# 3 31.6469 10.6410 62.9014 0.0000 0.0000 0.0000
# 4 0.0000 0.0000 0.0000 54.3897 0.0000 0.0000
# 5 0.0000 0.0000 0.0000 0.0000 5.7162 0.0000
# 6 0.0000 0.0000 0.0000 0.0000 0.0000 16.1267
#
#
#
# Elastic Compliance Matrix: (Units=1/GPa)
#
#
# Indices 1 2 3 4 5 6 
#
# 1 0.014827 -0.004862 -0.006637 0.000000 0.000000 0.000000
# 2 -0.004862 0.018531 -0.000689 0.000000 0.000000 0.000000
# 3 -0.006637 -0.000689 0.019354 0.000000 0.000000 0.000000
# 4 0.000000 0.000000 0.000000 0.018386 0.000000 0.000000
# 5 0.000000 0.000000 0.000000 0.000000 0.174942 0.000000
# 6 0.000000 0.000000 0.000000 0.000000 0.000000 0.062009
#
#
# Mechanical properties :
#
#
# Convention : Reuss Voigt Hill
#
# Bulk Modulus (GPa) = 35.29107 38.60719 36.94913
# Shear Modulus (GPa) = 14.62551 25.01047 19.81799
#
# Velocity S-wave (km/s) = 2.70723 3.54022 3.15137
# Velocity P-wave (km/s) = 5.23995 6.00480 5.63537
#
# Compressibility (1/GPa) = 0.02833578
#
# Stress axis : x y z
#
# Youngs Moduli (GPa) = 67.44506 53.96486 51.66956
#
# Poissons Ratio (x) = 0.26236 0.34294
# Poissons Ratio (y) = 0.32789 0.03559
# Poissons Ratio (z) = 0.44765 0.03717
#
# Static dielectric constant tensor:
#      x y z
#    x 1.828510 0.000000 0.000000 
#    y 0.000000 1.667840 0.000000 
#    z 0.000000 0.000000 1.706910 
# 
# From -- ./inp_files/21788.got.cif
#   From: 2010.05.17/outbox.cif.g08.bks.cpg/sg56_11_cif.got.tgz:21788.got - 2010.06.03 13:42:01.
