data_PCOD9433584
_publ_section_title
;
Structure prediction by ZEFSAII (Michael W. Deem and Ramdas Pophale) SiO2 
 PCOD9433584
Probable space group: P C C N
;
_chemical_formula_sum "Si O2"
_cell_formula_units_Z 56
_cell_length_a 12.403311
_cell_length_b 14.977805
_cell_length_c 13.766704
_cell_angle_alpha 90.000000
_cell_angle_beta 90.000000
_cell_angle_gamma 90.000000
_cell_volume 2557.500811
_symmetry_space_group_name_H-M "P C C N"
_symmetry_group_IT_number 56
_symmetry_cell_setting 'orthorhombic'
loop_
_space_group_symop_operation_xyz
x,y,z
1/2-x,1/2-y,z
1/2+x,-y,1/2-z
-x,1/2+y,1/2-z
-x,-y,-z
1/2+x,1/2+y,-z
1/2-x,y,1/2+z
x,1/2-y,1/2+z
loop_
_atom_site_type_symbol
_atom_site_label
_atom_site_fract_x
_atom_site_fract_y
_atom_site_fract_z
Si Si1 0.940472 0.015593 0.207245
Si Si2 0.228535 0.987990 0.398964
Si Si3 0.414563 0.853070 0.780953
Si Si4 0.566608 0.700955 0.803814
Si Si5 0.750000 0.750000 0.939827
Si Si6 0.396239 0.153667 0.902524
Si Si7 0.250000 0.750000 0.144250
Si Si8 0.868607 0.077680 0.413558
O O1 0.854589 0.006939 0.120972
O O2 0.873548 0.033707 0.307008
O O3 0.004922 0.107223 0.190681
O O4 0.016260 0.930406 0.227145
O O5 0.171024 0.903342 0.349500
O O6 0.187606 0.985981 0.509324
O O7 0.175701 0.076085 0.354651
O O8 0.493744 0.785028 0.836685
O O9 0.344711 0.791835 0.709256
O O10 0.673303 0.695090 0.867650
O O11 0.584144 0.719139 0.688430
O O12 0.670256 0.803267 0.011006
O O13 0.508137 0.107101 0.934605
O O14 0.300115 0.831702 0.086143
#
# Coordination Sequence:
#
# PCOD9433584 Si02
#       8
#     8   8   8   8   4   8   4   8
#     4  11  26  45  71 107 144 182 241 294 353 423
#     4  12  25  42  76 100 140 190 237 290 361 418
#     4  12  23  45  75 100 142 192 233 296 350 423
#     4  11  25  48  70 101 145 185 242 289 356 428
#     4  12  28  40  72  98 144 192 226 302 360 416
#     4  11  25  46  65 106 138 184 243 288 353 439
#     4  12  24  46  76 102 142 188 236 298 354 418
#     4  11  24  45  69 104 139 184 239 291 350 431
#
# _framework density 21.896376
#
# number of rings (size 3 to 8) (size 9 to 14) (size 15 to 20)
#    0.000    0.571    7.143    1.714    6.000    4.000 
#    0.000    1.429    0.000    0.000    0.000    0.000 
#    0.000    0.000    0.000    0.000    0.000    0.000 
#
# Total GULP energy -313105.297541 kJ/mol
# GULP energy per Si atom -5591.166028 kJ/mol
# Density = 2.184654 g / cm^3
# Si number density = 21.896376 Si / 1000 Ang^3
#
#
#
# Elastic Constant Matrix: (Units=GPa)
#
#
# Indices 1 2 3 4 5 6 
#
# 1 100.6748 7.5950 37.6241 0.0000 0.0000 0.0000
# 2 7.5950 57.8817 -0.5329 0.0000 0.0000 0.0000
# 3 37.6241 -0.5329 59.3781 0.0000 0.0000 0.0000
# 4 0.0000 0.0000 0.0000 29.0668 0.0000 0.0000
# 5 0.0000 0.0000 0.0000 0.0000 22.1694 0.0000
# 6 0.0000 0.0000 0.0000 0.0000 0.0000 35.7230
#
#
#
# Elastic Compliance Matrix: (Units=1/GPa)
#
#
# Indices 1 2 3 4 5 6 
#
# 1 0.013202 -0.001809 -0.008381 0.000000 0.000000 0.000000
# 2 -0.001809 0.017526 0.001304 0.000000 0.000000 0.000000
# 3 -0.008381 0.001304 0.022164 0.000000 0.000000 0.000000
# 4 0.000000 0.000000 0.000000 0.034404 0.000000 0.000000
# 5 0.000000 0.000000 0.000000 0.000000 0.045107 0.000000
# 6 0.000000 0.000000 0.000000 0.000000 0.000000 0.027993
#
#
# Mechanical properties :
#
#
# Convention : Reuss Voigt Hill
#
# Bulk Modulus (GPa) = 28.47582 34.14521 31.31052
# Shear Modulus (GPa) = 26.33309 28.94173 27.63741
#
# Velocity S-wave (km/s) = 3.47165 3.63954 3.55659
# Velocity P-wave (km/s) = 5.39470 5.76971 5.58536
#
# Compressibility (1/GPa) = 0.03511752
#
# Stress axis : x y z
#
# Youngs Moduli (GPa) = 75.74754 57.05795 45.11895
#
# Poissons Ratio (x) = 0.10324 0.37816
# Poissons Ratio (y) = 0.13706 -0.05883
# Poissons Ratio (z) = 0.63487 -0.07439
#
# Static dielectric constant tensor:
#      x y z
#    x 1.861370 0.000000 0.000000 
#    y 0.000000 3.027270 0.000000 
#    z 0.000000 0.000000 1.822900 
# 
# From -- ./inp_files/11712.got.cif
#   From: 2010.05.17/outbox.cif.g08.bks.cpg/sg56_6_cif.got.tgz:11712.got - 2010.06.03 13:42:01.
