data_PCOD9433195
_publ_section_title
;
Structure prediction by ZEFSAII (Michael W. Deem and Ramdas Pophale) SiO2 
 PCOD9433195
Probable space group: P C C N
;
_chemical_formula_sum "Si O2"
_cell_formula_units_Z 48
_cell_length_a 7.830348
_cell_length_b 18.680346
_cell_length_c 13.675964
_cell_angle_alpha 90.000000
_cell_angle_beta 90.000000
_cell_angle_gamma 90.000000
_cell_volume 2000.432624
_symmetry_space_group_name_H-M "P C C N"
_symmetry_group_IT_number 56
_symmetry_cell_setting 'orthorhombic'
loop_
_space_group_symop_operation_xyz
x,y,z
1/2-x,1/2-y,z
1/2+x,-y,1/2-z
-x,1/2+y,1/2-z
-x,-y,-z
1/2+x,1/2+y,-z
1/2-x,y,1/2+z
x,1/2-y,1/2+z
loop_
_atom_site_type_symbol
_atom_site_label
_atom_site_fract_x
_atom_site_fract_y
_atom_site_fract_z
Si Si1 0.932526 0.291482 0.829820
Si Si2 0.748462 0.914116 0.351970
Si Si3 0.261639 0.920907 0.650938
Si Si4 0.038245 0.855927 0.980662
Si Si5 0.595523 0.848915 0.689980
Si Si6 0.069778 0.210543 0.544887
O O1 0.750000 0.250000 0.847544
O O2 0.869522 0.368272 0.795777
O O3 0.043184 0.230868 0.775559
O O4 0.026080 0.305098 0.932391
O O5 0.569342 0.904502 0.407842
O O6 0.743081 0.879908 0.243912
O O7 0.897314 0.864617 0.400813
O O8 0.788706 0.997443 0.350504
O O9 0.304251 0.891660 0.539414
O O10 0.941339 0.094531 0.794810
O O11 0.907636 0.844320 0.072941
O O12 0.061805 0.777086 0.934234
O O13 0.250000 0.250000 0.562093
#
# Coordination Sequence:
#
# PCOD9433195 Si02
#       6
#     8   8   8   8   8   8
#     4   9  16  38  63  79 118 180 212 244 316 399
#     4  11  19  35  60  95 129 149 217 279 321 377
#     4   9  19  36  65  86 121 175 215 260 325 388
#     4   8  18  38  61  83 120 173 206 252 330 390
#     4   8  19  36  59  85 123 168 212 260 322 396
#     4   9  18  33  56  90 119 154 211 257 312 380
#
# _framework density 23.994810000000001
#
# number of rings (size 3 to 8) (size 9 to 14) (size 15 to 20)
#    1.000    2.000    1.667    0.500    0.000    0.667 
#    0.000   34.167    0.000    0.000    0.000    0.000 
#    0.000    0.000    0.000    0.000    0.000    0.000 
#
# Total GULP energy -267238.743578 kJ/mol
# GULP energy per Si atom -5567.473825 kJ/mol
# Density = 2.394020 g / cm^3
# Si number density = 23.994810 Si / 1000 Ang^3
#
#
#
# Elastic Constant Matrix: (Units=GPa)
#
#
# Indices 1 2 3 4 5 6 
#
# 1 92.8366 42.1604 20.4825 0.0000 0.0000 0.0000
# 2 42.1604 221.1707 37.6210 0.0000 0.0000 0.0000
# 3 20.4825 37.6210 62.6245 0.0000 0.0000 0.0000
# 4 0.0000 0.0000 0.0000 26.4007 0.0000 0.0000
# 5 0.0000 0.0000 0.0000 0.0000 22.7709 0.0000
# 6 0.0000 0.0000 0.0000 0.0000 0.0000 23.9440
#
#
#
# Elastic Compliance Matrix: (Units=1/GPa)
#
#
# Indices 1 2 3 4 5 6 
#
# 1 0.012248 -0.001841 -0.002900 0.000000 0.000000 0.000000
# 2 -0.001841 0.005313 -0.002589 0.000000 0.000000 0.000000
# 3 -0.002900 -0.002589 0.018472 0.000000 0.000000 0.000000
# 4 0.000000 0.000000 0.000000 0.037878 0.000000 0.000000
# 5 0.000000 0.000000 0.000000 0.000000 0.043916 0.000000
# 6 0.000000 0.000000 0.000000 0.000000 0.000000 0.041764
#
#
# Mechanical properties :
#
#
# Convention : Reuss Voigt Hill
#
# Bulk Modulus (GPa) = 46.79072 64.12886 55.45979
# Shear Modulus (GPa) = 27.56718 33.04762 30.30740
#
# Velocity S-wave (km/s) = 3.39319 3.71520 3.55784
# Velocity P-wave (km/s) = 5.90714 6.72219 6.32780
#
# Compressibility (1/GPa) = 0.02137176
#
# Stress axis : x y z
#
# Youngs Moduli (GPa) = 81.64848 188.22216 54.13579
#
# Poissons Ratio (x) = 0.34661 0.15697
# Poissons Ratio (y) = 0.15035 0.14018
# Poissons Ratio (z) = 0.23675 0.48738
#
# Static dielectric constant tensor:
#      x y z
#    x 2.016790 0.000000 0.000000 
#    y 0.000000 1.924250 0.000000 
#    z 0.000000 0.000000 1.970950 
# 
# From -- ./inp_files/10622.got.cif
#   From: 2010.05.17/outbox.cif.g08.bks.cpg/sg56_6_cif.got.tgz:10622.got - 2010.06.03 13:42:01.
