data_PCOD9433549
_publ_section_title
;
Structure prediction by ZEFSAII (Michael W. Deem and Ramdas Pophale) SiO2 
 PCOD9433549
Probable space group: P C C N
;
_chemical_formula_sum "Si O2"
_cell_formula_units_Z 40
_cell_length_a 5.148106
_cell_length_b 24.309637
_cell_length_c 13.436741
_cell_angle_alpha 90.000000
_cell_angle_beta 90.000000
_cell_angle_gamma 90.000000
_cell_volume 1681.589165
_symmetry_space_group_name_H-M "P C C N"
_symmetry_group_IT_number 56
_symmetry_cell_setting 'orthorhombic'
loop_
_space_group_symop_operation_xyz
x,y,z
1/2-x,1/2-y,z
1/2+x,-y,1/2-z
-x,1/2+y,1/2-z
-x,-y,-z
1/2+x,1/2+y,-z
1/2-x,y,1/2+z
x,1/2-y,1/2+z
loop_
_atom_site_type_symbol
_atom_site_label
_atom_site_fract_x
_atom_site_fract_y
_atom_site_fract_z
Si Si1 0.559517 0.359752 0.888888
Si Si2 0.750000 0.250000 0.977864
Si Si3 0.202599 0.371830 0.190696
Si Si4 0.041882 0.029782 0.288526
Si Si5 0.559414 0.911638 0.023410
Si Si6 0.750000 0.750000 0.885317
O O1 0.667570 0.299960 0.909409
O O2 0.521786 0.370087 0.773177
O O3 0.274305 0.368281 0.935495
O O4 0.764724 0.397850 0.946201
O O5 0.504199 0.238882 0.048274
O O6 0.422490 0.409758 0.240544
O O7 0.287494 0.308571 0.171011
O O8 0.103122 0.404458 0.093388
O O9 0.111216 0.035345 0.406201
O O10 0.260531 0.993509 0.234787
#
# Coordination Sequence:
#
# PCOD9433549 Si02
#       6
#     8   4   8   8   8   4
#     4  11  24  42  69 103 147 188 237 297 363 437
#     4  12  22  44  68 104 152 192 236 310 350 448
#     4  11  26  47  77 107 150 198 245 304 384 445
#     4  11  26  47  73 109 147 198 258 310 368 439
#     4  11  24  46  72 105 144 186 244 309 360 438
#     4  12  26  44  74 112 144 196 250 292 382 458
#
# _framework density 23.787023000000001
#
# number of rings (size 3 to 8) (size 9 to 14) (size 15 to 20)
#    0.000    0.800    4.000    2.400    0.000   16.000 
#    0.000    0.000    0.000    0.000    0.000    0.000 
#    0.000    0.000    0.000    0.000    0.000    0.000 
#
# Total GULP energy -223714.882827 kJ/mol
# GULP energy per Si atom -5592.872071 kJ/mol
# Density = 2.373288 g / cm^3
# Si number density = 23.787023 Si / 1000 Ang^3
#
#
#
# Elastic Constant Matrix: (Units=GPa)
#
#
# Indices 1 2 3 4 5 6 
#
# 1 84.1185 19.7400 19.1464 0.0000 0.0000 0.0000
# 2 19.7400 98.8074 14.0668 0.0000 0.0000 0.0000
# 3 19.1464 14.0668 150.9448 0.0000 0.0000 0.0000
# 4 0.0000 0.0000 0.0000 9.9660 0.0000 0.0000
# 5 0.0000 0.0000 0.0000 0.0000 25.7253 0.0000
# 6 0.0000 0.0000 0.0000 0.0000 0.0000 40.0768
#
#
#
# Elastic Compliance Matrix: (Units=1/GPa)
#
#
# Indices 1 2 3 4 5 6 
#
# 1 0.012758 -0.002350 -0.001399 0.000000 0.000000 0.000000
# 2 -0.002350 0.010689 -0.000698 0.000000 0.000000 0.000000
# 3 -0.001399 -0.000698 0.006867 0.000000 0.000000 0.000000
# 4 0.000000 0.000000 0.000000 0.100342 0.000000 0.000000
# 5 0.000000 0.000000 0.000000 0.000000 0.038872 0.000000
# 6 0.000000 0.000000 0.000000 0.000000 0.000000 0.024952
#
#
# Mechanical properties :
#
#
# Convention : Reuss Voigt Hill
#
# Bulk Modulus (GPa) = 46.68359 48.86413 47.77386
# Shear Modulus (GPa) = 23.75126 33.88145 28.81636
#
# Velocity S-wave (km/s) = 3.16333 3.77817 3.48434
# Velocity P-wave (km/s) = 5.74547 6.29442 6.02620
#
# Compressibility (1/GPa) = 0.02142080
#
# Stress axis : x y z
#
# Youngs Moduli (GPa) = 78.38305 93.54982 145.61353
#
# Poissons Ratio (x) = 0.21980 0.20376
# Poissons Ratio (y) = 0.18417 0.10166
# Poissons Ratio (z) = 0.10968 0.06531
#
# Static dielectric constant tensor:
#      x y z
#    x 1.849820 0.000000 0.000000 
#    y 0.000000 2.004130 0.000000 
#    z 0.000000 0.000000 1.926580 
# 
# From -- ./inp_files/5650.got.cif
#   From: 2010.05.17/outbox.cif.g08.bks.cpg/sg56_3_cif.got.tgz:5650.got - 2010.06.03 13:42:01.
