data_PCOD9433026
_publ_section_title
;
Structure prediction by ZEFSAII (Michael W. Deem and Ramdas Pophale) SiO2 
 PCOD9433026
Probable space group: P C C N
;
_chemical_formula_sum "Si O2"
_cell_formula_units_Z 40
_cell_length_a 23.635956
_cell_length_b 7.458248
_cell_length_c 9.397460
_cell_angle_alpha 90.000000
_cell_angle_beta 90.000000
_cell_angle_gamma 90.000000
_cell_volume 1656.610764
_symmetry_space_group_name_H-M "P C C N"
_symmetry_group_IT_number 56
_symmetry_cell_setting 'orthorhombic'
loop_
_space_group_symop_operation_xyz
x,y,z
1/2-x,1/2-y,z
1/2+x,-y,1/2-z
-x,1/2+y,1/2-z
-x,-y,-z
1/2+x,1/2+y,-z
1/2-x,y,1/2+z
x,1/2-y,1/2+z
loop_
_atom_site_type_symbol
_atom_site_label
_atom_site_fract_x
_atom_site_fract_y
_atom_site_fract_z
Si Si1 0.942584 0.056021 0.324669
Si Si2 0.138506 0.256665 0.283759
Si Si3 0.294682 0.965958 0.433403
Si Si4 0.250000 0.750000 0.168500
Si Si5 0.934873 0.413249 0.156234
Si Si6 0.750000 0.750000 0.399213
O O1 0.922709 0.223891 0.230284
O O2 0.942803 0.115633 0.488344
O O3 0.903955 0.880952 0.305839
O O4 0.006112 0.994532 0.284757
O O5 0.155628 0.390524 0.413431
O O6 0.196000 0.223325 0.198355
O O7 0.111343 0.067812 0.322190
O O8 0.278461 0.886546 0.280765
O O9 0.298259 0.820167 0.558688
O O10 0.242830 0.081447 0.497074
#
# Coordination Sequence:
#
# PCOD9433026 Si02
#       6
#     8   8   8   4   8   4
#     4  11  26  50  81 113 153 202 271 333 402 469
#     4  12  26  49  79 115 157 212 260 327 400 476
#     4  11  24  47  72 107 153 203 255 318 386 467
#     4  10  24  46  76 104 152 202 264 320 372 474
#     4  11  26  51  82 114 154 206 266 335 399 474
#     4  12  26  48  72 110 164 210 252 312 400 490
#
# _framework density 24.145685
#
# number of rings (size 3 to 8) (size 9 to 14) (size 15 to 20)
#    0.000    0.800    4.000    1.800    0.000    7.200 
#    3.600    0.000    0.000    0.000    0.000    0.000 
#    0.000    0.000    0.000    0.000    0.000    0.000 
#
# Total GULP energy -223958.010900 kJ/mol
# GULP energy per Si atom -5598.950272 kJ/mol
# Density = 2.409073 g / cm^3
# Si number density = 24.145685 Si / 1000 Ang^3
#
#
#
# Elastic Constant Matrix: (Units=GPa)
#
#
# Indices 1 2 3 4 5 6 
#
# 1 84.9927 -6.7064 6.8845 0.0000 0.0000 0.0000
# 2 -6.7064 82.6818 26.2028 0.0000 0.0000 0.0000
# 3 6.8845 26.2028 110.5367 0.0000 0.0000 0.0000
# 4 0.0000 0.0000 0.0000 48.5557 0.0000 0.0000
# 5 0.0000 0.0000 0.0000 0.0000 19.8042 0.0000
# 6 0.0000 0.0000 0.0000 0.0000 0.0000 48.9301
#
#
#
# Elastic Compliance Matrix: (Units=1/GPa)
#
#
# Indices 1 2 3 4 5 6 
#
# 1 0.011954 0.001303 -0.001053 0.000000 0.000000 0.000000
# 2 0.001303 0.013219 -0.003215 0.000000 0.000000 0.000000
# 3 -0.001053 -0.003215 0.009874 0.000000 0.000000 0.000000
# 4 0.000000 0.000000 0.000000 0.020595 0.000000 0.000000
# 5 0.000000 0.000000 0.000000 0.000000 0.050494 0.000000
# 6 0.000000 0.000000 0.000000 0.000000 0.000000 0.020437
#
#
# Mechanical properties :
#
#
# Convention : Reuss Voigt Hill
#
# Bulk Modulus (GPa) = 34.34327 36.77479 35.55903
# Shear Modulus (GPa) = 35.15939 40.24669 37.70304
#
# Velocity S-wave (km/s) = 3.82007 4.08711 3.95585
# Velocity P-wave (km/s) = 5.80616 6.12667 5.96857
#
# Compressibility (1/GPa) = 0.02911778
#
# Stress axis : x y z
#
# Youngs Moduli (GPa) = 83.65468 75.64824 101.27146
#
# Poissons Ratio (x) = -0.09860 0.10669
# Poissons Ratio (y) = -0.10904 0.32557
# Poissons Ratio (z) = 0.08813 0.24319
#
# Static dielectric constant tensor:
#      x y z
#    x 1.953480 0.000000 0.000000 
#    y 0.000000 2.051400 0.000000 
#    z 0.000000 0.000000 1.931030 
# 
# From -- ./inp_files/4694.got.cif
#   From: 2010.05.17/outbox.cif.g08.bks.cpg/sg56_3_cif.got.tgz:4694.got - 2010.06.03 13:42:01.
