data_PCOD9433640
_publ_section_title
;
Structure prediction by ZEFSAII (Michael W. Deem and Ramdas Pophale) SiO2 
 PCOD9433640
Probable space group: P C C N
;
_chemical_formula_sum "Si O2"
_cell_formula_units_Z 36
_cell_length_a 8.597241
_cell_length_b 8.558720
_cell_length_c 19.293534
_cell_angle_alpha 90.000000
_cell_angle_beta 90.000000
_cell_angle_gamma 90.000000
_cell_volume 1419.644828
_symmetry_space_group_name_H-M "P C C N"
_symmetry_group_IT_number 56
_symmetry_cell_setting 'orthorhombic'
loop_
_space_group_symop_operation_xyz
x,y,z
1/2-x,1/2-y,z
1/2+x,-y,1/2-z
-x,1/2+y,1/2-z
-x,-y,-z
1/2+x,1/2+y,-z
1/2-x,y,1/2+z
x,1/2-y,1/2+z
loop_
_atom_site_type_symbol
_atom_site_label
_atom_site_fract_x
_atom_site_fract_y
_atom_site_fract_z
Si Si1 0.966970 0.302131 0.609365
Si Si2 0.250000 0.250000 0.828144
Si Si3 0.250000 0.750000 0.505638
Si Si4 0.750000 0.250000 0.732517
Si Si5 0.707451 0.524570 0.801192
Si Si6 0.976329 0.066317 0.392162
O O1 0.866250 0.352843 0.543069
O O2 0.863390 0.332221 0.677329
O O3 0.125199 0.384820 0.635594
O O4 0.978348 0.115258 0.594351
O O5 0.231954 0.383964 0.769427
O O6 0.386867 0.190281 0.879347
O O7 0.143332 0.860759 0.552851
O O8 0.636074 0.360135 0.777442
O O9 0.875005 0.461977 0.823772
#
# Coordination Sequence:
#
# PCOD9433640 Si02
#       6
#     8   4   4   4   8   8
#     4  11  25  51  77 113 164 214 263 347 402 493
#     4  12  26  50  84 120 162 202 266 352 424 500
#     4  11  29  52  78 114 161 221 292 320 398 501
#     4  11  25  42  80 118 159 199 264 332 432 481
#     4  12  25  47  81 120 157 206 270 343 425 489
#     4  12  26  50  77 117 158 222 267 339 411 489
#
# _framework density 25.358454999999999
#
# number of rings (size 3 to 8) (size 9 to 14) (size 15 to 20)
#    0.000    0.444    4.444    2.667    0.000    4.444 
#    8.000    0.000    0.000    0.000    0.000    0.000 
#    0.000    0.000    0.000    0.000    0.000    0.000 
#
# Total GULP energy -200695.788640 kJ/mol
# GULP energy per Si atom -5574.883018 kJ/mol
# Density = 2.530074 g / cm^3
# Si number density = 25.358455 Si / 1000 Ang^3
#
#
#
# Elastic Constant Matrix: (Units=GPa)
#
#
# Indices 1 2 3 4 5 6 
#
# 1 144.8447 80.8458 65.0435 0.0000 0.0000 0.0000
# 2 80.8458 117.7019 63.1702 0.0000 0.0000 0.0000
# 3 65.0435 63.1702 121.1189 0.0000 0.0000 0.0000
# 4 0.0000 0.0000 0.0000 -13.4272 0.0000 0.0000
# 5 0.0000 0.0000 0.0000 0.0000 45.4947 0.0000
# 6 0.0000 0.0000 0.0000 0.0000 0.0000 46.2465
#
#
#
# Elastic Compliance Matrix: (Units=1/GPa)
#
#
# Indices 1 2 3 4 5 6 
#
# 1 0.011914 -0.006596 -0.002958 0.000000 0.000000 0.000000
# 2 -0.006596 0.015450 -0.004516 0.000000 0.000000 0.000000
# 3 -0.002958 -0.004516 0.012200 0.000000 0.000000 0.000000
# 4 0.000000 0.000000 0.000000 -0.074476 0.000000 0.000000
# 5 0.000000 0.000000 0.000000 0.000000 0.021981 0.000000
# 6 0.000000 0.000000 0.000000 0.000000 0.000000 0.021623
#
#
# Mechanical properties :
#
#
# Convention : Reuss Voigt Hill
#
# Bulk Modulus (GPa) = 87.52948 89.08718 88.30833
# Shear Modulus (GPa) = 123.03378 27.30320 75.16849
#
# Velocity S-wave (km/s) = 6.97303 3.28486 5.45039
# Velocity P-wave (km/s) = 9.97109 7.04233 8.63184
#
# Compressibility (1/GPa) = 0.01142472
#
# Stress axis : x y z
#
# Youngs Moduli (GPa) = 83.93801 64.72438 81.96586
#
# Poissons Ratio (x) = 0.42689 0.24245
# Poissons Ratio (y) = 0.55362 0.37017
# Poissons Ratio (z) = 0.24828 0.29230
#
# Static dielectric constant tensor:
#      x y z
#    x 2.301740 0.000000 0.000000 
#    y 0.000000 2.800510 0.000000 
#    z 0.000000 0.000000 2.028730 
# 
# From -- ./inp_files/17905.got.cif
#   From: 2010.05.17/outbox.cif.g08.bks.cpg/sg56_9_cif.got.tgz:17905.got - 2010.06.03 13:42:01.
