data_PCOD9433442
_publ_section_title
;
Structure prediction by ZEFSAII (Michael W. Deem and Ramdas Pophale) SiO2 
 PCOD9433442
Probable space group: P C C N
;
_chemical_formula_sum "Si O2"
_cell_formula_units_Z 52
_cell_length_a 9.003459
_cell_length_b 24.239435
_cell_length_c 10.765710
_cell_angle_alpha 90.000000
_cell_angle_beta 90.000000
_cell_angle_gamma 90.000000
_cell_volume 2349.495192
_symmetry_space_group_name_H-M "P C C N"
_symmetry_group_IT_number 56
_symmetry_cell_setting 'orthorhombic'
loop_
_space_group_symop_operation_xyz
x,y,z
1/2-x,1/2-y,z
1/2+x,-y,1/2-z
-x,1/2+y,1/2-z
-x,-y,-z
1/2+x,1/2+y,-z
1/2-x,y,1/2+z
x,1/2-y,1/2+z
loop_
_atom_site_type_symbol
_atom_site_label
_atom_site_fract_x
_atom_site_fract_y
_atom_site_fract_z
Si Si1 0.127055 0.423364 0.173000
Si Si2 0.723277 0.623001 0.066598
Si Si3 0.549293 0.332659 0.070437
Si Si4 0.496526 0.834133 0.159541
Si Si5 0.189797 0.918191 0.362268
Si Si6 0.250000 0.750000 0.064930
Si Si7 0.354539 0.545574 0.628765
O O1 0.205818 0.408498 0.301983
O O2 0.077134 0.487398 0.167852
O O3 0.972301 0.391027 0.152506
O O4 0.229311 0.412858 0.053251
O O5 0.851487 0.669546 0.081806
O O6 0.561822 0.645777 0.033354
O O7 0.462433 0.323505 0.197826
O O8 0.680093 0.375262 0.105851
O O9 0.630337 0.279667 0.019989
O O10 0.451536 0.898692 0.140252
O O11 0.350670 0.796460 0.134279
O O12 0.189893 0.956585 0.484484
O O13 0.225990 0.945257 0.229994
#
# Coordination Sequence:
#
# PCOD9433442 Si02
#       7
#     8   8   8   8   8   4   8
#     4  12  25  41  72 100 151 193 225 287 353 417
#     4  12  25  47  69 109 145 184 231 290 356 418
#     4  11  25  47  73 104 135 180 240 287 353 420
#     4  11  25  47  70 105 141 178 240 294 343 420
#     4  11  23  43  67 100 141 188 237 284 339 426
#     4  12  24  50  78  98 132 186 230 296 362 408
#     4  11  23  40  70 102 143 187 239 281 342 422
#
# _framework density 22.132413
#
# number of rings (size 3 to 8) (size 9 to 14) (size 15 to 20)
#    0.000    0.615    4.615    2.769    4.308    0.615 
#    2.769    5.385    0.000    0.000    0.000    0.000 
#    0.000    0.000    0.000    0.000    0.000    0.000 
#
# Total GULP energy -290261.165034 kJ/mol
# GULP energy per Si atom -5581.945481 kJ/mol
# Density = 2.208204 g / cm^3
# Si number density = 22.132413 Si / 1000 Ang^3
#
#
#
# Elastic Constant Matrix: (Units=GPa)
#
#
# Indices 1 2 3 4 5 6 
#
# 1 102.7763 37.5644 36.6801 0.0000 0.0000 0.0000
# 2 37.5644 66.8809 25.3554 0.0000 0.0000 0.0000
# 3 36.6801 25.3554 163.8066 0.0000 0.0000 0.0000
# 4 0.0000 0.0000 0.0000 13.6973 0.0000 0.0000
# 5 0.0000 0.0000 0.0000 0.0000 35.9970 0.0000
# 6 0.0000 0.0000 0.0000 0.0000 0.0000 25.4135
#
#
#
# Elastic Compliance Matrix: (Units=1/GPa)
#
#
# Indices 1 2 3 4 5 6 
#
# 1 0.012753 -0.006459 -0.001856 0.000000 0.000000 0.000000
# 2 -0.006459 0.019156 -0.001519 0.000000 0.000000 0.000000
# 3 -0.001856 -0.001519 0.006755 0.000000 0.000000 0.000000
# 4 0.000000 0.000000 0.000000 0.073007 0.000000 0.000000
# 5 0.000000 0.000000 0.000000 0.000000 0.027780 0.000000
# 6 0.000000 0.000000 0.000000 0.000000 0.000000 0.039349
#
#
# Mechanical properties :
#
#
# Convention : Reuss Voigt Hill
#
# Bulk Modulus (GPa) = 52.64163 59.18484 55.91324
# Shear Modulus (GPa) = 24.41403 30.61250 27.51326
#
# Velocity S-wave (km/s) = 3.32488 3.72311 3.52962
# Velocity P-wave (km/s) = 6.21098 6.72914 6.47525
#
# Compressibility (1/GPa) = 0.01899637
#
# Stress axis : x y z
#
# Youngs Moduli (GPa) = 78.41240 52.20388 148.02949
#
# Poissons Ratio (x) = 0.33720 0.27473
# Poissons Ratio (y) = 0.50649 0.22481
# Poissons Ratio (z) = 0.14552 0.07928
#
# Static dielectric constant tensor:
#      x y z
#    x 1.882290 0.000000 0.000000 
#    y 0.000000 1.874760 0.000000 
#    z 0.000000 0.000000 1.832420 
# 
# From -- ./inp_files/6523.got.cif
#   From: 2010.05.17/outbox.cif.g08.bks.cpg/sg56_4_cif.got.tgz:6523.got - 2010.06.03 13:42:01.
