data_PCOD9433592
_publ_section_title
;
Structure prediction by ZEFSAII (Michael W. Deem and Ramdas Pophale) SiO2 
 PCOD9433592
Probable space group: P C C N
;
_chemical_formula_sum "Si O2"
_cell_formula_units_Z 64
_cell_length_a 29.234420
_cell_length_b 11.481665
_cell_length_c 9.165123
_cell_angle_alpha 90.000000
_cell_angle_beta 90.000000
_cell_angle_gamma 90.000000
_cell_volume 3076.363508
_symmetry_space_group_name_H-M "P C C N"
_symmetry_group_IT_number 56
_symmetry_cell_setting 'orthorhombic'
loop_
_space_group_symop_operation_xyz
x,y,z
1/2-x,1/2-y,z
1/2+x,-y,1/2-z
-x,1/2+y,1/2-z
-x,-y,-z
1/2+x,1/2+y,-z
1/2-x,y,1/2+z
x,1/2-y,1/2+z
loop_
_atom_site_type_symbol
_atom_site_label
_atom_site_fract_x
_atom_site_fract_y
_atom_site_fract_z
Si Si1 0.783207 0.028670 0.447824
Si Si2 0.883140 0.833200 0.677092
Si Si3 0.095030 0.775598 0.331684
Si Si4 0.945573 0.462668 0.648053
Si Si5 0.805338 0.490177 0.286186
Si Si6 0.874418 0.900248 0.342824
Si Si7 0.663723 0.258354 0.405113
Si Si8 0.448146 0.004289 0.683093
O O1 0.736894 0.972884 0.387650
O O2 0.785472 0.032434 0.623441
O O3 0.791707 0.161775 0.397728
O O4 0.826424 0.963358 0.376079
O O5 0.886190 0.850283 0.503499
O O6 0.870519 0.704925 0.728434
O O7 0.845507 0.918864 0.751604
O O8 0.930880 0.877814 0.742525
O O9 0.057618 0.678064 0.368155
O O10 0.125535 0.712870 0.211653
O O11 0.134513 0.790745 0.451990
O O12 0.073509 0.894877 0.271699
O O13 0.912784 0.516780 0.771350
O O14 0.932029 0.503970 0.485289
O O15 0.997190 0.501414 0.680590
O O16 0.824488 0.375538 0.369300
#
# Coordination Sequence:
#
# PCOD9433592 Si02
#       8
#     8   8   8   8   8   8   8   8
#     4  11  25  41  64  98 131 172 222 272 337 402
#     4  11  24  46  66  94 131 176 223 278 332 399
#     4  12  22  42  69  95 136 179 215 280 340 399
#     4  11  25  43  68  99 133 180 224 280 339 404
#     4  11  25  42  65  97 132 172 219 278 332 406
#     4  11  25  45  68  93 131 175 225 275 336 400
#     4  12  22  41  67  96 135 172 219 268 341 400
#     4  11  25  44  66 100 137 173 230 277 339 404
#
# _framework density 20.803782999999999
#
# number of rings (size 3 to 8) (size 9 to 14) (size 15 to 20)
#    0.000    0.750    5.000    1.875    3.500    4.000 
#    0.000    2.500    0.000    0.000    0.000    0.000 
#    0.000    0.000    0.000    0.000    0.000    0.000 
#
# Total GULP energy -357065.425477 kJ/mol
# GULP energy per Si atom -5579.147273 kJ/mol
# Density = 2.075643 g / cm^3
# Si number density = 20.803783 Si / 1000 Ang^3
#
#
#
# Elastic Constant Matrix: (Units=GPa)
#
#
# Indices 1 2 3 4 5 6 
#
# 1 67.7787 19.4472 42.9162 0.0000 0.0000 0.0000
# 2 19.4472 67.6713 9.9995 0.0000 0.0000 0.0000
# 3 42.9162 9.9995 79.1798 0.0000 0.0000 0.0000
# 4 0.0000 0.0000 0.0000 32.8430 0.0000 0.0000
# 5 0.0000 0.0000 0.0000 0.0000 33.6023 0.0000
# 6 0.0000 0.0000 0.0000 0.0000 0.0000 16.9860
#
#
#
# Elastic Compliance Matrix: (Units=1/GPa)
#
#
# Indices 1 2 3 4 5 6 
#
# 1 0.024065 -0.005083 -0.012401 0.000000 0.000000 0.000000
# 2 -0.005083 0.016132 0.000718 0.000000 0.000000 0.000000
# 3 -0.012401 0.000718 0.019260 0.000000 0.000000 0.000000
# 4 0.000000 0.000000 0.000000 0.030448 0.000000 0.000000
# 5 0.000000 0.000000 0.000000 0.000000 0.029760 0.000000
# 6 0.000000 0.000000 0.000000 0.000000 0.000000 0.058872
#
#
# Mechanical properties :
#
#
# Convention : Reuss Voigt Hill
#
# Bulk Modulus (GPa) = 38.57449 39.92837 39.25143
# Shear Modulus (GPa) = 22.65403 26.17073 24.41238
#
# Velocity S-wave (km/s) = 3.30349 3.55065 3.42929
# Velocity P-wave (km/s) = 5.75613 6.00366 5.88120
#
# Compressibility (1/GPa) = 0.02592387
#
# Stress axis : x y z
#
# Youngs Moduli (GPa) = 41.55483 61.98850 51.91994
#
# Poissons Ratio (x) = 0.31510 0.64387
# Poissons Ratio (y) = 0.21123 -0.03727
# Poissons Ratio (z) = 0.51533 -0.04450
#
# Static dielectric constant tensor:
#      x y z
#    x 1.746420 0.000000 0.000000 
#    y 0.000000 1.771640 0.000000 
#    z 0.000000 0.000000 1.713400 
# 
# From -- ./inp_files/5217.got.cif
#   From: 2010.05.17/outbox.cif.g08.bks.cpg/sg56_3_cif.got.tgz:5217.got - 2010.06.03 13:42:01.
