data_PCOD9433646
_publ_section_title
;
Structure prediction by ZEFSAII (Michael W. Deem and Ramdas Pophale) SiO2 
 PCOD9433646
Probable space group: P C C N
;
_chemical_formula_sum "Si O2"
_cell_formula_units_Z 40
_cell_length_a 10.843143
_cell_length_b 8.898743
_cell_length_c 18.170792
_cell_angle_alpha 90.000000
_cell_angle_beta 90.000000
_cell_angle_gamma 90.000000
_cell_volume 1753.305950
_symmetry_space_group_name_H-M "P C C N"
_symmetry_group_IT_number 56
_symmetry_cell_setting 'orthorhombic'
loop_
_space_group_symop_operation_xyz
x,y,z
1/2-x,1/2-y,z
1/2+x,-y,1/2-z
-x,1/2+y,1/2-z
-x,-y,-z
1/2+x,1/2+y,-z
1/2-x,y,1/2+z
x,1/2-y,1/2+z
loop_
_atom_site_type_symbol
_atom_site_label
_atom_site_fract_x
_atom_site_fract_y
_atom_site_fract_z
Si Si1 0.493817 0.113753 0.882873
Si Si2 0.096443 0.903981 0.045838
Si Si3 0.752572 0.418031 0.595269
Si Si4 0.355691 0.152612 0.309984
Si Si5 0.767722 0.580302 0.853683
O O1 0.532080 0.243459 0.940482
O O2 0.464864 0.224532 0.811836
O O3 0.377051 0.005264 0.896770
O O4 0.609746 0.005392 0.877659
O O5 0.151942 0.980088 0.119916
O O6 0.211194 0.904486 0.989732
O O7 0.000000 0.000000 0.000000
O O8 0.750000 0.250000 0.626335
O O9 0.860286 0.507273 0.639174
O O10 0.250000 0.250000 0.350125
O O11 0.296031 0.102636 0.233255
O O12 0.750000 0.750000 0.883752
#
# Coordination Sequence:
#
# PCOD9433646 Si02
#       5
#     8   8   8   8   8
#     4  11  25  47  72 102 152 194 244 316 374 441
#     4  12  27  46  74 105 151 198 246 314 374 449
#     4  11  25  44  71 106 142 193 248 307 375 444
#     4   9  22  46  69 102 142 187 239 302 365 444
#     4  11  27  45  73 111 144 194 253 301 373 453
#
# _framework density 22.814045
#
# number of rings (size 3 to 8) (size 9 to 14) (size 15 to 20)
#    0.000    1.200    2.000    1.800    5.600    9.600 
#    0.000    0.000    0.000    0.000    0.000    0.000 
#    0.000    0.000    0.000    0.000    0.000    0.000 
#
# Total GULP energy -222780.604501 kJ/mol
# GULP energy per Si atom -5569.515113 kJ/mol
# Density = 2.276212 g / cm^3
# Si number density = 22.814045 Si / 1000 Ang^3
#
#
#
# Elastic Constant Matrix: (Units=GPa)
#
#
# Indices 1 2 3 4 5 6 
#
# 1 140.9035 85.7580 39.7522 0.0000 0.0000 0.0000
# 2 85.7580 198.9981 53.1141 0.0000 0.0000 0.0000
# 3 39.7522 53.1141 76.2289 0.0000 0.0000 0.0000
# 4 0.0000 0.0000 0.0000 33.7511 0.0000 0.0000
# 5 0.0000 0.0000 0.0000 0.0000 22.9009 0.0000
# 6 0.0000 0.0000 0.0000 0.0000 0.0000 52.6077
#
#
#
# Elastic Compliance Matrix: (Units=1/GPa)
#
#
# Indices 1 2 3 4 5 6 
#
# 1 0.010064 -0.003607 -0.002735 0.000000 0.000000 0.000000
# 2 -0.003607 0.007466 -0.003321 0.000000 0.000000 0.000000
# 3 -0.002735 -0.003321 0.016859 0.000000 0.000000 0.000000
# 4 0.000000 0.000000 0.000000 0.029629 0.000000 0.000000
# 5 0.000000 0.000000 0.000000 0.000000 0.043666 0.000000
# 6 0.000000 0.000000 0.000000 0.000000 0.000000 0.019009
#
#
# Mechanical properties :
#
#
# Convention : Reuss Voigt Hill
#
# Bulk Modulus (GPa) = 66.38992 85.93101 76.16047
# Shear Modulus (GPa) = 33.10392 37.68568 35.39480
#
# Velocity S-wave (km/s) = 3.81337 4.06872 3.94312
# Velocity P-wave (km/s) = 6.96798 7.73436 7.36115
#
# Compressibility (1/GPa) = 0.01506253
#
# Stress axis : x y z
#
# Youngs Moduli (GPa) = 99.36379 133.93902 59.31674
#
# Poissons Ratio (x) = 0.48313 0.16223
# Poissons Ratio (y) = 0.35842 0.19700
# Poissons Ratio (z) = 0.27175 0.44483
#
# Static dielectric constant tensor:
#      x y z
#    x 1.960180 0.000000 0.000000 
#    y 0.000000 1.900620 0.000000 
#    z 0.000000 0.000000 1.932920 
# 
# From -- ./inp_files/14458.got.cif
#   From: 2010.05.17/outbox.cif.g08.bks.cpg/sg56_8_cif.got.tgz:14458.got - 2010.06.03 13:42:01.
