data_PCOD9433465
_publ_section_title
;
Structure prediction by ZEFSAII (Michael W. Deem and Ramdas Pophale) SiO2 
 PCOD9433465
Probable space group: P C C N
;
_chemical_formula_sum "Si O2"
_cell_formula_units_Z 64
_cell_length_a 18.086493
_cell_length_b 6.471751
_cell_length_c 26.752338
_cell_angle_alpha 90.000000
_cell_angle_beta 90.000000
_cell_angle_gamma 90.000000
_cell_volume 3131.395383
_symmetry_space_group_name_H-M "P C C N"
_symmetry_group_IT_number 56
_symmetry_cell_setting 'orthorhombic'
loop_
_space_group_symop_operation_xyz
x,y,z
1/2-x,1/2-y,z
1/2+x,-y,1/2-z
-x,1/2+y,1/2-z
-x,-y,-z
1/2+x,1/2+y,-z
1/2-x,y,1/2+z
x,1/2-y,1/2+z
loop_
_atom_site_type_symbol
_atom_site_label
_atom_site_fract_x
_atom_site_fract_y
_atom_site_fract_z
Si Si1 0.323426 0.850965 0.041106
Si Si2 0.929639 0.641052 0.014828
Si Si3 0.437171 0.058290 0.791069
Si Si4 0.822392 0.643650 0.867321
Si Si5 0.335194 0.679219 0.822485
Si Si6 0.067946 0.370613 0.381846
Si Si7 0.921657 0.963651 0.928407
Si Si8 0.898256 0.578203 0.768265
O O1 0.250000 0.750000 0.019742
O O2 0.382222 0.678518 0.058127
O O3 0.301322 0.979825 0.090263
O O4 0.360092 0.007033 0.002507
O O5 0.920817 0.716542 0.071409
O O6 0.934999 0.841856 0.979798
O O7 0.000000 0.500000 0.000000
O O8 0.449884 0.231450 0.833564
O O9 0.394282 0.181039 0.747395
O O10 0.388641 0.877493 0.815605
O O11 0.514923 0.979831 0.769229
O O12 0.750000 0.750000 0.845496
O O13 0.869925 0.818520 0.895008
O O14 0.868878 0.542381 0.823564
O O15 0.250000 0.750000 0.828113
O O16 0.366186 0.527162 0.866159
O O17 0.350917 0.550861 0.771543
O O18 0.996904 0.501313 0.398485
#
# Coordination Sequence:
#
# PCOD9433465 Si02
#       8
#     8   8   8   8   8   8   8   8
#     4  11  23  43  65 101 146 175 219 288 350 409
#     4  11  25  42  72 102 131 177 237 284 340 417
#     4  11  24  45  70  97 133 176 238 274 338 407
#     4  11  24  38  65 104 138 174 218 276 349 413
#     4  11  27  47  69  97 144 181 229 293 338 403
#     4  11  25  44  73  98 131 182 235 282 341 408
#     4  11  23  42  71  99 138 174 226 279 345 407
#     4  11  24  41  68 102 131 184 227 280 337 411
#
# _framework density 20.438172999999999
#
# number of rings (size 3 to 8) (size 9 to 14) (size 15 to 20)
#    0.000    1.000    3.750    1.875    7.000    3.000 
#    0.000    3.750    0.000    0.000    0.000    0.000 
#    0.000    0.000    0.000    0.000    0.000    0.000 
#
# Total GULP energy -357737.548348 kJ/mol
# GULP energy per Si atom -5589.649193 kJ/mol
# Density = 2.039166 g / cm^3
# Si number density = 20.438173 Si / 1000 Ang^3
#
#
#
# Elastic Constant Matrix: (Units=GPa)
#
#
# Indices 1 2 3 4 5 6 
#
# 1 108.6610 41.1250 27.5015 0.0000 0.0000 0.0000
# 2 41.1250 88.4579 18.3919 0.0000 0.0000 0.0000
# 3 27.5015 18.3919 69.6491 0.0000 0.0000 0.0000
# 4 0.0000 0.0000 0.0000 22.5194 0.0000 0.0000
# 5 0.0000 0.0000 0.0000 0.0000 18.9127 0.0000
# 6 0.0000 0.0000 0.0000 0.0000 0.0000 41.0117
#
#
#
# Elastic Compliance Matrix: (Units=1/GPa)
#
#
# Indices 1 2 3 4 5 6 
#
# 1 0.011893 -0.004817 -0.003424 0.000000 0.000000 0.000000
# 2 -0.004817 0.013913 -0.001772 0.000000 0.000000 0.000000
# 3 -0.003424 -0.001772 0.016178 0.000000 0.000000 0.000000
# 4 0.000000 0.000000 0.000000 0.044406 0.000000 0.000000
# 5 0.000000 0.000000 0.000000 0.000000 0.052874 0.000000
# 6 0.000000 0.000000 0.000000 0.000000 0.000000 0.024383
#
#
# Mechanical properties :
#
#
# Convention : Reuss Voigt Hill
#
# Bulk Modulus (GPa) = 45.54293 48.97830 47.26061
# Shear Modulus (GPa) = 26.17920 28.47208 27.32564
#
# Velocity S-wave (km/s) = 3.58285 3.73645 3.66045
# Velocity P-wave (km/s) = 6.28071 6.52924 6.40618
#
# Compressibility (1/GPa) = 0.02195731
#
# Stress axis : x y z
#
# Youngs Moduli (GPa) = 84.08568 71.87661 61.81421
#
# Poissons Ratio (x) = 0.34624 0.21164
# Poissons Ratio (y) = 0.40505 0.10952
# Poissons Ratio (z) = 0.28790 0.12735
#
# Static dielectric constant tensor:
#      x y z
#    x 1.748970 0.000000 0.000000 
#    y 0.000000 1.748610 0.000000 
#    z 0.000000 0.000000 1.723770 
# 
# From -- ./inp_files/23696.got.cif
#   From: 2010.05.17/outbox.cif.g08.bks.cpg/sg56_12_cif.got.tgz:23696.got - 2010.06.03 13:42:01.
