data_PCOD9433251
_publ_section_title
;
Structure prediction by ZEFSAII (Michael W. Deem and Ramdas Pophale) SiO2 
 PCOD9433251
Probable space group: P C C N
;
_chemical_formula_sum "Si O2"
_cell_formula_units_Z 40
_cell_length_a 11.694439
_cell_length_b 25.378513
_cell_length_c 4.914630
_cell_angle_alpha 90.000000
_cell_angle_beta 90.000000
_cell_angle_gamma 90.000000
_cell_volume 1458.600614
_symmetry_space_group_name_H-M "P C C N"
_symmetry_group_IT_number 56
_symmetry_cell_setting 'orthorhombic'
loop_
_space_group_symop_operation_xyz
x,y,z
1/2-x,1/2-y,z
1/2+x,-y,1/2-z
-x,1/2+y,1/2-z
-x,-y,-z
1/2+x,1/2+y,-z
1/2-x,y,1/2+z
x,1/2-y,1/2+z
loop_
_atom_site_type_symbol
_atom_site_label
_atom_site_fract_x
_atom_site_fract_y
_atom_site_fract_z
Si Si1 0.172010 0.317298 0.523566
Si Si2 0.592987 0.282857 0.035747
Si Si3 0.404185 0.890624 0.205668
Si Si4 0.048172 0.411896 0.287529
Si Si5 0.684506 0.498382 0.479219
O O1 0.271018 0.304842 0.309163
O O2 0.045123 0.292476 0.524315
O O3 0.145975 0.377851 0.434423
O O4 0.623018 0.234673 0.233805
O O5 0.641907 0.336469 0.167387
O O6 0.496666 0.878307 0.967044
O O7 0.458282 0.918422 0.470873
O O8 0.331395 0.936056 0.062635
O O9 0.086496 0.465734 0.148870
O O10 0.706697 0.511727 0.789997
#
# Coordination Sequence:
#
# PCOD9433251 Si02
#       5
#     8   8   8   8   8
#     4  11  21  34  54  84 121 153 189 237 284 340
#     4  11  23  39  59  82 112 159 206 246 294 345
#     4  11  23  41  63  87 121 159 203 247 292 360
#     4  11  21  39  61  89 124 163 196 229 292 368
#     4  12  24  39  63  93 124 155 195 248 303 357
#
# _framework density 27.423546999999999
#
# number of rings (size 3 to 8) (size 9 to 14) (size 15 to 20)
#    0.000    0.800    0.000   10.800    0.000    2.400 
#    0.000    0.000    0.000    3.600    0.000    0.000 
#    0.000    0.000    0.000    0.000    0.000    0.000 
#
# Total GULP energy -224150.830800 kJ/mol
# GULP energy per Si atom -5603.770770 kJ/mol
# Density = 2.736113 g / cm^3
# Si number density = 27.423547 Si / 1000 Ang^3
#
#
#
# Elastic Constant Matrix: (Units=GPa)
#
#
# Indices 1 2 3 4 5 6 
#
# 1 64.8022 19.7820 11.3538 0.0000 0.0000 0.0000
# 2 19.7820 145.0183 -2.3184 0.0000 0.0000 0.0000
# 3 11.3538 -2.3184 92.9257 0.0000 0.0000 0.0000
# 4 0.0000 0.0000 0.0000 235.9671 0.0000 0.0000
# 5 0.0000 0.0000 0.0000 0.0000 32.3381 0.0000
# 6 0.0000 0.0000 0.0000 0.0000 0.0000 44.3294
#
#
#
# Elastic Compliance Matrix: (Units=1/GPa)
#
#
# Indices 1 2 3 4 5 6 
#
# 1 0.016491 -0.002283 -0.002072 0.000000 0.000000 0.000000
# 2 -0.002283 0.007214 0.000459 0.000000 0.000000 0.000000
# 3 -0.002072 0.000459 0.011026 0.000000 0.000000 0.000000
# 4 0.000000 0.000000 0.000000 0.004238 0.000000 0.000000
# 5 0.000000 0.000000 0.000000 0.000000 0.030923 0.000000
# 6 0.000000 0.000000 0.000000 0.000000 0.000000 0.022558
#
#
# Mechanical properties :
#
#
# Convention : Reuss Voigt Hill
#
# Bulk Modulus (GPa) = 37.11914 40.04231 38.58072
# Shear Modulus (GPa) = 45.77801 80.78886 63.28343
#
# Velocity S-wave (km/s) = 4.09013 5.43356 4.80899
# Velocity P-wave (km/s) = 5.98920 7.34833 6.70330
#
# Compressibility (1/GPa) = 0.02694028
#
# Stress axis : x y z
#
# Youngs Moduli (GPa) = 60.63758 138.61156 90.69569
#
# Poissons Ratio (x) = 0.31641 0.18791
# Poissons Ratio (y) = 0.13842 -0.04162
# Poissons Ratio (z) = 0.12563 -0.06361
#
# Static dielectric constant tensor:
#      x y z
#    x 2.244830 0.000000 0.000000 
#    y 0.000000 2.124110 0.000000 
#    z 0.000000 0.000000 2.017560 
# 
# From -- ./inp_files/463.got.cif
#   From: 2010.05.17/outbox.cif.g08.bks.cpg/sg56_1_cif.got.tgz:463.got - 2010.06.03 13:42:01.
