data_PCOD9433664
_publ_section_title
;
Structure prediction by ZEFSAII (Michael W. Deem and Ramdas Pophale) SiO2 
 PCOD9433664
Probable space group: P C C N
;
_chemical_formula_sum "Si O2"
_cell_formula_units_Z 32
_cell_length_a 16.427851
_cell_length_b 8.507503
_cell_length_c 9.532622
_cell_angle_alpha 90.000000
_cell_angle_beta 90.000000
_cell_angle_gamma 90.000000
_cell_volume 1332.279171
_symmetry_space_group_name_H-M "P C C N"
_symmetry_group_IT_number 56
_symmetry_cell_setting 'orthorhombic'
loop_
_space_group_symop_operation_xyz
x,y,z
1/2-x,1/2-y,z
1/2+x,-y,1/2-z
-x,1/2+y,1/2-z
-x,-y,-z
1/2+x,1/2+y,-z
1/2-x,y,1/2+z
x,1/2-y,1/2+z
loop_
_atom_site_type_symbol
_atom_site_label
_atom_site_fract_x
_atom_site_fract_y
_atom_site_fract_z
Si Si1 0.093053 0.384884 0.857784
Si Si2 0.677172 0.564380 0.174457
Si Si3 0.409106 0.619080 0.610074
Si Si4 0.326743 0.553909 0.134199
O O1 0.157776 0.244262 0.864240
O O2 0.099121 0.455196 0.701730
O O3 0.002759 0.327900 0.896066
O O4 0.111485 0.526195 0.966926
O O5 0.600113 0.504735 0.264009
O O6 0.751102 0.514127 0.276465
O O7 0.686495 0.477772 0.028102
O O8 0.350172 0.763779 0.644721
#
# Coordination Sequence:
#
# PCOD9433664 Si02
#       4
#     8   8   8   8
#     4  11  25  46  73 105 142 186 238 298 362 429
#     4  12  26  45  69 102 143 190 241 294 357 428
#     4  11  25  46  73 105 142 186 238 298 362 429
#     4  12  26  45  69 102 143 190 241 294 357 428
#
# _framework density 24.018989999999999
#
# number of rings (size 3 to 8) (size 9 to 14) (size 15 to 20)
#    0.000    0.500    0.000    7.500    0.000   12.000 
#    0.000    0.000    0.000    0.000    0.000    0.000 
#    0.000    0.000    0.000    0.000    0.000    0.000 
#
# Total GULP energy -179113.803274 kJ/mol
# GULP energy per Si atom -5597.306352 kJ/mol
# Density = 2.396432 g / cm^3
# Si number density = 24.018990 Si / 1000 Ang^3
#
#
#
# Elastic Constant Matrix: (Units=GPa)
#
#
# Indices 1 2 3 4 5 6 
#
# 1 110.8983 33.5437 6.6806 0.0000 0.0000 0.0000
# 2 33.5437 91.1716 -19.9568 0.0000 0.0000 0.0000
# 3 6.6806 -19.9568 111.3610 0.0000 0.0000 0.0000
# 4 0.0000 0.0000 0.0000 39.0224 0.0000 0.0000
# 5 0.0000 0.0000 0.0000 0.0000 25.2783 0.0000
# 6 0.0000 0.0000 0.0000 0.0000 0.0000 46.2551
#
#
#
# Elastic Compliance Matrix: (Units=1/GPa)
#
#
# Indices 1 2 3 4 5 6 
#
# 1 0.010339 -0.004101 -0.001355 0.000000 0.000000 0.000000
# 2 -0.004101 0.013042 0.002583 0.000000 0.000000 0.000000
# 3 -0.001355 0.002583 0.009524 0.000000 0.000000 0.000000
# 4 0.000000 0.000000 0.000000 0.025626 0.000000 0.000000
# 5 0.000000 0.000000 0.000000 0.000000 0.039560 0.000000
# 6 0.000000 0.000000 0.000000 0.000000 0.000000 0.021619
#
#
# Mechanical properties :
#
#
# Convention : Reuss Voigt Hill
#
# Bulk Modulus (GPa) = 36.81758 39.32954 38.07356
# Shear Modulus (GPa) = 37.17212 41.65539 39.41376
#
# Velocity S-wave (km/s) = 3.93824 4.16897 4.05525
# Velocity P-wave (km/s) = 6.00345 6.29156 6.14919
#
# Compressibility (1/GPa) = 0.02716094
#
# Stress axis : x y z
#
# Youngs Moduli (GPa) = 96.71902 76.67244 104.99734
#
# Poissons Ratio (x) = 0.31440 0.14228
# Poissons Ratio (y) = 0.39661 -0.27124
# Poissons Ratio (z) = 0.13107 -0.19807
#
# Static dielectric constant tensor:
#      x y z
#    x 2.000240 0.000000 0.000000 
#    y 0.000000 1.946510 0.000000 
#    z 0.000000 0.000000 1.828240 
# 
# From -- ./inp_files/4315.got.cif
#   From: 2010.05.17/outbox.cif.g08.bks.cpg/sg56_3_cif.got.tgz:4315.got - 2010.06.03 13:42:01.
