data_PCOD9433310
_publ_section_title
;
Structure prediction by ZEFSAII (Michael W. Deem and Ramdas Pophale) SiO2 
 PCOD9433310
Probable space group: P C C N
;
_chemical_formula_sum "Si O2"
_cell_formula_units_Z 48
_cell_length_a 12.925226
_cell_length_b 9.269263
_cell_length_c 18.583837
_cell_angle_alpha 90.000000
_cell_angle_beta 90.000000
_cell_angle_gamma 90.000000
_cell_volume 2226.479690
_symmetry_space_group_name_H-M "P C C N"
_symmetry_group_IT_number 56
_symmetry_cell_setting 'orthorhombic'
loop_
_space_group_symop_operation_xyz
x,y,z
1/2-x,1/2-y,z
1/2+x,-y,1/2-z
-x,1/2+y,1/2-z
-x,-y,-z
1/2+x,1/2+y,-z
1/2-x,y,1/2+z
x,1/2-y,1/2+z
loop_
_atom_site_type_symbol
_atom_site_label
_atom_site_fract_x
_atom_site_fract_y
_atom_site_fract_z
Si Si1 0.118219 0.007647 0.787541
Si Si2 0.364358 0.680402 0.923397
Si Si3 0.851598 0.351087 0.413510
Si Si4 0.226881 0.082766 0.656352
Si Si5 0.016049 0.194206 0.311898
Si Si6 0.000837 0.456049 0.084117
O O1 0.215186 0.002539 0.733196
O O2 0.086904 0.175740 0.785389
O O3 0.134454 0.950343 0.867422
O O4 0.032643 0.902629 0.751404
O O5 0.250000 0.750000 0.922309
O O6 0.444558 0.805416 0.902998
O O7 0.390845 0.639548 0.005211
O O8 0.750000 0.250000 0.414461
O O9 0.817663 0.506901 0.387036
O O10 0.928732 0.278021 0.357789
O O11 0.250000 0.250000 0.663707
O O12 0.118010 0.054936 0.614592
O O13 0.058063 0.078538 0.369510
O O14 0.000000 0.500000 0.000000
#
# Coordination Sequence:
#
# PCOD9433310 Si02
#       6
#     8   8   8   8   8   8
#     4  11  25  42  63 101 131 178 219 281 334 394
#     4  11  25  42  68 100 130 176 230 278 337 402
#     4  11  21  45  69  93 130 179 225 268 343 410
#     4  11  26  43  67  98 140 181 225 280 348 405
#     4  11  24  41  69  96 136 177 224 277 340 404
#     4  11  21  45  69  97 135 175 222 286 333 401
#
# _framework density 21.558696999999999
#
# number of rings (size 3 to 8) (size 9 to 14) (size 15 to 20)
#    0.000    1.000    5.000    3.000    7.000    3.333 
#    0.000    0.833    0.000    0.000    0.000    0.000 
#    0.000    0.000    0.000    0.000    0.000    0.000 
#
# Total GULP energy -268414.387951 kJ/mol
# GULP energy per Si atom -5591.966416 kJ/mol
# Density = 2.150963 g / cm^3
# Si number density = 21.558697 Si / 1000 Ang^3
#
#
#
# Elastic Constant Matrix: (Units=GPa)
#
#
# Indices 1 2 3 4 5 6 
#
# 1 25.3299 9.8839 13.2825 0.0000 0.0000 0.0000
# 2 9.8839 122.0985 25.4259 0.0000 0.0000 0.0000
# 3 13.2825 25.4259 87.1480 0.0000 0.0000 0.0000
# 4 0.0000 0.0000 0.0000 35.2418 0.0000 0.0000
# 5 0.0000 0.0000 0.0000 0.0000 12.6942 0.0000
# 6 0.0000 0.0000 0.0000 0.0000 0.0000 32.3803
#
#
#
# Elastic Compliance Matrix: (Units=1/GPa)
#
#
# Indices 1 2 3 4 5 6 
#
# 1 0.043496 -0.002279 -0.005964 0.000000 0.000000 0.000000
# 2 -0.002279 0.008839 -0.002232 0.000000 0.000000 0.000000
# 3 -0.005964 -0.002232 0.013035 0.000000 0.000000 0.000000
# 4 0.000000 0.000000 0.000000 0.028375 0.000000 0.000000
# 5 0.000000 0.000000 0.000000 0.000000 0.078776 0.000000
# 6 0.000000 0.000000 0.000000 0.000000 0.000000 0.030883
#
#
# Mechanical properties :
#
#
# Convention : Reuss Voigt Hill
#
# Bulk Modulus (GPa) = 22.51230 36.86231 29.68731
# Shear Modulus (GPa) = 20.90641 28.46221 24.68431
#
# Velocity S-wave (km/s) = 3.11745 3.63742 3.38743
# Velocity P-wave (km/s) = 4.83973 5.89719 5.39443
#
# Compressibility (1/GPa) = 0.04442015
#
# Stress axis : x y z
#
# Youngs Moduli (GPa) = 22.99065 113.13120 76.71730
#
# Poissons Ratio (x) = 0.25782 0.45758
# Poissons Ratio (y) = 0.05239 0.17120
# Poissons Ratio (z) = 0.13713 0.25246
#
# Static dielectric constant tensor:
#      x y z
#    x -3.462070 0.000000 0.000000 
#    y 0.000000 1.769570 0.000000 
#    z 0.000000 0.000000 1.791640 
# 
# From -- ./inp_files/16164.got.cif
#   From: 2010.05.17/outbox.cif.g08.bks.cpg/sg56_9_cif.got.tgz:16164.got - 2010.06.03 13:42:01.
