data_PCOD9433752
_publ_section_title
;
Structure prediction by ZEFSAII (Michael W. Deem and Ramdas Pophale) SiO2 
 PCOD9433752
Probable space group: P C C N
;
_chemical_formula_sum "Si O2"
_cell_formula_units_Z 48
_cell_length_a 13.993095
_cell_length_b 18.566495
_cell_length_c 9.880571
_cell_angle_alpha 90.000000
_cell_angle_beta 90.000000
_cell_angle_gamma 90.000000
_cell_volume 2566.999303
_symmetry_space_group_name_H-M "P C C N"
_symmetry_group_IT_number 56
_symmetry_cell_setting 'orthorhombic'
loop_
_space_group_symop_operation_xyz
x,y,z
1/2-x,1/2-y,z
1/2+x,-y,1/2-z
-x,1/2+y,1/2-z
-x,-y,-z
1/2+x,1/2+y,-z
1/2-x,y,1/2+z
x,1/2-y,1/2+z
loop_
_atom_site_type_symbol
_atom_site_label
_atom_site_fract_x
_atom_site_fract_y
_atom_site_fract_z
Si Si1 0.469837 0.474224 0.852927
Si Si2 0.067685 0.821013 0.202151
Si Si3 0.042319 0.689586 0.019688
Si Si4 0.443990 0.050816 0.895002
Si Si5 0.743777 0.383224 0.410354
Si Si6 0.738130 0.016219 0.658551
O O1 0.520269 0.399568 0.814298
O O2 0.504522 0.534844 0.747315
O O3 0.355860 0.468113 0.849744
O O4 0.500000 0.500000 0.000000
O O5 0.023743 0.762205 0.101899
O O6 0.057113 0.799595 0.359172
O O7 0.176875 0.830724 0.152220
O O8 0.141181 0.653928 0.074109
O O9 0.960645 0.631144 0.052307
O O10 0.335233 0.024700 0.879933
O O11 0.500000 0.000000 0.000000
O O12 0.772328 0.416258 0.555583
O O13 0.742211 0.450578 0.308041
#
# Coordination Sequence:
#
# PCOD9433752 Si02
#       6
#     8   8   8   8   8   8
#     4  12  23  40  67  97 131 164 220 268 314 388
#     4  12  27  43  61  98 133 175 213 264 334 388
#     4  12  27  42  65  92 137 174 213 267 329 393
#     4  12  21  44  67  91 128 177 215 264 321 381
#     4  12  21  40  66  96 128 165 213 267 332 386
#     4  12  22  38  70 100 124 164 218 276 317 375
#
# _framework density 18.698874
#
# number of rings (size 3 to 8) (size 9 to 14) (size 15 to 20)
#    0.000    0.000   10.000    0.500    4.667    1.333 
#    0.000    0.833    0.000    2.000    0.000    0.000 
#    0.000    0.000    0.000    0.000    0.000    0.000 
#
# Total GULP energy -268393.563138 kJ/mol
# GULP energy per Si atom -5591.532565 kJ/mol
# Density = 1.865631 g / cm^3
# Si number density = 18.698874 Si / 1000 Ang^3
#
#
#
# Elastic Constant Matrix: (Units=GPa)
#
#
# Indices 1 2 3 4 5 6 
#
# 1 90.6004 -1.7031 15.4045 0.0000 0.0000 0.0000
# 2 -1.7031 50.5464 10.6454 0.0000 0.0000 0.0000
# 3 15.4045 10.6454 115.7847 0.0000 0.0000 0.0000
# 4 0.0000 0.0000 0.0000 32.5969 0.0000 0.0000
# 5 0.0000 0.0000 0.0000 0.0000 20.2328 0.0000
# 6 0.0000 0.0000 0.0000 0.0000 0.0000 24.3281
#
#
#
# Elastic Compliance Matrix: (Units=1/GPa)
#
#
# Indices 1 2 3 4 5 6 
#
# 1 0.011318 0.000712 -0.001571 0.000000 0.000000 0.000000
# 2 0.000712 0.020219 -0.001954 0.000000 0.000000 0.000000
# 3 -0.001571 -0.001954 0.009025 0.000000 0.000000 0.000000
# 4 0.000000 0.000000 0.000000 0.030678 0.000000 0.000000
# 5 0.000000 0.000000 0.000000 0.000000 0.049425 0.000000
# 6 0.000000 0.000000 0.000000 0.000000 0.000000 0.041105
#
#
# Mechanical properties :
#
#
# Convention : Reuss Voigt Hill
#
# Bulk Modulus (GPa) = 28.62279 33.95834 31.29057
# Shear Modulus (GPa) = 27.92655 30.93722 29.43188
#
# Velocity S-wave (km/s) = 3.86876 4.07196 3.97166
# Velocity P-wave (km/s) = 5.94112 6.34885 6.14836
#
# Compressibility (1/GPa) = 0.03493719
#
# Stress axis : x y z
#
# Youngs Moduli (GPa) = 88.35464 49.45771 110.79841
#
# Poissons Ratio (x) = -0.03523 0.17410
# Poissons Ratio (y) = -0.06293 0.21647
# Poissons Ratio (z) = 0.13883 0.09663
#
# Static dielectric constant tensor:
#      x y z
#    x 1.663350 0.000000 0.000000 
#    y 0.000000 1.669020 0.000000 
#    z 0.000000 0.000000 1.592600 
# 
# From -- ./inp_files/3361.got.cif
#   From: 2010.05.17/outbox.cif.g08.bks.cpg/sg56_2_cif.got.tgz:3361.got - 2010.06.03 13:42:01.
