data_PCOD9433550
_publ_section_title
;
Structure prediction by ZEFSAII (Michael W. Deem and Ramdas Pophale) SiO2 
 PCOD9433550
Probable space group: P C C N
;
_chemical_formula_sum "Si O2"
_cell_formula_units_Z 32
_cell_length_a 4.953977
_cell_length_b 20.582990
_cell_length_c 13.185036
_cell_angle_alpha 90.000000
_cell_angle_beta 90.000000
_cell_angle_gamma 90.000000
_cell_volume 1344.447255
_symmetry_space_group_name_H-M "P C C N"
_symmetry_group_IT_number 56
_symmetry_cell_setting 'orthorhombic'
loop_
_space_group_symop_operation_xyz
x,y,z
1/2-x,1/2-y,z
1/2+x,-y,1/2-z
-x,1/2+y,1/2-z
-x,-y,-z
1/2+x,1/2+y,-z
1/2-x,y,1/2+z
x,1/2-y,1/2+z
loop_
_atom_site_type_symbol
_atom_site_label
_atom_site_fract_x
_atom_site_fract_y
_atom_site_fract_z
Si Si1 0.062210 0.467705 0.368534
Si Si2 0.733926 0.597145 0.329544
Si Si3 0.002235 0.295520 0.797285
Si Si4 0.566738 0.407445 0.461194
O O1 0.942268 0.537402 0.342386
O O2 0.866461 0.435326 0.451596
O O3 0.633583 0.539689 0.591582
O O4 0.052372 0.424027 0.266914
O O5 0.552316 0.606176 0.428595
O O6 0.898570 0.660658 0.296781
O O7 0.250000 0.250000 0.827557
O O8 0.943671 0.344431 0.889725
O O9 0.750000 0.250000 0.773351
#
# Coordination Sequence:
#
# PCOD9433550 Si02
#       4
#     8   8   8   8
#     4  11  24  42  69 107 139 170 231 291 348 434
#     4  11  24  45  73 103 141 188 224 287 364 414
#     4  11  25  45  65  95 136 179 237 287 325 405
#     4  11  25  44  69 101 140 181 227 289 353 415
#
# _framework density 23.801603
#
# number of rings (size 3 to 8) (size 9 to 14) (size 15 to 20)
#    0.000    1.000    0.000    7.500    0.000   11.000 
#    0.000    5.000    0.000    0.000    0.000    0.000 
#    0.000    0.000    0.000    0.000    0.000    0.000 
#
# Total GULP energy -179591.753700 kJ/mol
# GULP energy per Si atom -5612.242303 kJ/mol
# Density = 2.374743 g / cm^3
# Si number density = 23.801603 Si / 1000 Ang^3
#
#
#
# Elastic Constant Matrix: (Units=GPa)
#
#
# Indices 1 2 3 4 5 6 
#
# 1 128.5140 51.7251 33.7468 0.0000 0.0000 0.0000
# 2 51.7251 139.3973 31.8591 0.0000 0.0000 0.0000
# 3 33.7468 31.8591 157.3445 0.0000 0.0000 0.0000
# 4 0.0000 0.0000 0.0000-1597.2166 0.0000 0.0000
# 5 0.0000 0.0000 0.0000 0.0000 33.5256 0.0000
# 6 0.0000 0.0000 0.0000 0.0000 0.0000 49.8621
#
#
#
# Elastic Compliance Matrix: (Units=1/GPa)
#
#
# Indices 1 2 3 4 5 6 
#
# 1 0.009424 -0.003182 -0.001377 0.000000 0.000000 0.000000
# 2 -0.003182 0.008596 -0.001058 0.000000 0.000000 0.000000
# 3 -0.001377 -0.001058 0.006865 0.000000 0.000000 0.000000
# 4 0.000000 0.000000 0.000000 -0.000626 0.000000 0.000000
# 5 0.000000 0.000000 0.000000 0.000000 0.029828 0.000000
# 6 0.000000 0.000000 0.000000 0.000000 0.000000 0.020055
#
#
# Mechanical properties :
#
#
# Convention : Reuss Voigt Hill
#
# Bulk Modulus (GPa) = 73.25523 73.32419 73.28971
# Shear Modulus (GPa) = 55.60111 -282.23745 -113.31817
#
# Velocity S-wave (km/s) = 4.83849 -10.90122 -6.90745
# Velocity P-wave (km/s) = 7.87774 11.29493 5.72349
#
# Compressibility (1/GPa) = 0.01365090
#
# Stress axis : x y z
#
# Youngs Moduli (GPa) = 106.11735 116.32900 145.66586
#
# Poissons Ratio (x) = 0.37016 0.20056
# Poissons Ratio (y) = 0.33767 0.15413
# Poissons Ratio (z) = 0.14611 0.12309
#
# Static dielectric constant tensor:
#      x y z
#    x 1.860060 0.000000 0.000000 
#    y 0.000000 1.880720 0.000000 
#    z 0.000000 0.000000 1.928800 
# 
# From -- ./inp_files/5431.got.cif
#   From: 2010.05.17/outbox.cif.g08.bks.cpg/sg56_3_cif.got.tgz:5431.got - 2010.06.03 13:42:01.
