data_PCOD9433407
_publ_section_title
;
Structure prediction by ZEFSAII (Michael W. Deem and Ramdas Pophale) SiO2 
 PCOD9433407
Probable space group: P C C N
;
_chemical_formula_sum "Si O2"
_cell_formula_units_Z 60
_cell_length_a 18.012843
_cell_length_b 7.499624
_cell_length_c 17.290965
_cell_angle_alpha 90.000000
_cell_angle_beta 90.000000
_cell_angle_gamma 90.000000
_cell_volume 2335.828675
_symmetry_space_group_name_H-M "P C C N"
_symmetry_group_IT_number 56
_symmetry_cell_setting 'orthorhombic'
loop_
_space_group_symop_operation_xyz
x,y,z
1/2-x,1/2-y,z
1/2+x,-y,1/2-z
-x,1/2+y,1/2-z
-x,-y,-z
1/2+x,1/2+y,-z
1/2-x,y,1/2+z
x,1/2-y,1/2+z
loop_
_atom_site_type_symbol
_atom_site_label
_atom_site_fract_x
_atom_site_fract_y
_atom_site_fract_z
Si Si1 0.145709 0.141808 0.069884
Si Si2 0.550811 0.710908 0.310067
Si Si3 0.797634 0.478184 0.946625
Si Si4 0.718804 0.560216 0.613090
Si Si5 0.941300 0.541739 0.566562
Si Si6 0.355151 0.569310 0.786558
Si Si7 0.250000 0.750000 0.678594
Si Si8 0.049070 0.103642 0.345396
O O1 0.084854 0.134036 0.136391
O O2 0.147185 0.355010 0.055959
O O3 0.224096 0.062787 0.095148
O O4 0.130325 0.050775 0.988680
O O5 0.613995 0.577942 0.274291
O O6 0.493726 0.581396 0.353582
O O7 0.520508 0.811125 0.234780
O O8 0.809028 0.315973 0.890409
O O9 0.789978 0.438273 0.037041
O O10 0.750000 0.750000 0.581707
O O11 0.781044 0.507933 0.673614
O O12 0.638092 0.579311 0.651844
O O13 0.915153 0.431415 0.642541
O O14 0.963507 0.739880 0.593640
O O15 0.000000 0.500000 0.500000
O O16 0.319041 0.738664 0.742771
#
# Coordination Sequence:
#
# PCOD9433407 Si02
#       8
#     8   8   8   8   8   8   4   8
#     4  11  22  45  74 101 143 199 249 301 374 473
#     4  11  26  44  69 109 151 195 246 312 394 463
#     4  11  22  45  75 110 144 192 253 317 372 448
#     4  12  20  48  84 101 137 203 271 300 367 464
#     4  11  24  47  75 104 141 205 255 310 376 465
#     4  11  25  47  70 108 152 193 246 311 381 459
#     4  12  28  42  70 122 160 184 246 334 392 436
#     4  11  26  46  73 108 150 197 255 317 377 469
#
# _framework density 25.686816
#
# number of rings (size 3 to 8) (size 9 to 14) (size 15 to 20)
#    0.000    0.800    8.000    0.000    5.600    3.200 
#    0.000    0.000    0.000    0.000    0.000    0.000 
#    0.000    0.000    0.000    0.000    0.000    0.000 
#
# Total GULP energy -334202.692393 kJ/mol
# GULP energy per Si atom -5570.044873 kJ/mol
# Density = 2.562835 g / cm^3
# Si number density = 25.686816 Si / 1000 Ang^3
#
#
#
# Elastic Constant Matrix: (Units=GPa)
#
#
# Indices 1 2 3 4 5 6 
#
# 1 98.1904 10.0936 41.7498 0.0000 0.0000 0.0000
# 2 10.0936 57.5765 27.6488 0.0000 0.0000 0.0000
# 3 41.7498 27.6488 116.0332 0.0000 0.0000 0.0000
# 4 0.0000 0.0000 0.0000 3.2072 0.0000 0.0000
# 5 0.0000 0.0000 0.0000 0.0000 39.1793 0.0000
# 6 0.0000 0.0000 0.0000 0.0000 0.0000 38.5945
#
#
#
# Elastic Compliance Matrix: (Units=1/GPa)
#
#
# Indices 1 2 3 4 5 6 
#
# 1 0.012024 -0.000034 -0.004318 0.000000 0.000000 0.000000
# 2 -0.000034 0.019612 -0.004661 0.000000 0.000000 0.000000
# 3 -0.004318 -0.004661 0.011283 0.000000 0.000000 0.000000
# 4 0.000000 0.000000 0.000000 0.311801 0.000000 0.000000
# 5 0.000000 0.000000 0.000000 0.000000 0.025524 0.000000
# 6 0.000000 0.000000 0.000000 0.000000 0.000000 0.025910
#
#
# Mechanical properties :
#
#
# Convention : Reuss Voigt Hill
#
# Bulk Modulus (GPa) = 40.17339 47.86493 44.01916
# Shear Modulus (GPa) = 11.56129 29.01674 20.28902
#
# Velocity S-wave (km/s) = 2.12383 3.36465 2.81350
# Velocity P-wave (km/s) = 4.65702 5.81111 5.26578
#
# Compressibility (1/GPa) = 0.02489210
#
# Stress axis : x y z
#
# Youngs Moduli (GPa) = 83.16801 50.98804 88.63234
#
# Poissons Ratio (x) = 0.00175 0.38273
# Poissons Ratio (y) = 0.00285 0.41311
# Poissons Ratio (z) = 0.35913 0.23765
#
# Static dielectric constant tensor:
#      x y z
#    x 2.189250 0.000000 0.000000 
#    y 0.000000 2.321410 0.000000 
#    z 0.000000 0.000000 2.014430 
# 
# From -- ./inp_files/16651.got.cif
#   From: 2010.05.17/outbox.cif.g08.bks.cpg/sg56_9_cif.got.tgz:16651.got - 2010.06.03 13:42:01.
