data_PCOD9433152
_publ_section_title
;
Structure prediction by ZEFSAII (Michael W. Deem and Ramdas Pophale) SiO2 
 PCOD9433152
Probable space group: P C C N
;
_chemical_formula_sum "Si O2"
_cell_formula_units_Z 40
_cell_length_a 13.880245
_cell_length_b 13.253873
_cell_length_c 8.548053
_cell_angle_alpha 90.000000
_cell_angle_beta 90.000000
_cell_angle_gamma 90.000000
_cell_volume 1572.559704
_symmetry_space_group_name_H-M "P C C N"
_symmetry_group_IT_number 56
_symmetry_cell_setting 'orthorhombic'
loop_
_space_group_symop_operation_xyz
x,y,z
1/2-x,1/2-y,z
1/2+x,-y,1/2-z
-x,1/2+y,1/2-z
-x,-y,-z
1/2+x,1/2+y,-z
1/2-x,y,1/2+z
x,1/2-y,1/2+z
loop_
_atom_site_type_symbol
_atom_site_label
_atom_site_fract_x
_atom_site_fract_y
_atom_site_fract_z
Si Si1 0.250000 0.250000 0.192018
Si Si2 0.907702 0.287091 0.519084
Si Si3 0.347282 0.902779 0.795078
Si Si4 0.885414 0.661993 0.549575
Si Si5 0.630611 0.469257 0.218780
Si Si6 0.000000 0.000000 0.500000
O O1 0.168974 0.299387 0.297446
O O2 0.307176 0.328222 0.085380
O O3 0.854373 0.186045 0.572966
O O4 0.863758 0.345526 0.370659
O O5 0.907858 0.359617 0.669810
O O6 0.020686 0.269891 0.481530
O O7 0.245669 0.958206 0.793490
O O8 0.434565 0.975768 0.841668
O O9 0.907751 0.547461 0.589473
O O10 0.596833 0.499175 0.390441
#
# Coordination Sequence:
#
# PCOD9433152 Si02
#       6
#     4   8   8   8   8   4
#     4  10  26  46  76 106 150 200 272 324 416 494
#     4  12  26  51  77 115 160 212 271 348 420 497
#     4  12  28  49  84 117 166 215 283 347 427 507
#     4  11  25  47  75 111 152 209 260 343 407 511
#     4  12  28  48  78 116 162 213 278 340 421 503
#     4  12  28  50  78 120 164 222 270 352 420 512
#
# _framework density 25.436236999999998
#
# number of rings (size 3 to 8) (size 9 to 14) (size 15 to 20)
#    0.000    0.400    2.000    4.800    5.600    3.200 
#    0.000    0.000    0.000    0.000    0.000    0.000 
#    0.000    0.000    0.000    0.000    0.000    0.000 
#
# Total GULP energy -223375.172201 kJ/mol
# GULP energy per Si atom -5584.379305 kJ/mol
# Density = 2.537834 g / cm^3
# Si number density = 25.436237 Si / 1000 Ang^3
#
#
#
# Elastic Constant Matrix: (Units=GPa)
#
#
# Indices 1 2 3 4 5 6 
#
# 1 156.8961 22.7282 65.3300 0.0000 0.0000 0.0000
# 2 22.7282 43.7790 12.2278 0.0000 0.0000 0.0000
# 3 65.3300 12.2278 89.8000 0.0000 0.0000 0.0000
# 4 0.0000 0.0000 0.0000 -97.0296 0.0000 0.0000
# 5 0.0000 0.0000 0.0000 0.0000 -27.2102 0.0000
# 6 0.0000 0.0000 0.0000 0.0000 0.0000 28.4695
#
#
#
# Elastic Compliance Matrix: (Units=1/GPa)
#
#
# Indices 1 2 3 4 5 6 
#
# 1 0.009540 -0.003133 -0.006514 0.000000 0.000000 0.000000
# 2 -0.003133 0.024774 -0.001094 0.000000 0.000000 0.000000
# 3 -0.006514 -0.001094 0.016023 0.000000 0.000000 0.000000
# 4 0.000000 0.000000 0.000000 -0.010306 0.000000 0.000000
# 5 0.000000 0.000000 0.000000 0.000000 -0.036751 0.000000
# 6 0.000000 0.000000 0.000000 0.000000 0.000000 0.035125
#
#
# Mechanical properties :
#
#
# Convention : Reuss Voigt Hill
#
# Bulk Modulus (GPa) = 34.65508 54.56079 44.60793
# Shear Modulus (GPa) = 71.93641 -6.47478 32.73082
#
# Velocity S-wave (km/s) = 5.32376 -1.59719 3.59106
# Velocity P-wave (km/s) = 7.17244 4.25385 5.89657
#
# Compressibility (1/GPa) = 0.02885580
#
# Stress axis : x y z
#
# Youngs Moduli (GPa) = 104.82494 40.36454 62.40849
#
# Poissons Ratio (x) = 0.12647 0.40650
# Poissons Ratio (y) = 0.32845 0.06827
# Poissons Ratio (z) = 0.68278 0.04416
#
# Static dielectric constant tensor:
#      x y z
#    x 1.928790 0.000000 0.000000 
#    y 0.000000 2.232050 0.000000 
#    z 0.000000 0.000000 2.118080 
# 
# From -- ./inp_files/3191.got.cif
#   From: 2010.05.17/outbox.cif.g08.bks.cpg/sg56_2_cif.got.tgz:3191.got - 2010.06.03 13:42:01.
