data_PCOD9433053
_publ_section_title
;
Structure prediction by ZEFSAII (Michael W. Deem and Ramdas Pophale) SiO2 
 PCOD9433053
Probable space group: P C C N
;
_chemical_formula_sum "Si O2"
_cell_formula_units_Z 36
_cell_length_a 18.982688
_cell_length_b 4.997971
_cell_length_c 13.855704
_cell_angle_alpha 90.000000
_cell_angle_beta 90.000000
_cell_angle_gamma 90.000000
_cell_volume 1314.558866
_symmetry_space_group_name_H-M "P C C N"
_symmetry_group_IT_number 56
_symmetry_cell_setting 'orthorhombic'
loop_
_space_group_symop_operation_xyz
x,y,z
1/2-x,1/2-y,z
1/2+x,-y,1/2-z
-x,1/2+y,1/2-z
-x,-y,-z
1/2+x,1/2+y,-z
1/2-x,y,1/2+z
x,1/2-y,1/2+z
loop_
_atom_site_type_symbol
_atom_site_label
_atom_site_fract_x
_atom_site_fract_y
_atom_site_fract_z
Si Si1 0.671642 0.648467 0.737269
Si Si2 0.535045 0.246003 0.548618
Si Si3 0.187205 0.916357 0.459457
Si Si4 0.250000 0.750000 0.644658
Si Si5 0.526089 0.938984 0.752563
O O1 0.750000 0.750000 0.753339
O O2 0.665339 0.630279 0.620616
O O3 0.684094 0.366378 0.793468
O O4 0.605460 0.823629 0.770578
O O5 0.500000 0.500000 0.500000
O O6 0.523071 0.206313 0.665157
O O7 0.617826 0.243475 0.529905
O O8 0.500000 0.000000 0.500000
O O9 0.250000 0.750000 0.409741
O O10 0.218590 0.963649 0.565666
O O11 0.504387 0.199136 0.816894
#
# Coordination Sequence:
#
# PCOD9433053 Si02
#       5
#     8   8   8   4   8
#     4  12  27  45  79 109 154 205 262 320 396 465
#     4  12  27  49  77 110 152 200 256 318 390 458
#     4  10  25  48  75 108 156 196 257 318 385 459
#     4  10  24  48  72 106 150 198 264 306 386 462
#     4  12  28  48  78 110 153 203 256 319 390 469
#
# _framework density 27.385611999999998
#
# number of rings (size 3 to 8) (size 9 to 14) (size 15 to 20)
#    0.667    0.000    3.333    2.667    9.333    0.889 
#    0.000    0.000    0.000    0.000    0.000    0.000 
#    0.000    0.000    0.000    0.000    0.000    0.000 
#
# Total GULP energy -200618.135625 kJ/mol
# GULP energy per Si atom -5572.725990 kJ/mol
# Density = 2.732328 g / cm^3
# Si number density = 27.385612 Si / 1000 Ang^3
#
#
#
# Elastic Constant Matrix: (Units=GPa)
#
#
# Indices 1 2 3 4 5 6 
#
# 1 226.9274 64.4747 20.8184 0.0000 0.0000 0.0000
# 2 64.4747 214.7777 45.1193 0.0000 0.0000 0.0000
# 3 20.8184 45.1193 180.7143 0.0000 0.0000 0.0000
# 4 0.0000 0.0000 0.0000 41.7734 0.0000 0.0000
# 5 0.0000 0.0000 0.0000 0.0000 25.3924 0.0000
# 6 0.0000 0.0000 0.0000 0.0000 0.0000 56.5099
#
#
#
# Elastic Compliance Matrix: (Units=1/GPa)
#
#
# Indices 1 2 3 4 5 6 
#
# 1 0.004825 -0.001405 -0.000205 0.000000 0.000000 0.000000
# 2 -0.001405 0.005323 -0.001167 0.000000 0.000000 0.000000
# 3 -0.000205 -0.001167 0.005849 0.000000 0.000000 0.000000
# 4 0.000000 0.000000 0.000000 0.023939 0.000000 0.000000
# 5 0.000000 0.000000 0.000000 0.000000 0.039382 0.000000
# 6 0.000000 0.000000 0.000000 0.000000 0.000000 0.017696
#
#
# Mechanical properties :
#
#
# Convention : Reuss Voigt Hill
#
# Bulk Modulus (GPa) = 95.77030 98.13823 96.95427
# Shear Modulus (GPa) = 47.14837 57.53560 52.34198
#
# Velocity S-wave (km/s) = 4.15378 4.58858 4.37658
# Velocity P-wave (km/s) = 7.61919 7.99918 7.81150
#
# Compressibility (1/GPa) = 0.01044165
#
# Stress axis : x y z
#
# Youngs Moduli (GPa) = 207.26351 187.86318 170.98102
#
# Poissons Ratio (x) = 0.26401 0.03504
# Poissons Ratio (y) = 0.29127 0.19955
# Poissons Ratio (z) = 0.04248 0.21926
#
# Static dielectric constant tensor:
#      x y z
#    x 2.235910 0.000000 0.000000 
#    y 0.000000 2.584230 0.000000 
#    z 0.000000 0.000000 2.221960 
# 
# From -- ./inp_files/18927.got.cif
#   From: 2010.05.17/outbox.cif.g08.bks.cpg/sg56_10_cif.got.tgz:18927.got - 2010.06.03 13:42:01.
