data_PCOD9433837
_publ_section_title
;
Structure prediction by ZEFSAII (Michael W. Deem and Ramdas Pophale) SiO2 
 PCOD9433837
Probable space group: P C C N
;
_chemical_formula_sum "Si O2"
_cell_formula_units_Z 24
_cell_length_a 14.002862
_cell_length_b 4.882567
_cell_length_c 15.540603
_cell_angle_alpha 90.000000
_cell_angle_beta 90.000000
_cell_angle_gamma 90.000000
_cell_volume 1062.509658
_symmetry_space_group_name_H-M "P C C N"
_symmetry_group_IT_number 56
_symmetry_cell_setting 'orthorhombic'
loop_
_space_group_symop_operation_xyz
x,y,z
1/2-x,1/2-y,z
1/2+x,-y,1/2-z
-x,1/2+y,1/2-z
-x,-y,-z
1/2+x,1/2+y,-z
1/2-x,y,1/2+z
x,1/2-y,1/2+z
loop_
_atom_site_type_symbol
_atom_site_label
_atom_site_fract_x
_atom_site_fract_y
_atom_site_fract_z
Si Si1 0.250000 0.250000 0.695505
Si Si2 0.441205 0.993633 0.777686
Si Si3 0.560902 0.250487 0.034284
Si Si4 0.750000 0.250000 0.428073
O O1 0.158952 0.371151 0.747171
O O2 0.278540 0.498348 0.633105
O O3 0.486672 0.755502 0.716355
O O4 0.427900 0.823446 0.865438
O O5 0.500000 0.500000 0.000000
O O6 0.661844 0.299578 0.990164
O O7 0.500000 0.000000 0.000000
#
# Coordination Sequence:
#
# PCOD9433837 Si02
#       4
#     4   8   8   4
#     4  12  26  46  72 106 142 184 236 294 354 422
#     4  12  26  46  73 107 144 188 239 296 357 426
#     4  12  26  46  70 101 141 187 235 291 355 424
#     4  12  26  46  70 102 142 186 234 292 356 422
#
# _framework density 22.588028999999999
#
# number of rings (size 3 to 8) (size 9 to 14) (size 15 to 20)
#    0.000    0.000    0.000   12.000    0.000    8.000 
#    0.000    0.000    0.000    0.000    0.000    0.000 
#    0.000    0.000    0.000    0.000    0.000    0.000 
#
# Total GULP energy -134228.224334 kJ/mol
# GULP energy per Si atom -5592.842681 kJ/mol
# Density = 2.253662 g / cm^3
# Si number density = 22.588029 Si / 1000 Ang^3
#
#
#
# Elastic Constant Matrix: (Units=GPa)
#
#
# Indices 1 2 3 4 5 6 
#
# 1 221.3077 79.4127 89.8335 0.0000 0.0000 0.0000
# 2 79.4127 200.1464 68.0128 0.0000 0.0000 0.0000
# 3 89.8335 68.0128 160.3644 0.0000 0.0000 0.0000
# 4 0.0000 0.0000 0.0000 52.1475 0.0000 0.0000
# 5 0.0000 0.0000 0.0000 0.0000 -7.2489 0.0000
# 6 0.0000 0.0000 0.0000 0.0000 0.0000 45.2435
#
#
#
# Elastic Compliance Matrix: (Units=1/GPa)
#
#
# Indices 1 2 3 4 5 6 
#
# 1 0.006210 -0.001498 -0.002844 0.000000 0.000000 0.000000
# 2 -0.001498 0.006199 -0.001790 0.000000 0.000000 0.000000
# 3 -0.002844 -0.001790 0.008588 0.000000 0.000000 0.000000
# 4 0.000000 0.000000 0.000000 0.019176 0.000000 0.000000
# 5 0.000000 0.000000 0.000000 0.000000 -0.137951 0.000000
# 6 0.000000 0.000000 0.000000 0.000000 0.000000 0.022103
#
#
# Mechanical properties :
#
#
# Convention : Reuss Voigt Hill
#
# Bulk Modulus (GPa) = 114.49206 117.37073 115.93140
# Shear Modulus (GPa) = -82.64349 40.99907 -20.82221
#
# Velocity S-wave (km/s) = -6.05531 4.26500 -3.03945
# Velocity P-wave (km/s) = 1.38135 8.73658 6.25444
#
# Compressibility (1/GPa) = 0.00873423
#
# Stress axis : x y z
#
# Youngs Moduli (GPa) = 161.02094 161.31921 116.44193
#
# Poissons Ratio (x) = 0.24162 0.33113
# Poissons Ratio (y) = 0.24117 0.20843
# Poissons Ratio (z) = 0.45790 0.28876
#
# Static dielectric constant tensor:
#      x y z
#    x 1.791840 0.000000 0.000000 
#    y 0.000000 1.923640 0.000000 
#    z 0.000000 0.000000 1.980210 
# 
# From -- ./inp_files/15298.got.cif
#   From: 2010.05.17/outbox.cif.g08.bks.cpg/sg56_8_cif.got.tgz:15298.got - 2010.06.03 13:42:01.
