data_PCOD9433171
_publ_section_title
;
Structure prediction by ZEFSAII (Michael W. Deem and Ramdas Pophale) SiO2 
 PCOD9433171
Probable space group: P C C N
;
_chemical_formula_sum "Si O2"
_cell_formula_units_Z 32
_cell_length_a 16.109861
_cell_length_b 5.211265
_cell_length_c 14.749745
_cell_angle_alpha 90.000000
_cell_angle_beta 90.000000
_cell_angle_gamma 90.000000
_cell_volume 1238.281725
_symmetry_space_group_name_H-M "P C C N"
_symmetry_group_IT_number 56
_symmetry_cell_setting 'orthorhombic'
loop_
_space_group_symop_operation_xyz
x,y,z
1/2-x,1/2-y,z
1/2+x,-y,1/2-z
-x,1/2+y,1/2-z
-x,-y,-z
1/2+x,1/2+y,-z
1/2-x,y,1/2+z
x,1/2-y,1/2+z
loop_
_atom_site_type_symbol
_atom_site_label
_atom_site_fract_x
_atom_site_fract_y
_atom_site_fract_z
Si Si1 0.521506 0.695120 0.123649
Si Si2 0.105517 0.691023 0.909932
Si Si3 0.339021 0.357313 0.256075
Si Si4 0.162933 0.856260 0.094700
O O1 0.533099 0.401412 0.095358
O O2 0.576978 0.712761 0.214359
O O3 0.425265 0.761153 0.125899
O O4 0.570250 0.909535 0.064747
O O5 0.148150 0.624276 0.813444
O O6 0.161722 0.818252 0.987157
O O7 0.250000 0.250000 0.286630
O O8 0.339386 0.376307 0.147852
O O9 0.250000 0.750000 0.129473
#
# Coordination Sequence:
#
# PCOD9433171 Si02
#       4
#     8   8   8   8
#     4  10  26  51  77 106 159 207 259 319 395 472
#     4  10  26  50  79 103 159 203 260 316 396 466
#     4  10  28  46  81 111 161 202 270 318 405 460
#     4  12  28  44  79 119 154 199 269 324 396 466
#
# _framework density 25.84226
#
# number of rings (size 3 to 8) (size 9 to 14) (size 15 to 20)
#    1.500    0.000    0.000    1.500   10.500    4.000 
#    0.000    0.000    0.000    0.000    0.000    0.000 
#    0.000    0.000    0.000    0.000    0.000    0.000 
#
# Total GULP energy -178209.987001 kJ/mol
# GULP energy per Si atom -5569.062094 kJ/mol
# Density = 2.578344 g / cm^3
# Si number density = 25.842260 Si / 1000 Ang^3
#
#
#
# Elastic Constant Matrix: (Units=GPa)
#
#
# Indices 1 2 3 4 5 6 
#
# 1 172.7561 13.4708 31.5303 0.0000 0.0000 0.0000
# 2 13.4708 103.1358 34.8686 0.0000 0.0000 0.0000
# 3 31.5303 34.8686 97.9390 0.0000 0.0000 0.0000
# 4 0.0000 0.0000 0.0000 28.3259 0.0000 0.0000
# 5 0.0000 0.0000 0.0000 0.0000 21.1479 0.0000
# 6 0.0000 0.0000 0.0000 0.0000 0.0000 32.8346
#
#
#
# Elastic Compliance Matrix: (Units=1/GPa)
#
#
# Indices 1 2 3 4 5 6 
#
# 1 0.006152 -0.000152 -0.001926 0.000000 0.000000 0.000000
# 2 -0.000152 0.011026 -0.003877 0.000000 0.000000 0.000000
# 3 -0.001926 -0.003877 0.012211 0.000000 0.000000 0.000000
# 4 0.000000 0.000000 0.000000 0.035303 0.000000 0.000000
# 5 0.000000 0.000000 0.000000 0.000000 0.047286 0.000000
# 6 0.000000 0.000000 0.000000 0.000000 0.000000 0.030456
#
#
# Mechanical properties :
#
#
# Convention : Reuss Voigt Hill
#
# Bulk Modulus (GPa) = 57.21252 59.28559 58.24905
# Shear Modulus (GPa) = 31.21662 36.05909 33.63785
#
# Velocity S-wave (km/s) = 3.47935 3.73950 3.61177
# Velocity P-wave (km/s) = 6.19099 6.45261 6.32316
#
# Compressibility (1/GPa) = 0.01747869
#
# Stress axis : x y z
#
# Youngs Moduli (GPa) = 162.54969 90.69070 81.89476
#
# Poissons Ratio (x) = 0.01381 0.15776
# Poissons Ratio (y) = 0.02475 0.31748
# Poissons Ratio (z) = 0.31313 0.35158
#
# Static dielectric constant tensor:
#      x y z
#    x 2.004880 0.000000 0.000000 
#    y 0.000000 2.075360 0.000000 
#    z 0.000000 0.000000 2.145120 
# 
# From -- ./inp_files/12513.got.cif
#   From: 2010.05.17/outbox.cif.g08.bks.cpg/sg56_7_cif.got.tgz:12513.got - 2010.06.03 13:42:01.
