data_PCOD9433691
_publ_section_title
;
Structure prediction by ZEFSAII (Michael W. Deem and Ramdas Pophale) SiO2 
 PCOD9433691
Probable space group: P C C N
;
_chemical_formula_sum "Si O2"
_cell_formula_units_Z 40
_cell_length_a 22.028657
_cell_length_b 7.379599
_cell_length_c 9.682363
_cell_angle_alpha 90.000000
_cell_angle_beta 90.000000
_cell_angle_gamma 90.000000
_cell_volume 1573.990638
_symmetry_space_group_name_H-M "P C C N"
_symmetry_group_IT_number 56
_symmetry_cell_setting 'orthorhombic'
loop_
_space_group_symop_operation_xyz
x,y,z
1/2-x,1/2-y,z
1/2+x,-y,1/2-z
-x,1/2+y,1/2-z
-x,-y,-z
1/2+x,1/2+y,-z
1/2-x,y,1/2+z
x,1/2-y,1/2+z
loop_
_atom_site_type_symbol
_atom_site_label
_atom_site_fract_x
_atom_site_fract_y
_atom_site_fract_z
Si Si1 0.432719 0.420223 0.160520
Si Si2 0.627326 0.429377 0.485985
Si Si3 0.813804 0.354834 0.687796
Si Si4 0.495452 0.783617 0.081553
Si Si5 0.184498 0.192322 0.016603
O O1 0.452441 0.627381 0.148284
O O2 0.457856 0.342402 0.301837
O O3 0.469847 0.314814 0.041866
O O4 0.362092 0.390228 0.128167
O O5 0.642986 0.273718 0.595559
O O6 0.659642 0.389805 0.339220
O O7 0.555256 0.430149 0.460861
O O8 0.654168 0.620961 0.533009
O O9 0.750000 0.250000 0.697698
O O10 0.807859 0.542988 0.603344
O O11 0.250000 0.250000 0.073598
#
# Coordination Sequence:
#
# PCOD9433691 Si02
#       5
#     8   8   8   8   8
#     4  11  26  46  75 110 156 193 263 314 390 463
#     4  12  27  49  83 113 154 206 257 327 388 464
#     4  12  27  51  76 113 158 206 259 317 390 468
#     4  11  25  49  76 112 149 203 253 326 384 461
#     4  12  28  49  75 118 154 207 260 323 388 475
#
# _framework density 25.41311
#
# number of rings (size 3 to 8) (size 9 to 14) (size 15 to 20)
#    0.000    0.400    4.000    3.000    5.600    7.200 
#    0.000    0.000    0.000    0.000    0.000    0.000 
#    0.000    0.000    0.000    0.000    0.000    0.000 
#
# Total GULP energy -224757.869059 kJ/mol
# GULP energy per Si atom -5618.946726 kJ/mol
# Density = 2.535527 g / cm^3
# Si number density = 25.413110 Si / 1000 Ang^3
#
#
#
# Elastic Constant Matrix: (Units=GPa)
#
#
# Indices 1 2 3 4 5 6 
#
# 1 220.7027 46.4663 72.0313 0.0000 0.0000 0.0000
# 2 46.4663 143.8379 52.7120 0.0000 0.0000 0.0000
# 3 72.0313 52.7120 180.4033 0.0000 0.0000 0.0000
# 4 0.0000 0.0000 0.0000 4.0752 0.0000 0.0000
# 5 0.0000 0.0000 0.0000 0.0000 35.5866 0.0000
# 6 0.0000 0.0000 0.0000 0.0000 0.0000 49.6961
#
#
#
# Elastic Compliance Matrix: (Units=1/GPa)
#
#
# Indices 1 2 3 4 5 6 
#
# 1 0.005350 -0.001059 -0.001827 0.000000 0.000000 0.000000
# 2 -0.001059 0.007996 -0.001913 0.000000 0.000000 0.000000
# 3 -0.001827 -0.001913 0.006832 0.000000 0.000000 0.000000
# 4 0.000000 0.000000 0.000000 0.245386 0.000000 0.000000
# 5 0.000000 0.000000 0.000000 0.000000 0.028100 0.000000
# 6 0.000000 0.000000 0.000000 0.000000 0.000000 0.020122
#
#
# Mechanical properties :
#
#
# Convention : Reuss Voigt Hill
#
# Bulk Modulus (GPa) = 94.52609 98.59587 96.56098
# Shear Modulus (GPa) = 15.29470 42.78720 29.04095
#
# Velocity S-wave (km/s) = 2.45591 4.10770 3.38413
# Velocity P-wave (km/s) = 6.73190 7.83448 7.30403
#
# Compressibility (1/GPa) = 0.01057909
#
# Stress axis : x y z
#
# Youngs Moduli (GPa) = 186.91116 125.06958 146.37798
#
# Poissons Ratio (x) = 0.13243 0.26740
# Poissons Ratio (y) = 0.19792 0.28008
# Poissons Ratio (z) = 0.34145 0.23931
#
# Static dielectric constant tensor:
#      x y z
#    x 1.980300 0.000000 0.000000 
#    y 0.000000 2.033860 0.000000 
#    z 0.000000 0.000000 1.943840 
# 
# From -- ./inp_files/4679.got.cif
#   From: 2010.05.17/outbox.cif.g08.bks.cpg/sg56_3_cif.got.tgz:4679.got - 2010.06.03 13:42:01.
