data_PCOD9433257
_publ_section_title
;
Structure prediction by ZEFSAII (Michael W. Deem and Ramdas Pophale) SiO2 
 PCOD9433257
Probable space group: P C C N
;
_chemical_formula_sum "Si O2"
_cell_formula_units_Z 64
_cell_length_a 9.381622
_cell_length_b 14.643799
_cell_length_c 22.173271
_cell_angle_alpha 90.000000
_cell_angle_beta 90.000000
_cell_angle_gamma 90.000000
_cell_volume 3046.221329
_symmetry_space_group_name_H-M "P C C N"
_symmetry_group_IT_number 56
_symmetry_cell_setting 'orthorhombic'
loop_
_space_group_symop_operation_xyz
x,y,z
1/2-x,1/2-y,z
1/2+x,-y,1/2-z
-x,1/2+y,1/2-z
-x,-y,-z
1/2+x,1/2+y,-z
1/2-x,y,1/2+z
x,1/2-y,1/2+z
loop_
_atom_site_type_symbol
_atom_site_label
_atom_site_fract_x
_atom_site_fract_y
_atom_site_fract_z
Si Si1 0.596494 0.454543 0.448819
Si Si2 0.236075 0.476053 0.166783
Si Si3 0.914598 0.237049 0.392728
Si Si4 0.063498 0.579995 0.345684
Si Si5 0.745337 0.582922 0.708067
Si Si6 0.072460 0.637305 0.222241
Si Si7 0.678833 0.660336 0.085497
Si Si8 0.646430 0.031221 0.529630
O O1 0.500000 0.500000 0.500000
O O2 0.639551 0.521490 0.393241
O O3 0.536786 0.360385 0.420934
O O4 0.743721 0.430163 0.482068
O O5 0.401839 0.459260 0.150879
O O6 0.204093 0.406974 0.222440
O O7 0.202566 0.575404 0.196746
O O8 0.750000 0.250000 0.405360
O O9 0.934089 0.224046 0.320875
O O10 0.011052 0.318815 0.415707
O O11 0.169051 0.503754 0.317738
O O12 0.073384 0.656070 0.293542
O O13 0.115185 0.596086 0.413383
O O14 0.573274 0.578090 0.712527
O O15 0.776576 0.654517 0.655598
O O16 0.750000 0.750000 0.057471
O O17 0.711394 0.564218 0.055164
O O18 0.500000 0.000000 0.500000
#
# Coordination Sequence:
#
# PCOD9433257 Si02
#       8
#     8   8   8   8   8   8   8   8
#     4  11  23  38  58  85 119 158 207 248 283 343
#     4   9  18  33  53  83 113 141 182 237 287 333
#     4  11  23  38  58  84 117 152 190 251 311 358
#     4   9  18  32  55  83 110 142 184 237 284 335
#     4   9  18  32  55  82 111 141 181 232 292 348
#     4   9  18  33  53  82 113 141 178 234 293 347
#     4  11  21  36  58  85 113 149 193 248 304 353
#     4  11  21  36  58  86 112 158 207 242 281 347
#
# _framework density 21.009636
#
# number of rings (size 3 to 8) (size 9 to 14) (size 15 to 20)
#    0.000    2.000    2.500    1.500   10.500    0.000 
#    0.000    0.000    0.000    9.000    0.000    0.000 
#    0.000    0.000    0.000    0.000    0.000    0.000 
#
# Total GULP energy -356581.472720 kJ/mol
# GULP energy per Si atom -5571.585511 kJ/mol
# Density = 2.096182 g / cm^3
# Si number density = 21.009636 Si / 1000 Ang^3
#
#
#
# Elastic Constant Matrix: (Units=GPa)
#
#
# Indices 1 2 3 4 5 6 
#
# 1 60.0759 -6.0452 15.0145 0.0000 0.0000 0.0000
# 2 -6.0452 34.7591 9.1377 0.0000 0.0000 0.0000
# 3 15.0145 9.1377 124.2791 0.0000 0.0000 0.0000
# 4 0.0000 0.0000 0.0000 19.4527 0.0000 0.0000
# 5 0.0000 0.0000 0.0000 0.0000 35.4686 0.0000
# 6 0.0000 0.0000 0.0000 0.0000 0.0000 24.7104
#
#
#
# Elastic Compliance Matrix: (Units=1/GPa)
#
#
# Indices 1 2 3 4 5 6 
#
# 1 0.017617 0.003695 -0.002400 0.000000 0.000000 0.000000
# 2 0.003695 0.030111 -0.002660 0.000000 0.000000 0.000000
# 3 -0.002400 -0.002660 0.008532 0.000000 0.000000 0.000000
# 4 0.000000 0.000000 0.000000 0.051407 0.000000 0.000000
# 5 0.000000 0.000000 0.000000 0.000000 0.028194 0.000000
# 6 0.000000 0.000000 0.000000 0.000000 0.000000 0.040469
#
#
# Mechanical properties :
#
#
# Convention : Reuss Voigt Hill
#
# Bulk Modulus (GPa) = 18.68122 28.36975 23.52548
# Shear Modulus (GPa) = 25.39302 29.32680 27.35991
#
# Velocity S-wave (km/s) = 3.48032 3.74019 3.61259
# Velocity P-wave (km/s) = 5.00611 5.67315 5.35004
#
# Compressibility (1/GPa) = 0.05352971
#
# Stress axis : x y z
#
# Youngs Moduli (GPa) = 56.76253 33.20994 117.20625
#
# Poissons Ratio (x) = -0.12271 0.28130
# Poissons Ratio (y) = -0.20973 0.31181
# Poissons Ratio (z) = 0.13623 0.08835
#
# Static dielectric constant tensor:
#      x y z
#    x 1.842240 0.000000 0.000000 
#    y 0.000000 1.799700 0.000000 
#    z 0.000000 0.000000 1.811180 
# 
# From -- ./inp_files/18407.got.cif
#   From: 2010.05.17/outbox.cif.g08.bks.cpg/sg56_10_cif.got.tgz:18407.got - 2010.06.03 13:42:01.
