data_PCOD9433920
_publ_section_title
;
Structure prediction by ZEFSAII (Michael W. Deem and Ramdas Pophale) SiO2 
 PCOD9433920
Probable space group: P C C N
;
_chemical_formula_sum "Si O2"
_cell_formula_units_Z 52
_cell_length_a 12.000000
_cell_length_b 27.000000
_cell_length_c 9.000000
_cell_angle_alpha 90.000000
_cell_angle_beta 90.000000
_cell_angle_gamma 90.000000
_cell_volume 2916.000000
_symmetry_space_group_name_H-M "P C C N"
_symmetry_group_IT_number 56
_symmetry_cell_setting 'orthorhombic'
loop_
_space_group_symop_operation_xyz
x,y,z
1/2-x,1/2-y,z
1/2+x,-y,1/2-z
-x,1/2+y,1/2-z
-x,-y,-z
1/2+x,1/2+y,-z
1/2-x,y,1/2+z
x,1/2-y,1/2+z
loop_
_atom_site_type_symbol
_atom_site_label
_atom_site_fract_x
_atom_site_fract_y
_atom_site_fract_z
Si Si1 0.327038 0.679018 0.953982
Si Si2 0.294977 0.915357 0.819669
Si Si3 0.561731 0.041284 0.710421
Si Si4 0.660087 0.560309 0.244512
Si Si5 0.750000 0.250000 0.787695
Si Si6 0.635503 0.524373 0.579029
Si Si7 0.514745 0.394976 0.927967
O O1 0.237644 0.634835 0.911183
O O2 0.329591 0.719364 0.823104
O O3 0.295653 0.708029 0.103101
O O4 0.444611 0.654133 0.989304
O O5 0.175270 0.930074 0.751792
O O6 0.385865 0.907684 0.690066
O O7 0.332373 0.965777 0.907064
O O8 0.484925 0.034520 0.853059
O O9 0.509969 0.067372 0.566969
O O10 0.596515 0.985933 0.668436
O O11 0.650318 0.548666 0.418164
O O12 0.784649 0.554021 0.191493
O O13 0.595384 0.606105 0.172770
#
# Coordination Sequence:
#
# PCOD9433920 Si02
#       7
#     8   8   8   8   4   8   8
#     4  10  21  36  55  82 110 150 176 233 284 360
#     4  10  22  32  55  78 115 153 192 231 283 336
#     4  10  22  32  51  74 109 152 199 235 270 321
#     4  11  23  34  52  71 110 153 202 240 273 317
#     4  10  20  38  58  80 110 142 180 226 304 352
#     4  11  23  36  51  77 112 159 205 237 267 318
#     4  11  21  36  52  78 112 151 186 231 283 339
#
# _framework density 17.832647000000001
#
# number of rings (size 3 to 8) (size 9 to 14) (size 15 to 20)
#    0.000    1.538    3.077    1.846   12.923    0.000 
#    0.000    0.000    0.000    0.000    0.000    0.000 
#    0.000   33.231    0.000    0.000    0.000    0.000 
#
# Total GULP energy -289601.815556 kJ/mol
# GULP energy per Si atom -5569.265684 kJ/mol
# Density = 1.779206 g / cm^3
# Si number density = 17.832647 Si / 1000 Ang^3
#
#
#
# Elastic Constant Matrix: (Units=GPa)
#
#
# Indices 1 2 3 4 5 6 
#
# 1 65.2380 19.1420 21.5189 0.0000 0.0000 0.0000
# 2 19.1420 58.1019 32.4551 0.0000 0.0000 0.0000
# 3 21.5189 32.4551 81.2964 0.0000 0.0000 0.0000
# 4 0.0000 0.0000 0.0000 23.6121 0.0000 0.0000
# 5 0.0000 0.0000 0.0000 0.0000 25.7721 0.0000
# 6 0.0000 0.0000 0.0000 0.0000 0.0000 16.2174
#
#
#
# Elastic Compliance Matrix: (Units=1/GPa)
#
#
# Indices 1 2 3 4 5 6 
#
# 1 0.017520 -0.004095 -0.003003 0.000000 0.000000 0.000000
# 2 -0.004095 0.023108 -0.008141 0.000000 0.000000 0.000000
# 3 -0.003003 -0.008141 0.016346 0.000000 0.000000 0.000000
# 4 0.000000 0.000000 0.000000 0.042351 0.000000 0.000000
# 5 0.000000 0.000000 0.000000 0.000000 0.038802 0.000000
# 6 0.000000 0.000000 0.000000 0.000000 0.000000 0.061662
#
#
# Mechanical properties :
#
#
# Convention : Reuss Voigt Hill
#
# Bulk Modulus (GPa) = 37.74140 38.98536 38.36338
# Shear Modulus (GPa) = 20.91184 21.88833 21.40008
#
# Velocity S-wave (km/s) = 3.42814 3.50727 3.46793
# Velocity P-wave (km/s) = 6.07287 6.18955 6.13149
#
# Compressibility (1/GPa) = 0.02649610
#
# Stress axis : x y z
#
# Youngs Moduli (GPa) = 57.07605 43.27546 61.17836
#
# Poissons Ratio (x) = 0.17721 0.18371
# Poissons Ratio (y) = 0.23372 0.49806
# Poissons Ratio (z) = 0.17139 0.35231
#
# Static dielectric constant tensor:
#      x y z
#    x 1.703520 0.000000 0.000000 
#    y 0.000000 1.658720 0.000000 
#    z 0.000000 0.000000 1.634290 
# 
# From -- ./inp_files/2869.got.cif
#   From: 2010.05.17/outbox.ucp.g08.bks.cvg/sg56_2_cif.got.tgz:2869.got - 2010.06.11 16:37:52.
