data_PCOD9433058
_publ_section_title
;
Structure prediction by ZEFSAII (Michael W. Deem and Ramdas Pophale) SiO2 
 PCOD9433058
Probable space group: P C C N
;
_chemical_formula_sum "Si O2"
_cell_formula_units_Z 32
_cell_length_a 7.787064
_cell_length_b 17.095396
_cell_length_c 9.832732
_cell_angle_alpha 90.000000
_cell_angle_beta 90.000000
_cell_angle_gamma 90.000000
_cell_volume 1308.962219
_symmetry_space_group_name_H-M "P C C N"
_symmetry_group_IT_number 56
_symmetry_cell_setting 'orthorhombic'
loop_
_space_group_symop_operation_xyz
x,y,z
1/2-x,1/2-y,z
1/2+x,-y,1/2-z
-x,1/2+y,1/2-z
-x,-y,-z
1/2+x,1/2+y,-z
1/2-x,y,1/2+z
x,1/2-y,1/2+z
loop_
_atom_site_type_symbol
_atom_site_label
_atom_site_fract_x
_atom_site_fract_y
_atom_site_fract_z
Si Si1 0.164151 0.487102 0.596781
Si Si2 0.599410 0.126191 0.945459
Si Si3 0.399195 0.870936 0.745949
Si Si4 0.271177 0.339210 0.262891
O O1 0.329015 0.536273 0.546207
O O2 0.123953 0.535022 0.735704
O O3 0.000000 0.500000 0.500000
O O4 0.198637 0.398965 0.638754
O O5 0.421647 0.143830 0.870215
O O6 0.602574 0.156409 0.099332
O O7 0.246305 0.839003 0.653584
O O8 0.582836 0.856652 0.679156
O O9 0.250000 0.250000 0.217924
#
# Coordination Sequence:
#
# PCOD9433058 Si02
#       4
#     8   8   8   8
#     4  10  24  48  79 109 152 206 273 329 396 497
#     4  10  25  48  76 110 149 206 266 328 392 489
#     4  10  26  47  79 104 156 204 268 319 401 483
#     4  12  27  45  73 117 155 202 261 339 417 482
#
# _framework density 24.446849
#
# number of rings (size 3 to 8) (size 9 to 14) (size 15 to 20)
#    1.500    0.000    0.000    3.000    7.000    4.000 
#    0.000    2.500    0.000    0.000    0.000    0.000 
#    0.000    0.000    0.000    0.000    0.000    0.000 
#
# Total GULP energy -178684.630376 kJ/mol
# GULP energy per Si atom -5583.894699 kJ/mol
# Density = 2.439121 g / cm^3
# Si number density = 24.446849 Si / 1000 Ang^3
#
#
#
# Elastic Constant Matrix: (Units=GPa)
#
#
# Indices 1 2 3 4 5 6 
#
# 1 215.2777 19.5487 74.9774 0.0000 0.0000 0.0000
# 2 19.5487 149.9213 13.2551 0.0000 0.0000 0.0000
# 3 74.9774 13.2551 110.2806 0.0000 0.0000 0.0000
# 4 0.0000 0.0000 0.0000 -16.2098 0.0000 0.0000
# 5 0.0000 0.0000 0.0000 0.0000 28.9222 0.0000
# 6 0.0000 0.0000 0.0000 0.0000 0.0000 -43.4864
#
#
#
# Elastic Compliance Matrix: (Units=1/GPa)
#
#
# Indices 1 2 3 4 5 6 
#
# 1 0.006114 -0.000434 -0.004105 0.000000 0.000000 0.000000
# 2 -0.000434 0.006773 -0.000519 0.000000 0.000000 0.000000
# 3 -0.004105 -0.000519 0.011921 0.000000 0.000000 0.000000
# 4 0.000000 0.000000 0.000000 -0.061691 0.000000 0.000000
# 5 0.000000 0.000000 0.000000 0.000000 0.034576 0.000000
# 6 0.000000 0.000000 0.000000 0.000000 0.000000 -0.022996
#
#
# Mechanical properties :
#
#
# Convention : Reuss Voigt Hill
#
# Bulk Modulus (GPa) = 68.06365 76.78242 72.42304
# Shear Modulus (GPa) = -485.88037 18.35842 -233.76098
#
# Velocity S-wave (km/s) = -14.11316 2.74332 -9.78916
# Velocity P-wave (km/s) = 15.41665 6.44287 9.90360
#
# Compressibility (1/GPa) = 0.01469213
#
# Stress axis : x y z
#
# Youngs Moduli (GPa) = 163.55371 147.65234 83.88677
#
# Poissons Ratio (x) = 0.06413 0.34433
# Poissons Ratio (y) = 0.07104 0.04352
# Poissons Ratio (z) = 0.67134 0.07659
#
# Static dielectric constant tensor:
#      x y z
#    x 1.955900 0.000000 0.000000 
#    y 0.000000 -0.243280 0.000000 
#    z 0.000000 0.000000 1.882880 
# 
# From -- ./inp_files/1929.got.cif
#   From: 2010.05.17/outbox.cif.g08.bks.cpg/sg56_1_cif.got.tgz:1929.got - 2010.06.03 13:42:01.
