data_PCOD9433406
_publ_section_title
;
Structure prediction by ZEFSAII (Michael W. Deem and Ramdas Pophale) SiO2 
 PCOD9433406
Probable space group: P C C N
;
_chemical_formula_sum "Si O2"
_cell_formula_units_Z 40
_cell_length_a 11.072226
_cell_length_b 9.007938
_cell_length_c 16.709273
_cell_angle_alpha 90.000000
_cell_angle_beta 90.000000
_cell_angle_gamma 90.000000
_cell_volume 1666.548223
_symmetry_space_group_name_H-M "P C C N"
_symmetry_group_IT_number 56
_symmetry_cell_setting 'orthorhombic'
loop_
_space_group_symop_operation_xyz
x,y,z
1/2-x,1/2-y,z
1/2+x,-y,1/2-z
-x,1/2+y,1/2-z
-x,-y,-z
1/2+x,1/2+y,-z
1/2-x,y,1/2+z
x,1/2-y,1/2+z
loop_
_atom_site_type_symbol
_atom_site_label
_atom_site_fract_x
_atom_site_fract_y
_atom_site_fract_z
Si Si1 0.524540 0.919758 0.415489
Si Si2 0.875245 0.844565 0.493920
Si Si3 0.458257 0.027773 0.255325
Si Si4 0.222320 0.575198 0.116534
Si Si5 0.117190 0.319390 0.821834
O O1 0.538191 0.746475 0.434704
O O2 0.434690 0.959792 0.343927
O O3 0.500000 0.000000 0.500000
O O4 0.651337 0.987418 0.385519
O O5 0.750000 0.750000 0.491495
O O6 0.915933 0.831736 0.585249
O O7 0.847177 0.007729 0.461272
O O8 0.357331 0.975598 0.192329
O O9 0.584791 0.973386 0.218669
O O10 0.461487 0.201993 0.272180
O O11 0.250000 0.750000 0.113617
O O12 0.250000 0.250000 0.815568
#
# Coordination Sequence:
#
# PCOD9433406 Si02
#       5
#     8   8   8   8   8
#     4  11  22  45  73 100 140 202 253 307 386 472
#     4   9  21  44  71  98 143 194 245 305 375 465
#     4  12  24  43  73 103 144 191 245 320 381 459
#     4  11  25  44  68 111 150 183 253 321 384 465
#     4  11  24  45  70 107 144 194 254 309 391 467
#
# _framework density 24.001704
#
# number of rings (size 3 to 8) (size 9 to 14) (size 15 to 20)
#    0.000    1.200    2.000    3.600    0.000    2.400 
#    3.600    1.000    0.000    0.000    0.000    0.000 
#    0.000    0.000    0.000    0.000    0.000    0.000 
#
# Total GULP energy -223830.847464 kJ/mol
# GULP energy per Si atom -5595.771187 kJ/mol
# Density = 2.394707 g / cm^3
# Si number density = 24.001704 Si / 1000 Ang^3
#
#
#
# Elastic Constant Matrix: (Units=GPa)
#
#
# Indices 1 2 3 4 5 6 
#
# 1 75.1593 20.3595 35.2006 0.0000 0.0000 0.0000
# 2 20.3595 104.8769 52.5276 0.0000 0.0000 0.0000
# 3 35.2006 52.5276 151.9035 0.0000 0.0000 0.0000
# 4 0.0000 0.0000 0.0000 33.3162 0.0000 0.0000
# 5 0.0000 0.0000 0.0000 0.0000 42.1644 0.0000
# 6 0.0000 0.0000 0.0000 0.0000 0.0000 38.3941
#
#
#
# Elastic Compliance Matrix: (Units=1/GPa)
#
#
# Indices 1 2 3 4 5 6 
#
# 1 0.015099 -0.001426 -0.003006 0.000000 0.000000 0.000000
# 2 -0.001426 0.011667 -0.003704 0.000000 0.000000 0.000000
# 3 -0.003006 -0.003704 0.008561 0.000000 0.000000 0.000000
# 4 0.000000 0.000000 0.000000 0.030015 0.000000 0.000000
# 5 0.000000 0.000000 0.000000 0.000000 0.023717 0.000000
# 6 0.000000 0.000000 0.000000 0.000000 0.000000 0.026046
#
#
# Mechanical properties :
#
#
# Convention : Reuss Voigt Hill
#
# Bulk Modulus (GPa) = 52.47866 60.90169 56.69018
# Shear Modulus (GPa) = 36.30365 37.69840 37.00103
#
# Velocity S-wave (km/s) = 3.89336 3.96745 3.93058
# Velocity P-wave (km/s) = 6.49023 6.81297 6.65356
#
# Compressibility (1/GPa) = 0.01905536
#
# Stress axis : x y z
#
# Youngs Moduli (GPa) = 66.22917 85.71262 116.81524
#
# Poissons Ratio (x) = 0.12219 0.35114
# Poissons Ratio (y) = 0.09442 0.43268
# Poissons Ratio (z) = 0.19908 0.31748
#
# Static dielectric constant tensor:
#      x y z
#    x 2.005050 0.000000 0.000000 
#    y 0.000000 1.937380 0.000000 
#    z 0.000000 0.000000 1.912570 
# 
# From -- ./inp_files/15403.got.cif
#   From: 2010.05.17/outbox.cif.g08.bks.cpg/sg56_8_cif.got.tgz:15403.got - 2010.06.03 13:42:01.
