data_PCOD9433942
_publ_section_title
;
Structure prediction by ZEFSAII (Michael W. Deem and Ramdas Pophale) SiO2 
 PCOD9433942
Probable space group: P C C N
;
_chemical_formula_sum "Si O2"
_cell_formula_units_Z 48
_cell_length_a 9.000000
_cell_length_b 12.000000
_cell_length_c 24.000000
_cell_angle_alpha 90.000000
_cell_angle_beta 90.000000
_cell_angle_gamma 90.000000
_cell_volume 2592.000000
_symmetry_space_group_name_H-M "P C C N"
_symmetry_group_IT_number 56
_symmetry_cell_setting 'orthorhombic'
loop_
_space_group_symop_operation_xyz
x,y,z
1/2-x,1/2-y,z
1/2+x,-y,1/2-z
-x,1/2+y,1/2-z
-x,-y,-z
1/2+x,1/2+y,-z
1/2-x,y,1/2+z
x,1/2-y,1/2+z
loop_
_atom_site_type_symbol
_atom_site_label
_atom_site_fract_x
_atom_site_fract_y
_atom_site_fract_z
Si Si1 0.020896 0.810259 0.483764
Si Si2 0.521445 0.398395 0.931560
Si Si3 0.428743 0.768740 0.358391
Si Si4 0.549132 0.005498 0.314271
Si Si5 0.755395 0.980422 0.506568
Si Si6 0.342916 0.135205 0.222491
O O1 0.036728 0.718951 0.533934
O O2 0.033871 0.748236 0.424181
O O3 0.146715 0.907857 0.483560
O O4 0.866854 0.879605 0.490834
O O5 0.556666 0.407054 0.866027
O O6 0.638178 0.484912 0.959024
O O7 0.353152 0.441328 0.943517
O O8 0.250000 0.750000 0.350568
O O9 0.466878 0.893508 0.337140
O O10 0.540041 0.683724 0.324414
O O11 0.712237 0.953904 0.296126
O O12 0.449349 0.069372 0.267067
O O13 0.250000 0.250000 0.240113
#
# Coordination Sequence:
#
# PCOD9433942 Si02
#       6
#     8   8   8   8   8   8
#     4  11  22  38  60  91 125 161 202 247 314 385
#     4  11  21  37  61  88 121 159 200 256 310 365
#     4  11  21  39  66  89 120 165 211 259 314 385
#     4  11  23  41  63  89 123 161 213 268 316 372
#     4  10  22  37  56  88 126 161 201 245 309 383
#     4  10  24  43  64  90 121 164 215 264 317 379
#
# _framework density 18.518519000000001
#
# number of rings (size 3 to 8) (size 9 to 14) (size 15 to 20)
#    0.000    1.333    0.000    7.000    0.000    4.000 
#    0.000   13.333    0.000    0.000    0.000    0.000 
#    0.000    0.000    0.000    0.000    0.000    0.000 
#
# Total GULP energy -267804.067692 kJ/mol
# GULP energy per Si atom -5579.251410 kJ/mol
# Density = 1.847637 g / cm^3
# Si number density = 18.518519 Si / 1000 Ang^3
#
#
#
# Elastic Constant Matrix: (Units=GPa)
#
#
# Indices 1 2 3 4 5 6 
#
# 1 144.5467 46.8596 48.5931 0.0000 0.0000 0.0000
# 2 46.8596 128.8664 62.9537 0.0000 0.0000 0.0000
# 3 48.5931 62.9537 129.9008 0.0000 0.0000 0.0000
# 4 0.0000 0.0000 0.0000 38.4800 0.0000 0.0000
# 5 0.0000 0.0000 0.0000 0.0000 27.0425 0.0000
# 6 0.0000 0.0000 0.0000 0.0000 0.0000 47.9177
#
#
#
# Elastic Compliance Matrix: (Units=1/GPa)
#
#
# Indices 1 2 3 4 5 6 
#
# 1 0.008275 -0.001961 -0.002145 0.000000 0.000000 0.000000
# 2 -0.001961 0.010632 -0.004419 0.000000 0.000000 0.000000
# 3 -0.002145 -0.004419 0.010642 0.000000 0.000000 0.000000
# 4 0.000000 0.000000 0.000000 0.025988 0.000000 0.000000
# 5 0.000000 0.000000 0.000000 0.000000 0.036979 0.000000
# 6 0.000000 0.000000 0.000000 0.000000 0.000000 0.020869
#
#
# Mechanical properties :
#
#
# Convention : Reuss Voigt Hill
#
# Bulk Modulus (GPa) = 80.00767 80.01409 80.01088
# Shear Modulus (GPa) = 37.14684 39.01520 38.08102
#
# Velocity S-wave (km/s) = 4.48362 4.59499 4.53965
# Velocity P-wave (km/s) = 8.37268 8.45301 8.41294
#
# Compressibility (1/GPa) = 0.01249880
#
# Stress axis : x y z
#
# Youngs Moduli (GPa) = 120.84471 94.05741 93.96616
#
# Poissons Ratio (x) = 0.18446 0.20157
# Poissons Ratio (y) = 0.23699 0.41522
# Poissons Ratio (z) = 0.25922 0.41563
#
# Static dielectric constant tensor:
#      x y z
#    x 1.662500 0.000000 0.000000 
#    y 0.000000 1.648250 0.000000 
#    z 0.000000 0.000000 1.653030 
# 
# From -- ./inp_files/20467.got.cif
#   From: 2010.05.17/outbox.ucp.g08.bks.cvg/sg56_11_cif.got.tgz:20467.got - 2010.06.11 16:37:52.
