data_PCOD9433270
_publ_section_title
;
Structure prediction by ZEFSAII (Michael W. Deem and Ramdas Pophale) SiO2 
 PCOD9433270
Probable space group: P C C N
;
_chemical_formula_sum "Si O2"
_cell_formula_units_Z 40
_cell_length_a 21.345376
_cell_length_b 5.420483
_cell_length_c 17.479271
_cell_angle_alpha 90.000000
_cell_angle_beta 90.000000
_cell_angle_gamma 90.000000
_cell_volume 2022.390943
_symmetry_space_group_name_H-M "P C C N"
_symmetry_group_IT_number 56
_symmetry_cell_setting 'orthorhombic'
loop_
_space_group_symop_operation_xyz
x,y,z
1/2-x,1/2-y,z
1/2+x,-y,1/2-z
-x,1/2+y,1/2-z
-x,-y,-z
1/2+x,1/2+y,-z
1/2-x,y,1/2+z
x,1/2-y,1/2+z
loop_
_atom_site_type_symbol
_atom_site_label
_atom_site_fract_x
_atom_site_fract_y
_atom_site_fract_z
Si Si1 0.885905 0.703687 0.403804
Si Si2 0.406261 0.843218 0.298139
Si Si3 0.995938 0.977444 0.336506
Si Si4 0.676793 0.200454 0.839732
Si Si5 0.451224 0.138900 0.445238
O O1 0.858495 0.441214 0.375433
O O2 0.898136 0.720171 0.494412
O O3 0.953805 0.748448 0.364169
O O4 0.845192 0.942388 0.378154
O O5 0.431944 0.573431 0.317338
O O6 0.343323 0.832512 0.249493
O O7 0.458535 0.926832 0.236198
O O8 0.416564 0.995418 0.375750
O O9 0.003296 0.160703 0.406637
O O10 0.750000 0.250000 0.847822
O O11 0.500000 0.000000 0.500000
#
# Coordination Sequence:
#
# PCOD9433270 Si02
#       5
#     8   8   8   8   8
#     4  11  24  42  69  99 133 175 218 280 342 401
#     4  11  22  36  66  96 134 170 219 267 335 402
#     4  11  21  38  62 100 137 168 207 267 344 412
#     4  11  26  48  70  90 127 186 243 276 321 387
#     4  12  23  37  61 106 142 172 205 270 355 418
#
# _framework density 19.778570999999999
#
# number of rings (size 3 to 8) (size 9 to 14) (size 15 to 20)
#    0.000    0.800    4.000    4.800    5.600    0.000 
#    0.000    1.000    4.400    0.000    0.000    0.000 
#    0.000    0.000    0.000    0.000    0.000    0.000 
#
# Total GULP energy -222945.309142 kJ/mol
# GULP energy per Si atom -5573.632729 kJ/mol
# Density = 1.973355 g / cm^3
# Si number density = 19.778571 Si / 1000 Ang^3
#
#
#
# Elastic Constant Matrix: (Units=GPa)
#
#
# Indices 1 2 3 4 5 6 
#
# 1 83.6330 32.3593 50.8883 0.0000 0.0000 0.0000
# 2 32.3593 91.1984 48.9196 0.0000 0.0000 0.0000
# 3 50.8883 48.9196 144.0176 0.0000 0.0000 0.0000
# 4 0.0000 0.0000 0.0000 37.3666 0.0000 0.0000
# 5 0.0000 0.0000 0.0000 0.0000 11.8992 0.0000
# 6 0.0000 0.0000 0.0000 0.0000 0.0000 28.5374
#
#
#
# Elastic Compliance Matrix: (Units=1/GPa)
#
#
# Indices 1 2 3 4 5 6 
#
# 1 0.015973 -0.003228 -0.004547 0.000000 0.000000 0.000000
# 2 -0.003228 0.014061 -0.003635 0.000000 0.000000 0.000000
# 3 -0.004547 -0.003635 0.009785 0.000000 0.000000 0.000000
# 4 0.000000 0.000000 0.000000 0.026762 0.000000 0.000000
# 5 0.000000 0.000000 0.000000 0.000000 0.084039 0.000000
# 6 0.000000 0.000000 0.000000 0.000000 0.000000 0.035042
#
#
# Mechanical properties :
#
#
# Convention : Reuss Voigt Hill
#
# Bulk Modulus (GPa) = 58.83495 64.79816 61.81655
# Shear Modulus (GPa) = 23.34819 28.00612 25.67716
#
# Velocity S-wave (km/s) = 3.43954 3.76704 3.60701
# Velocity P-wave (km/s) = 6.75169 7.19400 6.97635
#
# Compressibility (1/GPa) = 0.01699670
#
# Stress axis : x y z
#
# Youngs Moduli (GPa) = 62.60520 71.12059 102.19429
#
# Poissons Ratio (x) = 0.22960 0.46473
# Poissons Ratio (y) = 0.20211 0.37151
# Poissons Ratio (z) = 0.28470 0.25855
#
# Static dielectric constant tensor:
#      x y z
#    x 1.705350 0.000000 0.000000 
#    y 0.000000 1.850560 0.000000 
#    z 0.000000 0.000000 1.788110 
# 
# From -- ./inp_files/9554.got.cif
#   From: 2010.05.17/outbox.cif.g08.bks.cpg/sg56_5_cif.got.tgz:9554.got - 2010.06.03 13:42:01.
