data_PCOD9433416
_publ_section_title
;
Structure prediction by ZEFSAII (Michael W. Deem and Ramdas Pophale) SiO2 
 PCOD9433416
Probable space group: P C C N
;
_chemical_formula_sum "Si O2"
_cell_formula_units_Z 40
_cell_length_a 6.218171
_cell_length_b 20.599206
_cell_length_c 11.519865
_cell_angle_alpha 90.000000
_cell_angle_beta 90.000000
_cell_angle_gamma 90.000000
_cell_volume 1475.572427
_symmetry_space_group_name_H-M "P C C N"
_symmetry_group_IT_number 56
_symmetry_cell_setting 'orthorhombic'
loop_
_space_group_symop_operation_xyz
x,y,z
1/2-x,1/2-y,z
1/2+x,-y,1/2-z
-x,1/2+y,1/2-z
-x,-y,-z
1/2+x,1/2+y,-z
1/2-x,y,1/2+z
x,1/2-y,1/2+z
loop_
_atom_site_type_symbol
_atom_site_label
_atom_site_fract_x
_atom_site_fract_y
_atom_site_fract_z
Si Si1 0.999762 0.745350 0.009665
Si Si2 0.825151 0.126509 0.424326
Si Si3 0.260703 0.531788 0.395680
Si Si4 0.564253 0.593114 0.201668
Si Si5 0.954791 0.644199 0.321303
O O1 0.750000 0.750000 0.057922
O O2 0.074071 0.865732 0.110448
O O3 0.041125 0.669030 0.984162
O O4 0.998424 0.793080 0.899281
O O5 0.750000 0.250000 0.435737
O O6 0.839010 0.053708 0.476680
O O7 0.931761 0.144204 0.303200
O O8 0.414142 0.552492 0.289359
O O9 0.198036 0.458313 0.373543
O O10 0.052719 0.579355 0.379687
O O11 0.712121 0.636255 0.282064
#
# Coordination Sequence:
#
# PCOD9433416 Si02
#       5
#     8   8   8   8   8
#     4  12  28  52  79 109 160 213 270 340 400 485
#     4  11  27  46  76 114 150 211 277 334 408 495
#     4  11  22  47  72 113 160 201 259 335 412 494
#     4  11  24  45  78 114 158 209 268 333 423 492
#     4  11  26  47  74 110 153 210 264 333 412 487
#
# _framework density 27.108124
#
# number of rings (size 3 to 8) (size 9 to 14) (size 15 to 20)
#    0.000    0.800    4.000    1.800    5.600    4.000 
#    0.000    0.000    0.000    0.000    0.000    0.000 
#    0.000    0.000    0.000    0.000    0.000    0.000 
#
# Total GULP energy -223309.073896 kJ/mol
# GULP energy per Si atom -5582.726847 kJ/mol
# Density = 2.704643 g / cm^3
# Si number density = 27.108124 Si / 1000 Ang^3
#
#
#
# Elastic Constant Matrix: (Units=GPa)
#
#
# Indices 1 2 3 4 5 6 
#
# 1 178.5191 49.3847 60.7260 0.0000 0.0000 0.0000
# 2 49.3847 98.2726 51.6310 0.0000 0.0000 0.0000
# 3 60.7260 51.6310 124.3151 0.0000 0.0000 0.0000
# 4 0.0000 0.0000 0.0000 37.9732 0.0000 0.0000
# 5 0.0000 0.0000 0.0000 0.0000 44.9159 0.0000
# 6 0.0000 0.0000 0.0000 0.0000 0.0000 48.2393
#
#
#
# Elastic Compliance Matrix: (Units=1/GPa)
#
#
# Indices 1 2 3 4 5 6 
#
# 1 0.007079 -0.002227 -0.002533 0.000000 0.000000 0.000000
# 2 -0.002227 0.013716 -0.004609 0.000000 0.000000 0.000000
# 3 -0.002533 -0.004609 0.011196 0.000000 0.000000 0.000000
# 4 0.000000 0.000000 0.000000 0.026334 0.000000 0.000000
# 5 0.000000 0.000000 0.000000 0.000000 0.022264 0.000000
# 6 0.000000 0.000000 0.000000 0.000000 0.000000 0.020730
#
#
# Mechanical properties :
#
#
# Convention : Reuss Voigt Hill
#
# Bulk Modulus (GPa) = 75.45227 80.51002 77.98114
# Shear Modulus (GPa) = 40.16858 42.18335 41.17596
#
# Velocity S-wave (km/s) = 3.85358 3.94904 3.90160
# Velocity P-wave (km/s) = 6.90611 7.11037 7.00898
#
# Compressibility (1/GPa) = 0.01325341
#
# Stress axis : x y z
#
# Youngs Moduli (GPa) = 141.25558 72.90649 89.31879
#
# Poissons Ratio (x) = 0.16233 0.22628
# Poissons Ratio (y) = 0.31451 0.41167
# Poissons Ratio (z) = 0.35786 0.33603
#
# Static dielectric constant tensor:
#      x y z
#    x 2.265500 0.000000 0.000000 
#    y 0.000000 2.299220 0.000000 
#    z 0.000000 0.000000 2.090450 
# 
# From -- ./inp_files/6211.got.cif
#   From: 2010.05.17/outbox.cif.g08.bks.cpg/sg56_4_cif.got.tgz:6211.got - 2010.06.03 13:42:01.
