data_PCOD9433644
_publ_section_title
;
Structure prediction by ZEFSAII (Michael W. Deem and Ramdas Pophale) SiO2 
 PCOD9433644
Probable space group: P C C N
;
_chemical_formula_sum "Si O2"
_cell_formula_units_Z 48
_cell_length_a 15.561327
_cell_length_b 16.327407
_cell_length_c 8.868394
_cell_angle_alpha 90.000000
_cell_angle_beta 90.000000
_cell_angle_gamma 90.000000
_cell_volume 2253.247133
_symmetry_space_group_name_H-M "P C C N"
_symmetry_group_IT_number 56
_symmetry_cell_setting 'orthorhombic'
loop_
_space_group_symop_operation_xyz
x,y,z
1/2-x,1/2-y,z
1/2+x,-y,1/2-z
-x,1/2+y,1/2-z
-x,-y,-z
1/2+x,1/2+y,-z
1/2-x,y,1/2+z
x,1/2-y,1/2+z
loop_
_atom_site_type_symbol
_atom_site_label
_atom_site_fract_x
_atom_site_fract_y
_atom_site_fract_z
Si Si1 0.746372 0.056691 0.327017
Si Si2 0.080535 0.154855 0.798374
Si Si3 0.239440 0.055497 0.920469
Si Si4 0.903152 0.329280 0.442545
Si Si5 0.081988 0.850539 0.697203
Si Si6 0.095016 0.334594 0.938731
O O1 0.680628 0.124628 0.382720
O O2 0.844082 0.085955 0.346237
O O3 0.725979 0.970539 0.407583
O O4 0.736713 0.031913 0.153174
O O5 0.153410 0.091346 0.848040
O O6 0.101551 0.242410 0.875294
O O7 0.078269 0.165402 0.618275
O O8 0.987264 0.131988 0.863461
O O9 0.317015 0.118343 0.909203
O O10 0.912687 0.335718 0.622899
O O11 0.900582 0.235175 0.388577
O O12 0.986376 0.874927 0.645938
#
# Coordination Sequence:
#
# PCOD9433644 Si02
#       6
#     8   8   8   8   8   8
#     4  12  27  44  65  99 135 172 215 267 331 388
#     4  11  25  44  70  97 128 175 220 269 322 381
#     4  12  27  44  65  99 135 172 215 267 331 388
#     4  11  25  44  70  96 130 172 222 269 319 387
#     4  11  25  44  70  97 128 175 220 269 322 381
#     4  11  25  44  70  96 130 172 222 269 319 387
#
# _framework density 21.302589999999999
#
# number of rings (size 3 to 8) (size 9 to 14) (size 15 to 20)
#    0.000    0.667    3.333    5.000    9.333    5.333 
#    0.000    0.000    0.000    0.000    0.000    0.000 
#    0.000    0.000    0.000    0.000    0.000    0.000 
#
# Total GULP energy -268475.296019 kJ/mol
# GULP energy per Si atom -5593.235334 kJ/mol
# Density = 2.125410 g / cm^3
# Si number density = 21.302590 Si / 1000 Ang^3
#
#
#
# Elastic Constant Matrix: (Units=GPa)
#
#
# Indices 1 2 3 4 5 6 
#
# 1 71.0959 17.0171 19.4757 0.0000 0.0000 0.0000
# 2 17.0171 25.3511 9.6890 0.0000 0.0000 0.0000
# 3 19.4757 9.6890 115.7105 0.0000 0.0000 0.0000
# 4 0.0000 0.0000 0.0000 32.8474 0.0000 0.0000
# 5 0.0000 0.0000 0.0000 0.0000 31.7175 0.0000
# 6 0.0000 0.0000 0.0000 0.0000 0.0000 4.0259
#
#
#
# Elastic Compliance Matrix: (Units=1/GPa)
#
#
# Indices 1 2 3 4 5 6 
#
# 1 0.017191 -0.010778 -0.001991 0.000000 0.000000 0.000000
# 2 -0.010778 0.047508 -0.002164 0.000000 0.000000 0.000000
# 3 -0.001991 -0.002164 0.009159 0.000000 0.000000 0.000000
# 4 0.000000 0.000000 0.000000 0.030444 0.000000 0.000000
# 5 0.000000 0.000000 0.000000 0.000000 0.031528 0.000000
# 6 0.000000 0.000000 0.000000 0.000000 0.000000 0.248390
#
#
# Mechanical properties :
#
#
# Convention : Reuss Voigt Hill
#
# Bulk Modulus (GPa) = 22.73197 33.83567 28.28382
# Shear Modulus (GPa) = 11.66179 24.78321 18.22250
#
# Velocity S-wave (km/s) = 2.34227 3.41455 2.92792
# Velocity P-wave (km/s) = 4.24372 5.60922 4.97356
#
# Compressibility (1/GPa) = 0.04399092
#
# Stress axis : x y z
#
# Youngs Moduli (GPa) = 58.17079 21.04898 109.18760
#
# Poissons Ratio (x) = 0.22688 0.21738
# Poissons Ratio (y) = 0.62699 0.23627
# Poissons Ratio (z) = 0.11581 0.04555
#
# Static dielectric constant tensor:
#      x y z
#    x 1.742890 0.000000 0.000000 
#    y 0.000000 1.750520 0.000000 
#    z 0.000000 0.000000 1.749150 
# 
# From -- ./inp_files/3407.got.cif
#   From: 2010.05.17/outbox.cif.g08.bks.cpg/sg56_2_cif.got.tgz:3407.got - 2010.06.03 13:42:01.
