data_PCOD9433815
_publ_section_title
;
Structure prediction by ZEFSAII (Michael W. Deem and Ramdas Pophale) SiO2 
 PCOD9433815
Probable space group: P C C N
;
_chemical_formula_sum "Si O2"
_cell_formula_units_Z 32
_cell_length_a 11.181933
_cell_length_b 8.580936
_cell_length_c 14.948108
_cell_angle_alpha 90.000000
_cell_angle_beta 90.000000
_cell_angle_gamma 90.000000
_cell_volume 1434.292659
_symmetry_space_group_name_H-M "P C C N"
_symmetry_group_IT_number 56
_symmetry_cell_setting 'orthorhombic'
loop_
_space_group_symop_operation_xyz
x,y,z
1/2-x,1/2-y,z
1/2+x,-y,1/2-z
-x,1/2+y,1/2-z
-x,-y,-z
1/2+x,1/2+y,-z
1/2-x,y,1/2+z
x,1/2-y,1/2+z
loop_
_atom_site_type_symbol
_atom_site_label
_atom_site_fract_x
_atom_site_fract_y
_atom_site_fract_z
Si Si1 0.009263 0.072431 0.903343
Si Si2 0.605353 0.919771 0.059066
Si Si3 0.776837 0.430635 0.703763
Si Si4 0.744669 0.567750 0.880864
O O1 0.053778 0.250211 0.913779
O O2 0.108556 0.975027 0.853191
O O3 0.878537 0.027861 0.866824
O O4 0.000000 0.000000 0.000000
O O5 0.664445 0.990532 0.149545
O O6 0.710286 0.930355 0.983176
O O7 0.500000 0.000000 0.000000
O O8 0.750000 0.250000 0.704886
O O9 0.817818 0.485446 0.802714
O O10 0.750000 0.750000 0.855788
#
# Coordination Sequence:
#
# PCOD9433815 Si02
#       4
#     8   8   8   8
#     4  12  24  50  76 103 153 194 244 310 376 441
#     4  12  27  47  76 108 150 199 249 310 373 449
#     4  12  29  46  73 112 150 196 254 305 373 449
#     4  12  27  47  78 109 149 198 249 308 379 444
#
# _framework density 22.310649000000002
#
# number of rings (size 3 to 8) (size 9 to 14) (size 15 to 20)
#    0.000    0.000    5.000    3.750    7.000    0.000 
#    0.000    0.000    0.000    0.000    0.000    0.000 
#    0.000    0.000    0.000    0.000    0.000    0.000 
#
# Total GULP energy -178413.709541 kJ/mol
# GULP energy per Si atom -5575.428423 kJ/mol
# Density = 2.225987 g / cm^3
# Si number density = 22.310649 Si / 1000 Ang^3
#
#
#
# Elastic Constant Matrix: (Units=GPa)
#
#
# Indices 1 2 3 4 5 6 
#
# 1 72.8449 21.3393 -2.8034 0.0000 0.0000 0.0000
# 2 21.3393 161.2223 37.4560 0.0000 0.0000 0.0000
# 3 -2.8034 37.4560 90.1120 0.0000 0.0000 0.0000
# 4 0.0000 0.0000 0.0000 -19.7165 0.0000 0.0000
# 5 0.0000 0.0000 0.0000 0.0000 34.3998 0.0000
# 6 0.0000 0.0000 0.0000 0.0000 0.0000 43.8837
#
#
#
# Elastic Compliance Matrix: (Units=1/GPa)
#
#
# Indices 1 2 3 4 5 6 
#
# 1 0.014434 -0.002230 0.001376 0.000000 0.000000 0.000000
# 2 -0.002230 0.007210 -0.003066 0.000000 0.000000 0.000000
# 3 0.001376 -0.003066 0.012415 0.000000 0.000000 0.000000
# 4 0.000000 0.000000 0.000000 -0.050719 0.000000 0.000000
# 5 0.000000 0.000000 0.000000 0.000000 0.029070 0.000000
# 6 0.000000 0.000000 0.000000 0.000000 0.000000 0.022787
#
#
# Mechanical properties :
#
#
# Convention : Reuss Voigt Hill
#
# Bulk Modulus (GPa) = 38.14183 48.46255 43.30219
# Shear Modulus (GPa) = 96.56659 29.59256 63.07958
#
# Velocity S-wave (km/s) = 6.58610 3.64591 5.32303
# Velocity P-wave (km/s) = 8.65844 6.28430 7.56508
#
# Compressibility (1/GPa) = 0.02621793
#
# Stress axis : x y z
#
# Youngs Moduli (GPa) = 69.28058 138.69240 80.54974
#
# Poissons Ratio (x) = 0.30931 -0.11084
# Poissons Ratio (y) = 0.15451 0.24700
# Poissons Ratio (z) = -0.09533 0.42528
#
# Static dielectric constant tensor:
#      x y z
#    x 1.953480 0.000000 0.000000 
#    y 0.000000 1.709160 0.000000 
#    z 0.000000 0.000000 1.967270 
# 
# From -- ./inp_files/10080.got.cif
#   From: 2010.05.17/outbox.cif.g08.bks.cpg/sg56_6_cif.got.tgz:10080.got - 2010.06.03 13:42:01.
