data_PCOD9433278
_publ_section_title
;
Structure prediction by ZEFSAII (Michael W. Deem and Ramdas Pophale) SiO2 
 PCOD9433278
Probable space group: P C C N
;
_chemical_formula_sum "Si O2"
_cell_formula_units_Z 56
_cell_length_a 14.338813
_cell_length_b 17.083280
_cell_length_c 11.036636
_cell_angle_alpha 90.000000
_cell_angle_beta 90.000000
_cell_angle_gamma 90.000000
_cell_volume 2703.467664
_symmetry_space_group_name_H-M "P C C N"
_symmetry_group_IT_number 56
_symmetry_cell_setting 'orthorhombic'
loop_
_space_group_symop_operation_xyz
x,y,z
1/2-x,1/2-y,z
1/2+x,-y,1/2-z
-x,1/2+y,1/2-z
-x,-y,-z
1/2+x,1/2+y,-z
1/2-x,y,1/2+z
x,1/2-y,1/2+z
loop_
_atom_site_type_symbol
_atom_site_label
_atom_site_fract_x
_atom_site_fract_y
_atom_site_fract_z
Si Si1 0.835409 0.603226 0.917449
Si Si2 0.473268 0.812177 0.892896
Si Si3 0.661000 0.493079 0.186882
Si Si4 0.974404 0.593790 0.267170
Si Si5 0.007540 0.249860 0.365399
Si Si6 0.134223 0.527855 0.881014
Si Si7 0.367569 0.128808 0.491118
O O1 0.820623 0.557220 0.791694
O O2 0.916407 0.666880 0.901212
O O3 0.865964 0.534143 0.009294
O O4 0.739247 0.639081 0.967325
O O5 0.457588 0.780075 0.757067
O O6 0.419849 0.893464 0.909430
O O7 0.450732 0.757897 0.008624
O O8 0.581549 0.432277 0.223610
O O9 0.759400 0.455318 0.153859
O O10 0.626636 0.544352 0.073236
O O11 0.917537 0.517163 0.227628
O O12 0.932765 0.626237 0.391422
O O13 0.961556 0.662320 0.169496
O O14 0.093031 0.306773 0.398854
#
# Coordination Sequence:
#
# PCOD9433278 Si02
#       7
#     8   8   8   8   8   8   8
#     4  11  21  39  66 101 129 168 223 264 333 395
#     4  12  24  45  67  95 138 176 218 266 335 397
#     4  11  23  41  69  99 124 171 225 284 322 387
#     4  12  22  42  69  94 134 173 228 269 334 391
#     4  12  25  43  66  96 136 182 212 266 337 399
#     4  11  23  42  70  95 129 175 224 277 323 393
#     4  11  24  41  63  99 136 168 220 273 339 388
#
# _framework density 20.714137000000001
#
# number of rings (size 3 to 8) (size 9 to 14) (size 15 to 20)
#    0.000    0.571    7.143    1.714    0.000    0.571 
#    2.571    0.714    3.143    0.000    0.000    0.000 
#    0.000    0.000    0.000    0.000    0.000    0.000 
#
# Total GULP energy -313066.409128 kJ/mol
# GULP energy per Si atom -5590.471592 kJ/mol
# Density = 2.066699 g / cm^3
# Si number density = 20.714137 Si / 1000 Ang^3
#
#
#
# Elastic Constant Matrix: (Units=GPa)
#
#
# Indices 1 2 3 4 5 6 
#
# 1 67.6040 33.2037 16.9712 0.0000 0.0000 0.0000
# 2 33.2037 55.2334 13.6701 0.0000 0.0000 0.0000
# 3 16.9712 13.6701 118.2092 0.0000 0.0000 0.0000
# 4 0.0000 0.0000 0.0000 22.1250 0.0000 0.0000
# 5 0.0000 0.0000 0.0000 0.0000 16.8827 0.0000
# 6 0.0000 0.0000 0.0000 0.0000 0.0000 10.4442
#
#
#
# Elastic Compliance Matrix: (Units=1/GPa)
#
#
# Indices 1 2 3 4 5 6 
#
# 1 0.021287 -0.012395 -0.001623 0.000000 0.000000 0.000000
# 2 -0.012395 0.025856 -0.001210 0.000000 0.000000 0.000000
# 3 -0.001623 -0.001210 0.008833 0.000000 0.000000 0.000000
# 4 0.000000 0.000000 0.000000 0.045198 0.000000 0.000000
# 5 0.000000 0.000000 0.000000 0.000000 0.059232 0.000000
# 6 0.000000 0.000000 0.000000 0.000000 0.000000 0.095747
#
#
# Mechanical properties :
#
#
# Convention : Reuss Voigt Hill
#
# Bulk Modulus (GPa) = 39.18678 40.97071 40.07875
# Shear Modulus (GPa) = 16.94247 21.70383 19.32315
#
# Velocity S-wave (km/s) = 2.86303 3.24045 3.05757
# Velocity P-wave (km/s) = 5.46701 5.81573 5.64407
#
# Compressibility (1/GPa) = 0.02551881
#
# Stress axis : x y z
#
# Youngs Moduli (GPa) = 46.97623 38.67566 113.21763
#
# Poissons Ratio (x) = 0.47940 0.18373
# Poissons Ratio (y) = 0.58228 0.13705
# Poissons Ratio (z) = 0.07623 0.04682
#
# Static dielectric constant tensor:
#      x y z
#    x 1.703950 0.000000 0.000000 
#    y 0.000000 1.735630 0.000000 
#    z 0.000000 0.000000 1.799080 
# 
# From -- ./inp_files/7877.got.cif
#   From: 2010.05.17/outbox.cif.g08.bks.cpg/sg56_4_cif.got.tgz:7877.got - 2010.06.03 13:42:01.
