data_PCOD9433568
_publ_section_title
;
Structure prediction by ZEFSAII (Michael W. Deem and Ramdas Pophale) SiO2 
 PCOD9433568
Probable space group: P C C N
;
_chemical_formula_sum "Si O2"
_cell_formula_units_Z 48
_cell_length_a 8.883692
_cell_length_b 7.959747
_cell_length_c 28.379871
_cell_angle_alpha 90.000000
_cell_angle_beta 90.000000
_cell_angle_gamma 90.000000
_cell_volume 2006.795757
_symmetry_space_group_name_H-M "P C C N"
_symmetry_group_IT_number 56
_symmetry_cell_setting 'orthorhombic'
loop_
_space_group_symop_operation_xyz
x,y,z
1/2-x,1/2-y,z
1/2+x,-y,1/2-z
-x,1/2+y,1/2-z
-x,-y,-z
1/2+x,1/2+y,-z
1/2-x,y,1/2+z
x,1/2-y,1/2+z
loop_
_atom_site_type_symbol
_atom_site_label
_atom_site_fract_x
_atom_site_fract_y
_atom_site_fract_z
Si Si1 0.545011 0.408113 0.373751
Si Si2 0.078184 0.778270 0.875349
Si Si3 0.750000 0.250000 0.952960
Si Si4 0.250000 0.250000 0.757302
Si Si5 0.493376 0.003972 0.710158
Si Si6 0.142386 0.539812 0.468217
Si Si7 0.250000 0.750000 0.700337
Si Si8 0.750000 0.750000 0.601740
O O1 0.513028 0.605077 0.375457
O O2 0.615680 0.305766 0.418075
O O3 0.661817 0.380479 0.332408
O O4 0.385389 0.317427 0.366523
O O5 0.250000 0.750000 0.857805
O O6 0.009834 0.928825 0.844025
O O7 0.092239 0.823207 0.930225
O O8 0.752653 0.401218 0.990712
O O9 0.107089 0.342302 0.731776
O O10 0.343556 0.416460 0.778331
O O11 0.380330 0.853116 0.723657
O O12 0.204215 0.397162 0.434087
O O13 0.000000 0.500000 0.500000
#
# Coordination Sequence:
#
# PCOD9433568 Si02
#       8
#     8   8   4   4   8   8   4   4
#     4  11  25  43  69 102 152 199 258 319 375 458
#     4  12  27  45  75 110 153 200 261 311 390 462
#     4  11  24  44  62  97 144 202 264 323 370 436
#     4  12  30  55  87 120 162 200 270 322 429 483
#     4  12  29  52  86 119 157 205 252 333 395 499
#     4  12  25  42  65 104 146 205 257 318 383 450
#     4  11  26  48  76 117 152 192 256 313 402 466
#     4  12  22  41  63  94 138 202 264 316 379 445
#
# _framework density 23.918727000000001
#
# number of rings (size 3 to 8) (size 9 to 14) (size 15 to 20)
#    0.000    0.333    4.167    3.000    9.333    2.000 
#    0.000    0.000    0.000    0.000    0.000    0.000 
#    0.000    0.000    0.000    0.000    0.000    0.000 
#
# Total GULP energy -267385.406837 kJ/mol
# GULP energy per Si atom -5570.529309 kJ/mol
# Density = 2.386429 g / cm^3
# Si number density = 23.918727 Si / 1000 Ang^3
#
#
#
# Elastic Constant Matrix: (Units=GPa)
#
#
# Indices 1 2 3 4 5 6 
#
# 1 118.7282 36.3375 39.1488 0.0000 0.0000 0.0000
# 2 36.3375 97.0952 23.6702 0.0000 0.0000 0.0000
# 3 39.1488 23.6702 53.3318 0.0000 0.0000 0.0000
# 4 0.0000 0.0000 0.0000 30.8632 0.0000 0.0000
# 5 0.0000 0.0000 0.0000 0.0000 19.1600 0.0000
# 6 0.0000 0.0000 0.0000 0.0000 0.0000 59.5451
#
#
#
# Elastic Compliance Matrix: (Units=1/GPa)
#
#
# Indices 1 2 3 4 5 6 
#
# 1 0.011650 -0.002551 -0.007419 0.000000 0.000000 0.000000
# 2 -0.002551 0.012107 -0.003501 0.000000 0.000000 0.000000
# 3 -0.007419 -0.003501 0.025751 0.000000 0.000000 0.000000
# 4 0.000000 0.000000 0.000000 0.032401 0.000000 0.000000
# 5 0.000000 0.000000 0.000000 0.000000 0.052192 0.000000
# 6 0.000000 0.000000 0.000000 0.000000 0.000000 0.016794
#
#
# Mechanical properties :
#
#
# Convention : Reuss Voigt Hill
#
# Bulk Modulus (GPa) = 44.31657 51.94091 48.12874
# Shear Modulus (GPa) = 26.97458 33.24689 30.11074
#
# Velocity S-wave (km/s) = 3.36186 3.73231 3.55191
# Velocity P-wave (km/s) = 5.79980 6.35108 6.08169
#
# Compressibility (1/GPa) = 0.02256492
#
# Stress axis : x y z
#
# Youngs Moduli (GPa) = 85.83815 82.59415 38.83398
#
# Poissons Ratio (x) = 0.21071 0.28812
# Poissons Ratio (y) = 0.21899 0.13595
# Poissons Ratio (z) = 0.63687 0.28915
#
# Static dielectric constant tensor:
#      x y z
#    x 1.817570 0.000000 0.000000 
#    y 0.000000 1.798230 0.000000 
#    z 0.000000 0.000000 1.854410 
# 
# From -- ./inp_files/23309.got.cif
#   From: 2010.05.17/outbox.cif.g08.bks.cpg/sg56_12_cif.got.tgz:23309.got - 2010.06.03 13:42:01.
