data_PCOD9433274
_publ_section_title
;
Structure prediction by ZEFSAII (Michael W. Deem and Ramdas Pophale) SiO2 
 PCOD9433274
Probable space group: P C C N
;
_chemical_formula_sum "Si O2"
_cell_formula_units_Z 40
_cell_length_a 22.496600
_cell_length_b 4.955250
_cell_length_c 15.856305
_cell_angle_alpha 90.000000
_cell_angle_beta 90.000000
_cell_angle_gamma 90.000000
_cell_volume 1767.601851
_symmetry_space_group_name_H-M "P C C N"
_symmetry_group_IT_number 56
_symmetry_cell_setting 'orthorhombic'
loop_
_space_group_symop_operation_xyz
x,y,z
1/2-x,1/2-y,z
1/2+x,-y,1/2-z
-x,1/2+y,1/2-z
-x,-y,-z
1/2+x,1/2+y,-z
1/2-x,y,1/2+z
x,1/2-y,1/2+z
loop_
_atom_site_type_symbol
_atom_site_label
_atom_site_fract_x
_atom_site_fract_y
_atom_site_fract_z
Si Si1 0.964387 0.116331 0.646932
Si Si2 0.587835 0.603188 0.061465
Si Si3 0.635296 0.318363 0.786851
Si Si4 0.288276 0.982163 0.348668
Si Si5 0.400524 0.323394 0.626004
O O1 0.943825 0.315433 0.571537
O O2 0.922164 0.184791 0.725451
O O3 0.049809 0.184995 0.383419
O O4 0.033029 0.169897 0.664076
O O5 0.593375 0.712979 0.967638
O O6 0.653505 0.575333 0.100627
O O7 0.623797 0.124315 0.865879
O O8 0.640190 0.622508 0.818996
O O9 0.686813 0.184455 0.731670
O O10 0.250000 0.250000 0.331237
O O11 0.250000 0.750000 0.395854
#
# Coordination Sequence:
#
# PCOD9433274 Si02
#       5
#     8   8   8   8   8
#     4  11  21  39  61  90 129 171 195 229 304 390
#     4  11  23  39  62  91 121 161 210 246 301 374
#     4  11  23  38  61  91 121 159 207 248 304 372
#     4  11  23  44  65  82 114 167 218 263 309 367
#     4  12  22  38  61  96 131 154 192 260 307 359
#
# _framework density 22.629532000000001
#
# number of rings (size 3 to 8) (size 9 to 14) (size 15 to 20)
#    0.000    0.800    0.000   10.800    0.000    0.000 
#    0.000    6.000    0.000    0.000    0.000    0.000 
#    0.000    0.000    0.000    0.000    0.000    0.000 
#
# Total GULP energy -223934.688213 kJ/mol
# GULP energy per Si atom -5598.367205 kJ/mol
# Density = 2.257803 g / cm^3
# Si number density = 22.629532 Si / 1000 Ang^3
#
#
#
# Elastic Constant Matrix: (Units=GPa)
#
#
# Indices 1 2 3 4 5 6 
#
# 1 86.7415 38.8423 -7.4671 0.0000 0.0000 0.0000
# 2 38.8423 116.4396 3.8820 0.0000 0.0000 0.0000
# 3 -7.4671 3.8820 52.8091 0.0000 0.0000 0.0000
# 4 0.0000 0.0000 0.0000 31.2684 0.0000 0.0000
# 5 0.0000 0.0000 0.0000 0.0000 7.8564 0.0000
# 6 0.0000 0.0000 0.0000 0.0000 0.0000 39.2694
#
#
#
# Elastic Compliance Matrix: (Units=1/GPa)
#
#
# Indices 1 2 3 4 5 6 
#
# 1 0.013826 -0.004689 0.002300 0.000000 0.000000 0.000000
# 2 -0.004689 0.010199 -0.001413 0.000000 0.000000 0.000000
# 3 0.002300 -0.001413 0.019365 0.000000 0.000000 0.000000
# 4 0.000000 0.000000 0.000000 0.031981 0.000000 0.000000
# 5 0.000000 0.000000 0.000000 0.000000 0.127284 0.000000
# 6 0.000000 0.000000 0.000000 0.000000 0.000000 0.025465
#
#
# Mechanical properties :
#
#
# Convention : Reuss Voigt Hill
#
# Bulk Modulus (GPa) = 27.94329 36.27829 32.11079
# Shear Modulus (GPa) = 20.18949 30.39439 25.29194
#
# Velocity S-wave (km/s) = 2.99017 3.66885 3.34676
# Velocity P-wave (km/s) = 4.92914 5.83211 5.39953
#
# Compressibility (1/GPa) = 0.03578677
#
# Stress axis : x y z
#
# Youngs Moduli (GPa) = 72.32703 98.04545 51.63918
#
# Poissons Ratio (x) = 0.45972 -0.11875
# Poissons Ratio (y) = 0.33913 0.07295
# Poissons Ratio (z) = -0.16633 0.13851
#
# Static dielectric constant tensor:
#      x y z
#    x 1.855100 0.000000 0.000000 
#    y 0.000000 1.814080 0.000000 
#    z 0.000000 0.000000 1.832380 
# 
# From -- ./inp_files/16464.got.cif
#   From: 2010.05.17/outbox.cif.g08.bks.cpg/sg56_9_cif.got.tgz:16464.got - 2010.06.03 13:42:01.
