data_PCOD9433343
_publ_section_title
;
Structure prediction by ZEFSAII (Michael W. Deem and Ramdas Pophale) SiO2 
 PCOD9433343
Probable space group: P C C N
;
_chemical_formula_sum "Si O2"
_cell_formula_units_Z 48
_cell_length_a 6.130054
_cell_length_b 14.486165
_cell_length_c 25.735391
_cell_angle_alpha 90.000000
_cell_angle_beta 90.000000
_cell_angle_gamma 90.000000
_cell_volume 2285.327779
_symmetry_space_group_name_H-M "P C C N"
_symmetry_group_IT_number 56
_symmetry_cell_setting 'orthorhombic'
loop_
_space_group_symop_operation_xyz
x,y,z
1/2-x,1/2-y,z
1/2+x,-y,1/2-z
-x,1/2+y,1/2-z
-x,-y,-z
1/2+x,1/2+y,-z
1/2-x,y,1/2+z
x,1/2-y,1/2+z
loop_
_atom_site_type_symbol
_atom_site_label
_atom_site_fract_x
_atom_site_fract_y
_atom_site_fract_z
Si Si1 0.250000 0.250000 0.151880
Si Si2 0.443174 0.677224 0.939261
Si Si3 0.847550 0.482199 0.627897
Si Si4 0.750000 0.750000 0.522785
Si Si5 0.764627 0.422332 0.314600
Si Si6 0.521330 0.404694 0.709921
Si Si7 0.588257 0.827259 0.122423
O O1 0.431438 0.291316 0.113164
O O2 0.361111 0.171261 0.186318
O O3 0.250000 0.750000 0.949353
O O4 0.357701 0.576344 0.924750
O O5 0.618604 0.681448 0.985420
O O6 0.725336 0.419911 0.671173
O O7 0.708997 0.574800 0.621656
O O8 0.080930 0.517319 0.647983
O O9 0.923906 0.794744 0.562597
O O10 0.599128 0.496140 0.288791
O O11 0.902411 0.380614 0.267565
O O12 0.632092 0.347038 0.347093
O O13 0.750000 0.750000 0.146733
#
# Coordination Sequence:
#
# PCOD9433343 Si02
#       7
#     4   8   8   4   8   8   8
#     4  11  22  40  65 100 146 167 228 287 344 406
#     4  11  22  40  71 103 130 174 223 292 352 414
#     4  11  22  40  69  97 133 178 222 278 347 411
#     4   9  24  46  67  96 140 167 232 295 342 414
#     4  11  22  41  72  93 143 182 230 276 342 411
#     4  11  22  40  67 101 137 181 223 279 336 418
#     4   9  24  48  63  95 136 176 229 285 336 413
#
# _framework density 21.003553
#
# number of rings (size 3 to 8) (size 9 to 14) (size 15 to 20)
#    0.500    1.000    5.000    0.000    0.000    2.667 
#    1.500    5.000    1.833    0.000    0.000    0.000 
#    0.000    0.000    0.000    0.000    0.000    0.000 
#
# Total GULP energy -268129.837173 kJ/mol
# GULP energy per Si atom -5586.038274 kJ/mol
# Density = 2.095575 g / cm^3
# Si number density = 21.003553 Si / 1000 Ang^3
#
#
#
# Elastic Constant Matrix: (Units=GPa)
#
#
# Indices 1 2 3 4 5 6 
#
# 1 70.6367 26.0802 33.7285 0.0000 0.0000 0.0000
# 2 26.0802 92.2314 41.1155 0.0000 0.0000 0.0000
# 3 33.7285 41.1155 112.6534 0.0000 0.0000 0.0000
# 4 0.0000 0.0000 0.0000 16.1229 0.0000 0.0000
# 5 0.0000 0.0000 0.0000 0.0000 -308.9391 0.0000
# 6 0.0000 0.0000 0.0000 0.0000 0.0000 29.8398
#
#
#
# Elastic Compliance Matrix: (Units=1/GPa)
#
#
# Indices 1 2 3 4 5 6 
#
# 1 0.017217 -0.003070 -0.004034 0.000000 0.000000 0.000000
# 2 -0.003070 0.013497 -0.004007 0.000000 0.000000 0.000000
# 3 -0.004034 -0.004007 0.011547 0.000000 0.000000 0.000000
# 4 0.000000 0.000000 0.000000 0.062023 0.000000 0.000000
# 5 0.000000 0.000000 0.000000 0.000000 -0.003237 0.000000
# 6 0.000000 0.000000 0.000000 0.000000 0.000000 0.033512
#
#
# Mechanical properties :
#
#
# Convention : Reuss Voigt Hill
#
# Bulk Modulus (GPa) = 49.90421 53.04112 51.47266
# Shear Modulus (GPa) = 30.58843 -40.95546 -5.18351
#
# Velocity S-wave (km/s) = 3.82035 -4.42059 -1.57267
# Velocity P-wave (km/s) = 6.57811 0.86446 4.61109
#
# Compressibility (1/GPa) = 0.02003839
#
# Stress axis : x y z
#
# Youngs Moduli (GPa) = 58.08298 74.09314 86.60266
#
# Poissons Ratio (x) = 0.22746 0.34938
# Poissons Ratio (y) = 0.17831 0.34699
# Poissons Ratio (z) = 0.23432 0.29687
#
# Static dielectric constant tensor:
#      x y z
#    x 1.793960 0.000000 0.000000 
#    y 0.000000 1.770450 0.000000 
#    z 0.000000 0.000000 1.741280 
# 
# From -- ./inp_files/21704.got.cif
#   From: 2010.05.17/outbox.cif.g08.bks.cpg/sg56_11_cif.got.tgz:21704.got - 2010.06.03 13:42:01.
