data_PCOD9433342
_publ_section_title
;
Structure prediction by ZEFSAII (Michael W. Deem and Ramdas Pophale) SiO2 
 PCOD9433342
Probable space group: P C C N
;
_chemical_formula_sum "Si O2"
_cell_formula_units_Z 48
_cell_length_a 7.472982
_cell_length_b 15.364950
_cell_length_c 19.671785
_cell_angle_alpha 90.000000
_cell_angle_beta 90.000000
_cell_angle_gamma 90.000000
_cell_volume 2258.753595
_symmetry_space_group_name_H-M "P C C N"
_symmetry_group_IT_number 56
_symmetry_cell_setting 'orthorhombic'
loop_
_space_group_symop_operation_xyz
x,y,z
1/2-x,1/2-y,z
1/2+x,-y,1/2-z
-x,1/2+y,1/2-z
-x,-y,-z
1/2+x,1/2+y,-z
1/2-x,y,1/2+z
x,1/2-y,1/2+z
loop_
_atom_site_type_symbol
_atom_site_label
_atom_site_fract_x
_atom_site_fract_y
_atom_site_fract_z
Si Si1 0.031034 0.462218 0.143294
Si Si2 0.750000 0.250000 0.569296
Si Si3 0.440851 0.348063 0.374413
Si Si4 0.750000 0.250000 0.807087
Si Si5 0.282725 0.148435 0.734509
Si Si6 0.182179 0.880104 0.810988
Si Si7 0.110673 0.175962 0.526176
O O1 0.057819 0.563373 0.130077
O O2 0.139948 0.417065 0.203704
O O3 0.091324 0.404794 0.077942
O O4 0.822141 0.452298 0.164463
O O5 0.674369 0.179371 0.621792
O O6 0.588033 0.284752 0.525834
O O7 0.577876 0.271511 0.352669
O O8 0.293347 0.349715 0.315525
O O9 0.351983 0.346228 0.448123
O O10 0.771239 0.170798 0.753001
O O11 0.250000 0.250000 0.712596
O O12 0.476711 0.111346 0.711033
O O13 0.250000 0.250000 0.549629
#
# Coordination Sequence:
#
# PCOD9433342 Si02
#       7
#     8   4   8   4   8   8   8
#     4  11  23  40  64  91 129 163 212 262 317 374
#     4   9  17  34  62  84 113 163 208 246 303 363
#     4  11  24  38  62  95 127 166 206 268 321 370
#     4   9  19  38  60  86 125 165 208 256 321 369
#     4  11  22  40  64  93 121 165 214 255 317 382
#     4   9  19  37  62  91 118 162 215 262 301 372
#     4  11  22  40  63  89 126 168 211 255 313 382
#
# _framework density 21.250657
#
# number of rings (size 3 to 8) (size 9 to 14) (size 15 to 20)
#    0.000    1.667    0.000    7.000    4.667    0.000 
#    0.000    3.333    0.000    9.000    0.000    0.000 
#    0.000    0.000    0.000    0.000    0.000    0.000 
#
# Total GULP energy -267840.240745 kJ/mol
# GULP energy per Si atom -5580.005016 kJ/mol
# Density = 2.120229 g / cm^3
# Si number density = 21.250657 Si / 1000 Ang^3
#
#
#
# Elastic Constant Matrix: (Units=GPa)
#
#
# Indices 1 2 3 4 5 6 
#
# 1 70.5702 18.2662 22.9856 0.0000 0.0000 0.0000
# 2 18.2662 62.2195 2.4703 0.0000 0.0000 0.0000
# 3 22.9856 2.4703 112.5987 0.0000 0.0000 0.0000
# 4 0.0000 0.0000 0.0000 11.1581 0.0000 0.0000
# 5 0.0000 0.0000 0.0000 0.0000 14.3974 0.0000
# 6 0.0000 0.0000 0.0000 0.0000 0.0000 22.6926
#
#
#
# Elastic Compliance Matrix: (Units=1/GPa)
#
#
# Indices 1 2 3 4 5 6 
#
# 1 0.016447 -0.004699 -0.003254 0.000000 0.000000 0.000000
# 2 -0.004699 0.017429 0.000577 0.000000 0.000000 0.000000
# 3 -0.003254 0.000577 0.009533 0.000000 0.000000 0.000000
# 4 0.000000 0.000000 0.000000 0.089621 0.000000 0.000000
# 5 0.000000 0.000000 0.000000 0.000000 0.069457 0.000000
# 6 0.000000 0.000000 0.000000 0.000000 0.000000 0.044067
#
#
# Mechanical properties :
#
#
# Convention : Reuss Voigt Hill
#
# Bulk Modulus (GPa) = 34.89778 36.98140 35.93959
# Shear Modulus (GPa) = 18.45989 23.09405 20.77697
#
# Velocity S-wave (km/s) = 2.95052 3.30016 3.13023
# Velocity P-wave (km/s) = 5.29765 5.65346 5.47845
#
# Compressibility (1/GPa) = 0.02865512
#
# Stress axis : x y z
#
# Youngs Moduli (GPa) = 60.80306 57.37632 104.90141
#
# Poissons Ratio (x) = 0.26962 0.34138
# Poissons Ratio (y) = 0.28572 -0.06052
# Poissons Ratio (z) = 0.19787 -0.03310
#
# Static dielectric constant tensor:
#      x y z
#    x 1.800900 0.000000 0.000000 
#    y 0.000000 1.830510 0.000000 
#    z 0.000000 0.000000 1.782650 
# 
# From -- ./inp_files/14893.got.cif
#   From: 2010.05.17/outbox.cif.g08.bks.cpg/sg56_8_cif.got.tgz:14893.got - 2010.06.03 13:42:01.
