data_PCOD9433667
_publ_section_title
;
Structure prediction by ZEFSAII (Michael W. Deem and Ramdas Pophale) SiO2 
 PCOD9433667
Probable space group: P C C N
;
_chemical_formula_sum "Si O2"
_cell_formula_units_Z 32
_cell_length_a 4.973637
_cell_length_b 12.465300
_cell_length_c 20.889448
_cell_angle_alpha 90.000000
_cell_angle_beta 90.000000
_cell_angle_gamma 90.000000
_cell_volume 1295.101434
_symmetry_space_group_name_H-M "P C C N"
_symmetry_group_IT_number 56
_symmetry_cell_setting 'orthorhombic'
loop_
_space_group_symop_operation_xyz
x,y,z
1/2-x,1/2-y,z
1/2+x,-y,1/2-z
-x,1/2+y,1/2-z
-x,-y,-z
1/2+x,1/2+y,-z
1/2-x,y,1/2+z
x,1/2-y,1/2+z
loop_
_atom_site_type_symbol
_atom_site_label
_atom_site_fract_x
_atom_site_fract_y
_atom_site_fract_z
Si Si1 0.411298 0.107058 0.962002
Si Si2 0.549674 0.648128 0.839394
Si Si3 0.750000 0.250000 0.774625
Si Si4 0.750000 0.250000 0.550858
Si Si5 0.897170 0.407889 0.373341
O O1 0.610297 0.121216 0.902658
O O2 0.116458 0.098050 0.930707
O O3 0.509166 0.201661 0.009141
O O4 0.500000 0.000000 0.000000
O O5 0.750000 0.750000 0.845563
O O6 0.399569 0.668756 0.773075
O O7 0.355466 0.659733 0.900798
O O8 0.643983 0.526746 0.844889
O O9 0.552481 0.321807 0.817835
#
# Coordination Sequence:
#
# PCOD9433667 Si02
#       5
#     8   8   4   4   8
#     4  12  26  49  79 115 159 204 259 331 401 487
#     4  11  27  49  82 109 160 215 271 337 398 489
#     4  11  31  50  76 118 153 217 270 332 394 477
#     4  11  25  46  78 122 155 209 266 326 420 481
#     4  12  29  51  79 116 160 207 267 331 407 473
#
# _framework density 24.708490999999999
#
# number of rings (size 3 to 8) (size 9 to 14) (size 15 to 20)
#    0.000    0.500    2.500    3.000   14.000    2.000 
#    0.000    0.000    0.000    0.000    0.000    0.000 
#    0.000    0.000    0.000    0.000    0.000    0.000 
#
# Total GULP energy -179156.794167 kJ/mol
# GULP energy per Si atom -5598.649818 kJ/mol
# Density = 2.465225 g / cm^3
# Si number density = 24.708491 Si / 1000 Ang^3
#
#
#
# Elastic Constant Matrix: (Units=GPa)
#
#
# Indices 1 2 3 4 5 6 
#
# 1 70.8354 30.2219 8.5579 0.0000 0.0000 0.0000
# 2 30.2219 141.3887 78.0395 0.0000 0.0000 0.0000
# 3 8.5579 78.0395 117.6750 0.0000 0.0000 0.0000
# 4 0.0000 0.0000 0.0000 9.2913 0.0000 0.0000
# 5 0.0000 0.0000 0.0000 0.0000 -1.2209 0.0000
# 6 0.0000 0.0000 0.0000 0.0000 0.0000 31.5118
#
#
#
# Elastic Compliance Matrix: (Units=1/GPa)
#
#
# Indices 1 2 3 4 5 6 
#
# 1 0.015750 -0.004313 0.001715 0.000000 0.000000 0.000000
# 2 -0.004313 0.012338 -0.007868 0.000000 0.000000 0.000000
# 3 0.001715 -0.007868 0.013591 0.000000 0.000000 0.000000
# 4 0.000000 0.000000 0.000000 0.107627 0.000000 0.000000
# 5 0.000000 0.000000 0.000000 0.000000 -0.819059 0.000000
# 6 0.000000 0.000000 0.000000 0.000000 0.000000 0.031734
#
#
# Mechanical properties :
#
#
# Convention : Reuss Voigt Hill
#
# Bulk Modulus (GPa) = 48.20185 62.61531 55.40858
# Shear Modulus (GPa) = -8.19444 22.12177 6.96366
#
# Velocity S-wave (km/s) = -1.82309 2.99542 1.68061
# Velocity P-wave (km/s) = 3.88832 6.11228 5.12245
#
# Compressibility (1/GPa) = 0.02074609
#
# Stress axis : x y z
#
# Youngs Moduli (GPa) = 63.49101 81.05315 73.57606
#
# Poissons Ratio (x) = 0.34960 -0.12618
# Poissons Ratio (y) = 0.27385 0.57892
# Poissons Ratio (z) = -0.10889 0.63775
#
# Static dielectric constant tensor:
#      x y z
#    x 1.952510 0.000000 0.000000 
#    y 0.000000 1.942680 0.000000 
#    z 0.000000 0.000000 1.956680 
# 
# From -- ./inp_files/17304.got.cif
#   From: 2010.05.17/outbox.cif.g08.bks.cpg/sg56_9_cif.got.tgz:17304.got - 2010.06.03 13:42:01.
