data_PCOD9433994
_publ_section_title
;
Structure prediction by ZEFSAII (Michael W. Deem and Ramdas Pophale) SiO2 
 PCOD9433994
Probable space group: P B C M
;
_chemical_formula_sum "Si O2"
_cell_formula_units_Z 44
_cell_length_a 25.244974
_cell_length_b 5.437836
_cell_length_c 14.471969
_cell_angle_alpha 90.000000
_cell_angle_beta 90.000000
_cell_angle_gamma 90.000000
_cell_volume 1986.683372
_symmetry_space_group_name_H-M "P B C M"
_symmetry_group_IT_number 57
_symmetry_cell_setting 'orthorhombic'
loop_
_space_group_symop_operation_xyz
x,y,z
-x,-y,1/2+z
x,1/2-y,-z
-x,1/2+y,1/2-z
-x,-y,-z
x,y,1/2-z
-x,1/2+y,z
x,1/2-y,1/2+z
loop_
_atom_site_type_symbol
_atom_site_label
_atom_site_fract_x
_atom_site_fract_y
_atom_site_fract_z
Si Si1 0.175529 0.165116 0.857111
Si Si2 0.355852 0.748255 0.888531
Si Si3 0.478650 0.680171 0.357283
Si Si4 0.966850 0.248800 0.750000
Si Si5 0.865251 0.164318 0.855939
Si Si6 0.298320 0.252388 0.111657
O O1 0.157144 0.139682 0.750000
O O2 0.145058 0.398628 0.898311
O O3 0.237344 0.226134 0.860096
O O4 0.163213 0.898873 0.899435
O O5 0.417133 0.751803 0.861293
O O6 0.325906 0.500932 0.857531
O O7 0.328517 0.001370 0.857240
O O8 0.354065 0.750000 0.000000
O O9 0.495559 0.654789 0.250000
O O10 0.489337 0.410449 0.398538
O O11 0.926755 0.222106 0.837119
O O12 0.994710 0.513183 0.750000
O O13 0.842494 0.139158 0.750000
O O14 0.299411 0.250000 0.000000
#
# Coordination Sequence:
#
# PCOD9433994 Si02
#       6
#     8   8   8   4   8   8
#     4  10  17  31  47  67  96 131 157 197 240 283
#     4  10  21  36  51  72  98 124 160 203 240 290
#     4  10  21  36  54  75  99 125 156 200 244 292
#     4  10  16  26  44  68 104 136 158 198 252 286
#     4   8  17  27  42  67  97 127 157 201 232 287
#     4  10  21  34  50  72  99 128 163 203 240 285
#
# _framework density 22.147466000000001
#
# number of rings (size 3 to 8) (size 9 to 14) (size 15 to 20)
#    0.545    1.818    0.000    3.273    0.000    2.182 
#    0.000    0.000    0.000    0.000    0.000    0.000 
#    0.000   14.545    0.000    0.000    0.000    0.000 
#
# Total GULP energy -245560.328389 kJ/mol
# GULP energy per Si atom -5580.916554 kJ/mol
# Density = 2.209706 g / cm^3
# Si number density = 22.147466 Si / 1000 Ang^3
#
#
#
# Elastic Constant Matrix: (Units=GPa)
#
#
# Indices 1 2 3 4 5 6 
#
# 1 93.5244 37.2774 -21.3528 0.0000 0.0000 0.0000
# 2 37.2774 189.9670 8.9058 0.0000 0.0000 0.0000
# 3 -21.3528 8.9058 67.1957 0.0000 0.0000 0.0000
# 4 0.0000 0.0000 0.0000 -2.0121 0.0000 0.0000
# 5 0.0000 0.0000 0.0000 0.0000 41.7320 0.0000
# 6 0.0000 0.0000 0.0000 0.0000 0.0000 53.7984
#
#
#
# Elastic Compliance Matrix: (Units=1/GPa)
#
#
# Indices 1 2 3 4 5 6 
#
# 1 0.012785 -0.002716 0.004423 0.000000 0.000000 0.000000
# 2 -0.002716 0.005874 -0.001642 0.000000 0.000000 0.000000
# 3 0.004423 -0.001642 0.016505 0.000000 0.000000 0.000000
# 4 0.000000 0.000000 0.000000 -0.496985 0.000000 0.000000
# 5 0.000000 0.000000 0.000000 0.000000 0.023962 0.000000
# 6 0.000000 0.000000 0.000000 0.000000 0.000000 0.018588
#
#
# Mechanical properties :
#
#
# Convention : Reuss Voigt Hill
#
# Bulk Modulus (GPa) = 28.33393 44.48310 36.40851
# Shear Modulus (GPa) = -12.26584 40.42742 14.08079
#
# Velocity S-wave (km/s) = -2.35590 4.27707 2.52419
# Velocity P-wave (km/s) = 2.32824 6.67231 4.99702
#
# Compressibility (1/GPa) = 0.03529338
#
# Stress axis : x y z
#
# Youngs Moduli (GPa) = 78.21829 170.24137 60.58825
#
# Poissons Ratio (x) = 0.46239 -0.26796
# Poissons Ratio (y) = 0.21245 0.09946
# Poissons Ratio (z) = -0.34593 0.27947
#
# Static dielectric constant tensor:
#      x y z
#    x 1.745270 0.000000 0.000000 
#    y 0.000000 1.865730 0.000000 
#    z 0.000000 0.000000 1.813410 
# 
# From -- ./inp_files/23096.got.cif
#   From: 2010.05.17/outbox.cif.g08.bks.cpg/sg57_12_cif.got.tgz:23096.got - 2010.06.03 13:58:18.
