data_PCOD9433134
_publ_section_title
;
Structure prediction by ZEFSAII (Michael W. Deem and Ramdas Pophale) SiO2 
 PCOD9433134
Probable space group: P C C N
;
_chemical_formula_sum "Si O2"
_cell_formula_units_Z 36
_cell_length_a 4.693734
_cell_length_b 21.149764
_cell_length_c 14.752755
_cell_angle_alpha 90.000000
_cell_angle_beta 90.000000
_cell_angle_gamma 90.000000
_cell_volume 1464.526147
_symmetry_space_group_name_H-M "P C C N"
_symmetry_group_IT_number 56
_symmetry_cell_setting 'orthorhombic'
loop_
_space_group_symop_operation_xyz
x,y,z
1/2-x,1/2-y,z
1/2+x,-y,1/2-z
-x,1/2+y,1/2-z
-x,-y,-z
1/2+x,1/2+y,-z
1/2-x,y,1/2+z
x,1/2-y,1/2+z
loop_
_atom_site_type_symbol
_atom_site_label
_atom_site_fract_x
_atom_site_fract_y
_atom_site_fract_z
Si Si1 0.000000 0.000000 0.500000
Si Si2 0.180544 0.018688 0.808616
Si Si3 0.553380 0.155354 0.355196
Si Si4 0.750000 0.250000 0.603842
Si Si5 0.942613 0.848652 0.524582
Si Si6 0.250000 0.250000 0.721513
O O1 0.972128 0.922309 0.501045
O O2 0.807261 0.003217 0.595438
O O3 0.020094 0.084408 0.826065
O O4 0.438817 0.024859 0.737216
O O5 0.880143 0.161844 0.382002
O O6 0.431481 0.201920 0.281409
O O7 0.379628 0.166854 0.448616
O O8 0.921624 0.197577 0.547839
O O9 0.497752 0.217629 0.662095
#
# Coordination Sequence:
#
# PCOD9433134 Si02
#       6
#     4   8   8   4   8   4
#     4  10  26  44  72 104 144 188 238 302 366 440
#     4  11  25  42  70 101 141 186 233 294 355 434
#     4  11  24  45  68  98 138 188 232 289 362 427
#     4  12  26  42  70 106 136 188 236 304 360 436
#     4  11  24  45  70 100 140 188 238 294 364 438
#     4  12  26  42  70 104 140 184 238 298 356 434
#
# _framework density 24.581330999999999
#
# number of rings (size 3 to 8) (size 9 to 14) (size 15 to 20)
#    0.000    0.889    0.000    6.667    6.222    8.000 
#    0.000    0.000    0.000    0.000    0.000    0.000 
#    0.000    0.000    0.000    0.000    0.000    0.000 
#
# Total GULP energy -200684.340708 kJ/mol
# GULP energy per Si atom -5574.565020 kJ/mol
# Density = 2.452538 g / cm^3
# Si number density = 24.581331 Si / 1000 Ang^3
#
#
#
# Elastic Constant Matrix: (Units=GPa)
#
#
# Indices 1 2 3 4 5 6 
#
# 1 88.6555 4.1458 8.1855 0.0000 0.0000 0.0000
# 2 4.1458 47.3001 14.9998 0.0000 0.0000 0.0000
# 3 8.1855 14.9998 51.1421 0.0000 0.0000 0.0000
# 4 0.0000 0.0000 0.0000 18.3152 0.0000 0.0000
# 5 0.0000 0.0000 0.0000 0.0000 8.4799 0.0000
# 6 0.0000 0.0000 0.0000 0.0000 0.0000 20.1578
#
#
#
# Elastic Compliance Matrix: (Units=1/GPa)
#
#
# Indices 1 2 3 4 5 6 
#
# 1 0.011458 -0.000466 -0.001697 0.000000 0.000000 0.000000
# 2 -0.000466 0.023329 -0.006768 0.000000 0.000000 0.000000
# 3 -0.001697 -0.006768 0.021810 0.000000 0.000000 0.000000
# 4 0.000000 0.000000 0.000000 0.054599 0.000000 0.000000
# 5 0.000000 0.000000 0.000000 0.000000 0.117926 0.000000
# 6 0.000000 0.000000 0.000000 0.000000 0.000000 0.049609
#
#
# Mechanical properties :
#
#
# Convention : Reuss Voigt Hill
#
# Bulk Modulus (GPa) = 25.81654 26.86222 26.33938
# Shear Modulus (GPa) = 16.15486 20.04168 18.09827
#
# Velocity S-wave (km/s) = 2.56637 2.85848 2.71636
# Velocity P-wave (km/s) = 4.39397 4.67399 4.53614
#
# Compressibility (1/GPa) = 0.03873485
#
# Stress axis : x y z
#
# Youngs Moduli (GPa) = 87.27440 42.86581 45.85066
#
# Poissons Ratio (x) = 0.01998 0.07782
# Poissons Ratio (y) = 0.04068 0.31030
# Poissons Ratio (z) = 0.14812 0.29010
#
# Static dielectric constant tensor:
#      x y z
#    x 1.930810 0.000000 0.000000 
#    y 0.000000 1.882900 0.000000 
#    z 0.000000 0.000000 2.033330 
# 
# From -- ./inp_files/9513.got.cif
#   From: 2010.05.17/outbox.cif.g08.bks.cpg/sg56_5_cif.got.tgz:9513.got - 2010.06.03 13:42:01.
