data_PCOD9433365
_publ_section_title
;
Structure prediction by ZEFSAII (Michael W. Deem and Ramdas Pophale) SiO2 
 PCOD9433365
Probable space group: P C C N
;
_chemical_formula_sum "Si O2"
_cell_formula_units_Z 32
_cell_length_a 13.496088
_cell_length_b 7.763121
_cell_length_c 13.515888
_cell_angle_alpha 90.000000
_cell_angle_beta 90.000000
_cell_angle_gamma 90.000000
_cell_volume 1416.083430
_symmetry_space_group_name_H-M "P C C N"
_symmetry_group_IT_number 56
_symmetry_cell_setting 'orthorhombic'
loop_
_space_group_symop_operation_xyz
x,y,z
1/2-x,1/2-y,z
1/2+x,-y,1/2-z
-x,1/2+y,1/2-z
-x,-y,-z
1/2+x,1/2+y,-z
1/2-x,y,1/2+z
x,1/2-y,1/2+z
loop_
_atom_site_type_symbol
_atom_site_label
_atom_site_fract_x
_atom_site_fract_y
_atom_site_fract_z
Si Si1 0.104065 0.098170 0.006635
Si Si2 0.454633 0.396386 0.651932
Si Si3 0.760530 0.451636 0.323460
Si Si4 0.395262 0.319570 0.323103
O O1 0.139984 0.176515 0.901973
O O2 0.072700 0.264688 0.067638
O O3 0.183086 0.990243 0.071782
O O4 0.000000 0.000000 0.000000
O O5 0.352205 0.491213 0.671508
O O6 0.541843 0.526767 0.628236
O O7 0.471545 0.282502 0.750670
O O8 0.750000 0.250000 0.298970
O O9 0.816933 0.577597 0.245628
#
# Coordination Sequence:
#
# PCOD9433365 Si02
#       4
#     8   8   8   8
#     4  11  23  41  65  94 128 171 220 274 329 393
#     4  11  23  42  65  94 132 168 214 276 326 389
#     4  11  25  44  65  96 136 173 217 276 329 391
#     4  11  22  41  68  96 127 176 221 266 338 403
#
# _framework density 22.597541
#
# number of rings (size 3 to 8) (size 9 to 14) (size 15 to 20)
#    0.000    1.000    0.000    9.750    0.000    4.000 
#    0.000    2.500    0.000    0.000    0.000    0.000 
#    0.000    0.000    0.000    0.000    0.000    0.000 
#
# Total GULP energy -178796.070720 kJ/mol
# GULP energy per Si atom -5587.377210 kJ/mol
# Density = 2.254611 g / cm^3
# Si number density = 22.597541 Si / 1000 Ang^3
#
#
#
# Elastic Constant Matrix: (Units=GPa)
#
#
# Indices 1 2 3 4 5 6 
#
# 1 78.1348 35.6075 5.9932 0.0000 0.0000 0.0000
# 2 35.6075 127.2171 26.4400 0.0000 0.0000 0.0000
# 3 5.9932 26.4400 99.1474 0.0000 0.0000 0.0000
# 4 0.0000 0.0000 0.0000 24.8597 0.0000 0.0000
# 5 0.0000 0.0000 0.0000 0.0000 23.8530 0.0000
# 6 0.0000 0.0000 0.0000 0.0000 0.0000 40.9382
#
#
#
# Elastic Compliance Matrix: (Units=1/GPa)
#
#
# Indices 1 2 3 4 5 6 
#
# 1 0.014674 -0.004153 0.000220 0.000000 0.000000 0.000000
# 2 -0.004153 0.009497 -0.002282 0.000000 0.000000 0.000000
# 3 0.000220 -0.002282 0.010681 0.000000 0.000000 0.000000
# 4 0.000000 0.000000 0.000000 0.040226 0.000000 0.000000
# 5 0.000000 0.000000 0.000000 0.000000 0.041924 0.000000
# 6 0.000000 0.000000 0.000000 0.000000 0.000000 0.024427
#
#
# Mechanical properties :
#
#
# Convention : Reuss Voigt Hill
#
# Bulk Modulus (GPa) = 44.59491 48.95341 46.77416
# Shear Modulus (GPa) = 30.99205 33.69408 32.34306
#
# Velocity S-wave (km/s) = 3.70737 3.86560 3.78731
# Velocity P-wave (km/s) = 6.17279 6.45244 6.31416
#
# Compressibility (1/GPa) = 0.02242408
#
# Stress axis : x y z
#
# Youngs Moduli (GPa) = 68.14729 105.29429 93.62321
#
# Poissons Ratio (x) = 0.43729 -0.02064
# Poissons Ratio (y) = 0.28302 0.21361
# Poissons Ratio (z) = -0.01503 0.24024
#
# Static dielectric constant tensor:
#      x y z
#    x 1.807270 0.000000 0.000000 
#    y 0.000000 1.805910 0.000000 
#    z 0.000000 0.000000 1.877740 
# 
# From -- ./inp_files/11273.got.cif
#   From: 2010.05.17/outbox.cif.g08.bks.cpg/sg56_6_cif.got.tgz:11273.got - 2010.06.03 13:42:01.
