data_PCOD9433493
_publ_section_title
;
Structure prediction by ZEFSAII (Michael W. Deem and Ramdas Pophale) SiO2 
 PCOD9433493
Probable space group: P C C N
;
_chemical_formula_sum "Si O2"
_cell_formula_units_Z 32
_cell_length_a 8.539355
_cell_length_b 10.601479
_cell_length_c 16.223543
_cell_angle_alpha 90.000000
_cell_angle_beta 90.000000
_cell_angle_gamma 90.000000
_cell_volume 1468.713985
_symmetry_space_group_name_H-M "P C C N"
_symmetry_group_IT_number 56
_symmetry_cell_setting 'orthorhombic'
loop_
_space_group_symop_operation_xyz
x,y,z
1/2-x,1/2-y,z
1/2+x,-y,1/2-z
-x,1/2+y,1/2-z
-x,-y,-z
1/2+x,1/2+y,-z
1/2-x,y,1/2+z
x,1/2-y,1/2+z
loop_
_atom_site_type_symbol
_atom_site_label
_atom_site_fract_x
_atom_site_fract_y
_atom_site_fract_z
Si Si1 0.668834 0.122457 0.811696
Si Si2 0.117155 0.884725 0.500012
Si Si3 0.946297 0.113946 0.058061
Si Si4 0.646409 0.875982 0.274678
O O1 0.750000 0.250000 0.779666
O O2 0.483444 0.127493 0.796527
O O3 0.743383 0.998265 0.771871
O O4 0.695257 0.116586 0.909773
O O5 0.258002 0.899078 0.434631
O O6 0.032919 0.751955 0.482918
O O7 0.000000 0.000000 0.500000
O O8 0.042436 0.113706 0.142237
O O9 0.000000 0.000000 0.000000
O O10 0.750000 0.750000 0.275543
#
# Coordination Sequence:
#
# PCOD9433493 Si02
#       4
#     8   8   8   8
#     4  12  25  48  65 102 142 179 232 288 351 419
#     4  11  24  43  69  97 134 179 230 285 342 416
#     4  11  23  44  68  96 134 178 230 286 339 410
#     4  12  27  45  71 103 139 187 233 291 355 421
#
# _framework density 21.787768
#
# number of rings (size 3 to 8) (size 9 to 14) (size 15 to 20)
#    0.000    0.500    5.000    3.000    7.000    0.000 
#    0.000    0.000    0.000    0.000    0.000    0.000 
#    0.000    0.000    0.000    0.000    0.000    0.000 
#
# Total GULP energy -179081.666463 kJ/mol
# GULP energy per Si atom -5596.302077 kJ/mol
# Density = 2.173818 g / cm^3
# Si number density = 21.787768 Si / 1000 Ang^3
#
#
#
# Elastic Constant Matrix: (Units=GPa)
#
#
# Indices 1 2 3 4 5 6 
#
# 1 123.4333 79.0921 22.5281 0.0000 0.0000 0.0000
# 2 79.0921 205.9973 8.4100 0.0000 0.0000 0.0000
# 3 22.5281 8.4100 46.7725 0.0000 0.0000 0.0000
# 4 0.0000 0.0000 0.0000 10.3260 0.0000 0.0000
# 5 0.0000 0.0000 0.0000 0.0000 37.0989 0.0000
# 6 0.0000 0.0000 0.0000 0.0000 0.0000 59.9363
#
#
#
# Elastic Compliance Matrix: (Units=1/GPa)
#
#
# Indices 1 2 3 4 5 6 
#
# 1 0.011759 -0.004315 -0.004888 0.000000 0.000000 0.000000
# 2 -0.004315 0.006474 0.000914 0.000000 0.000000 0.000000
# 3 -0.004888 0.000914 0.023570 0.000000 0.000000 0.000000
# 4 0.000000 0.000000 0.000000 0.096843 0.000000 0.000000
# 5 0.000000 0.000000 0.000000 0.000000 0.026955 0.000000
# 6 0.000000 0.000000 0.000000 0.000000 0.000000 0.016684
#
#
# Mechanical properties :
#
#
# Convention : Reuss Voigt Hill
#
# Bulk Modulus (GPa) = 39.64257 66.25152 52.94704
# Shear Modulus (GPa) = 24.12316 39.21710 31.67013
#
# Velocity S-wave (km/s) = 3.33105 4.24720 3.81671
# Velocity P-wave (km/s) = 5.74708 7.38412 6.61643
#
# Compressibility (1/GPa) = 0.02522541
#
# Stress axis : x y z
#
# Youngs Moduli (GPa) = 85.04413 154.46665 42.42710
#
# Poissons Ratio (x) = 0.66655 0.20737
# Poissons Ratio (y) = 0.36698 -0.03879
# Poissons Ratio (z) = 0.41567 -0.14124
#
# Static dielectric constant tensor:
#      x y z
#    x 1.793690 0.000000 0.000000 
#    y 0.000000 1.767250 0.000000 
#    z 0.000000 0.000000 1.755650 
# 
# From -- ./inp_files/10091.got.cif
#   From: 2010.05.17/outbox.cif.g08.bks.cpg/sg56_6_cif.got.tgz:10091.got - 2010.06.03 13:42:01.
