data_PCOD9433536
_publ_section_title
;
Structure prediction by ZEFSAII (Michael W. Deem and Ramdas Pophale) SiO2 
 PCOD9433536
Probable space group: P C C N
;
_chemical_formula_sum "Si O2"
_cell_formula_units_Z 48
_cell_length_a 24.855339
_cell_length_b 8.635586
_cell_length_c 8.144349
_cell_angle_alpha 90.000000
_cell_angle_beta 90.000000
_cell_angle_gamma 90.000000
_cell_volume 1748.106470
_symmetry_space_group_name_H-M "P C C N"
_symmetry_group_IT_number 56
_symmetry_cell_setting 'orthorhombic'
loop_
_space_group_symop_operation_xyz
x,y,z
1/2-x,1/2-y,z
1/2+x,-y,1/2-z
-x,1/2+y,1/2-z
-x,-y,-z
1/2+x,1/2+y,-z
1/2-x,y,1/2+z
x,1/2-y,1/2+z
loop_
_atom_site_type_symbol
_atom_site_label
_atom_site_fract_x
_atom_site_fract_y
_atom_site_fract_z
Si Si1 0.980661 0.488752 0.270717
Si Si2 0.664527 0.948439 0.709747
Si Si3 0.120931 0.311688 0.627403
Si Si4 0.171672 0.766252 0.997692
Si Si5 0.287108 0.507553 0.275911
Si Si6 0.950207 0.307224 0.936603
O O1 0.935031 0.614942 0.315582
O O2 0.983065 0.353211 0.406308
O O3 0.033275 0.580845 0.213798
O O4 0.962954 0.396056 0.105236
O O5 0.630972 0.871492 0.856788
O O6 0.636325 0.872236 0.551157
O O7 0.664403 0.129041 0.665902
O O8 0.729023 0.927451 0.723309
O O9 0.166790 0.382838 0.745344
O O10 0.204070 0.872503 0.125375
O O11 0.111458 0.740210 0.058881
O O12 0.199955 0.609809 0.936593
#
# Coordination Sequence:
#
# PCOD9433536 Si02
#       6
#     8   8   8   8   8   8
#     4  11  25  49  79 113 149 196 253 315 393 455
#     4  11  26  44  72 102 147 197 249 303 373 455
#     4  11  25  49  68 108 151 193 247 312 381 443
#     4  11  23  48  72 106 148 192 249 309 375 455
#     4  11  24  44  73 104 144 197 246 303 375 452
#     4  11  23  50  79 112 149 195 250 319 382 463
#
# _framework density 27.458280999999999
#
# number of rings (size 3 to 8) (size 9 to 14) (size 15 to 20)
#    0.000    1.000    5.000    1.000    0.000   15.333 
#    9.000    0.000    0.000    0.000    0.000    0.000 
#    0.000    0.000    0.000    0.000    0.000    0.000 
#
# Total GULP energy -269339.848669 kJ/mol
# GULP energy per Si atom -5611.246847 kJ/mol
# Density = 2.739578 g / cm^3
# Si number density = 27.458281 Si / 1000 Ang^3
#
#
#
# Elastic Constant Matrix: (Units=GPa)
#
#
# Indices 1 2 3 4 5 6 
#
# 1 128.3405 39.0440 18.2558 0.0000 0.0000 0.0000
# 2 39.0440 115.1515 19.7363 0.0000 0.0000 0.0000
# 3 18.2558 19.7363 60.0672 0.0000 0.0000 0.0000
# 4 0.0000 0.0000 0.0000 66.2144 0.0000 0.0000
# 5 0.0000 0.0000 0.0000 0.0000 39.0830 0.0000
# 6 0.0000 0.0000 0.0000 0.0000 0.0000 59.6646
#
#
#
# Elastic Compliance Matrix: (Units=1/GPa)
#
#
# Indices 1 2 3 4 5 6 
#
# 1 0.008870 -0.002697 -0.001809 0.000000 0.000000 0.000000
# 2 -0.002697 0.010023 -0.002473 0.000000 0.000000 0.000000
# 3 -0.001809 -0.002473 0.018011 0.000000 0.000000 0.000000
# 4 0.000000 0.000000 0.000000 0.015102 0.000000 0.000000
# 5 0.000000 0.000000 0.000000 0.000000 0.025587 0.000000
# 6 0.000000 0.000000 0.000000 0.000000 0.000000 0.016760
#
#
# Mechanical properties :
#
#
# Convention : Reuss Voigt Hill
#
# Bulk Modulus (GPa) = 43.58670 50.84792 47.21731
# Shear Modulus (GPa) = 43.11817 48.09393 45.60605
#
# Velocity S-wave (km/s) = 3.96702 4.18967 4.07986
# Velocity P-wave (km/s) = 6.07382 6.47787 6.27910
#
# Compressibility (1/GPa) = 0.02294278
#
# Stress axis : x y z
#
# Youngs Moduli (GPa) = 112.74290 99.77350 55.52268
#
# Poissons Ratio (x) = 0.26912 0.10047
# Poissons Ratio (y) = 0.30410 0.13733
# Poissons Ratio (z) = 0.20401 0.24678
#
# Static dielectric constant tensor:
#      x y z
#    x 2.020250 0.000000 0.000000 
#    y 0.000000 2.215120 0.000000 
#    z 0.000000 0.000000 2.183880 
# 
# From -- ./inp_files/5136.got.cif
#   From: 2010.05.17/outbox.cif.g08.bks.cpg/sg56_3_cif.got.tgz:5136.got - 2010.06.03 13:42:01.
