data_PCOD9433438
_publ_section_title
;
Structure prediction by ZEFSAII (Michael W. Deem and Ramdas Pophale) SiO2 
 PCOD9433438
Probable space group: P C C N
;
_chemical_formula_sum "Si O2"
_cell_formula_units_Z 40
_cell_length_a 7.137323
_cell_length_b 24.429925
_cell_length_c 9.514063
_cell_angle_alpha 90.000000
_cell_angle_beta 90.000000
_cell_angle_gamma 90.000000
_cell_volume 1658.912608
_symmetry_space_group_name_H-M "P C C N"
_symmetry_group_IT_number 56
_symmetry_cell_setting 'orthorhombic'
loop_
_space_group_symop_operation_xyz
x,y,z
1/2-x,1/2-y,z
1/2+x,-y,1/2-z
-x,1/2+y,1/2-z
-x,-y,-z
1/2+x,1/2+y,-z
1/2-x,y,1/2+z
x,1/2-y,1/2+z
loop_
_atom_site_type_symbol
_atom_site_label
_atom_site_fract_x
_atom_site_fract_y
_atom_site_fract_z
Si Si1 0.657740 0.968307 0.411427
Si Si2 0.122759 0.300044 0.160857
Si Si3 0.891054 0.071115 0.321951
Si Si4 0.365959 0.142927 0.443714
Si Si5 0.721021 0.143526 0.076404
O O1 0.571997 0.943790 0.268689
O O2 0.699655 0.916638 0.508100
O O3 0.500000 0.000000 0.500000
O O4 0.810818 0.013174 0.374266
O O5 0.250000 0.250000 0.216600
O O6 0.138439 0.346790 0.279112
O O7 0.229674 0.315293 0.019813
O O8 0.901063 0.303788 0.124001
O O9 0.758961 0.102722 0.207803
O O10 0.892269 0.110904 0.455811
O O11 0.574314 0.153698 0.507956
#
# Coordination Sequence:
#
# PCOD9433438 Si02
#       5
#     8   8   8   8   8
#     4  11  23  40  67 108 149 195 246 285 366 456
#     4  12  28  50  77 107 141 194 259 321 382 444
#     4  11  23  41  69 111 154 205 240 300 375 452
#     4  11  27  46  74 111 152 193 249 315 373 451
#     4  11  24  48  72 108 155 197 246 309 381 447
#
# _framework density 24.112179999999999
#
# number of rings (size 3 to 8) (size 9 to 14) (size 15 to 20)
#    0.000    0.800    6.000    0.600   11.200    1.600 
#    0.000    2.000    0.000    0.000    0.000    0.000 
#    0.000    0.000    0.000    0.000    0.000    0.000 
#
# Total GULP energy -223636.507423 kJ/mol
# GULP energy per Si atom -5590.912686 kJ/mol
# Density = 2.405730 g / cm^3
# Si number density = 24.112180 Si / 1000 Ang^3
#
#
#
# Elastic Constant Matrix: (Units=GPa)
#
#
# Indices 1 2 3 4 5 6 
#
# 1 112.5376 43.2753 25.8067 0.0000 0.0000 0.0000
# 2 43.2753 87.0672 18.3505 0.0000 0.0000 0.0000
# 3 25.8067 18.3505 112.7965 0.0000 0.0000 0.0000
# 4 0.0000 0.0000 0.0000 35.3551 0.0000 0.0000
# 5 0.0000 0.0000 0.0000 0.0000 34.0547 0.0000
# 6 0.0000 0.0000 0.0000 0.0000 0.0000 40.4570
#
#
#
# Elastic Compliance Matrix: (Units=1/GPa)
#
#
# Indices 1 2 3 4 5 6 
#
# 1 0.011303 -0.005253 -0.001731 0.000000 0.000000 0.000000
# 2 -0.005253 0.014335 -0.001130 0.000000 0.000000 0.000000
# 3 -0.001731 -0.001130 0.009446 0.000000 0.000000 0.000000
# 4 0.000000 0.000000 0.000000 0.028284 0.000000 0.000000
# 5 0.000000 0.000000 0.000000 0.000000 0.029364 0.000000
# 6 0.000000 0.000000 0.000000 0.000000 0.000000 0.024718
#
#
# Mechanical properties :
#
#
# Convention : Reuss Voigt Hill
#
# Bulk Modulus (GPa) = 53.03988 54.14068 53.59028
# Shear Modulus (GPa) = 35.72363 36.97129 36.34746
#
# Velocity S-wave (km/s) = 3.85328 3.91999 3.88678
# Velocity P-wave (km/s) = 6.46853 6.55674 6.51278
#
# Compressibility (1/GPa) = 0.01885374
#
# Stress axis : x y z
#
# Youngs Moduli (GPa) = 88.47239 69.76167 105.87029
#
# Poissons Ratio (x) = 0.36646 0.18330
# Poissons Ratio (y) = 0.46475 0.11965
# Poissons Ratio (z) = 0.15318 0.07884
#
# Static dielectric constant tensor:
#      x y z
#    x 1.994410 0.000000 0.000000 
#    y 0.000000 3.668620 0.000000 
#    z 0.000000 0.000000 1.915910 
# 
# From -- ./inp_files/2054.got.cif
#   From: 2010.05.17/outbox.cif.g08.bks.cpg/sg56_2_cif.got.tgz:2054.got - 2010.06.03 13:42:01.
