data_PCOD9433705
_publ_section_title
;
Structure prediction by ZEFSAII (Michael W. Deem and Ramdas Pophale) SiO2 
 PCOD9433705
Probable space group: P C C N
;
_chemical_formula_sum "Si O2"
_cell_formula_units_Z 28
_cell_length_a 5.186294
_cell_length_b 11.732001
_cell_length_c 18.228658
_cell_angle_alpha 90.000000
_cell_angle_beta 90.000000
_cell_angle_gamma 90.000000
_cell_volume 1109.133750
_symmetry_space_group_name_H-M "P C C N"
_symmetry_group_IT_number 56
_symmetry_cell_setting 'orthorhombic'
loop_
_space_group_symop_operation_xyz
x,y,z
1/2-x,1/2-y,z
1/2+x,-y,1/2-z
-x,1/2+y,1/2-z
-x,-y,-z
1/2+x,1/2+y,-z
1/2-x,y,1/2+z
x,1/2-y,1/2+z
loop_
_atom_site_type_symbol
_atom_site_label
_atom_site_fract_x
_atom_site_fract_y
_atom_site_fract_z
Si Si1 0.422879 0.584142 0.398302
Si Si2 0.010037 0.825650 0.563422
Si Si3 0.750000 0.750000 0.295601
Si Si4 0.420815 0.564265 0.772948
O O1 0.435239 0.637984 0.478452
O O2 0.491525 0.450180 0.399484
O O3 0.603651 0.660461 0.346949
O O4 0.145148 0.585617 0.358723
O O5 0.750000 0.750000 0.567575
O O6 0.250000 0.750000 0.588528
O O7 0.544528 0.817686 0.247086
O O8 0.649678 0.474007 0.760950
#
# Coordination Sequence:
#
# PCOD9433705 Si02
#       4
#     8   8   4   8
#     4  11  26  47  82 108 156 199 252 303 388 447
#     4  11  26  46  75 117 154 194 248 311 372 452
#     4  12  24  50  78 108 148 204 254 306 384 464
#     4  12  27  48  74 109 145 197 256 310 372 448
#
# _framework density 25.244926
#
# number of rings (size 3 to 8) (size 9 to 14) (size 15 to 20)
#    0.000    0.571    4.286    2.571    4.000    2.286 
#    2.571    5.714    0.000    0.000    0.000    0.000 
#    0.000    0.000    0.000    0.000    0.000    0.000 
#
# Total GULP energy -156851.198016 kJ/mol
# GULP energy per Si atom -5601.828501 kJ/mol
# Density = 2.518747 g / cm^3
# Si number density = 25.244926 Si / 1000 Ang^3
#
#
#
# Elastic Constant Matrix: (Units=GPa)
#
#
# Indices 1 2 3 4 5 6 
#
# 1 216.9505 111.4952 46.0393 0.0000 0.0000 0.0000
# 2 111.4952 219.3042 42.7024 0.0000 0.0000 0.0000
# 3 46.0393 42.7024 70.5109 0.0000 0.0000 0.0000
# 4 0.0000 0.0000 0.0000 46.9228 0.0000 0.0000
# 5 0.0000 0.0000 0.0000 0.0000 21.7007 0.0000
# 6 0.0000 0.0000 0.0000 0.0000 0.0000 57.7254
#
#
#
# Elastic Compliance Matrix: (Units=1/GPa)
#
#
# Indices 1 2 3 4 5 6 
#
# 1 0.006634 -0.002867 -0.002595 0.000000 0.000000 0.000000
# 2 -0.002867 0.006409 -0.002009 0.000000 0.000000 0.000000
# 3 -0.002595 -0.002009 0.017093 0.000000 0.000000 0.000000
# 4 0.000000 0.000000 0.000000 0.021312 0.000000 0.000000
# 5 0.000000 0.000000 0.000000 0.000000 0.046081 0.000000
# 6 0.000000 0.000000 0.000000 0.000000 0.000000 0.017323
#
#
# Mechanical properties :
#
#
# Convention : Reuss Voigt Hill
#
# Bulk Modulus (GPa) = 65.81917 100.80438 83.31178
# Shear Modulus (GPa) = 37.07580 45.70502 41.39041
#
# Velocity S-wave (km/s) = 3.83645 4.25957 4.05353
# Velocity P-wave (km/s) = 6.76412 8.01306 7.41493
#
# Compressibility (1/GPa) = 0.01519314
#
# Stress axis : x y z
#
# Youngs Moduli (GPa) = 150.74897 156.03501 58.50263
#
# Poissons Ratio (x) = 0.44739 0.15181
# Poissons Ratio (y) = 0.43224 0.11754
# Poissons Ratio (z) = 0.39117 0.31349
#
# Static dielectric constant tensor:
#      x y z
#    x 1.981270 0.000000 0.000000 
#    y 0.000000 2.042910 0.000000 
#    z 0.000000 0.000000 2.047850 
# 
# From -- ./inp_files/17187.got.cif
#   From: 2010.05.17/outbox.cif.g08.bks.cpg/sg56_9_cif.got.tgz:17187.got - 2010.06.03 13:42:01.
