data_PCOD9433159
_publ_section_title
;
Structure prediction by ZEFSAII (Michael W. Deem and Ramdas Pophale) SiO2 
 PCOD9433159
Probable space group: P C C N
;
_chemical_formula_sum "Si O2"
_cell_formula_units_Z 60
_cell_length_a 16.726389
_cell_length_b 17.672316
_cell_length_c 9.391636
_cell_angle_alpha 90.000000
_cell_angle_beta 90.000000
_cell_angle_gamma 90.000000
_cell_volume 2776.111552
_symmetry_space_group_name_H-M "P C C N"
_symmetry_group_IT_number 56
_symmetry_cell_setting 'orthorhombic'
loop_
_space_group_symop_operation_xyz
x,y,z
1/2-x,1/2-y,z
1/2+x,-y,1/2-z
-x,1/2+y,1/2-z
-x,-y,-z
1/2+x,1/2+y,-z
1/2-x,y,1/2+z
x,1/2-y,1/2+z
loop_
_atom_site_type_symbol
_atom_site_label
_atom_site_fract_x
_atom_site_fract_y
_atom_site_fract_z
Si Si1 0.258713 0.568642 0.393501
Si Si2 0.313074 0.026782 0.155365
Si Si3 0.103741 0.825559 0.279312
Si Si4 0.541617 0.559980 0.896658
Si Si5 0.698268 0.648918 0.956194
Si Si6 0.600842 0.331477 0.057750
Si Si7 0.250000 0.250000 0.785544
Si Si8 0.497276 0.039365 0.151388
O O1 0.237435 0.498086 0.292461
O O2 0.300181 0.539085 0.537571
O O3 0.317488 0.625176 0.311573
O O4 0.176409 0.612804 0.424269
O O5 0.277526 0.101743 0.083483
O O6 0.405003 0.036036 0.197122
O O7 0.112596 0.745984 0.357605
O O8 0.031464 0.876310 0.341386
O O9 0.091446 0.816767 0.110637
O O10 0.624238 0.592142 0.953780
O O11 0.477971 0.627282 0.882767
O O12 0.551587 0.512907 0.752706
O O13 0.500000 0.500000 0.000000
O O14 0.690605 0.707520 0.823937
O O15 0.708017 0.691752 0.105487
O O16 0.500000 0.000000 0.000000
#
# Coordination Sequence:
#
# PCOD9433159 Si02
#       8
#     8   8   8   8   8   8   4   8
#     4  12  24  46  70 106 142 188 240 291 357 416
#     4  12  25  43  78 105 138 186 242 303 350 420
#     4  12  28  46  70 106 148 190 234 292 356 438
#     4  12  26  49  73 102 143 189 242 300 359 421
#     4  11  26  46  74 104 144 188 243 294 364 430
#     4  12  28  45  71 103 149 191 234 290 364 427
#     4  10  26  48  70 106 142 194 236 298 362 436
#     4  12  27  46  72 110 141 185 246 296 355 423
#
# _framework density 21.612964000000002
#
# number of rings (size 3 to 8) (size 9 to 14) (size 15 to 20)
#    0.000    0.267    5.333    2.800    7.467    4.267 
#    0.000    0.000    0.000    0.000    0.000    0.000 
#    0.000    0.000    0.000    0.000    0.000    0.000 
#
# Total GULP energy -336043.057065 kJ/mol
# GULP energy per Si atom -5600.717618 kJ/mol
# Density = 2.156377 g / cm^3
# Si number density = 21.612964 Si / 1000 Ang^3
#
#
#
# Elastic Constant Matrix: (Units=GPa)
#
#
# Indices 1 2 3 4 5 6 
#
# 1 72.4748 6.2753 -13.5570 0.0000 0.0000 0.0000
# 2 6.2753 80.0033 28.7811 0.0000 0.0000 0.0000
# 3 -13.5570 28.7811 100.7752 0.0000 0.0000 0.0000
# 4 0.0000 0.0000 0.0000 40.5351 0.0000 0.0000
# 5 0.0000 0.0000 0.0000 0.0000 23.0662 0.0000
# 6 0.0000 0.0000 0.0000 0.0000 0.0000 27.8535
#
#
#
# Elastic Compliance Matrix: (Units=1/GPa)
#
#
# Indices 1 2 3 4 5 6 
#
# 1 0.014447 -0.002042 0.002527 0.000000 0.000000 0.000000
# 2 -0.002042 0.014219 -0.004336 0.000000 0.000000 0.000000
# 3 0.002527 -0.004336 0.011501 0.000000 0.000000 0.000000
# 4 0.000000 0.000000 0.000000 0.024670 0.000000 0.000000
# 5 0.000000 0.000000 0.000000 0.000000 0.043353 0.000000
# 6 0.000000 0.000000 0.000000 0.000000 0.000000 0.035902
#
#
# Mechanical properties :
#
#
# Convention : Reuss Voigt Hill
#
# Bulk Modulus (GPa) = 30.80167 32.91687 31.85927
# Shear Modulus (GPa) = 30.74690 33.74122 32.24406
#
# Velocity S-wave (km/s) = 3.77585 3.95543 3.86668
# Velocity P-wave (km/s) = 5.76990 6.01031 5.89133
#
# Compressibility (1/GPa) = 0.03246577
#
# Stress axis : x y z
#
# Youngs Moduli (GPa) = 69.21665 70.32612 86.94675
#
# Poissons Ratio (x) = 0.14362 -0.21970
# Poissons Ratio (y) = 0.14136 0.37698
# Poissons Ratio (z) = -0.17490 0.30492
#
# Static dielectric constant tensor:
#      x y z
#    x 1.773770 0.000000 0.000000 
#    y 0.000000 1.793420 0.000000 
#    z 0.000000 0.000000 1.788560 
# 
# From -- ./inp_files/4126.got.cif
#   From: 2010.05.17/outbox.cif.g08.bks.cpg/sg56_3_cif.got.tgz:4126.got - 2010.06.03 13:42:01.
