data_PCOD9433313
_publ_section_title
;
Structure prediction by ZEFSAII (Michael W. Deem and Ramdas Pophale) SiO2 
 PCOD9433313
Probable space group: P C C N
;
_chemical_formula_sum "Si O2"
_cell_formula_units_Z 48
_cell_length_a 13.020251
_cell_length_b 13.431860
_cell_length_c 13.374724
_cell_angle_alpha 90.000000
_cell_angle_beta 90.000000
_cell_angle_gamma 90.000000
_cell_volume 2339.054504
_symmetry_space_group_name_H-M "P C C N"
_symmetry_group_IT_number 56
_symmetry_cell_setting 'orthorhombic'
loop_
_space_group_symop_operation_xyz
x,y,z
1/2-x,1/2-y,z
1/2+x,-y,1/2-z
-x,1/2+y,1/2-z
-x,-y,-z
1/2+x,1/2+y,-z
1/2-x,y,1/2+z
x,1/2-y,1/2+z
loop_
_atom_site_type_symbol
_atom_site_label
_atom_site_fract_x
_atom_site_fract_y
_atom_site_fract_z
Si Si1 0.616768 0.896570 0.508382
Si Si2 0.250000 0.250000 0.226679
Si Si3 0.915761 0.804882 0.407059
Si Si4 0.104348 0.888567 0.090986
Si Si5 0.162531 0.380995 0.889272
Si Si6 0.376299 0.605297 0.323639
Si Si7 0.750000 0.250000 0.037383
O O1 0.590533 0.813974 0.424627
O O2 0.519424 0.886833 0.582225
O O3 0.722055 0.875804 0.565881
O O4 0.628401 0.005337 0.460556
O O5 0.313493 0.173913 0.157304
O O6 0.331943 0.306259 0.296342
O O7 0.908321 0.848592 0.518596
O O8 0.014049 0.847361 0.352225
O O9 0.139504 0.884592 0.205329
O O10 0.161190 0.800928 0.029873
O O11 0.131984 0.490002 0.853290
O O12 0.295616 0.665356 0.390890
#
# Coordination Sequence:
#
# PCOD9433313 Si02
#       7
#     8   4   8   8   8   8   4
#     4  11  21  46  70  94 141 173 224 290 342 392
#     4  12  22  40  76  98 136 184 230 276 344 418
#     4  12  24  43  67 101 138 175 222 288 337 403
#     4  11  25  45  70 100 134 186 226 282 343 417
#     4  12  24  43  67 101 138 175 222 288 337 403
#     4  12  27  43  67 102 130 180 231 269 350 415
#     4  12  24  48  70  88 144 172 224 290 336 402
#
# _framework density 20.521113
#
# number of rings (size 3 to 8) (size 9 to 14) (size 15 to 20)
#    0.000    0.333    6.667    3.000    0.000    0.000 
#    0.000    0.000    0.000    0.000    0.000    0.000 
#    0.000    0.000    0.000    0.000    0.000    0.000 
#
# Total GULP energy -268360.417532 kJ/mol
# GULP energy per Si atom -5590.842032 kJ/mol
# Density = 2.047441 g / cm^3
# Si number density = 20.521113 Si / 1000 Ang^3
#
#
#
# Elastic Constant Matrix: (Units=GPa)
#
#
# Indices 1 2 3 4 5 6 
#
# 1 44.6396 -9.3761 -1.8937 0.0000 0.0000 0.0000
# 2 -9.3761 92.5483 20.0894 0.0000 0.0000 0.0000
# 3 -1.8937 20.0894 111.5256 0.0000 0.0000 0.0000
# 4 0.0000 0.0000 0.0000 19.1031 0.0000 0.0000
# 5 0.0000 0.0000 0.0000 0.0000 16.2334 0.0000
# 6 0.0000 0.0000 0.0000 0.0000 0.0000 31.3271
#
#
#
# Elastic Compliance Matrix: (Units=1/GPa)
#
#
# Indices 1 2 3 4 5 6 
#
# 1 0.022889 0.002325 -0.000030 0.000000 0.000000 0.000000
# 2 0.002325 0.011481 -0.002029 0.000000 0.000000 0.000000
# 3 -0.000030 -0.002029 0.009331 0.000000 0.000000 0.000000
# 4 0.000000 0.000000 0.000000 0.052347 0.000000 0.000000
# 5 0.000000 0.000000 0.000000 0.000000 0.061601 0.000000
# 6 0.000000 0.000000 0.000000 0.000000 0.000000 0.031921
#
#
# Mechanical properties :
#
#
# Convention : Reuss Voigt Hill
#
# Bulk Modulus (GPa) = 22.60681 29.59475 26.10078
# Shear Modulus (GPa) = 24.53589 29.32565 26.93077
#
# Velocity S-wave (km/s) = 3.46156 3.78438 3.62656
# Velocity P-wave (km/s) = 5.19777 5.79209 5.50295
#
# Compressibility (1/GPa) = 0.04423446
#
# Stress axis : x y z
#
# Youngs Moduli (GPa) = 43.68951 87.09956 107.16436
#
# Poissons Ratio (x) = -0.20254 0.00324
# Poissons Ratio (y) = -0.10160 0.21740
# Poissons Ratio (z) = 0.00132 0.17669
#
# Static dielectric constant tensor:
#      x y z
#    x 1.736000 0.000000 0.000000 
#    y 0.000000 1.741940 0.000000 
#    z 0.000000 0.000000 1.733070 
# 
# From -- ./inp_files/7831.got.cif
#   From: 2010.05.17/outbox.cif.g08.bks.cpg/sg56_4_cif.got.tgz:7831.got - 2010.06.03 13:42:01.
