data_PCOD9433424
_publ_section_title
;
Structure prediction by ZEFSAII (Michael W. Deem and Ramdas Pophale) SiO2 
 PCOD9433424
Probable space group: P C C N
;
_chemical_formula_sum "Si O2"
_cell_formula_units_Z 40
_cell_length_a 8.912902
_cell_length_b 7.724377
_cell_length_c 25.121386
_cell_angle_alpha 90.000000
_cell_angle_beta 90.000000
_cell_angle_gamma 90.000000
_cell_volume 1729.522396
_symmetry_space_group_name_H-M "P C C N"
_symmetry_group_IT_number 56
_symmetry_cell_setting 'orthorhombic'
loop_
_space_group_symop_operation_xyz
x,y,z
1/2-x,1/2-y,z
1/2+x,-y,1/2-z
-x,1/2+y,1/2-z
-x,-y,-z
1/2+x,1/2+y,-z
1/2-x,y,1/2+z
x,1/2-y,1/2+z
loop_
_atom_site_type_symbol
_atom_site_label
_atom_site_fract_x
_atom_site_fract_y
_atom_site_fract_z
Si Si1 0.929597 0.245458 0.483316
Si Si2 0.382918 0.996909 0.310876
Si Si3 0.965770 0.909137 0.917105
Si Si4 0.949935 0.901575 0.706028
Si Si5 0.335820 0.564011 0.613588
O O1 0.750000 0.250000 0.494406
O O2 0.987166 0.412717 0.450538
O O3 0.937494 0.096931 0.438802
O O4 0.009368 0.259958 0.539832
O O5 0.207423 0.998783 0.297038
O O6 0.426780 0.201536 0.311357
O O7 0.423035 0.912833 0.367320
O O8 0.479825 0.910270 0.264400
O O9 0.797258 0.931099 0.896371
O O10 0.065932 0.981107 0.664091
O O11 0.250000 0.750000 0.623115
#
# Coordination Sequence:
#
# PCOD9433424 Si02
#       5
#     8   8   8   8   8
#     4   8  15  29  55  86 113 150 208 241 298 357
#     4  11  23  38  62  90 124 153 209 247 306 368
#     4   9  16  32  57  86 111 159 199 249 293 356
#     4  11  23  39  60  92 119 165 198 252 304 368
#     4   9  16  33  60  82 118 158 203 242 304 358
#
# _framework density 23.127770000000002
#
# number of rings (size 3 to 8) (size 9 to 14) (size 15 to 20)
#    0.000    2.800    4.000    1.200    0.000    0.000 
#    3.600    0.000    0.000   24.000   20.800    0.000 
#    0.000    0.000    0.000    0.000    0.000    0.000 
#
# Total GULP energy -223517.569343 kJ/mol
# GULP energy per Si atom -5587.939234 kJ/mol
# Density = 2.307513 g / cm^3
# Si number density = 23.127770 Si / 1000 Ang^3
#
#
#
# Elastic Constant Matrix: (Units=GPa)
#
#
# Indices 1 2 3 4 5 6 
#
# 1 79.1621 3.0181 72.6406 0.0000 0.0000 0.0000
# 2 3.0181 59.2674 11.2632 0.0000 0.0000 0.0000
# 3 72.6406 11.2632 159.8444 0.0000 0.0000 0.0000
# 4 0.0000 0.0000 0.0000 -74.0732 0.0000 0.0000
# 5 0.0000 0.0000 0.0000 0.0000 74.7471 0.0000
# 6 0.0000 0.0000 0.0000 0.0000 0.0000 2.6552
#
#
#
# Elastic Compliance Matrix: (Units=1/GPa)
#
#
# Indices 1 2 3 4 5 6 
#
# 1 0.021704 0.000780 -0.009918 0.000000 0.000000 0.000000
# 2 0.000780 0.017130 -0.001561 0.000000 0.000000 0.000000
# 3 -0.009918 -0.001561 0.010873 0.000000 0.000000 0.000000
# 4 0.000000 0.000000 0.000000 -0.013500 0.000000 0.000000
# 5 0.000000 0.000000 0.000000 0.000000 0.013378 0.000000
# 6 0.000000 0.000000 0.000000 0.000000 0.000000 0.376621
#
#
# Mechanical properties :
#
#
# Convention : Reuss Voigt Hill
#
# Bulk Modulus (GPa) = 35.32682 52.45754 43.89218
# Shear Modulus (GPa) = 10.93993 14.75595 12.84794
#
# Velocity S-wave (km/s) = 2.17726 2.52864 2.35950
# Velocity P-wave (km/s) = 4.65064 5.59073 5.14221
#
# Compressibility (1/GPa) = 0.02830710
#
# Stress axis : x y z
#
# Youngs Moduli (GPa) = 46.07540 58.37815 91.96836
#
# Poissons Ratio (x) = -0.04551 0.91214
# Poissons Ratio (y) = -0.03592 0.14359
# Poissons Ratio (z) = 0.45698 0.09115
#
# Static dielectric constant tensor:
#      x y z
#    x 1.846600 0.000000 0.000000 
#    y 0.000000 1.994170 0.000000 
#    z 0.000000 0.000000 1.842550 
# 
# From -- ./inp_files/20319.got.cif
#   From: 2010.05.17/outbox.cif.g08.bks.cpg/sg56_11_cif.got.tgz:20319.got - 2010.06.03 13:42:01.
