data_PCOD9433460
_publ_section_title
;
Structure prediction by ZEFSAII (Michael W. Deem and Ramdas Pophale) SiO2 
 PCOD9433460
Probable space group: P C C N
;
_chemical_formula_sum "Si O2"
_cell_formula_units_Z 48
_cell_length_a 23.624199
_cell_length_b 9.341955
_cell_length_c 9.269889
_cell_angle_alpha 90.000000
_cell_angle_beta 90.000000
_cell_angle_gamma 90.000000
_cell_volume 2045.829314
_symmetry_space_group_name_H-M "P C C N"
_symmetry_group_IT_number 56
_symmetry_cell_setting 'orthorhombic'
loop_
_space_group_symop_operation_xyz
x,y,z
1/2-x,1/2-y,z
1/2+x,-y,1/2-z
-x,1/2+y,1/2-z
-x,-y,-z
1/2+x,1/2+y,-z
1/2-x,y,1/2+z
x,1/2-y,1/2+z
loop_
_atom_site_type_symbol
_atom_site_label
_atom_site_fract_x
_atom_site_fract_y
_atom_site_fract_z
Si Si1 0.448069 0.942729 0.304288
Si Si2 0.200261 0.855659 0.644984
Si Si3 0.850056 0.631131 0.845694
Si Si4 0.945274 0.353136 0.360953
Si Si5 0.656343 0.143414 0.145134
Si Si6 0.195295 0.346955 0.865112
O O1 0.458323 0.809079 0.195117
O O2 0.435356 0.878882 0.466261
O O3 0.398867 0.045519 0.238019
O O4 0.502641 0.042862 0.322122
O O5 0.250000 0.750000 0.596499
O O6 0.150255 0.840170 0.525715
O O7 0.180090 0.790374 0.793992
O O8 0.204784 0.025089 0.656572
O O9 0.832080 0.776463 0.773383
O O10 0.854738 0.660890 0.014517
O O11 0.893757 0.396163 0.253456
O O12 0.702639 0.016690 0.154676
O O13 0.250000 0.250000 0.904277
#
# Coordination Sequence:
#
# PCOD9433460 Si02
#       6
#     8   8   8   8   8   8
#     4  11  27  48  77 107 146 186 242 301 371 430
#     4  11  23  42  68 104 137 187 240 293 360 411
#     4  11  26  45  70 104 141 193 239 299 352 436
#     4  11  26  49  73 111 144 190 239 303 366 435
#     4  11  24  43  71 103 142 188 235 302 345 437
#     4  11  26  45  67 103 145 193 241 290 359 423
#
# _framework density 23.462367
#
# number of rings (size 3 to 8) (size 9 to 14) (size 15 to 20)
#    0.000    1.000    1.667    3.000    7.000    4.667 
#    0.000    0.000    0.000    0.000    0.000    0.000 
#    0.000    0.000    0.000    0.000    0.000    0.000 
#
# Total GULP energy -267677.178100 kJ/mol
# GULP energy per Si atom -5576.607877 kJ/mol
# Density = 2.340897 g / cm^3
# Si number density = 23.462367 Si / 1000 Ang^3
#
#
#
# Elastic Constant Matrix: (Units=GPa)
#
#
# Indices 1 2 3 4 5 6 
#
# 1 40.1713 -45.8819 -41.9598 0.0000 0.0000 0.0000
# 2 -45.8819 31.7854 -78.7011 0.0000 0.0000 0.0000
# 3 -41.9598 -78.7011 28.1884 0.0000 0.0000 0.0000
# 4 0.0000 0.0000 0.0000 35.6690 0.0000 0.0000
# 5 0.0000 0.0000 0.0000 0.0000 14.7173 0.0000
# 6 0.0000 0.0000 0.0000 0.0000 0.0000 33.5154
#
#
#
# Elastic Compliance Matrix: (Units=1/GPa)
#
#
# Indices 1 2 3 4 5 6 
#
# 1 0.008394 -0.007281 -0.007834 0.000000 0.000000 0.000000
# 2 -0.007281 0.000995 -0.008059 0.000000 0.000000 0.000000
# 3 -0.007834 -0.008059 0.001312 0.000000 0.000000 0.000000
# 4 0.000000 0.000000 0.000000 0.028036 0.000000 0.000000
# 5 0.000000 0.000000 0.000000 0.000000 0.067947 0.000000
# 6 0.000000 0.000000 0.000000 0.000000 0.000000 0.029837
#
#
# Mechanical properties :
#
#
# Convention : Reuss Voigt Hill
#
# Bulk Modulus (GPa) = -28.05190 -25.88228 -26.96709
# Shear Modulus (GPa) = 29.24169 34.55954 31.90061
#
# Velocity S-wave (km/s) = 3.53416 3.84210 3.69134
# Velocity P-wave (km/s) = 2.16140 2.93717 2.57863
#
# Compressibility (1/GPa) = -0.03564821
#
# Stress axis : x y z
#
# Youngs Moduli (GPa) = 119.13343 1004.60937 762.00290
#
# Poissons Ratio (x) = 7.31484 5.96976
# Poissons Ratio (y) = 0.86744 6.14127
# Poissons Ratio (z) = 0.93333 8.09652
#
# Static dielectric constant tensor:
#      x y z
#    x 1.961130 0.000000 0.000000 
#    y 0.000000 1.853780 0.000000 
#    z 0.000000 0.000000 1.893630 
# 
# From -- ./inp_files/5116.got.cif
#   From: 2010.05.17/outbox.cif.g08.bks.cpg/sg56_3_cif.got.tgz:5116.got - 2010.06.03 13:42:01.
