data_PCOD9433210
_publ_section_title
;
Structure prediction by ZEFSAII (Michael W. Deem and Ramdas Pophale) SiO2 
 PCOD9433210
Probable space group: P C C N
;
_chemical_formula_sum "Si O2"
_cell_formula_units_Z 52
_cell_length_a 16.194965
_cell_length_b 8.424866
_cell_length_c 19.614765
_cell_angle_alpha 90.000000
_cell_angle_beta 90.000000
_cell_angle_gamma 90.000000
_cell_volume 2676.246579
_symmetry_space_group_name_H-M "P C C N"
_symmetry_group_IT_number 56
_symmetry_cell_setting 'orthorhombic'
loop_
_space_group_symop_operation_xyz
x,y,z
1/2-x,1/2-y,z
1/2+x,-y,1/2-z
-x,1/2+y,1/2-z
-x,-y,-z
1/2+x,1/2+y,-z
1/2-x,y,1/2+z
x,1/2-y,1/2+z
loop_
_atom_site_type_symbol
_atom_site_label
_atom_site_fract_x
_atom_site_fract_y
_atom_site_fract_z
Si Si1 0.050833 0.758259 0.428207
Si Si2 0.999009 0.525854 0.812305
Si Si3 0.029109 0.758007 0.580139
Si Si4 0.622132 0.569391 0.912872
Si Si5 0.143748 0.067331 0.936830
Si Si6 0.114722 0.317433 0.726869
Si Si7 0.250000 0.250000 0.837366
O O1 0.049760 0.827365 0.504942
O O2 0.114523 0.613104 0.426600
O O3 0.961360 0.674291 0.419952
O O4 0.057709 0.878362 0.365493
O O5 0.964603 0.384811 0.859888
O O6 0.931033 0.650160 0.786063
O O7 0.046094 0.446653 0.749035
O O8 0.091038 0.611421 0.591277
O O9 0.936996 0.679495 0.577104
O O10 0.659659 0.625906 0.842024
O O11 0.668552 0.589186 0.984134
O O12 0.215382 0.114021 0.886122
O O13 0.176622 0.304932 0.789024
#
# Coordination Sequence:
#
# PCOD9433210 Si02
#       7
#     8   8   8   8   8   8   4
#     4   8  17  31  60  89 110 143 201 252 288 342
#     4  11  20  34  58  88 119 152 197 252 294 352
#     4   9  15  33  61  89 110 143 199 250 290 342
#     4   8  17  35  58  85 111 150 193 243 292 350
#     4   9  18  36  58  82 116 152 194 245 300 356
#     4  11  24  36  58  88 119 157 199 243 304 366
#     4  12  24  38  56  86 122 158 198 240 314 370
#
# _framework density 19.430198000000001
#
# number of rings (size 3 to 8) (size 9 to 14) (size 15 to 20)
#    0.000    2.462    1.538    3.231    4.308    0.615 
#    0.000    0.769    0.000    0.000    0.000    0.000 
#    0.000    0.000    0.000    0.000    0.000    0.000 
#
# Total GULP energy -290062.730319 kJ/mol
# GULP energy per Si atom -5578.129429 kJ/mol
# Density = 1.938597 g / cm^3
# Si number density = 19.430198 Si / 1000 Ang^3
#
#
#
# Elastic Constant Matrix: (Units=GPa)
#
#
# Indices 1 2 3 4 5 6 
#
# 1 31.5756 20.4251 36.8545 0.0000 0.0000 0.0000
# 2 20.4251 71.1856 44.6360 0.0000 0.0000 0.0000
# 3 36.8545 44.6360 140.9327 0.0000 0.0000 0.0000
# 4 0.0000 0.0000 0.0000 43.0915 0.0000 0.0000
# 5 0.0000 0.0000 0.0000 0.0000 19.2932 0.0000
# 6 0.0000 0.0000 0.0000 0.0000 0.0000 9.2785
#
#
#
# Elastic Compliance Matrix: (Units=1/GPa)
#
#
# Indices 1 2 3 4 5 6 
#
# 1 0.048555 -0.007450 -0.010338 0.000000 0.000000 0.000000
# 2 -0.007450 0.018672 -0.003966 0.000000 0.000000 0.000000
# 3 -0.010338 -0.003966 0.011055 0.000000 0.000000 0.000000
# 4 0.000000 0.000000 0.000000 0.023206 0.000000 0.000000
# 5 0.000000 0.000000 0.000000 0.000000 0.051832 0.000000
# 6 0.000000 0.000000 0.000000 0.000000 0.000000 0.107777
#
#
# Mechanical properties :
#
#
# Convention : Reuss Voigt Hill
#
# Bulk Modulus (GPa) = 28.75567 49.72500 39.24034
# Shear Modulus (GPa) = 15.81303 23.78453 19.79878
#
# Velocity S-wave (km/s) = 2.85588 3.50251 3.19559
# Velocity P-wave (km/s) = 5.07014 6.48105 5.81852
#
# Compressibility (1/GPa) = 0.03477574
#
# Stress axis : x y z
#
# Youngs Moduli (GPa) = 20.59513 53.55657 90.45687
#
# Poissons Ratio (x) = 0.39897 0.93514
# Poissons Ratio (y) = 0.15342 0.35872
# Poissons Ratio (z) = 0.21291 0.21239
#
# Static dielectric constant tensor:
#      x y z
#    x 1.680810 0.000000 0.000000 
#    y 0.000000 1.681550 0.000000 
#    z 0.000000 0.000000 1.728470 
# 
# From -- ./inp_files/16611.got.cif
#   From: 2010.05.17/outbox.cif.g08.bks.cpg/sg56_9_cif.got.tgz:16611.got - 2010.06.03 13:42:01.
