data_PCOD9433123
_publ_section_title
;
Structure prediction by ZEFSAII (Michael W. Deem and Ramdas Pophale) SiO2 
 PCOD9433123
Probable space group: P C C N
;
_chemical_formula_sum "Si O2"
_cell_formula_units_Z 40
_cell_length_a 4.726177
_cell_length_b 32.886006
_cell_length_c 9.053891
_cell_angle_alpha 90.000000
_cell_angle_beta 90.000000
_cell_angle_gamma 90.000000
_cell_volume 1407.201780
_symmetry_space_group_name_H-M "P C C N"
_symmetry_group_IT_number 56
_symmetry_cell_setting 'orthorhombic'
loop_
_space_group_symop_operation_xyz
x,y,z
1/2-x,1/2-y,z
1/2+x,-y,1/2-z
-x,1/2+y,1/2-z
-x,-y,-z
1/2+x,1/2+y,-z
1/2-x,y,1/2+z
x,1/2-y,1/2+z
loop_
_atom_site_type_symbol
_atom_site_label
_atom_site_fract_x
_atom_site_fract_y
_atom_site_fract_z
Si Si1 0.731408 0.899471 0.570222
Si Si2 0.139826 0.901818 0.326857
Si Si3 0.489761 0.971778 0.249443
Si Si4 0.995224 0.279399 0.259410
Si Si5 0.882251 0.329858 0.988943
O O1 0.829593 0.902958 0.400904
O O2 0.433635 0.898437 0.654685
O O3 0.873308 0.940518 0.634822
O O4 0.896622 0.856978 0.606412
O O5 0.313003 0.942392 0.357783
O O6 0.272755 0.862204 0.401641
O O7 0.245147 0.001417 0.187393
O O8 0.750000 0.250000 0.202701
O O9 0.061439 0.304831 0.111436
O O10 0.663324 0.195121 0.388838
O O11 0.250000 0.250000 0.809458
#
# Coordination Sequence:
#
# PCOD9433123 Si02
#       5
#     8   8   8   8   8
#     4  10  25  50  81 121 164 227 284 340 425 491
#     4  10  25  50  81 120 163 227 284 336 427 492
#     4  12  25  50  75 122 169 219 287 361 413 490
#     4  12  29  56  84 133 167 213 272 352 435 497
#     4  10  27  56  85 124 171 222 282 347 406 546
#
# _framework density 28.425205999999999
#
# number of rings (size 3 to 8) (size 9 to 14) (size 15 to 20)
#    1.200    0.000    2.000    1.800    2.800    6.400 
#   10.800    0.000    0.000    0.000    0.000    0.000 
#    0.000    0.000    0.000    0.000    0.000    0.000 
#
# Total GULP energy -223701.948985 kJ/mol
# GULP energy per Si atom -5592.548725 kJ/mol
# Density = 2.836051 g / cm^3
# Si number density = 28.425206 Si / 1000 Ang^3
#
#
#
# Elastic Constant Matrix: (Units=GPa)
#
#
# Indices 1 2 3 4 5 6 
#
# 1 122.0797 46.1769 20.9344 0.0000 0.0000 0.0000
# 2 46.1769 166.2902 51.5344 0.0000 0.0000 0.0000
# 3 20.9344 51.5344 130.1096 0.0000 0.0000 0.0000
# 4 0.0000 0.0000 0.0000 34.9274 0.0000 0.0000
# 5 0.0000 0.0000 0.0000 0.0000 -40.5668 0.0000
# 6 0.0000 0.0000 0.0000 0.0000 0.0000 55.6496
#
#
#
# Elastic Compliance Matrix: (Units=1/GPa)
#
#
# Indices 1 2 3 4 5 6 
#
# 1 0.009185 -0.002385 -0.000533 0.000000 0.000000 0.000000
# 2 -0.002385 0.007475 -0.002577 0.000000 0.000000 0.000000
# 3 -0.000533 -0.002577 0.008792 0.000000 0.000000 0.000000
# 4 0.000000 0.000000 0.000000 0.028631 0.000000 0.000000
# 5 0.000000 0.000000 0.000000 0.000000 -0.024651 0.000000
# 6 0.000000 0.000000 0.000000 0.000000 0.000000 0.017970
#
#
# Mechanical properties :
#
#
# Convention : Reuss Voigt Hill
#
# Bulk Modulus (GPa) = 69.14942 72.86343 71.00642
# Shear Modulus (GPa) = 79.09853 29.99097 54.54475
#
# Velocity S-wave (km/s) = 5.28084 3.25173 4.38526
# Velocity P-wave (km/s) = 7.84619 6.30772 7.11864
#
# Compressibility (1/GPa) = 0.01446144
#
# Stress axis : x y z
#
# Youngs Moduli (GPa) = 108.87242 133.78767 113.73723
#
# Poissons Ratio (x) = 0.31914 0.06063
# Poissons Ratio (y) = 0.25970 0.29307
# Poissons Ratio (z) = 0.05803 0.34474
#
# Static dielectric constant tensor:
#      x y z
#    x 2.191210 0.000000 0.000000 
#    y 0.000000 2.329060 0.000000 
#    z 0.000000 0.000000 2.219260 
# 
# From -- ./inp_files/5680.got.cif
#   From: 2010.05.17/outbox.cif.g08.bks.cpg/sg56_3_cif.got.tgz:5680.got - 2010.06.03 13:42:01.
