data_PCOD9433417
_publ_section_title
;
Structure prediction by ZEFSAII (Michael W. Deem and Ramdas Pophale) SiO2 
 PCOD9433417
Probable space group: P C C N
;
_chemical_formula_sum "Si O2"
_cell_formula_units_Z 48
_cell_length_a 10.128618
_cell_length_b 7.659111
_cell_length_c 28.051412
_cell_angle_alpha 90.000000
_cell_angle_beta 90.000000
_cell_angle_gamma 90.000000
_cell_volume 2176.122215
_symmetry_space_group_name_H-M "P C C N"
_symmetry_group_IT_number 56
_symmetry_cell_setting 'orthorhombic'
loop_
_space_group_symop_operation_xyz
x,y,z
1/2-x,1/2-y,z
1/2+x,-y,1/2-z
-x,1/2+y,1/2-z
-x,-y,-z
1/2+x,1/2+y,-z
1/2-x,y,1/2+z
x,1/2-y,1/2+z
loop_
_atom_site_type_symbol
_atom_site_label
_atom_site_fract_x
_atom_site_fract_y
_atom_site_fract_z
Si Si1 0.141723 0.399199 0.729264
Si Si2 0.750000 0.250000 0.306724
Si Si3 0.250000 0.250000 0.571803
Si Si4 0.750000 0.750000 0.092480
Si Si5 0.502654 0.785106 0.360028
Si Si6 0.750000 0.250000 0.580325
Si Si7 0.974157 0.879759 0.666013
Si Si8 0.357081 0.060865 0.985669
O O1 0.250000 0.250000 0.718963
O O2 0.215239 0.583615 0.725761
O O3 0.033610 0.393675 0.687191
O O4 0.074503 0.363477 0.779558
O O5 0.618920 0.292757 0.337195
O O6 0.374205 0.201447 0.604231
O O7 0.216138 0.094828 0.535258
O O8 0.640618 0.811267 0.131711
O O9 0.640047 0.767577 0.048035
O O10 0.366942 0.825836 0.386936
O O11 0.492219 0.583587 0.345120
O O12 0.704058 0.412160 0.548327
O O13 0.500000 0.000000 0.000000
#
# Coordination Sequence:
#
# PCOD9433417 Si02
#       8
#     8   4   4   4   8   4   8   8
#     4  12  26  48  73 110 156 208 256 322 374 462
#     4  12  28  43  75 108 148 214 252 307 399 442
#     4  11  22  47  78  96 156 187 240 329 382 460
#     4  11  24  45  76 106 148 199 252 329 376 470
#     4  12  25  49  74 111 154 201 255 319 390 465
#     4  12  26  45  79 108 142 204 252 315 403 462
#     4  12  25  48  72 111 160 198 264 321 384 468
#     4  11  24  48  71 108 147 189 255 323 393 460
#
# _framework density 22.057587000000002
#
# number of rings (size 3 to 8) (size 9 to 14) (size 15 to 20)
#    0.000    0.333    6.667    1.000    2.333    3.333 
#    0.000    4.167    0.000    0.000    0.000    0.000 
#    0.000    0.000    0.000    0.000    0.000    0.000 
#
# Total GULP energy -267699.115085 kJ/mol
# GULP energy per Si atom -5577.064898 kJ/mol
# Density = 2.200738 g / cm^3
# Si number density = 22.057587 Si / 1000 Ang^3
#
#
#
# Elastic Constant Matrix: (Units=GPa)
#
#
# Indices 1 2 3 4 5 6 
#
# 1 123.3515 21.9726 53.3024 0.0000 0.0000 0.0000
# 2 21.9726 53.0898 0.6830 0.0000 0.0000 0.0000
# 3 53.3024 0.6830 156.8661 0.0000 0.0000 0.0000
# 4 0.0000 0.0000 0.0000 52.7018 0.0000 0.0000
# 5 0.0000 0.0000 0.0000 0.0000 41.0739 0.0000
# 6 0.0000 0.0000 0.0000 0.0000 0.0000 17.3541
#
#
#
# Elastic Compliance Matrix: (Units=1/GPa)
#
#
# Indices 1 2 3 4 5 6 
#
# 1 0.010380 -0.004251 -0.003509 0.000000 0.000000 0.000000
# 2 -0.004251 0.020578 0.001355 0.000000 0.000000 0.000000
# 3 -0.003509 0.001355 0.007561 0.000000 0.000000 0.000000
# 4 0.000000 0.000000 0.000000 0.018975 0.000000 0.000000
# 5 0.000000 0.000000 0.000000 0.000000 0.024346 0.000000
# 6 0.000000 0.000000 0.000000 0.000000 0.000000 0.057623
#
#
# Mechanical properties :
#
#
# Convention : Reuss Voigt Hill
#
# Bulk Modulus (GPa) = 38.89562 53.91372 46.40467
# Shear Modulus (GPa) = 31.08618 39.38262 35.23440
#
# Velocity S-wave (km/s) = 3.75816 4.23004 4.00106
# Velocity P-wave (km/s) = 6.04183 6.95363 6.51370
#
# Compressibility (1/GPa) = 0.02570984
#
# Stress axis : x y z
#
# Youngs Moduli (GPa) = 96.33631 48.59569 132.25426
#
# Poissons Ratio (x) = 0.20658 0.46404
# Poissons Ratio (y) = 0.40953 -0.17919
# Poissons Ratio (z) = 0.33801 -0.06584
#
# Static dielectric constant tensor:
#      x y z
#    x 1.912990 0.000000 0.000000 
#    y 0.000000 2.005520 0.000000 
#    z 0.000000 0.000000 1.820980 
# 
# From -- ./inp_files/23313.got.cif
#   From: 2010.05.17/outbox.cif.g08.bks.cpg/sg56_12_cif.got.tgz:23313.got - 2010.06.03 13:42:01.
