data_PCOD9433168
_publ_section_title
;
Structure prediction by ZEFSAII (Michael W. Deem and Ramdas Pophale) SiO2 
 PCOD9433168
Probable space group: P C C N
;
_chemical_formula_sum "Si O2"
_cell_formula_units_Z 32
_cell_length_a 27.934040
_cell_length_b 5.231390
_cell_length_c 8.948143
_cell_angle_alpha 90.000000
_cell_angle_beta 90.000000
_cell_angle_gamma 90.000000
_cell_volume 1307.626654
_symmetry_space_group_name_H-M "P C C N"
_symmetry_group_IT_number 56
_symmetry_cell_setting 'orthorhombic'
loop_
_space_group_symop_operation_xyz
x,y,z
1/2-x,1/2-y,z
1/2+x,-y,1/2-z
-x,1/2+y,1/2-z
-x,-y,-z
1/2+x,1/2+y,-z
1/2-x,y,1/2+z
x,1/2-y,1/2+z
loop_
_atom_site_type_symbol
_atom_site_label
_atom_site_fract_x
_atom_site_fract_y
_atom_site_fract_z
Si Si1 0.888703 0.579093 0.335734
Si Si2 0.345825 0.744254 0.412898
Si Si3 0.202849 0.077105 0.665847
Si Si4 0.983598 0.912177 0.335134
O O1 0.883844 0.409777 0.187823
O O2 0.880918 0.410260 0.482449
O O3 0.839601 0.725965 0.326722
O O4 0.931441 0.780261 0.341818
O O5 0.310103 0.582817 0.518048
O O6 0.309051 0.896144 0.306039
O O7 0.250000 0.250000 0.665317
O O8 0.013326 0.671969 0.264008
O O9 0.000000 0.000000 0.500000
#
# Coordination Sequence:
#
# PCOD9433168 Si02
#       4
#     8   8   8   8
#     4  11  27  48  81 116 162 217 278 349 422 505
#     4  10  26  49  79 113 169 212 278 345 424 501
#     4  11  26  47  79 116 159 216 275 338 423 508
#     4  12  32  56  89 125 170 225 292 360 438 510
#
# _framework density 24.471814999999999
#
# number of rings (size 3 to 8) (size 9 to 14) (size 15 to 20)
#    0.000    1.000    0.000    2.250   14.000   10.000 
#    0.000    3.750    0.000    0.000    0.000    0.000 
#    0.000    0.000    0.000    0.000    0.000    0.000 
#
# Total GULP energy -179161.567443 kJ/mol
# GULP energy per Si atom -5598.798983 kJ/mol
# Density = 2.441612 g / cm^3
# Si number density = 24.471815 Si / 1000 Ang^3
#
#
#
# Elastic Constant Matrix: (Units=GPa)
#
#
# Indices 1 2 3 4 5 6 
#
# 1 189.3303 70.7621 65.7632 0.0000 0.0000 0.0000
# 2 70.7621 173.8220 112.5074 0.0000 0.0000 0.0000
# 3 65.7632 112.5074 190.7500 0.0000 0.0000 0.0000
# 4 0.0000 0.0000 0.0000 -219.6605 0.0000 0.0000
# 5 0.0000 0.0000 0.0000 0.0000 10.0276 0.0000
# 6 0.0000 0.0000 0.0000 0.0000 0.0000 69.0552
#
#
#
# Elastic Compliance Matrix: (Units=1/GPa)
#
#
# Indices 1 2 3 4 5 6 
#
# 1 0.006364 -0.001893 -0.001077 0.000000 0.000000 0.000000
# 2 -0.001893 0.009869 -0.005168 0.000000 0.000000 0.000000
# 3 -0.001077 -0.005168 0.008662 0.000000 0.000000 0.000000
# 4 0.000000 0.000000 0.000000 -0.004552 0.000000 0.000000
# 5 0.000000 0.000000 0.000000 0.000000 0.099724 0.000000
# 6 0.000000 0.000000 0.000000 0.000000 0.000000 0.014481
#
#
# Mechanical properties :
#
#
# Convention : Reuss Voigt Hill
#
# Bulk Modulus (GPa) = 116.04603 116.88530 116.46567
# Shear Modulus (GPa) = 32.53152 -7.79090 12.37031
#
# Velocity S-wave (km/s) = 3.64998 -1.78621 2.25075
# Velocity P-wave (km/s) = 8.08000 6.60400 7.37900
#
# Compressibility (1/GPa) = 0.00861727
#
# Stress axis : x y z
#
# Youngs Moduli (GPa) = 157.14446 101.32905 115.44646
#
# Poissons Ratio (x) = 0.19185 0.12436
# Poissons Ratio (y) = 0.29753 0.59663
# Poissons Ratio (z) = 0.16927 0.52367
#
# Static dielectric constant tensor:
#      x y z
#    x 1.894090 0.000000 0.000000 
#    y 0.000000 1.682440 0.000000 
#    z 0.000000 0.000000 1.868190 
# 
# From -- ./inp_files/5063.got.cif
#   From: 2010.05.17/outbox.cif.g08.bks.cpg/sg56_3_cif.got.tgz:5063.got - 2010.06.03 13:42:01.
