data_PCOD9433893
_publ_section_title
;
Structure prediction by ZEFSAII (Michael W. Deem and Ramdas Pophale) SiO2 
 PCOD9433893
Probable space group: P C C N
;
_chemical_formula_sum "Si O2"
_cell_formula_units_Z 32
_cell_length_a 25.925190
_cell_length_b 4.928087
_cell_length_c 9.445115
_cell_angle_alpha 90.000000
_cell_angle_beta 90.000000
_cell_angle_gamma 90.000000
_cell_volume 1206.722927
_symmetry_space_group_name_H-M "P C C N"
_symmetry_group_IT_number 56
_symmetry_cell_setting 'orthorhombic'
loop_
_space_group_symop_operation_xyz
x,y,z
1/2-x,1/2-y,z
1/2+x,-y,1/2-z
-x,1/2+y,1/2-z
-x,-y,-z
1/2+x,1/2+y,-z
1/2-x,y,1/2+z
x,1/2-y,1/2+z
loop_
_atom_site_type_symbol
_atom_site_label
_atom_site_fract_x
_atom_site_fract_y
_atom_site_fract_z
Si Si1 0.874728 0.923417 0.933711
Si Si2 0.215517 0.487893 0.753188
Si Si3 0.616711 0.232607 0.175816
Si Si4 0.534219 0.645348 0.745952
O O1 0.818129 0.856660 0.875828
O O2 0.881171 0.215168 0.846822
O O3 0.923711 0.778563 0.865077
O O4 0.881317 0.985763 0.096836
O O5 0.250000 0.750000 0.714963
O O6 0.329027 0.911322 0.859841
O O7 0.250000 0.250000 0.813150
O O8 0.567862 0.044826 0.140261
O O9 0.493432 0.419511 0.801924
#
# Coordination Sequence:
#
# PCOD9433893 Si02
#       4
#     8   8   8   8
#     4   8  20  37  61  88 125 158 205 256 303 364
#     4   9  20  39  62  84 118 159 202 245 306 360
#     4   8  20  37  61  88 125 158 205 256 303 364
#     4   9  20  37  60  88 122 163 204 249 304 362
#
# _framework density 26.518101000000001
#
# number of rings (size 3 to 8) (size 9 to 14) (size 15 to 20)
#    3.000    0.000    0.000    0.000    0.000   11.000 
#    0.000   10.000    0.000    0.000    0.000    0.000 
#    0.000    0.000    0.000    0.000    0.000    0.000 
#
# Total GULP energy -178167.268891 kJ/mol
# GULP energy per Si atom -5567.727153 kJ/mol
# Density = 2.645774 g / cm^3
# Si number density = 26.518101 Si / 1000 Ang^3
#
#
#
# Elastic Constant Matrix: (Units=GPa)
#
#
# Indices 1 2 3 4 5 6 
#
# 1 156.1953 69.7576 11.3457 0.0000 0.0000 0.0000
# 2 69.7576 111.1001 -9.8876 0.0000 0.0000 0.0000
# 3 11.3457 -9.8876 55.1011 0.0000 0.0000 0.0000
# 4 0.0000 0.0000 0.0000 24.0796 0.0000 0.0000
# 5 0.0000 0.0000 0.0000 0.0000 8.9953 0.0000
# 6 0.0000 0.0000 0.0000 0.0000 0.0000 21.3640
#
#
#
# Elastic Compliance Matrix: (Units=1/GPa)
#
#
# Indices 1 2 3 4 5 6 
#
# 1 0.009371 -0.006154 -0.003034 0.000000 0.000000 0.000000
# 2 -0.006154 0.013188 0.003634 0.000000 0.000000 0.000000
# 3 -0.003034 0.003634 0.019425 0.000000 0.000000 0.000000
# 4 0.000000 0.000000 0.000000 0.041529 0.000000 0.000000
# 5 0.000000 0.000000 0.000000 0.000000 0.111169 0.000000
# 6 0.000000 0.000000 0.000000 0.000000 0.000000 0.046808
#
#
# Mechanical properties :
#
#
# Convention : Reuss Voigt Hill
#
# Bulk Modulus (GPa) = 32.38730 51.64756 42.01743
# Shear Modulus (GPa) = 19.01940 27.63319 23.32629
#
# Velocity S-wave (km/s) = 2.68101 3.23158 2.96908
# Velocity P-wave (km/s) = 4.67157 5.78297 5.25672
#
# Compressibility (1/GPa) = 0.03087630
#
# Stress axis : x y z
#
# Youngs Moduli (GPa) = 106.71280 75.82564 51.47953
#
# Poissons Ratio (x) = 0.46662 0.15618
# Poissons Ratio (y) = 0.65669 -0.18706
# Poissons Ratio (z) = 0.32375 -0.27552
#
# Static dielectric constant tensor:
#      x y z
#    x 2.181500 0.000000 0.000000 
#    y 0.000000 2.074570 0.000000 
#    z 0.000000 0.000000 2.075290 
# 
# From -- ./inp_files/8784.got.cif
#   From: 2010.05.17/outbox.cif.g08.bks.cpg/sg56_5_cif.got.tgz:8784.got - 2010.06.03 13:42:01.
