data_PCOD9433276
_publ_section_title
;
Structure prediction by ZEFSAII (Michael W. Deem and Ramdas Pophale) SiO2 
 PCOD9433276
Probable space group: P C C N
;
_chemical_formula_sum "Si O2"
_cell_formula_units_Z 48
_cell_length_a 17.353613
_cell_length_b 9.756878
_cell_length_c 13.469792
_cell_angle_alpha 90.000000
_cell_angle_beta 90.000000
_cell_angle_gamma 90.000000
_cell_volume 2280.665916
_symmetry_space_group_name_H-M "P C C N"
_symmetry_group_IT_number 56
_symmetry_cell_setting 'orthorhombic'
loop_
_space_group_symop_operation_xyz
x,y,z
1/2-x,1/2-y,z
1/2+x,-y,1/2-z
-x,1/2+y,1/2-z
-x,-y,-z
1/2+x,1/2+y,-z
1/2-x,y,1/2+z
x,1/2-y,1/2+z
loop_
_atom_site_type_symbol
_atom_site_label
_atom_site_fract_x
_atom_site_fract_y
_atom_site_fract_z
Si Si1 0.605803 0.892797 0.943125
Si Si2 0.083320 0.633598 0.491404
Si Si3 0.553477 0.997160 0.152905
Si Si4 0.175567 0.843092 0.593715
Si Si5 0.425054 0.391448 0.125926
Si Si6 0.839641 0.231473 0.181822
O O1 0.623264 0.743526 0.898583
O O2 0.531046 0.947460 0.879913
O O3 0.676792 0.996954 0.927927
O O4 0.583340 0.905416 0.059971
O O5 0.105178 0.783243 0.530134
O O6 0.105904 0.532763 0.579982
O O7 0.132569 0.614351 0.392853
O O8 0.998024 0.629903 0.448207
O O9 0.553592 0.915933 0.258677
O O10 0.609862 0.129519 0.169645
O O11 0.250000 0.750000 0.571215
O O12 0.154701 0.818946 0.706905
O O13 0.750000 0.250000 0.160579
#
# Coordination Sequence:
#
# PCOD9433276 Si02
#       6
#     8   8   8   8   8   8
#     4  11  23  39  65  96 129 176 213 285 336 388
#     4  11  21  39  63  95 124 173 214 270 331 404
#     4  11  22  40  62  96 134 165 225 273 337 396
#     4  11  23  41  68  95 127 176 228 264 333 416
#     4  11  24  38  64  97 135 162 218 284 339 390
#     4  11  22  40  68  93 129 174 224 270 323 414
#
# _framework density 21.046485000000001
#
# number of rings (size 3 to 8) (size 9 to 14) (size 15 to 20)
#    0.000    1.000    5.000    2.500    0.000    4.000 
#    0.000    0.833    0.000    2.000    0.000    0.000 
#    0.000    0.000    0.000    0.000    0.000    0.000 
#
# Total GULP energy -267730.553163 kJ/mol
# GULP energy per Si atom -5577.719858 kJ/mol
# Density = 2.099858 g / cm^3
# Si number density = 21.046485 Si / 1000 Ang^3
#
#
#
# Elastic Constant Matrix: (Units=GPa)
#
#
# Indices 1 2 3 4 5 6 
#
# 1 46.1674 5.7315 -7.2003 0.0000 0.0000 0.0000
# 2 5.7315 97.7008 33.2941 0.0000 0.0000 0.0000
# 3 -7.2003 33.2941 140.1653 0.0000 0.0000 0.0000
# 4 0.0000 0.0000 0.0000 14.3150 0.0000 0.0000
# 5 0.0000 0.0000 0.0000 0.0000 47.5018 0.0000
# 6 0.0000 0.0000 0.0000 0.0000 0.0000 25.4524
#
#
#
# Elastic Compliance Matrix: (Units=1/GPa)
#
#
# Indices 1 2 3 4 5 6 
#
# 1 0.022133 -0.001834 0.001573 0.000000 0.000000 0.000000
# 2 -0.001834 0.011289 -0.002776 0.000000 0.000000 0.000000
# 3 0.001573 -0.002776 0.007875 0.000000 0.000000 0.000000
# 4 0.000000 0.000000 0.000000 0.069857 0.000000 0.000000
# 5 0.000000 0.000000 0.000000 0.000000 0.021052 0.000000
# 6 0.000000 0.000000 0.000000 0.000000 0.000000 0.039289
#
#
# Mechanical properties :
#
#
# Convention : Reuss Voigt Hill
#
# Bulk Modulus (GPa) = 28.39139 38.63156 33.51147
# Shear Modulus (GPa) = 26.41173 34.26773 30.33973
#
# Velocity S-wave (km/s) = 3.54633 4.03946 3.80090
# Velocity P-wave (km/s) = 5.50343 6.33653 5.93462
#
# Compressibility (1/GPa) = 0.03522195
#
# Stress axis : x y z
#
# Youngs Moduli (GPa) = 45.18078 88.58306 126.99129
#
# Poissons Ratio (x) = 0.16249 -0.19972
# Poissons Ratio (y) = 0.08288 0.35249
# Poissons Ratio (z) = -0.07106 0.24588
#
# Static dielectric constant tensor:
#      x y z
#    x 1.921070 0.000000 0.000000 
#    y 0.000000 1.836220 0.000000 
#    z 0.000000 0.000000 1.791800 
# 
# From -- ./inp_files/12684.got.cif
#   From: 2010.05.17/outbox.cif.g08.bks.cpg/sg56_7_cif.got.tgz:12684.got - 2010.06.03 13:42:01.
