data_PCOD9433012
_publ_section_title
;
Structure prediction by ZEFSAII (Michael W. Deem and Ramdas Pophale) SiO2 
 PCOD9433012
Probable space group: P C C N
;
_chemical_formula_sum "Si O2"
_cell_formula_units_Z 60
_cell_length_a 5.539685
_cell_length_b 23.809623
_cell_length_c 21.080717
_cell_angle_alpha 90.000000
_cell_angle_beta 90.000000
_cell_angle_gamma 90.000000
_cell_volume 2780.500435
_symmetry_space_group_name_H-M "P C C N"
_symmetry_group_IT_number 56
_symmetry_cell_setting 'orthorhombic'
loop_
_space_group_symop_operation_xyz
x,y,z
1/2-x,1/2-y,z
1/2+x,-y,1/2-z
-x,1/2+y,1/2-z
-x,-y,-z
1/2+x,1/2+y,-z
1/2-x,y,1/2+z
x,1/2-y,1/2+z
loop_
_atom_site_type_symbol
_atom_site_label
_atom_site_fract_x
_atom_site_fract_y
_atom_site_fract_z
Si Si1 0.250000 0.250000 0.444931
Si Si2 0.438785 0.400189 0.120495
Si Si3 0.667095 0.022927 0.182469
Si Si4 0.181770 0.092556 0.749737
Si Si5 0.377713 0.690835 0.965156
Si Si6 0.143576 0.146069 0.370098
Si Si7 0.169003 0.012341 0.559555
Si Si8 0.344337 0.894489 0.571965
O O1 0.399509 0.211316 0.492284
O O2 0.106969 0.208292 0.398505
O O3 0.612627 0.449951 0.144353
O O4 0.275070 0.389714 0.181084
O O5 0.563818 0.343819 0.097457
O O6 0.292755 0.426718 0.061290
O O7 0.587037 0.070510 0.233504
O O8 0.470839 0.011868 0.127256
O O9 0.710695 0.965318 0.220122
O O10 0.263772 0.140161 0.798263
O O11 0.250000 0.750000 0.952344
O O12 0.264510 0.643495 0.011603
O O13 0.386830 0.121221 0.404164
O O14 0.885337 0.115909 0.381072
O O15 0.351084 0.960430 0.558676
O O16 0.000000 0.000000 0.500000
#
# Coordination Sequence:
#
# PCOD9433012 Si02
#       8
#     4   8   8   8   8   8   8   8
#     4  10  24  46  72  96 132 180 240 300 370 406
#     4  11  26  42  67 103 137 195 228 296 369 436
#     4  11  22  40  65  94 139 187 228 275 363 432
#     4  11  23  39  66  97 140 183 231 284 344 450
#     4  11  24  45  71  96 136 180 245 298 364 434
#     4  11  24  42  73 101 132 183 239 291 348 421
#     4  11  25  39  64 103 144 175 230 293 360 439
#     4  11  24  41  70 104 135 181 228 293 359 420
#
# _framework density 21.578851
#
# number of rings (size 3 to 8) (size 9 to 14) (size 15 to 20)
#    0.000    1.067    4.000    1.600    7.467    3.200 
#    0.000    2.000    0.000    0.000    0.000    0.000 
#    0.000    0.000    0.000    0.000    0.000    0.000 
#
# Total GULP energy -334521.209434 kJ/mol
# GULP energy per Si atom -5575.353491 kJ/mol
# Density = 2.152974 g / cm^3
# Si number density = 21.578851 Si / 1000 Ang^3
#
#
#
# Elastic Constant Matrix: (Units=GPa)
#
#
# Indices 1 2 3 4 5 6 
#
# 1 41.5337 -6.6590 11.1518 0.0000 0.0000 0.0000
# 2 -6.6590 38.6831 20.3732 0.0000 0.0000 0.0000
# 3 11.1518 20.3732 97.2004 0.0000 0.0000 0.0000
# 4 0.0000 0.0000 0.0000 36.9626 0.0000 0.0000
# 5 0.0000 0.0000 0.0000 0.0000 34.2552 0.0000
# 6 0.0000 0.0000 0.0000 0.0000 0.0000 25.7577
#
#
#
# Elastic Compliance Matrix: (Units=1/GPa)
#
#
# Indices 1 2 3 4 5 6 
#
# 1 0.026384 0.006897 -0.004473 0.000000 0.000000 0.000000
# 2 0.006897 0.030862 -0.007260 0.000000 0.000000 0.000000
# 3 -0.004473 -0.007260 0.012323 0.000000 0.000000 0.000000
# 4 0.000000 0.000000 0.000000 0.027054 0.000000 0.000000
# 5 0.000000 0.000000 0.000000 0.000000 0.029193 0.000000
# 6 0.000000 0.000000 0.000000 0.000000 0.000000 0.038823
#
#
# Mechanical properties :
#
#
# Convention : Reuss Voigt Hill
#
# Bulk Modulus (GPa) = 16.69510 25.23879 20.96694
# Shear Modulus (GPa) = 25.73665 29.56516 27.65090
#
# Velocity S-wave (km/s) = 3.45727 3.70550 3.58353
# Velocity P-wave (km/s) = 4.86729 5.47988 5.18264
#
# Compressibility (1/GPa) = 0.05989781
#
# Stress axis : x y z
#
# Youngs Moduli (GPa) = 37.90239 32.40226 81.14994
#
# Poissons Ratio (x) = -0.22349 0.36296
# Poissons Ratio (y) = -0.26143 0.58915
# Poissons Ratio (z) = 0.16952 0.23524
#
# Static dielectric constant tensor:
#      x y z
#    x 1.894210 0.000000 0.000000 
#    y 0.000000 1.277730 0.000000 
#    z 0.000000 0.000000 1.689770 
# 
# From -- ./inp_files/17655.got.cif
#   From: 2010.05.17/outbox.cif.g08.bks.cpg/sg56_9_cif.got.tgz:17655.got - 2010.06.03 13:42:01.
