data_PCOD9433489
_publ_section_title
;
Structure prediction by ZEFSAII (Michael W. Deem and Ramdas Pophale) SiO2 
 PCOD9433489
Probable space group: P C C N
;
_chemical_formula_sum "Si O2"
_cell_formula_units_Z 36
_cell_length_a 13.091290
_cell_length_b 8.145806
_cell_length_c 16.994525
_cell_angle_alpha 90.000000
_cell_angle_beta 90.000000
_cell_angle_gamma 90.000000
_cell_volume 1812.280998
_symmetry_space_group_name_H-M "P C C N"
_symmetry_group_IT_number 56
_symmetry_cell_setting 'orthorhombic'
loop_
_space_group_symop_operation_xyz
x,y,z
1/2-x,1/2-y,z
1/2+x,-y,1/2-z
-x,1/2+y,1/2-z
-x,-y,-z
1/2+x,1/2+y,-z
1/2-x,y,1/2+z
x,1/2-y,1/2+z
loop_
_atom_site_type_symbol
_atom_site_label
_atom_site_fract_x
_atom_site_fract_y
_atom_site_fract_z
Si Si1 0.750000 0.250000 0.885996
Si Si2 0.590069 0.368596 0.013591
Si Si3 0.763711 0.567663 0.626388
Si Si4 0.063126 0.856944 0.343140
Si Si5 0.377304 0.949389 0.230623
O O1 0.710891 0.105509 0.829276
O O2 0.651053 0.300436 0.937988
O O3 0.678302 0.457978 0.063224
O O4 0.548239 0.226993 0.071511
O O5 0.500000 0.500000 0.000000
O O6 0.750000 0.750000 0.595507
O O7 0.660682 0.474594 0.649210
O O8 0.833174 0.572326 0.704179
O O9 0.086733 0.711980 0.279958
O O10 0.968600 0.964281 0.314915
#
# Coordination Sequence:
#
# PCOD9433489 Si02
#       5
#     4   8   8   8   8
#     4  12  24  44  66  94 136 174 222 278 328 408
#     4  11  26  44  66  96 138 176 220 278 341 405
#     4  11  23  44  66  98 133 173 221 280 333 397
#     4  11  23  45  65 101 133 175 221 280 341 400
#     4  11  24  40  71  96 131 170 225 274 334 404
#
# _framework density 19.864470000000001
#
# number of rings (size 3 to 8) (size 9 to 14) (size 15 to 20)
#    0.000    0.889    4.444    2.667    9.333    4.444 
#    0.000    0.000    0.000    0.000    0.000    0.000 
#    0.000    0.000    0.000    0.000    0.000    0.000 
#
# Total GULP energy -201215.857996 kJ/mol
# GULP energy per Si atom -5589.329389 kJ/mol
# Density = 1.981926 g / cm^3
# Si number density = 19.864470 Si / 1000 Ang^3
#
#
#
# Elastic Constant Matrix: (Units=GPa)
#
#
# Indices 1 2 3 4 5 6 
#
# 1 49.1763 -7.5597 -14.6192 0.0000 0.0000 0.0000
# 2 -7.5597 48.4378 -12.4787 0.0000 0.0000 0.0000
# 3 -14.6192 -12.4787 52.3325 0.0000 0.0000 0.0000
# 4 0.0000 0.0000 0.0000 18.4750 0.0000 0.0000
# 5 0.0000 0.0000 0.0000 0.0000 14.5930 0.0000
# 6 0.0000 0.0000 0.0000 0.0000 0.0000 48.3434
#
#
#
# Elastic Compliance Matrix: (Units=1/GPa)
#
#
# Indices 1 2 3 4 5 6 
#
# 1 0.023580 0.005729 0.007953 0.000000 0.000000 0.000000
# 2 0.005729 0.023388 0.007177 0.000000 0.000000 0.000000
# 3 0.007953 0.007177 0.023042 0.000000 0.000000 0.000000
# 4 0.000000 0.000000 0.000000 0.054127 0.000000 0.000000
# 5 0.000000 0.000000 0.000000 0.000000 0.068526 0.000000
# 6 0.000000 0.000000 0.000000 0.000000 0.000000 0.020685
#
#
# Mechanical properties :
#
#
# Convention : Reuss Voigt Hill
#
# Bulk Modulus (GPa) = 8.95017 8.95902 8.95460
# Shear Modulus (GPa) = 23.93807 28.58925 26.26366
#
# Velocity S-wave (km/s) = 3.47518 3.79781 3.64007
# Velocity P-wave (km/s) = 4.54069 4.87351 4.71004
#
# Compressibility (1/GPa) = 0.11172973
#
# Stress axis : x y z
#
# Youngs Moduli (GPa) = 42.40869 42.75654 43.39934
#
# Poissons Ratio (x) = -0.24496 -0.34517
# Poissons Ratio (y) = -0.24296 -0.31149
# Poissons Ratio (z) = -0.33729 -0.30688
#
# Static dielectric constant tensor:
#      x y z
#    x 1.692090 0.000000 0.000000 
#    y 0.000000 1.546610 0.000000 
#    z 0.000000 0.000000 1.702920 
# 
# From -- ./inp_files/12017.got.cif
#   From: 2010.05.17/outbox.cif.g08.bks.cpg/sg56_7_cif.got.tgz:12017.got - 2010.06.03 13:42:01.
