data_PCOD9433701
_publ_section_title
;
Structure prediction by ZEFSAII (Michael W. Deem and Ramdas Pophale) SiO2 
 PCOD9433701
Probable space group: P C C N
;
_chemical_formula_sum "Si O2"
_cell_formula_units_Z 36
_cell_length_a 8.985584
_cell_length_b 7.959877
_cell_length_c 22.584476
_cell_angle_alpha 90.000000
_cell_angle_beta 90.000000
_cell_angle_gamma 90.000000
_cell_volume 1615.335300
_symmetry_space_group_name_H-M "P C C N"
_symmetry_group_IT_number 56
_symmetry_cell_setting 'orthorhombic'
loop_
_space_group_symop_operation_xyz
x,y,z
1/2-x,1/2-y,z
1/2+x,-y,1/2-z
-x,1/2+y,1/2-z
-x,-y,-z
1/2+x,1/2+y,-z
1/2-x,y,1/2+z
x,1/2-y,1/2+z
loop_
_atom_site_type_symbol
_atom_site_label
_atom_site_fract_x
_atom_site_fract_y
_atom_site_fract_z
Si Si1 0.750000 0.250000 0.863007
Si Si2 0.676689 0.923144 0.940207
Si Si3 0.178235 0.566191 0.934558
Si Si4 0.006292 0.319112 0.268708
Si Si5 0.707527 0.510164 0.697608
O O1 0.783214 0.413787 0.901907
O O2 0.608954 0.298307 0.822634
O O3 0.750000 0.750000 0.918882
O O4 0.498952 0.908937 0.938366
O O5 0.725693 0.961873 0.007680
O O6 0.250000 0.750000 0.935279
O O7 0.216485 0.475960 0.872924
O O8 0.127248 0.469630 0.276422
O O9 0.112661 0.158650 0.272143
O O10 0.897668 0.352014 0.213270
#
# Coordination Sequence:
#
# PCOD9433701 Si02
#       5
#     4   8   8   8   8
#     4  12  24  50  70 112 150 194 242 314 352 464
#     4  11  27  47  76 110 146 198 241 301 375 437
#     4  11  26  47  72 106 148 186 247 297 367 448
#     4  11  26  46  72 101 150 183 251 296 373 429
#     4  11  26  45  71 106 140 199 234 311 360 443
#
# _framework density 22.286394999999999
#
# number of rings (size 3 to 8) (size 9 to 14) (size 15 to 20)
#    0.000    0.889    3.333    1.333   10.889    0.889 
#    0.000    0.000    0.000    0.000    0.000    0.000 
#    0.000    0.000    0.000    0.000    0.000    0.000 
#
# Total GULP energy -201307.661226 kJ/mol
# GULP energy per Si atom -5591.879479 kJ/mol
# Density = 2.223567 g / cm^3
# Si number density = 22.286395 Si / 1000 Ang^3
#
#
#
# Elastic Constant Matrix: (Units=GPa)
#
#
# Indices 1 2 3 4 5 6 
#
# 1 141.0125 38.0416 34.0067 0.0000 0.0000 0.0000
# 2 38.0416 111.8524 1.0585 0.0000 0.0000 0.0000
# 3 34.0067 1.0585 90.4291 0.0000 0.0000 0.0000
# 4 0.0000 0.0000 0.0000 15.0133 0.0000 0.0000
# 5 0.0000 0.0000 0.0000 0.0000 44.6866 0.0000
# 6 0.0000 0.0000 0.0000 0.0000 0.0000 37.7452
#
#
#
# Elastic Compliance Matrix: (Units=1/GPa)
#
#
# Indices 1 2 3 4 5 6 
#
# 1 0.008654 -0.002913 -0.003220 0.000000 0.000000 0.000000
# 2 -0.002913 0.009922 0.000979 0.000000 0.000000 0.000000
# 3 -0.003220 0.000979 0.012258 0.000000 0.000000 0.000000
# 4 0.000000 0.000000 0.000000 0.066607 0.000000 0.000000
# 5 0.000000 0.000000 0.000000 0.000000 0.022378 0.000000
# 6 0.000000 0.000000 0.000000 0.000000 0.000000 0.026493
#
#
# Mechanical properties :
#
#
# Convention : Reuss Voigt Hill
#
# Bulk Modulus (GPa) = 48.71881 54.38973 51.55427
# Shear Modulus (GPa) = 30.58810 37.50151 34.04480
#
# Velocity S-wave (km/s) = 3.70875 4.10653 3.91270
# Velocity P-wave (km/s) = 6.34409 6.85147 6.60266
#
# Compressibility (1/GPa) = 0.02052595
#
# Stress axis : x y z
#
# Youngs Moduli (GPa) = 115.55375 100.78875 81.57969
#
# Poissons Ratio (x) = 0.29358 0.26271
# Poissons Ratio (y) = 0.33658 -0.07989
# Poissons Ratio (z) = 0.37212 -0.09870
#
# Static dielectric constant tensor:
#      x y z
#    x 1.776640 0.000000 0.000000 
#    y 0.000000 1.932100 0.000000 
#    z 0.000000 0.000000 1.809460 
# 
# From -- ./inp_files/17872.got.cif
#   From: 2010.05.17/outbox.cif.g08.bks.cpg/sg56_9_cif.got.tgz:17872.got - 2010.06.03 13:42:01.
