data_PCOD9433199
_publ_section_title
;
Structure prediction by ZEFSAII (Michael W. Deem and Ramdas Pophale) SiO2 
 PCOD9433199
Probable space group: P C C N
;
_chemical_formula_sum "Si O2"
_cell_formula_units_Z 40
_cell_length_a 15.144942
_cell_length_b 11.681866
_cell_length_c 8.595803
_cell_angle_alpha 90.000000
_cell_angle_beta 90.000000
_cell_angle_gamma 90.000000
_cell_volume 1520.779636
_symmetry_space_group_name_H-M "P C C N"
_symmetry_group_IT_number 56
_symmetry_cell_setting 'orthorhombic'
loop_
_space_group_symop_operation_xyz
x,y,z
1/2-x,1/2-y,z
1/2+x,-y,1/2-z
-x,1/2+y,1/2-z
-x,-y,-z
1/2+x,1/2+y,-z
1/2-x,y,1/2+z
x,1/2-y,1/2+z
loop_
_atom_site_type_symbol
_atom_site_label
_atom_site_fract_x
_atom_site_fract_y
_atom_site_fract_z
Si Si1 0.845314 0.592296 0.195135
Si Si2 0.817688 0.351795 0.241625
Si Si3 0.031430 0.985043 0.820498
Si Si4 0.575183 0.271958 0.025840
Si Si5 0.115067 0.183842 0.620776
O O1 0.788434 0.483312 0.249135
O O2 0.842088 0.706067 0.298390
O O3 0.946155 0.545796 0.216902
O O4 0.829969 0.627234 0.017749
O O5 0.750000 0.250000 0.267084
O O6 0.860330 0.330928 0.072049
O O7 0.894726 0.328962 0.366813
O O8 0.087340 0.868892 0.840645
O O9 0.084014 0.090306 0.747472
O O10 0.000000 0.000000 0.000000
O O11 0.474973 0.230624 0.038022
#
# Coordination Sequence:
#
# PCOD9433199 Si02
#       5
#     8   8   8   8   8
#     4  11  23  38  64 104 140 176 228 286 362 416
#     4  12  26  43  63  94 138 190 237 274 324 420
#     4  11  19  37  64 101 143 171 218 290 363 420
#     4  11  22  40  64  99 136 178 225 281 349 408
#     4  11  22  38  68 107 140 175 219 305 371 410
#
# _framework density 26.302299000000001
#
# number of rings (size 3 to 8) (size 9 to 14) (size 15 to 20)
#    0.000    0.800    4.000    6.000    2.800    0.000 
#    0.000    0.000    0.000    1.200    0.000    0.000 
#    0.000    0.000    0.000    0.000    0.000    0.000 
#
# Total GULP energy -224166.786962 kJ/mol
# GULP energy per Si atom -5604.169674 kJ/mol
# Density = 2.624243 g / cm^3
# Si number density = 26.302299 Si / 1000 Ang^3
#
#
#
# Elastic Constant Matrix: (Units=GPa)
#
#
# Indices 1 2 3 4 5 6 
#
# 1 64.2777 48.2142 26.6559 0.0000 0.0000 0.0000
# 2 48.2142 225.0419 80.3132 0.0000 0.0000 0.0000
# 3 26.6559 80.3132 135.3335 0.0000 0.0000 0.0000
# 4 0.0000 0.0000 0.0000 58.1002 0.0000 0.0000
# 5 0.0000 0.0000 0.0000 0.0000 16.0326 0.0000
# 6 0.0000 0.0000 0.0000 0.0000 0.0000 45.2040
#
#
#
# Elastic Compliance Matrix: (Units=1/GPa)
#
#
# Indices 1 2 3 4 5 6 
#
# 1 0.018828 -0.003439 -0.001668 0.000000 0.000000 0.000000
# 2 -0.003439 0.006266 -0.003041 0.000000 0.000000 0.000000
# 3 -0.001668 -0.003041 0.009522 0.000000 0.000000 0.000000
# 4 0.000000 0.000000 0.000000 0.017212 0.000000 0.000000
# 5 0.000000 0.000000 0.000000 0.000000 0.062373 0.000000
# 6 0.000000 0.000000 0.000000 0.000000 0.000000 0.022122
#
#
# Mechanical properties :
#
#
# Convention : Reuss Voigt Hill
#
# Bulk Modulus (GPa) = 54.58122 81.66886 68.12504
# Shear Modulus (GPa) = 31.50102 41.83202 36.66652
#
# Velocity S-wave (km/s) = 3.46447 3.99235 3.73774
# Velocity P-wave (km/s) = 6.06629 7.23666 6.67717
#
# Compressibility (1/GPa) = 0.01832132
#
# Stress axis : x y z
#
# Youngs Moduli (GPa) = 53.11104 159.60110 105.01622
#
# Poissons Ratio (x) = 0.54882 0.17515
# Poissons Ratio (y) = 0.18263 0.31936
# Poissons Ratio (z) = 0.08858 0.48535
#
# Static dielectric constant tensor:
#      x y z
#    x 2.083720 0.000000 0.000000 
#    y 0.000000 2.133240 0.000000 
#    z 0.000000 0.000000 2.021460 
# 
# From -- ./inp_files/3893.got.cif
#   From: 2010.05.17/outbox.cif.g08.bks.cpg/sg56_2_cif.got.tgz:3893.got - 2010.06.03 13:42:01.
