data_PCOD9433787
_publ_section_title
;
Structure prediction by ZEFSAII (Michael W. Deem and Ramdas Pophale) SiO2 
 PCOD9433787
Probable space group: P C C N
;
_chemical_formula_sum "Si O2"
_cell_formula_units_Z 32
_cell_length_a 7.157938
_cell_length_b 5.465132
_cell_length_c 30.306697
_cell_angle_alpha 90.000000
_cell_angle_beta 90.000000
_cell_angle_gamma 90.000000
_cell_volume 1185.569984
_symmetry_space_group_name_H-M "P C C N"
_symmetry_group_IT_number 56
_symmetry_cell_setting 'orthorhombic'
loop_
_space_group_symop_operation_xyz
x,y,z
1/2-x,1/2-y,z
1/2+x,-y,1/2-z
-x,1/2+y,1/2-z
-x,-y,-z
1/2+x,1/2+y,-z
1/2-x,y,1/2+z
x,1/2-y,1/2+z
loop_
_atom_site_type_symbol
_atom_site_label
_atom_site_fract_x
_atom_site_fract_y
_atom_site_fract_z
Si Si1 0.250000 0.750000 0.643251
Si Si2 0.969108 0.390045 0.189746
Si Si3 0.972432 0.391532 0.598507
Si Si4 0.750000 0.250000 0.533996
Si Si5 0.250000 0.250000 0.524659
Si Si6 0.750000 0.750000 0.738130
O O1 0.386101 0.602596 0.675360
O O2 0.122360 0.592829 0.610922
O O3 0.958165 0.245082 0.144542
O O4 0.072726 0.256543 0.229797
O O5 0.781636 0.517730 0.206878
O O6 0.059242 0.254576 0.554661
O O7 0.779240 0.455206 0.576334
O O8 0.747741 0.483674 0.498930
#
# Coordination Sequence:
#
# PCOD9433787 Si02
#       6
#     4   8   8   4   4   4
#     4  12  23  50  75 104 156 212 256 319 406 477
#     4  12  27  49  75 114 152 213 251 340 391 493
#     4  12  27  48  77 110 156 209 258 323 415 469
#     4  12  31  44  83 118 154 204 272 333 388 491
#     4  12  25  53  74 118 156 206 264 335 395 478
#     4  12  27  49  80 112 160 198 282 319 415 472
#
# _framework density 26.991233999999999
#
# number of rings (size 3 to 8) (size 9 to 14) (size 15 to 20)
#    0.000    0.000    5.000    3.750    7.000    0.000 
#    0.000    0.000    0.000    0.000    0.000    0.000 
#    0.000    0.000    0.000    0.000    0.000    0.000 
#
# Total GULP energy -178391.513389 kJ/mol
# GULP energy per Si atom -5574.734793 kJ/mol
# Density = 2.692980 g / cm^3
# Si number density = 26.991234 Si / 1000 Ang^3
#
#
#
# Elastic Constant Matrix: (Units=GPa)
#
#
# Indices 1 2 3 4 5 6 
#
# 1 72.6264 49.7630 40.9904 0.0000 0.0000 0.0000
# 2 49.7630 157.6537 118.1552 0.0000 0.0000 0.0000
# 3 40.9904 118.1552 205.6096 0.0000 0.0000 0.0000
# 4 0.0000 0.0000 0.0000 9.0238 0.0000 0.0000
# 5 0.0000 0.0000 0.0000 0.0000 48.2171 0.0000
# 6 0.0000 0.0000 0.0000 0.0000 0.0000 33.7223
#
#
#
# Elastic Compliance Matrix: (Units=1/GPa)
#
#
# Indices 1 2 3 4 5 6 
#
# 1 0.017605 -0.005140 -0.000556 0.000000 0.000000 0.000000
# 2 -0.005140 0.012642 -0.006240 0.000000 0.000000 0.000000
# 3 -0.000556 -0.006240 0.008560 0.000000 0.000000 0.000000
# 4 0.000000 0.000000 0.000000 0.110818 0.000000 0.000000
# 5 0.000000 0.000000 0.000000 0.000000 0.020740 0.000000
# 6 0.000000 0.000000 0.000000 0.000000 0.000000 0.029654
#
#
# Mechanical properties :
#
#
# Convention : Reuss Voigt Hill
#
# Bulk Modulus (GPa) = 66.95745 94.85632 80.90688
# Shear Modulus (GPa) = 21.84638 33.32470 27.58554
#
# Velocity S-wave (km/s) = 2.84806 3.51757 3.20037
# Velocity P-wave (km/s) = 5.97296 7.19148 6.61036
#
# Compressibility (1/GPa) = 0.01493486
#
# Stress axis : x y z
#
# Youngs Moduli (GPa) = 56.80222 79.09872 116.81707
#
# Poissons Ratio (x) = 0.40661 0.06492
# Poissons Ratio (y) = 0.29199 0.72897
# Poissons Ratio (z) = 0.03157 0.49360
#
# Static dielectric constant tensor:
#      x y z
#    x 1.845120 0.000000 0.000000 
#    y 0.000000 2.305730 0.000000 
#    z 0.000000 0.000000 2.642870 
# 
# From -- ./inp_files/22699.got.cif
#   From: 2010.05.17/outbox.cif.g08.bks.cpg/sg56_12_cif.got.tgz:22699.got - 2010.06.03 13:42:01.
