data_PCOD9433446
_publ_section_title
;
Structure prediction by ZEFSAII (Michael W. Deem and Ramdas Pophale) SiO2 
 PCOD9433446
Probable space group: P C C N
;
_chemical_formula_sum "Si O2"
_cell_formula_units_Z 24
_cell_length_a 4.870819
_cell_length_b 8.324788
_cell_length_c 27.562579
_cell_angle_alpha 90.000000
_cell_angle_beta 90.000000
_cell_angle_gamma 90.000000
_cell_volume 1117.622215
_symmetry_space_group_name_H-M "P C C N"
_symmetry_group_IT_number 56
_symmetry_cell_setting 'orthorhombic'
loop_
_space_group_symop_operation_xyz
x,y,z
1/2-x,1/2-y,z
1/2+x,-y,1/2-z
-x,1/2+y,1/2-z
-x,-y,-z
1/2+x,1/2+y,-z
1/2-x,y,1/2+z
x,1/2-y,1/2+z
loop_
_atom_site_type_symbol
_atom_site_label
_atom_site_fract_x
_atom_site_fract_y
_atom_site_fract_z
Si Si1 0.997703 0.133996 0.877012
Si Si2 0.257323 0.440655 0.032836
Si Si3 0.903267 0.078642 0.771520
O O1 0.250000 0.250000 0.894236
O O2 0.750000 0.250000 0.865083
O O3 0.053167 0.060278 0.824153
O O4 0.853837 0.016837 0.915874
O O5 0.250000 0.250000 0.037803
O O6 0.500000 0.500000 0.000000
O O7 0.000000 0.500000 0.000000
O O8 0.750000 0.250000 0.764308
O O9 0.653003 0.953401 0.765382
#
# Coordination Sequence:
#
# PCOD9433446 Si02
#       3
#     8   8   8
#     4  11  23  43  66  92 130 176 219 269 329 391
#     4  12  25  42  66  96 130 170 217 271 328 391
#     4  11  23  41  65  94 129 170 215 268 327 390
#
# _framework density 21.474160999999999
#
# number of rings (size 3 to 8) (size 9 to 14) (size 15 to 20)
#    0.000    0.667    0.000   11.000    0.000    2.667 
#    0.000    0.000    0.000    0.000    0.000    0.000 
#    0.000    0.000    0.000    0.000    0.000    0.000 
#
# Total GULP energy -133621.455775 kJ/mol
# GULP energy per Si atom -5567.560657 kJ/mol
# Density = 2.142528 g / cm^3
# Si number density = 21.474161 Si / 1000 Ang^3
#
#
#
# Elastic Constant Matrix: (Units=GPa)
#
#
# Indices 1 2 3 4 5 6 
#
# 1 155.9870 42.2316 22.8653 0.0000 0.0000 0.0000
# 2 42.2316 116.5251 59.9171 0.0000 0.0000 0.0000
# 3 22.8653 59.9171 103.7623 0.0000 0.0000 0.0000
# 4 0.0000 0.0000 0.0000 1586.7252 0.0000 0.0000
# 5 0.0000 0.0000 0.0000 0.0000 41.0630 0.0000
# 6 0.0000 0.0000 0.0000 0.0000 0.0000 41.0732
#
#
#
# Elastic Compliance Matrix: (Units=1/GPa)
#
#
# Indices 1 2 3 4 5 6 
#
# 1 0.007109 -0.002519 -0.000112 0.000000 0.000000 0.000000
# 2 -0.002519 0.013099 -0.007009 0.000000 0.000000 0.000000
# 3 -0.000112 -0.007009 0.013709 0.000000 0.000000 0.000000
# 4 0.000000 0.000000 0.000000 0.000630 0.000000 0.000000
# 5 0.000000 0.000000 0.000000 0.000000 0.024353 0.000000
# 6 0.000000 0.000000 0.000000 0.000000 0.000000 0.024347
#
#
# Mechanical properties :
#
#
# Convention : Reuss Voigt Hill
#
# Bulk Modulus (GPa) = 68.31655 69.58915 68.95285
# Shear Modulus (GPa) = 46.55263 350.52297 198.53780
#
# Velocity S-wave (km/s) = 4.66106 12.79001 9.62575
# Velocity P-wave (km/s) = 7.80063 15.83000 12.47876
#
# Compressibility (1/GPa) = 0.01463774
#
# Stress axis : x y z
#
# Youngs Moduli (GPa) = 140.66310 76.34405 72.94367
#
# Poissons Ratio (x) = 0.19231 0.00817
# Poissons Ratio (y) = 0.35432 0.51124
# Poissons Ratio (z) = 0.01576 0.53507
#
# Static dielectric constant tensor:
#      x y z
#    x 1.734940 0.000000 0.000000 
#    y 0.000000 1.789580 0.000000 
#    z 0.000000 0.000000 2.052650 
# 
# From -- ./inp_files/19737.got.cif
#   From: 2010.05.17/outbox.cif.g08.bks.cpg/sg56_10_cif.got.tgz:19737.got - 2010.06.03 13:42:01.
