data_PCOD9433519
_publ_section_title
;
Structure prediction by ZEFSAII (Michael W. Deem and Ramdas Pophale) SiO2 
 PCOD9433519
Probable space group: P C C N
;
_chemical_formula_sum "Si O2"
_cell_formula_units_Z 48
_cell_length_a 17.692688
_cell_length_b 6.920214
_cell_length_c 17.506006
_cell_angle_alpha 90.000000
_cell_angle_beta 90.000000
_cell_angle_gamma 90.000000
_cell_volume 2143.386134
_symmetry_space_group_name_H-M "P C C N"
_symmetry_group_IT_number 56
_symmetry_cell_setting 'orthorhombic'
loop_
_space_group_symop_operation_xyz
x,y,z
1/2-x,1/2-y,z
1/2+x,-y,1/2-z
-x,1/2+y,1/2-z
-x,-y,-z
1/2+x,1/2+y,-z
1/2-x,y,1/2+z
x,1/2-y,1/2+z
loop_
_atom_site_type_symbol
_atom_site_label
_atom_site_fract_x
_atom_site_fract_y
_atom_site_fract_z
Si Si1 0.566348 0.337228 0.498442
Si Si2 0.930201 0.398900 0.338676
Si Si3 0.334619 0.291149 0.656674
Si Si4 0.584268 0.994494 0.606296
Si Si5 0.167388 0.654633 0.261876
Si Si6 0.669808 0.838344 0.023547
O O1 0.500000 0.500000 0.500000
O O2 0.582197 0.237509 0.415031
O O3 0.548228 0.158375 0.553124
O O4 0.638817 0.445898 0.536872
O O5 0.887901 0.604696 0.343020
O O6 0.895407 0.308312 0.262722
O O7 0.019452 0.427548 0.336021
O O8 0.250000 0.250000 0.685015
O O9 0.353458 0.475906 0.706768
O O10 0.328739 0.341564 0.567921
O O11 0.654410 0.079751 0.653031
O O12 0.610121 0.814250 0.556103
O O13 0.250000 0.750000 0.248924
O O14 0.750000 0.750000 0.049706
#
# Coordination Sequence:
#
# PCOD9433519 Si02
#       6
#     8   8   8   8   8   8
#     4  12  24  46  76 107 146 192 246 309 371 436
#     4  12  25  46  76 104 144 194 251 297 367 450
#     4  11  23  46  73 103 140 192 248 294 362 447
#     4  12  29  45  72 113 146 188 248 314 368 432
#     4  12  29  48  71 106 153 199 236 303 379 452
#     4  11  25  44  75 108 143 190 245 311 369 433
#
# _framework density 22.394469999999998
#
# number of rings (size 3 to 8) (size 9 to 14) (size 15 to 20)
#    0.000    0.333    6.667    1.500    4.667    2.000 
#    0.000    0.000    0.000    0.000    0.000    0.000 
#    0.000    0.000    0.000    0.000    0.000    0.000 
#
# Total GULP energy -267962.592894 kJ/mol
# GULP energy per Si atom -5582.554019 kJ/mol
# Density = 2.234350 g / cm^3
# Si number density = 22.394470 Si / 1000 Ang^3
#
#
#
# Elastic Constant Matrix: (Units=GPa)
#
#
# Indices 1 2 3 4 5 6 
#
# 1 101.2248 45.2177 6.2830 0.0000 0.0000 0.0000
# 2 45.2177 117.4330 26.9580 0.0000 0.0000 0.0000
# 3 6.2830 26.9580 56.1770 0.0000 0.0000 0.0000
# 4 0.0000 0.0000 0.0000 -0.2058 0.0000 0.0000
# 5 0.0000 0.0000 0.0000 0.0000 21.1128 0.0000
# 6 0.0000 0.0000 0.0000 0.0000 0.0000 39.5927
#
#
#
# Elastic Compliance Matrix: (Units=1/GPa)
#
#
# Indices 1 2 3 4 5 6 
#
# 1 0.011979 -0.004838 0.000982 0.000000 0.000000 0.000000
# 2 -0.004838 0.011524 -0.004989 0.000000 0.000000 0.000000
# 3 0.000982 -0.004989 0.020085 0.000000 0.000000 0.000000
# 4 0.000000 0.000000 0.000000 -4.858152 0.000000 0.000000
# 5 0.000000 0.000000 0.000000 0.000000 0.047365 0.000000
# 6 0.000000 0.000000 0.000000 0.000000 0.000000 0.025257
#
#
# Mechanical properties :
#
#
# Convention : Reuss Voigt Hill
#
# Bulk Modulus (GPa) = 38.61303 47.97247 43.29275
# Shear Modulus (GPa) = -1.06031 25.19168 12.06569
#
# Velocity S-wave (km/s) = -0.68884 3.35760 2.32368
# Velocity P-wave (km/s) = 4.08007 6.04147 5.15492
#
# Compressibility (1/GPa) = 0.02589800
#
# Stress axis : x y z
#
# Youngs Moduli (GPa) = 83.47783 86.77829 49.78816
#
# Poissons Ratio (x) = 0.41983 -0.04889
# Poissons Ratio (y) = 0.40387 0.24838
# Poissons Ratio (z) = -0.08196 0.43292
#
# Static dielectric constant tensor:
#      x y z
#    x 1.805500 0.000000 0.000000 
#    y 0.000000 1.557520 0.000000 
#    z 0.000000 0.000000 1.791570 
# 
# From -- ./inp_files/19432.got.cif
#   From: 2010.05.17/outbox.cif.g08.bks.cpg/sg56_10_cif.got.tgz:19432.got - 2010.06.03 13:42:01.
