data_PCOD9433527
_publ_section_title
;
Structure prediction by ZEFSAII (Michael W. Deem and Ramdas Pophale) SiO2 
 PCOD9433527
Probable space group: P C C N
;
_chemical_formula_sum "Si O2"
_cell_formula_units_Z 40
_cell_length_a 8.199294
_cell_length_b 15.474220
_cell_length_c 13.232209
_cell_angle_alpha 90.000000
_cell_angle_beta 90.000000
_cell_angle_gamma 90.000000
_cell_volume 1678.871969
_symmetry_space_group_name_H-M "P C C N"
_symmetry_group_IT_number 56
_symmetry_cell_setting 'orthorhombic'
loop_
_space_group_symop_operation_xyz
x,y,z
1/2-x,1/2-y,z
1/2+x,-y,1/2-z
-x,1/2+y,1/2-z
-x,-y,-z
1/2+x,1/2+y,-z
1/2-x,y,1/2+z
x,1/2-y,1/2+z
loop_
_atom_site_type_symbol
_atom_site_label
_atom_site_fract_x
_atom_site_fract_y
_atom_site_fract_z
Si Si1 0.370997 0.416189 0.665246
Si Si2 0.566536 0.766623 0.703868
Si Si3 0.319195 0.488524 0.341761
Si Si4 0.362456 0.668311 0.856525
Si Si5 0.661590 0.650549 0.006383
O O1 0.473075 0.357952 0.744656
O O2 0.490407 0.494691 0.635094
O O3 0.218554 0.452572 0.729495
O O4 0.310729 0.354835 0.574498
O O5 0.750000 0.750000 0.742442
O O6 0.443817 0.697661 0.749748
O O7 0.594261 0.776243 0.584787
O O8 0.238118 0.581522 0.349684
O O9 0.224082 0.424583 0.417814
O O10 0.250000 0.750000 0.888667
O O11 0.506068 0.645128 0.934157
#
# Coordination Sequence:
#
# PCOD9433527 Si02
#       5
#     8   8   8   8   8
#     4  11  23  47  71 105 146 188 241 295 364 445
#     4  11  25  44  70 100 140 190 235 305 363 425
#     4  11  25  45  75 106 143 194 238 302 370 438
#     4  12  25  47  71 105 153 184 243 312 362 429
#     4  11  26  46  73 106 142 195 247 290 371 450
#
# _framework density 23.825523
#
# number of rings (size 3 to 8) (size 9 to 14) (size 15 to 20)
#    0.000    0.800    4.000    2.400    5.600    2.400 
#    3.600    0.000    0.000    0.000    0.000    0.000 
#    0.000    0.000    0.000    0.000    0.000    0.000 
#
# Total GULP energy -223124.667876 kJ/mol
# GULP energy per Si atom -5578.116697 kJ/mol
# Density = 2.377129 g / cm^3
# Si number density = 23.825523 Si / 1000 Ang^3
#
#
#
# Elastic Constant Matrix: (Units=GPa)
#
#
# Indices 1 2 3 4 5 6 
#
# 1 98.9011 9.5922 48.0224 0.0000 0.0000 0.0000
# 2 9.5922 62.5174 32.7369 0.0000 0.0000 0.0000
# 3 48.0224 32.7369 155.5139 0.0000 0.0000 0.0000
# 4 0.0000 0.0000 0.0000 32.3186 0.0000 0.0000
# 5 0.0000 0.0000 0.0000 0.0000 19.9857 0.0000
# 6 0.0000 0.0000 0.0000 0.0000 0.0000 50.5391
#
#
#
# Elastic Compliance Matrix: (Units=1/GPa)
#
#
# Indices 1 2 3 4 5 6 
#
# 1 0.011895 0.000111 -0.003697 0.000000 0.000000 0.000000
# 2 0.000111 0.017978 -0.003819 0.000000 0.000000 0.000000
# 3 -0.003697 -0.003819 0.008376 0.000000 0.000000 0.000000
# 4 0.000000 0.000000 0.000000 0.030942 0.000000 0.000000
# 5 0.000000 0.000000 0.000000 0.000000 0.050036 0.000000
# 6 0.000000 0.000000 0.000000 0.000000 0.000000 0.019787
#
#
# Mechanical properties :
#
#
# Convention : Reuss Voigt Hill
#
# Bulk Modulus (GPa) = 42.66247 55.29281 48.97764
# Shear Modulus (GPa) = 30.93369 35.67406 33.30387
#
# Velocity S-wave (km/s) = 3.60716 3.87370 3.74280
# Velocity P-wave (km/s) = 5.94087 6.57763 6.26734
#
# Compressibility (1/GPa) = 0.02343980
#
# Stress axis : x y z
#
# Youngs Moduli (GPa) = 84.06709 55.62284 119.39399
#
# Poissons Ratio (x) = -0.00615 0.44134
# Poissons Ratio (y) = -0.00929 0.45593
# Poissons Ratio (z) = 0.31075 0.21241
#
# Static dielectric constant tensor:
#      x y z
#    x 1.996870 0.000000 0.000000 
#    y 0.000000 2.072460 0.000000 
#    z 0.000000 0.000000 1.888440 
# 
# From -- ./inp_files/6180.got.cif
#   From: 2010.05.17/outbox.cif.g08.bks.cpg/sg56_4_cif.got.tgz:6180.got - 2010.06.03 13:42:01.
