data_PCOD9433610
_publ_section_title
;
Structure prediction by ZEFSAII (Michael W. Deem and Ramdas Pophale) SiO2 
 PCOD9433610
Probable space group: P C C N
;
_chemical_formula_sum "Si O2"
_cell_formula_units_Z 28
_cell_length_a 4.977494
_cell_length_b 11.027199
_cell_length_c 19.206737
_cell_angle_alpha 90.000000
_cell_angle_beta 90.000000
_cell_angle_gamma 90.000000
_cell_volume 1054.215863
_symmetry_space_group_name_H-M "P C C N"
_symmetry_group_IT_number 56
_symmetry_cell_setting 'orthorhombic'
loop_
_space_group_symop_operation_xyz
x,y,z
1/2-x,1/2-y,z
1/2+x,-y,1/2-z
-x,1/2+y,1/2-z
-x,-y,-z
1/2+x,1/2+y,-z
1/2-x,y,1/2+z
x,1/2-y,1/2+z
loop_
_atom_site_type_symbol
_atom_site_label
_atom_site_fract_x
_atom_site_fract_y
_atom_site_fract_z
Si Si1 0.381175 0.877733 0.436093
Si Si2 0.078691 0.370389 0.409811
Si Si3 0.597963 0.417005 0.760179
Si Si4 0.750000 0.750000 0.339386
O O1 0.250000 0.750000 0.420315
O O2 0.411843 0.881461 0.519103
O O3 0.652964 0.857421 0.391656
O O4 0.253390 0.003332 0.411097
O O5 0.250000 0.250000 0.414876
O O6 0.915699 0.369701 0.338860
O O7 0.892100 0.468419 0.744326
O O8 0.471309 0.313627 0.710499
#
# Coordination Sequence:
#
# PCOD9433610 Si02
#       4
#     8   8   8   4
#     4  11  25  47  74 104 151 200 250 320 386 453
#     4  11  24  47  70 112 142 195 258 311 371 467
#     4  12  27  47  73 109 152 198 254 316 390 457
#     4  12  24  46  72 104 154 200 250 320 394 460
#
# _framework density 26.560026000000001
#
# number of rings (size 3 to 8) (size 9 to 14) (size 15 to 20)
#    0.000    0.571    5.714    1.714    0.000    3.429 
#    0.000    0.000    0.000    0.000    0.000    0.000 
#    0.000    0.000    0.000    0.000    0.000    0.000 
#
# Total GULP energy -156926.293031 kJ/mol
# GULP energy per Si atom -5604.510465 kJ/mol
# Density = 2.649957 g / cm^3
# Si number density = 26.560026 Si / 1000 Ang^3
#
#
#
# Elastic Constant Matrix: (Units=GPa)
#
#
# Indices 1 2 3 4 5 6 
#
# 1 61.0233 28.9711 15.1986 0.0000 0.0000 0.0000
# 2 28.9711 199.0927 23.3087 0.0000 0.0000 0.0000
# 3 15.1986 23.3087 224.4013 0.0000 0.0000 0.0000
# 4 0.0000 0.0000 0.0000 10.4127 0.0000 0.0000
# 5 0.0000 0.0000 0.0000 0.0000 13.6297 0.0000
# 6 0.0000 0.0000 0.0000 0.0000 0.0000 57.1780
#
#
#
# Elastic Compliance Matrix: (Units=1/GPa)
#
#
# Indices 1 2 3 4 5 6 
#
# 1 0.017800 -0.002479 -0.000948 0.000000 0.000000 0.000000
# 2 -0.002479 0.005430 -0.000396 0.000000 0.000000 0.000000
# 3 -0.000948 -0.000396 0.004562 0.000000 0.000000 0.000000
# 4 0.000000 0.000000 0.000000 0.096037 0.000000 0.000000
# 5 0.000000 0.000000 0.000000 0.000000 0.073369 0.000000
# 6 0.000000 0.000000 0.000000 0.000000 0.000000 0.017489
#
#
# Mechanical properties :
#
#
# Convention : Reuss Voigt Hill
#
# Bulk Modulus (GPa) = 49.63988 68.83047 59.23517
# Shear Modulus (GPa) = 21.82938 44.04667 32.93803
#
# Velocity S-wave (km/s) = 2.86997 4.07674 3.52538
# Velocity P-wave (km/s) = 5.45092 6.93766 6.23874
#
# Compressibility (1/GPa) = 0.02014509
#
# Stress axis : x y z
#
# Youngs Moduli (GPa) = 56.17872 184.16469 219.21855
#
# Poissons Ratio (x) = 0.45659 0.20784
# Poissons Ratio (y) = 0.13928 0.08683
# Poissons Ratio (z) = 0.05326 0.07295
#
# Static dielectric constant tensor:
#      x y z
#    x 2.194980 0.000000 0.000000 
#    y 0.000000 2.120180 0.000000 
#    z 0.000000 0.000000 2.027480 
# 
# From -- ./inp_files/15309.got.cif
#   From: 2010.05.17/outbox.cif.g08.bks.cpg/sg56_8_cif.got.tgz:15309.got - 2010.06.03 13:42:01.
