data_PCOD9433390
_publ_section_title
;
Structure prediction by ZEFSAII (Michael W. Deem and Ramdas Pophale) SiO2 
 PCOD9433390
Probable space group: P C C N
;
_chemical_formula_sum "Si O2"
_cell_formula_units_Z 24
_cell_length_a 5.676815
_cell_length_b 7.440651
_cell_length_c 27.817969
_cell_angle_alpha 90.000000
_cell_angle_beta 90.000000
_cell_angle_gamma 90.000000
_cell_volume 1175.008734
_symmetry_space_group_name_H-M "P C C N"
_symmetry_group_IT_number 56
_symmetry_cell_setting 'orthorhombic'
loop_
_space_group_symop_operation_xyz
x,y,z
1/2-x,1/2-y,z
1/2+x,-y,1/2-z
-x,1/2+y,1/2-z
-x,-y,-z
1/2+x,1/2+y,-z
1/2-x,y,1/2+z
x,1/2-y,1/2+z
loop_
_atom_site_type_symbol
_atom_site_label
_atom_site_fract_x
_atom_site_fract_y
_atom_site_fract_z
Si Si1 0.446838 0.893225 0.304025
Si Si2 0.750000 0.750000 0.889693
Si Si3 0.252691 0.960289 0.027647
Si Si4 0.750000 0.750000 0.720380
O O1 0.250000 0.750000 0.289875
O O2 0.547386 0.807558 0.352704
O O3 0.617128 0.880224 0.258008
O O4 0.385482 0.102370 0.310949
O O5 0.775720 0.582190 0.925140
O O6 0.250000 0.750000 0.038675
O O7 0.500000 0.000000 0.000000
O O8 0.000000 0.000000 0.000000
#
# Coordination Sequence:
#
# PCOD9433390 Si02
#       4
#     8   4   8   4
#     4  11  24  42  70 100 143 176 241 290 348 435
#     4  11  28  44  69 110 138 182 247 294 352 433
#     4  12  25  49  78 104 147 194 238 299 374 436
#     4  11  22  44  69  96 136 194 219 288 368 409
#
# _framework density 20.425381000000002
#
# number of rings (size 3 to 8) (size 9 to 14) (size 15 to 20)
#    0.000    0.667    6.667    0.000    4.667    2.667 
#    0.000    0.000    0.000    0.000    0.000    0.000 
#    0.000    0.000    0.000    0.000    0.000    0.000 
#
# Total GULP energy -133662.134728 kJ/mol
# GULP energy per Si atom -5569.255614 kJ/mol
# Density = 2.037889 g / cm^3
# Si number density = 20.425381 Si / 1000 Ang^3
#
#
#
# Elastic Constant Matrix: (Units=GPa)
#
#
# Indices 1 2 3 4 5 6 
#
# 1 79.2694 35.3744 31.2193 0.0000 0.0000 0.0000
# 2 35.3744 214.6048 40.1528 0.0000 0.0000 0.0000
# 3 31.2193 40.1528 84.5009 0.0000 0.0000 0.0000
# 4 0.0000 0.0000 0.0000 2.9083 0.0000 0.0000
# 5 0.0000 0.0000 0.0000 0.0000 -4.3893 0.0000
# 6 0.0000 0.0000 0.0000 0.0000 0.0000 40.5679
#
#
#
# Elastic Compliance Matrix: (Units=1/GPa)
#
#
# Indices 1 2 3 4 5 6 
#
# 1 0.015249 -0.001602 -0.004873 0.000000 0.000000 0.000000
# 2 -0.001602 0.005283 -0.001918 0.000000 0.000000 0.000000
# 3 -0.004873 -0.001918 0.014546 0.000000 0.000000 0.000000
# 4 0.000000 0.000000 0.000000 0.343842 0.000000 0.000000
# 5 0.000000 0.000000 0.000000 0.000000 -0.227828 0.000000
# 6 0.000000 0.000000 0.000000 0.000000 0.000000 0.024650
#
#
# Mechanical properties :
#
#
# Convention : Reuss Voigt Hill
#
# Bulk Modulus (GPa) = 54.66904 65.76311 60.21608
# Shear Modulus (GPa) = 25.17303 25.92596 25.54950
#
# Velocity S-wave (km/s) = 3.51442 3.56659 3.54060
# Velocity P-wave (km/s) = 6.57963 7.01623 6.80143
#
# Compressibility (1/GPa) = 0.01829189
#
# Stress axis : x y z
#
# Youngs Moduli (GPa) = 65.57752 189.29676 68.74740
#
# Poissons Ratio (x) = 0.30324 0.33498
# Poissons Ratio (y) = 0.10505 0.13188
# Poissons Ratio (z) = 0.31954 0.36314
#
# Static dielectric constant tensor:
#      x y z
#    x 3.136140 0.000000 0.000000 
#    y 0.000000 1.722160 0.000000 
#    z 0.000000 0.000000 2.037460 
# 
# From -- ./inp_files/19751.got.cif
#   From: 2010.05.17/outbox.cif.g08.bks.cpg/sg56_10_cif.got.tgz:19751.got - 2010.06.03 13:42:01.
