data_PCOD9433025
_publ_section_title
;
Structure prediction by ZEFSAII (Michael W. Deem and Ramdas Pophale) SiO2 
 PCOD9433025
Probable space group: P C C N
;
_chemical_formula_sum "Si O2"
_cell_formula_units_Z 36
_cell_length_a 10.057967
_cell_length_b 9.986531
_cell_length_c 13.384506
_cell_angle_alpha 90.000000
_cell_angle_beta 90.000000
_cell_angle_gamma 90.000000
_cell_volume 1344.395987
_symmetry_space_group_name_H-M "P C C N"
_symmetry_group_IT_number 56
_symmetry_cell_setting 'orthorhombic'
loop_
_space_group_symop_operation_xyz
x,y,z
1/2-x,1/2-y,z
1/2+x,-y,1/2-z
-x,1/2+y,1/2-z
-x,-y,-z
1/2+x,1/2+y,-z
1/2-x,y,1/2+z
x,1/2-y,1/2+z
loop_
_atom_site_type_symbol
_atom_site_label
_atom_site_fract_x
_atom_site_fract_y
_atom_site_fract_z
Si Si1 0.250000 0.750000 0.105532
Si Si2 0.099018 0.899469 0.944219
Si Si3 0.614767 0.830663 0.949682
Si Si4 0.601346 0.938790 0.739574
Si Si5 0.530372 0.849504 0.168748
O O1 0.377002 0.797864 0.166759
O O2 0.204229 0.862822 0.027877
O O3 0.008638 0.768612 0.920767
O O4 0.162339 0.971659 0.848563
O O5 0.000000 0.000000 0.000000
O O6 0.750000 0.750000 0.966934
O O7 0.643421 0.922962 0.854312
O O8 0.572925 0.887989 0.057111
O O9 0.601497 0.787262 0.700433
O O10 0.463813 0.024550 0.756557
#
# Coordination Sequence:
#
# PCOD9433025 Si02
#       5
#     4   8   8   8   8
#     4  10  24  46  76 104 150 200 234 316 374 436
#     4  11  23  49  72 107 148 187 252 308 364 448
#     4  11  26  48  69 106 149 191 237 306 373 439
#     4  12  24  46  72 108 145 191 251 300 361 452
#     4  11  26  48  73 110 146 191 248 302 376 448
#
# _framework density 26.777823000000001
#
# number of rings (size 3 to 8) (size 9 to 14) (size 15 to 20)
#    0.000    0.889    6.667    0.667    3.111    1.778 
#   12.000    0.000    0.000    0.000    0.000    0.000 
#    0.000    0.000    0.000    0.000    0.000    0.000 
#
# Total GULP energy -201431.602007 kJ/mol
# GULP energy per Si atom -5595.322278 kJ/mol
# Density = 2.671688 g / cm^3
# Si number density = 26.777823 Si / 1000 Ang^3
#
#
#
# Elastic Constant Matrix: (Units=GPa)
#
#
# Indices 1 2 3 4 5 6 
#
# 1 97.8771 11.6028 14.7187 0.0000 0.0000 0.0000
# 2 11.6028 107.9280 52.8293 0.0000 0.0000 0.0000
# 3 14.7187 52.8293 133.5151 0.0000 0.0000 0.0000
# 4 0.0000 0.0000 0.0000 66.6327 0.0000 0.0000
# 5 0.0000 0.0000 0.0000 0.0000 19.8333 0.0000
# 6 0.0000 0.0000 0.0000 0.0000 0.0000 21.3875
#
#
#
# Elastic Compliance Matrix: (Units=1/GPa)
#
#
# Indices 1 2 3 4 5 6 
#
# 1 0.010431 -0.000693 -0.000876 0.000000 0.000000 0.000000
# 2 -0.000693 0.011537 -0.004489 0.000000 0.000000 0.000000
# 3 -0.000876 -0.004489 0.009362 0.000000 0.000000 0.000000
# 4 0.000000 0.000000 0.000000 0.015008 0.000000 0.000000
# 5 0.000000 0.000000 0.000000 0.000000 0.050420 0.000000
# 6 0.000000 0.000000 0.000000 0.000000 0.000000 0.046756
#
#
# Mechanical properties :
#
#
# Convention : Reuss Voigt Hill
#
# Bulk Modulus (GPa) = 52.04009 55.29132 53.66570
# Shear Modulus (GPa) = 30.85775 38.91532 34.88653
#
# Velocity S-wave (km/s) = 3.39833 3.81631 3.61337
# Velocity P-wave (km/s) = 5.90545 6.33340 6.12317
#
# Compressibility (1/GPa) = 0.01921596
#
# Stress axis : x y z
#
# Youngs Moduli (GPa) = 95.87078 86.67754 106.81028
#
# Poissons Ratio (x) = 0.06004 0.09355
# Poissons Ratio (y) = 0.06641 0.47943
# Poissons Ratio (z) = 0.08396 0.38906
#
# Static dielectric constant tensor:
#      x y z
#    x 2.086610 0.000000 0.000000 
#    y 0.000000 2.209110 0.000000 
#    z 0.000000 0.000000 2.045690 
# 
# From -- ./inp_files/11350.got.cif
#   From: 2010.05.17/outbox.cif.g08.bks.cpg/sg56_6_cif.got.tgz:11350.got - 2010.06.03 13:42:01.
