data_PCOD9433181
_publ_section_title
;
Structure prediction by ZEFSAII (Michael W. Deem and Ramdas Pophale) SiO2 
 PCOD9433181
Probable space group: P C C N
;
_chemical_formula_sum "Si O2"
_cell_formula_units_Z 32
_cell_length_a 8.015729
_cell_length_b 5.117982
_cell_length_c 28.492547
_cell_angle_alpha 90.000000
_cell_angle_beta 90.000000
_cell_angle_gamma 90.000000
_cell_volume 1168.888413
_symmetry_space_group_name_H-M "P C C N"
_symmetry_group_IT_number 56
_symmetry_cell_setting 'orthorhombic'
loop_
_space_group_symop_operation_xyz
x,y,z
1/2-x,1/2-y,z
1/2+x,-y,1/2-z
-x,1/2+y,1/2-z
-x,-y,-z
1/2+x,1/2+y,-z
1/2-x,y,1/2+z
x,1/2-y,1/2+z
loop_
_atom_site_type_symbol
_atom_site_label
_atom_site_fract_x
_atom_site_fract_y
_atom_site_fract_z
Si Si1 0.750000 0.250000 0.596565
Si Si2 0.961084 0.423648 0.936941
Si Si3 0.750000 0.250000 0.349307
Si Si4 0.250000 0.250000 0.497284
Si Si5 0.250000 0.250000 0.838458
Si Si6 0.469808 0.959183 0.724541
O O1 0.583334 0.324995 0.568499
O O2 0.767323 0.500243 0.629098
O O3 0.892652 0.340027 0.886154
O O4 0.087431 0.227949 0.963750
O O5 0.805515 0.517371 0.968253
O O6 0.683775 0.033940 0.312160
O O7 0.401595 0.275802 0.803349
O O8 0.450602 0.744476 0.766618
#
# Coordination Sequence:
#
# PCOD9433181 Si02
#       6
#     4   8   4   4   4   8
#     4  12  26  48  78 114 156 220 270 326 394 502
#     4  11  27  48  82 116 168 213 277 335 411 499
#     4  12  28  48  82 122 156 226 270 338 414 500
#     4  10  27  50  75 124 164 214 270 349 408 473
#     4  12  25  48  75 114 156 212 268 335 402 483
#     4  12  27  50  77 117 163 210 272 343 413 489
#
# _framework density 27.376439000000001
#
# number of rings (size 3 to 8) (size 9 to 14) (size 15 to 20)
#    0.000    0.500    2.500    3.750    3.500    6.000 
#    0.000    0.000    0.000    0.000    0.000    0.000 
#    0.000    0.000    0.000    0.000    0.000    0.000 
#
# Total GULP energy -178943.460183 kJ/mol
# GULP energy per Si atom -5591.983131 kJ/mol
# Density = 2.731413 g / cm^3
# Si number density = 27.376439 Si / 1000 Ang^3
#
#
#
# Elastic Constant Matrix: (Units=GPa)
#
#
# Indices 1 2 3 4 5 6 
#
# 1 135.7027 47.2979 28.2844 0.0000 0.0000 0.0000
# 2 47.2979 200.6868 46.4686 0.0000 0.0000 0.0000
# 3 28.2844 46.4686 74.5475 0.0000 0.0000 0.0000
# 4 0.0000 0.0000 0.0000 22.2193 0.0000 0.0000
# 5 0.0000 0.0000 0.0000 0.0000 102.3055 0.0000
# 6 0.0000 0.0000 0.0000 0.0000 0.0000 42.0262
#
#
#
# Elastic Compliance Matrix: (Units=1/GPa)
#
#
# Indices 1 2 3 4 5 6 
#
# 1 0.008344 -0.001442 -0.002267 0.000000 0.000000 0.000000
# 2 -0.001442 0.006072 -0.003238 0.000000 0.000000 0.000000
# 3 -0.002267 -0.003238 0.016293 0.000000 0.000000 0.000000
# 4 0.000000 0.000000 0.000000 0.045006 0.000000 0.000000
# 5 0.000000 0.000000 0.000000 0.000000 0.009775 0.000000
# 6 0.000000 0.000000 0.000000 0.000000 0.000000 0.023795
#
#
# Mechanical properties :
#
#
# Convention : Reuss Voigt Hill
#
# Bulk Modulus (GPa) = 59.46942 72.78209 66.12575
# Shear Modulus (GPa) = 38.82469 52.56928 45.69699
#
# Velocity S-wave (km/s) = 3.76996 4.38681 4.09003
# Velocity P-wave (km/s) = 6.38123 7.23202 6.81991
#
# Compressibility (1/GPa) = 0.01681537
#
# Stress axis : x y z
#
# Youngs Moduli (GPa) = 119.84576 164.67828 61.37585
#
# Poissons Ratio (x) = 0.23739 0.13916
# Poissons Ratio (y) = 0.17276 0.19875
# Poissons Ratio (z) = 0.27172 0.53327
#
# Static dielectric constant tensor:
#      x y z
#    x 1.996850 0.000000 0.000000 
#    y 0.000000 2.133870 0.000000 
#    z 0.000000 0.000000 2.357420 
# 
# From -- ./inp_files/23112.got.cif
#   From: 2010.05.17/outbox.cif.g08.bks.cpg/sg56_12_cif.got.tgz:23112.got - 2010.06.03 13:42:01.
