data_PCOD9433828
_publ_section_title
;
Structure prediction by ZEFSAII (Michael W. Deem and Ramdas Pophale) SiO2 
 PCOD9433828
Probable space group: P C C N
;
_chemical_formula_sum "Si O2"
_cell_formula_units_Z 36
_cell_length_a 20.547453
_cell_length_b 7.165155
_cell_length_c 11.659247
_cell_angle_alpha 90.000000
_cell_angle_beta 90.000000
_cell_angle_gamma 90.000000
_cell_volume 1716.540633
_symmetry_space_group_name_H-M "P C C N"
_symmetry_group_IT_number 56
_symmetry_cell_setting 'orthorhombic'
loop_
_space_group_symop_operation_xyz
x,y,z
1/2-x,1/2-y,z
1/2+x,-y,1/2-z
-x,1/2+y,1/2-z
-x,-y,-z
1/2+x,1/2+y,-z
1/2-x,y,1/2+z
x,1/2-y,1/2+z
loop_
_atom_site_type_symbol
_atom_site_label
_atom_site_fract_x
_atom_site_fract_y
_atom_site_fract_z
Si Si1 0.539378 0.901726 0.602229
Si Si2 0.750000 0.750000 0.344217
Si Si3 0.693083 0.398678 0.709287
Si Si4 0.368871 0.409339 0.507292
Si Si5 0.577399 0.329499 0.300569
O O1 0.590648 0.757415 0.549749
O O2 0.487642 0.788219 0.679134
O O3 0.500000 0.000000 0.500000
O O4 0.572983 0.053979 0.683293
O O5 0.776698 0.582474 0.266402
O O6 0.691664 0.673122 0.422204
O O7 0.750000 0.250000 0.688837
O O8 0.657896 0.457670 0.592446
O O9 0.639261 0.306488 0.791996
O O10 0.412714 0.527634 0.594934
#
# Coordination Sequence:
#
# PCOD9433828 Si02
#       5
#     8   4   8   8   8
#     4  12  25  46  74 108 147 192 246 301 371 436
#     4  12  26  48  68 106 146 192 242 310 358 438
#     4  12  27  46  70 106 144 192 243 298 368 431
#     4  12  26  43  75 102 147 192 245 300 366 435
#     4  12  25  47  72 107 148 189 246 305 364 438
#
# _framework density 20.972413
#
# number of rings (size 3 to 8) (size 9 to 14) (size 15 to 20)
#    0.000    0.000    2.222    8.000    6.222    0.000 
#    0.000    0.000    0.000    0.000    0.000    0.000 
#    0.000    0.000    0.000    0.000    0.000    0.000 
#
# Total GULP energy -201846.146869 kJ/mol
# GULP energy per Si atom -5606.837413 kJ/mol
# Density = 2.092468 g / cm^3
# Si number density = 20.972413 Si / 1000 Ang^3
#
#
#
# Elastic Constant Matrix: (Units=GPa)
#
#
# Indices 1 2 3 4 5 6 
#
# 1 73.8431 30.6717 11.9591 0.0000 0.0000 0.0000
# 2 30.6717 111.9897 40.1333 0.0000 0.0000 0.0000
# 3 11.9591 40.1333 86.2354 0.0000 0.0000 0.0000
# 4 0.0000 0.0000 0.0000 38.0290 0.0000 0.0000
# 5 0.0000 0.0000 0.0000 0.0000 59.9567 0.0000
# 6 0.0000 0.0000 0.0000 0.0000 0.0000 34.2600
#
#
#
# Elastic Compliance Matrix: (Units=1/GPa)
#
#
# Indices 1 2 3 4 5 6 
#
# 1 0.015284 -0.004112 -0.000206 0.000000 0.000000 0.000000
# 2 -0.004112 0.011823 -0.004932 0.000000 0.000000 0.000000
# 3 -0.000206 -0.004932 0.013920 0.000000 0.000000 0.000000
# 4 0.000000 0.000000 0.000000 0.026296 0.000000 0.000000
# 5 0.000000 0.000000 0.000000 0.000000 0.016679 0.000000
# 6 0.000000 0.000000 0.000000 0.000000 0.000000 0.029189
#
#
# Mechanical properties :
#
#
# Convention : Reuss Voigt Hill
#
# Bulk Modulus (GPa) = 44.39168 48.62182 46.50675
# Shear Modulus (GPa) = 35.91987 39.06941 37.49464
#
# Velocity S-wave (km/s) = 4.14299 4.32081 4.23283
# Velocity P-wave (km/s) = 6.64067 6.93733 6.79062
#
# Compressibility (1/GPa) = 0.02252674
#
# Stress axis : x y z
#
# Youngs Moduli (GPa) = 65.42975 84.58003 71.83873
#
# Poissons Ratio (x) = 0.34780 0.01478
# Poissons Ratio (y) = 0.26905 0.35432
# Poissons Ratio (z) = 0.01346 0.41716
#
# Static dielectric constant tensor:
#      x y z
#    x 1.898190 0.000000 0.000000 
#    y 0.000000 1.734030 0.000000 
#    z 0.000000 0.000000 1.715550 
# 
# From -- ./inp_files/5573.got.cif
#   From: 2010.05.17/outbox.cif.g08.bks.cpg/sg56_3_cif.got.tgz:5573.got - 2010.06.03 13:42:01.
