data_PCOD9433103
_publ_section_title
;
Structure prediction by ZEFSAII (Michael W. Deem and Ramdas Pophale) SiO2 
 PCOD9433103
Probable space group: P C C N
;
_chemical_formula_sum "Si O2"
_cell_formula_units_Z 40
_cell_length_a 9.702655
_cell_length_b 8.219776
_cell_length_c 22.104725
_cell_angle_alpha 90.000000
_cell_angle_beta 90.000000
_cell_angle_gamma 90.000000
_cell_volume 1762.932517
_symmetry_space_group_name_H-M "P C C N"
_symmetry_group_IT_number 56
_symmetry_cell_setting 'orthorhombic'
loop_
_space_group_symop_operation_xyz
x,y,z
1/2-x,1/2-y,z
1/2+x,-y,1/2-z
-x,1/2+y,1/2-z
-x,-y,-z
1/2+x,1/2+y,-z
1/2-x,y,1/2+z
x,1/2-y,1/2+z
loop_
_atom_site_type_symbol
_atom_site_label
_atom_site_fract_x
_atom_site_fract_y
_atom_site_fract_z
Si Si1 0.617023 0.448435 0.359913
Si Si2 0.250000 0.750000 0.734287
Si Si3 0.750000 0.750000 0.585102
Si Si4 0.250000 0.250000 0.120394
Si Si5 0.807914 0.427536 0.148946
Si Si6 0.532889 0.813000 0.484605
Si Si7 0.750000 0.250000 0.967768
O O1 0.628267 0.307183 0.310432
O O2 0.710115 0.598545 0.339405
O O3 0.464457 0.520060 0.366665
O O4 0.698446 0.389082 0.420308
O O5 0.205519 0.604519 0.779067
O O6 0.772095 0.585112 0.623300
O O7 0.621094 0.736743 0.539417
O O8 0.121902 0.210379 0.075491
O O9 0.750000 0.250000 0.128040
O O10 0.380938 0.744460 0.488654
O O11 0.500000 0.000000 0.500000
#
# Coordination Sequence:
#
# PCOD9433103 Si02
#       7
#     8   4   4   4   8   8   4
#     4  11  23  46  69 103 142 182 241 294 360 432
#     4   9  26  44  69 106 134 191 240 300 367 438
#     4  11  24  45  72 100 152 183 244 301 350 444
#     4  11  26  39  68 104 136 195 224 291 360 418
#     4  10  25  46  73 107 137 193 238 298 374 421
#     4  11  24  42  66 105 140 188 238 286 360 431
#     4  11  22  44  73  94 146 183 232 300 347 430
#
# _framework density 22.689465999999999
#
# number of rings (size 3 to 8) (size 9 to 14) (size 15 to 20)
#    0.600    0.800    4.000    0.000    2.800    6.400 
#    0.000    0.000    0.000    0.000    0.000    0.000 
#    0.000    0.000    0.000    0.000    0.000    0.000 
#
# Total GULP energy -222772.826147 kJ/mol
# GULP energy per Si atom -5569.320654 kJ/mol
# Density = 2.263782 g / cm^3
# Si number density = 22.689466 Si / 1000 Ang^3
#
#
#
# Elastic Constant Matrix: (Units=GPa)
#
#
# Indices 1 2 3 4 5 6 
#
# 1 146.8968 16.9435 32.3597 0.0000 0.0000 0.0000
# 2 16.9435 81.6309 35.0570 0.0000 0.0000 0.0000
# 3 32.3597 35.0570 87.5388 0.0000 0.0000 0.0000
# 4 0.0000 0.0000 0.0000 -1.2894 0.0000 0.0000
# 5 0.0000 0.0000 0.0000 0.0000 -3.9140 0.0000
# 6 0.0000 0.0000 0.0000 0.0000 0.0000 39.4855
#
#
#
# Elastic Compliance Matrix: (Units=1/GPa)
#
#
# Indices 1 2 3 4 5 6 
#
# 1 0.007424 -0.000438 -0.002569 0.000000 0.000000 0.000000
# 2 -0.000438 0.014821 -0.005773 0.000000 0.000000 0.000000
# 3 -0.002569 -0.005773 0.014685 0.000000 0.000000 0.000000
# 4 0.000000 0.000000 0.000000 -0.775531 0.000000 0.000000
# 5 0.000000 0.000000 0.000000 0.000000 -0.255494 0.000000
# 6 0.000000 0.000000 0.000000 0.000000 0.000000 0.025326
#
#
# Mechanical properties :
#
#
# Convention : Reuss Voigt Hill
#
# Bulk Modulus (GPa) = 51.62766 53.86519 52.74642
# Shear Modulus (GPa) = -5.29239 22.30351 8.50556
#
# Velocity S-wave (km/s) = -1.52892 3.13867 1.93825
# Velocity P-wave (km/s) = 4.43696 6.07673 5.32040
#
# Compressibility (1/GPa) = 0.01936946
#
# Stress axis : x y z
#
# Youngs Moduli (GPa) = 134.69987 67.47386 68.09524
#
# Poissons Ratio (x) = 0.02953 0.17494
# Poissons Ratio (y) = 0.05895 0.39315
# Poissons Ratio (z) = 0.34605 0.38956
#
# Static dielectric constant tensor:
#      x y z
#    x 1.557640 0.000000 0.000000 
#    y 0.000000 2.035000 0.000000 
#    z 0.000000 0.000000 1.808950 
# 
# From -- ./inp_files/20396.got.cif
#   From: 2010.05.17/outbox.cif.g08.bks.cpg/sg56_11_cif.got.tgz:20396.got - 2010.06.03 13:42:01.
