data_PCOD9433717
_publ_section_title
;
Structure prediction by ZEFSAII (Michael W. Deem and Ramdas Pophale) SiO2 
 PCOD9433717
Probable space group: P C C N
;
_chemical_formula_sum "Si O2"
_cell_formula_units_Z 56
_cell_length_a 19.088052
_cell_length_b 14.168749
_cell_length_c 9.275653
_cell_angle_alpha 90.000000
_cell_angle_beta 90.000000
_cell_angle_gamma 90.000000
_cell_volume 2508.635765
_symmetry_space_group_name_H-M "P C C N"
_symmetry_group_IT_number 56
_symmetry_cell_setting 'orthorhombic'
loop_
_space_group_symop_operation_xyz
x,y,z
1/2-x,1/2-y,z
1/2+x,-y,1/2-z
-x,1/2+y,1/2-z
-x,-y,-z
1/2+x,1/2+y,-z
1/2-x,y,1/2+z
x,1/2-y,1/2+z
loop_
_atom_site_type_symbol
_atom_site_label
_atom_site_fract_x
_atom_site_fract_y
_atom_site_fract_z
Si Si1 0.666692 0.328962 0.411738
Si Si2 0.967123 0.457909 0.856280
Si Si3 0.335496 0.054470 0.626357
Si Si4 0.093279 0.323745 0.847623
Si Si5 0.598896 0.611396 0.160115
Si Si6 0.813706 0.144642 0.752358
Si Si7 0.296308 0.345029 0.597677
O O1 0.604133 0.401319 0.385281
O O2 0.683712 0.329874 0.582869
O O3 0.648698 0.224817 0.349553
O O4 0.734634 0.355974 0.316087
O O5 0.949711 0.543217 0.751106
O O6 0.026546 0.385765 0.807281
O O7 0.000000 0.500000 0.000000
O O8 0.351572 0.145572 0.725202
O O9 0.384764 0.060916 0.489179
O O10 0.256527 0.068801 0.568862
O O11 0.343464 0.959472 0.717321
O O12 0.069377 0.216144 0.857619
O O13 0.136170 0.344325 0.993940
O O14 0.671664 0.634948 0.244658
O O15 0.250000 0.250000 0.575177
#
# Coordination Sequence:
#
# PCOD9433717 Si02
#       7
#     8   8   8   8   8   8   8
#     4  11  26  51  78 107 150 193 250 323 369 448
#     4  12  28  49  76 103 155 206 246 295 390 459
#     4  12  27  41  76 115 145 191 259 313 374 442
#     4  12  26  49  70 113 154 203 251 307 384 456
#     4  12  26  47  72 110 151 200 247 312 371 456
#     4  11  26  47  78 112 142 190 259 314 382 428
#     4  12  23  45  76 107 156 194 245 319 386 440
#
# _framework density 22.322890999999998
#
# number of rings (size 3 to 8) (size 9 to 14) (size 15 to 20)
#    0.000    0.286    4.286    4.286    8.000    2.857 
#    0.000    0.000    0.000    0.000    0.000    0.000 
#    0.000    0.000    0.000    0.000    0.000    0.000 
#
# Total GULP energy -313248.245984 kJ/mol
# GULP energy per Si atom -5593.718678 kJ/mol
# Density = 2.227208 g / cm^3
# Si number density = 22.322891 Si / 1000 Ang^3
#
#
#
# Elastic Constant Matrix: (Units=GPa)
#
#
# Indices 1 2 3 4 5 6 
#
# 1 56.0012 32.1075 16.0507 0.0000 0.0000 0.0000
# 2 32.1075 89.7429 18.6682 0.0000 0.0000 0.0000
# 3 16.0507 18.6682 113.1383 0.0000 0.0000 0.0000
# 4 0.0000 0.0000 0.0000 24.9756 0.0000 0.0000
# 5 0.0000 0.0000 0.0000 0.0000 26.7146 0.0000
# 6 0.0000 0.0000 0.0000 0.0000 0.0000 19.4649
#
#
#
# Elastic Compliance Matrix: (Units=1/GPa)
#
#
# Indices 1 2 3 4 5 6 
#
# 1 0.022878 -0.007777 -0.001962 0.000000 0.000000 0.000000
# 2 -0.007777 0.014183 -0.001237 0.000000 0.000000 0.000000
# 3 -0.001962 -0.001237 0.009321 0.000000 0.000000 0.000000
# 4 0.000000 0.000000 0.000000 0.040039 0.000000 0.000000
# 5 0.000000 0.000000 0.000000 0.000000 0.037433 0.000000
# 6 0.000000 0.000000 0.000000 0.000000 0.000000 0.051375
#
#
# Mechanical properties :
#
#
# Convention : Reuss Voigt Hill
#
# Bulk Modulus (GPa) = 40.93429 43.61502 42.27465
# Shear Modulus (GPa) = 24.35179 27.03475 25.69327
#
# Velocity S-wave (km/s) = 3.30644 3.48383 3.39629
# Velocity P-wave (km/s) = 5.74055 5.98025 5.86163
#
# Compressibility (1/GPa) = 0.02442940
#
# Stress axis : x y z
#
# Youngs Moduli (GPa) = 43.71015 70.50898 107.28192
#
# Poissons Ratio (x) = 0.54834 0.21053
# Poissons Ratio (y) = 0.33993 0.13270
# Poissons Ratio (z) = 0.08578 0.08721
#
# Static dielectric constant tensor:
#      x y z
#    x 1.901950 0.000000 0.000000 
#    y 0.000000 1.856360 0.000000 
#    z 0.000000 0.000000 1.835140 
# 
# From -- ./inp_files/4471.got.cif
#   From: 2010.05.17/outbox.cif.g08.bks.cpg/sg56_3_cif.got.tgz:4471.got - 2010.06.03 13:42:01.
