data_PCOD9433956
_publ_section_title
;
Structure prediction by ZEFSAII (Michael W. Deem and Ramdas Pophale) SiO2 
 PCOD9433956
Probable space group: P C C N
;
_chemical_formula_sum "Si O2"
_cell_formula_units_Z 40
_cell_length_a 9.000000
_cell_length_b 9.000000
_cell_length_c 24.000000
_cell_angle_alpha 90.000000
_cell_angle_beta 90.000000
_cell_angle_gamma 90.000000
_cell_volume 1944.000000
_symmetry_space_group_name_H-M "P C C N"
_symmetry_group_IT_number 56
_symmetry_cell_setting 'orthorhombic'
loop_
_space_group_symop_operation_xyz
x,y,z
1/2-x,1/2-y,z
1/2+x,-y,1/2-z
-x,1/2+y,1/2-z
-x,-y,-z
1/2+x,1/2+y,-z
1/2-x,y,1/2+z
x,1/2-y,1/2+z
loop_
_atom_site_type_symbol
_atom_site_label
_atom_site_fract_x
_atom_site_fract_y
_atom_site_fract_z
Si Si1 0.110182 0.143207 0.144921
Si Si2 0.564742 0.933032 0.556435
Si Si3 0.773104 0.424565 0.768411
Si Si4 0.050076 0.562983 0.823504
Si Si5 0.575996 0.577110 0.554992
O O1 0.250000 0.250000 0.122885
O O2 0.000885 0.265536 0.172079
O O3 0.181421 0.031619 0.189783
O O4 0.017602 0.036592 0.102802
O O5 0.536685 0.753765 0.558793
O O6 0.744657 0.944014 0.553864
O O7 0.500000 0.000000 0.500000
O O8 0.750000 0.250000 0.781220
O O9 0.710673 0.449898 0.705849
O O10 0.939565 0.475728 0.781943
O O11 0.033090 0.497334 0.885726
O O12 0.500000 0.500000 0.500000
#
# Coordination Sequence:
#
# PCOD9433956 Si02
#       5
#     8   8   8   8   8
#     4  10  24  44  70 103 142 183 232 294 352 417
#     4  11  26  45  75 101 141 184 235 291 349 425
#     4  11  24  43  69  99 139 183 233 281 348 404
#     4  11  25  44  71 102 140 183 231 289 343 418
#     4  11  27  48  72 106 139 184 236 289 359 414
#
# _framework density 20.576132000000001
#
# number of rings (size 3 to 8) (size 9 to 14) (size 15 to 20)
#    0.000    1.200    0.000    3.600   14.000    2.400 
#    7.200    0.000    0.000    0.000    0.000    0.000 
#    0.000    0.000    0.000    0.000    0.000    0.000 
#
# Total GULP energy -223484.011446 kJ/mol
# GULP energy per Si atom -5587.100286 kJ/mol
# Density = 2.052930 g / cm^3
# Si number density = 20.576132 Si / 1000 Ang^3
#
#
#
# Elastic Constant Matrix: (Units=GPa)
#
#
# Indices 1 2 3 4 5 6 
#
# 1 103.4456 46.4974 55.1240 0.0000 0.0000 0.0000
# 2 46.4974 178.9150 61.3040 0.0000 0.0000 0.0000
# 3 55.1240 61.3040 118.3474 0.0000 0.0000 0.0000
# 4 0.0000 0.0000 0.0000 38.9215 0.0000 0.0000
# 5 0.0000 0.0000 0.0000 0.0000 46.5881 0.0000
# 6 0.0000 0.0000 0.0000 0.0000 0.0000 45.1361
#
#
#
# Elastic Compliance Matrix: (Units=1/GPa)
#
#
# Indices 1 2 3 4 5 6 
#
# 1 0.013231 -0.001613 -0.005327 0.000000 0.000000 0.000000
# 2 -0.001613 0.006992 -0.002870 0.000000 0.000000 0.000000
# 3 -0.005327 -0.002870 0.012418 0.000000 0.000000 0.000000
# 4 0.000000 0.000000 0.000000 0.025693 0.000000 0.000000
# 5 0.000000 0.000000 0.000000 0.000000 0.021465 0.000000
# 6 0.000000 0.000000 0.000000 0.000000 0.000000 0.022155
#
#
# Mechanical properties :
#
#
# Convention : Reuss Voigt Hill
#
# Bulk Modulus (GPa) = 76.80949 80.72876 78.76912
# Shear Modulus (GPa) = 39.70960 41.98134 40.84547
#
# Velocity S-wave (km/s) = 4.39781 4.52186 4.46027
# Velocity P-wave (km/s) = 7.94973 8.15980 8.05545
#
# Compressibility (1/GPa) = 0.01301923
#
# Stress axis : x y z
#
# Youngs Moduli (GPa) = 75.58198 143.01970 80.52955
#
# Poissons Ratio (x) = 0.23072 0.42898
# Poissons Ratio (y) = 0.12193 0.23116
# Poissons Ratio (z) = 0.40262 0.41053
#
# Static dielectric constant tensor:
#      x y z
#    x 1.789570 0.000000 0.000000 
#    y 0.000000 1.725410 0.000000 
#    z 0.000000 0.000000 1.731330 
# 
# From -- ./inp_files/20302.got.cif
#   From: 2010.05.17/outbox.ucp.g08.bks.cvg/sg56_11_cif.got.tgz:20302.got - 2010.06.11 16:37:52.
