data_PCOD9433510
_publ_section_title
;
Structure prediction by ZEFSAII (Michael W. Deem and Ramdas Pophale) SiO2 
 PCOD9433510
Probable space group: P C C N
;
_chemical_formula_sum "Si O2"
_cell_formula_units_Z 36
_cell_length_a 11.888699
_cell_length_b 6.433313
_cell_length_c 22.312502
_cell_angle_alpha 90.000000
_cell_angle_beta 90.000000
_cell_angle_gamma 90.000000
_cell_volume 1706.543196
_symmetry_space_group_name_H-M "P C C N"
_symmetry_group_IT_number 56
_symmetry_cell_setting 'orthorhombic'
loop_
_space_group_symop_operation_xyz
x,y,z
1/2-x,1/2-y,z
1/2+x,-y,1/2-z
-x,1/2+y,1/2-z
-x,-y,-z
1/2+x,1/2+y,-z
1/2-x,y,1/2+z
x,1/2-y,1/2+z
loop_
_atom_site_type_symbol
_atom_site_label
_atom_site_fract_x
_atom_site_fract_y
_atom_site_fract_z
Si Si1 0.173220 0.446691 0.152927
Si Si2 0.588348 0.129105 0.150187
Si Si3 0.607573 0.053270 0.539929
Si Si4 0.250000 0.250000 0.880918
Si Si5 0.250000 0.750000 0.252312
Si Si6 0.250000 0.750000 0.057863
O O1 0.250000 0.250000 0.134706
O O2 0.237734 0.552435 0.208694
O O3 0.169493 0.620598 0.100957
O O4 0.042889 0.399253 0.164499
O O5 0.595902 0.251057 0.086122
O O6 0.643112 0.258510 0.204073
O O7 0.670833 0.926168 0.149967
O O8 0.695338 0.092023 0.487502
O O9 0.500000 0.000000 0.500000
O O10 0.657460 0.871458 0.580180
#
# Coordination Sequence:
#
# PCOD9433510 Si02
#       6
#     8   8   8   4   4   4
#     4  11  28  45  73 101 143 188 237 308 363 434
#     4  12  26  48  72 107 142 191 244 298 367 436
#     4  12  25  42  72 106 146 183 236 296 359 452
#     4  12  24  44  72 104 142 192 230 298 364 440
#     4  11  27  48  66 108 135 183 258 288 364 425
#     4  11  23  46  62 110 137 175 240 278 366 431
#
# _framework density 21.095275000000001
#
# number of rings (size 3 to 8) (size 9 to 14) (size 15 to 20)
#    0.000    0.444    4.444    2.667    9.333    3.556 
#    0.000    0.000    0.000    0.000    0.000    0.000 
#    0.000    0.000    0.000    0.000    0.000    0.000 
#
# Total GULP energy -200781.502592 kJ/mol
# GULP energy per Si atom -5577.263961 kJ/mol
# Density = 2.104726 g / cm^3
# Si number density = 21.095275 Si / 1000 Ang^3
#
#
#
# Elastic Constant Matrix: (Units=GPa)
#
#
# Indices 1 2 3 4 5 6 
#
# 1 68.1633 -2.3570 -5.7946 0.0000 0.0000 0.0000
# 2 -2.3570 62.6492 4.5353 0.0000 0.0000 0.0000
# 3 -5.7946 4.5353 80.7020 0.0000 0.0000 0.0000
# 4 0.0000 0.0000 0.0000 -55.3518 0.0000 0.0000
# 5 0.0000 0.0000 0.0000 0.0000 14.1433 0.0000
# 6 0.0000 0.0000 0.0000 0.0000 0.0000 28.8371
#
#
#
# Elastic Compliance Matrix: (Units=1/GPa)
#
#
# Indices 1 2 3 4 5 6 
#
# 1 0.014775 0.000481 0.001034 0.000000 0.000000 0.000000
# 2 0.000481 0.016043 -0.000867 0.000000 0.000000 0.000000
# 3 0.001034 -0.000867 0.012514 0.000000 0.000000 0.000000
# 4 0.000000 0.000000 0.000000 -0.018066 0.000000 0.000000
# 5 0.000000 0.000000 0.000000 0.000000 0.070705 0.000000
# 6 0.000000 0.000000 0.000000 0.000000 0.000000 0.034677
#
#
# Mechanical properties :
#
#
# Convention : Reuss Voigt Hill
#
# Bulk Modulus (GPa) = 22.40751 22.69798 22.55275
# Shear Modulus (GPa) = 34.66725 11.86779 23.26752
#
# Velocity S-wave (km/s) = 4.05824 2.37445 3.32471
# Velocity P-wave (km/s) = 5.71001 4.27790 5.04503
#
# Compressibility (1/GPa) = 0.04462789
#
# Stress axis : x y z
#
# Youngs Moduli (GPa) = 67.68108 62.33343 79.90902
#
# Poissons Ratio (x) = -0.02998 -0.08261
# Poissons Ratio (y) = -0.03256 0.06928
# Poissons Ratio (z) = -0.06997 0.05404
#
# Static dielectric constant tensor:
#      x y z
#    x 1.671730 0.000000 0.000000 
#    y 0.000000 1.743120 0.000000 
#    z 0.000000 0.000000 1.713590 
# 
# From -- ./inp_files/19921.got.cif
#   From: 2010.05.17/outbox.cif.g08.bks.cpg/sg56_10_cif.got.tgz:19921.got - 2010.06.03 13:42:01.
