data_PCOD9433554
_publ_section_title
;
Structure prediction by ZEFSAII (Michael W. Deem and Ramdas Pophale) SiO2 
 PCOD9433554
Probable space group: P C C N
;
_chemical_formula_sum "Si O2"
_cell_formula_units_Z 48
_cell_length_a 16.258115
_cell_length_b 14.156688
_cell_length_c 9.476594
_cell_angle_alpha 90.000000
_cell_angle_beta 90.000000
_cell_angle_gamma 90.000000
_cell_volume 2181.142935
_symmetry_space_group_name_H-M "P C C N"
_symmetry_group_IT_number 56
_symmetry_cell_setting 'orthorhombic'
loop_
_space_group_symop_operation_xyz
x,y,z
1/2-x,1/2-y,z
1/2+x,-y,1/2-z
-x,1/2+y,1/2-z
-x,-y,-z
1/2+x,1/2+y,-z
1/2-x,y,1/2+z
x,1/2-y,1/2+z
loop_
_atom_site_type_symbol
_atom_site_label
_atom_site_fract_x
_atom_site_fract_y
_atom_site_fract_z
Si Si1 0.565164 0.417638 0.024428
Si Si2 0.944925 0.792967 0.149900
Si Si3 0.768618 0.988426 0.918412
Si Si4 0.598483 0.440226 0.351399
Si Si5 0.473683 0.143585 0.051567
Si Si6 0.764812 0.639489 0.668581
O O1 0.521115 0.332887 0.940579
O O2 0.649944 0.452716 0.952474
O O3 0.500000 0.500000 0.000000
O O4 0.574876 0.408139 0.193520
O O5 0.971130 0.789106 0.312411
O O6 0.864823 0.860852 0.151451
O O7 0.922600 0.694619 0.073276
O O8 0.773434 0.897842 0.814340
O O9 0.696364 0.052784 0.857596
O O10 0.735928 0.938910 0.059490
O O11 0.561395 0.544036 0.390581
O O12 0.560002 0.376657 0.475152
O O13 0.750000 0.750000 0.649221
#
# Coordination Sequence:
#
# PCOD9433554 Si02
#       6
#     8   8   8   8   8   8
#     4  12  23  45  68  95 141 182 230 278 345 410
#     4  12  25  46  66 106 135 189 228 285 347 416
#     4  12  23  43  66  99 135 178 233 278 342 415
#     4  11  24  46  66 105 133 186 230 281 345 414
#     4  11  24  42  72  95 143 178 231 279 347 407
#     4  12  26  40  64 101 143 175 224 284 349 410
#
# _framework density 22.006810999999999
#
# number of rings (size 3 to 8) (size 9 to 14) (size 15 to 20)
#    0.000    0.333    6.667    2.500    4.667    1.333 
#    0.000    0.833    0.000    4.000    0.000    0.000 
#    0.000    0.000    0.000    0.000    0.000    0.000 
#
# Total GULP energy -267946.963307 kJ/mol
# GULP energy per Si atom -5582.228402 kJ/mol
# Density = 2.195672 g / cm^3
# Si number density = 22.006811 Si / 1000 Ang^3
#
#
#
# Elastic Constant Matrix: (Units=GPa)
#
#
# Indices 1 2 3 4 5 6 
#
# 1 99.8356 14.8964 39.0884 0.0000 0.0000 0.0000
# 2 14.8964 51.3949 14.0697 0.0000 0.0000 0.0000
# 3 39.0884 14.0697 123.6616 0.0000 0.0000 0.0000
# 4 0.0000 0.0000 0.0000 40.6199 0.0000 0.0000
# 5 0.0000 0.0000 0.0000 0.0000 33.4187 0.0000
# 6 0.0000 0.0000 0.0000 0.0000 0.0000 33.2041
#
#
#
# Elastic Compliance Matrix: (Units=1/GPa)
#
#
# Indices 1 2 3 4 5 6 
#
# 1 0.011725 -0.002460 -0.003426 0.000000 0.000000 0.000000
# 2 -0.002460 0.020599 -0.001566 0.000000 0.000000 0.000000
# 3 -0.003426 -0.001566 0.009348 0.000000 0.000000 0.000000
# 4 0.000000 0.000000 0.000000 0.024618 0.000000 0.000000
# 5 0.000000 0.000000 0.000000 0.000000 0.029923 0.000000
# 6 0.000000 0.000000 0.000000 0.000000 0.000000 0.030117
#
#
# Mechanical properties :
#
#
# Convention : Reuss Voigt Hill
#
# Bulk Modulus (GPa) = 37.36008 45.66679 41.51343
# Shear Modulus (GPa) = 33.29828 35.23772 34.26800
#
# Velocity S-wave (km/s) = 3.89407 4.00586 3.95036
# Velocity P-wave (km/s) = 6.10179 6.49555 6.30174
#
# Compressibility (1/GPa) = 0.02676654
#
# Stress axis : x y z
#
# Youngs Moduli (GPa) = 85.28741 48.54603 106.97744
#
# Poissons Ratio (x) = 0.11944 0.36653
# Poissons Ratio (y) = 0.20985 0.16752
# Poissons Ratio (z) = 0.29222 0.07602
#
# Static dielectric constant tensor:
#      x y z
#    x 1.855610 0.000000 0.000000 
#    y 0.000000 2.014250 0.000000 
#    z 0.000000 0.000000 1.865630 
# 
# From -- ./inp_files/3990.got.cif
#   From: 2010.05.17/outbox.cif.g08.bks.cpg/sg56_2_cif.got.tgz:3990.got - 2010.06.03 13:42:01.
