data_PCOD9433894
_publ_section_title
;
Structure prediction by ZEFSAII (Michael W. Deem and Ramdas Pophale) SiO2 
 PCOD9433894
Probable space group: P C C N
;
_chemical_formula_sum "Si O2"
_cell_formula_units_Z 64
_cell_length_a 8.789272
_cell_length_b 9.769933
_cell_length_c 31.178134
_cell_angle_alpha 90.000000
_cell_angle_beta 90.000000
_cell_angle_gamma 90.000000
_cell_volume 2677.285029
_symmetry_space_group_name_H-M "P C C N"
_symmetry_group_IT_number 56
_symmetry_cell_setting 'orthorhombic'
loop_
_space_group_symop_operation_xyz
x,y,z
1/2-x,1/2-y,z
1/2+x,-y,1/2-z
-x,1/2+y,1/2-z
-x,-y,-z
1/2+x,1/2+y,-z
1/2-x,y,1/2+z
x,1/2-y,1/2+z
loop_
_atom_site_type_symbol
_atom_site_label
_atom_site_fract_x
_atom_site_fract_y
_atom_site_fract_z
Si Si1 0.606707 0.992797 0.936570
Si Si2 0.291047 0.404778 0.410208
Si Si3 0.669056 0.598191 0.004126
Si Si4 0.866343 0.004640 0.343226
Si Si5 0.344884 0.388007 0.319917
Si Si6 0.073093 0.704958 0.440010
Si Si7 0.071992 0.724688 0.341220
Si Si8 0.652786 0.892645 0.276434
O O1 0.722099 0.999136 0.975624
O O2 0.694510 0.004962 0.891525
O O3 0.523387 0.847413 0.940093
O O4 0.459875 0.089056 0.930770
O O5 0.250000 0.250000 0.402327
O O6 0.178615 0.455533 0.446955
O O7 0.282595 0.465843 0.362415
O O8 0.750000 0.750000 0.006165
O O9 0.513152 0.626920 0.978995
O O10 0.742678 0.994929 0.306974
O O11 0.971503 0.866243 0.340556
O O12 0.980304 0.129798 0.334568
O O13 0.250000 0.250000 0.315087
O O14 0.355914 0.447079 0.272038
O O15 0.250000 0.750000 0.445819
O O16 0.050354 0.664746 0.389574
O O17 0.250000 0.750000 0.334474
O O18 0.002841 0.637966 0.301820
O O19 0.750000 0.750000 0.275898
#
# Coordination Sequence:
#
# PCOD9433894 Si02
#       8
#     8   8   8   8   8   8   8   8
#     4   9  16  28  47  70  95 122 162 213 256 301
#     4   9  17  29  46  70  95 128 172 210 247 299
#     4   9  16  27  47  72  94 125 167 212 254 303
#     4   9  17  29  47  70  95 128 165 207 262 317
#     4   9  18  31  47  71 102 134 169 213 259 311
#     4   9  17  29  45  70 102 128 155 204 268 319
#     4   9  17  29  47  72 100 127 160 209 268 324
#     4   9  17  30  47  69  96 128 167 214 265 318
#
# _framework density 23.904813999999998
#
# number of rings (size 3 to 8) (size 9 to 14) (size 15 to 20)
#    0.000    3.000    0.000    1.125    0.000    4.000 
#    0.000    0.625    0.000    0.000    0.000   38.500 
#    0.000    0.000    0.000    0.000    0.000    0.000 
#
# Total GULP energy -356874.935218 kJ/mol
# GULP energy per Si atom -5576.170863 kJ/mol
# Density = 2.385041 g / cm^3
# Si number density = 23.904814 Si / 1000 Ang^3
#
#
#
# Elastic Constant Matrix: (Units=GPa)
#
#
# Indices 1 2 3 4 5 6 
#
# 1 91.3106 12.3719 89.6027 0.0000 0.0000 0.0000
# 2 12.3719 24.5870 28.2970 0.0000 0.0000 0.0000
# 3 89.6027 28.2970 261.1423 0.0000 0.0000 0.0000
# 4 0.0000 0.0000 0.0000 21.4430 0.0000 0.0000
# 5 0.0000 0.0000 0.0000 0.0000 26.1423 0.0000
# 6 0.0000 0.0000 0.0000 0.0000 0.0000 28.4083
#
#
#
# Elastic Compliance Matrix: (Units=1/GPa)
#
#
# Indices 1 2 3 4 5 6 
#
# 1 0.016601 -0.002054 -0.005474 0.000000 0.000000 0.000000
# 2 -0.002054 0.046721 -0.004358 0.000000 0.000000 0.000000
# 3 -0.005474 -0.004358 0.006180 0.000000 0.000000 0.000000
# 4 0.000000 0.000000 0.000000 0.046635 0.000000 0.000000
# 5 0.000000 0.000000 0.000000 0.000000 0.038252 0.000000
# 6 0.000000 0.000000 0.000000 0.000000 0.000000 0.035201
#
#
# Mechanical properties :
#
#
# Convention : Reuss Voigt Hill
#
# Bulk Modulus (GPa) = 21.86709 70.84258 46.35483
# Shear Modulus (GPa) = 21.87183 31.64994 26.76088
#
# Velocity S-wave (km/s) = 3.02810 3.64263 3.34949
# Velocity P-wave (km/s) = 4.62529 6.88413 5.86449
#
# Compressibility (1/GPa) = 0.04573082
#
# Stress axis : x y z
#
# Youngs Moduli (GPa) = 60.23682 21.40367 161.82201
#
# Poissons Ratio (x) = 0.04396 0.88575
# Poissons Ratio (y) = 0.12373 0.70520
# Poissons Ratio (z) = 0.32971 0.09327
#
# Static dielectric constant tensor:
#      x y z
#    x 1.932330 0.000000 0.000000 
#    y 0.000000 2.024130 0.000000 
#    z 0.000000 0.000000 1.952750 
# 
# From -- ./inp_files/23377.got.cif
#   From: 2010.05.17/outbox.cif.g08.bks.cpg/sg56_12_cif.got.tgz:23377.got - 2010.06.03 13:42:01.
