data_PCOD9433272
_publ_section_title
;
Structure prediction by ZEFSAII (Michael W. Deem and Ramdas Pophale) SiO2 
 PCOD9433272
Probable space group: P C C N
;
_chemical_formula_sum "Si O2"
_cell_formula_units_Z 48
_cell_length_a 5.125211
_cell_length_b 17.578336
_cell_length_c 26.407969
_cell_angle_alpha 90.000000
_cell_angle_beta 90.000000
_cell_angle_gamma 90.000000
_cell_volume 2379.164728
_symmetry_space_group_name_H-M "P C C N"
_symmetry_group_IT_number 56
_symmetry_cell_setting 'orthorhombic'
loop_
_space_group_symop_operation_xyz
x,y,z
1/2-x,1/2-y,z
1/2+x,-y,1/2-z
-x,1/2+y,1/2-z
-x,-y,-z
1/2+x,1/2+y,-z
1/2-x,y,1/2+z
x,1/2-y,1/2+z
loop_
_atom_site_type_symbol
_atom_site_label
_atom_site_fract_x
_atom_site_fract_y
_atom_site_fract_z
Si Si1 0.441645 0.541114 0.110516
Si Si2 0.509011 0.800881 0.557566
Si Si3 0.042927 0.946070 0.409284
Si Si4 0.718614 0.660901 0.845834
Si Si5 0.611206 0.330652 0.050823
Si Si6 0.420183 0.020244 0.718365
O O1 0.459233 0.626268 0.091742
O O2 0.724856 0.502614 0.105459
O O3 0.362735 0.530708 0.168849
O O4 0.219340 0.493411 0.080573
O O5 0.750000 0.750000 0.574823
O O6 0.558899 0.828721 0.499811
O O7 0.250000 0.750000 0.556103
O O8 0.166433 0.894819 0.453353
O O9 0.976680 0.885057 0.364486
O O10 0.750000 0.750000 0.832765
O O11 0.549454 0.658135 0.897643
O O12 0.598446 0.607169 0.802359
O O13 0.750000 0.250000 0.055894
O O14 0.699251 0.998128 0.740702
#
# Coordination Sequence:
#
# PCOD9433272 Si02
#       6
#     8   8   8   8   8   8
#     4  11  24  44  66  91 130 174 215 271 331 393
#     4  11  26  44  65  94 133 184 224 262 318 396
#     4  11  21  38  63  98 128 164 207 264 331 386
#     4  11  22  40  68  98 131 169 210 273 335 398
#     4  11  22  37  67  98 140 167 213 268 327 385
#     4  11  24  43  66  92 128 164 215 278 334 380
#
# _framework density 20.175148
#
# number of rings (size 3 to 8) (size 9 to 14) (size 15 to 20)
#    0.000    1.000    5.000    3.500    2.333    1.333 
#    0.000    2.500    0.000    0.000    0.000    0.000 
#    0.000    0.000    0.000    0.000    0.000    0.000 
#
# Total GULP energy -268129.013616 kJ/mol
# GULP energy per Si atom -5586.021117 kJ/mol
# Density = 2.012923 g / cm^3
# Si number density = 20.175148 Si / 1000 Ang^3
#
#
#
# Elastic Constant Matrix: (Units=GPa)
#
#
# Indices 1 2 3 4 5 6 
#
# 1 93.6889 43.4065 10.4555 0.0000 0.0000 0.0000
# 2 43.4065 161.3936 57.3663 0.0000 0.0000 0.0000
# 3 10.4555 57.3663 52.7277 0.0000 0.0000 0.0000
# 4 0.0000 0.0000 0.0000 48.0096 0.0000 0.0000
# 5 0.0000 0.0000 0.0000 0.0000 41.7797 0.0000
# 6 0.0000 0.0000 0.0000 0.0000 0.0000 40.1167
#
#
#
# Elastic Compliance Matrix: (Units=1/GPa)
#
#
# Indices 1 2 3 4 5 6 
#
# 1 0.012308 -0.003983 0.001893 0.000000 0.000000 0.000000
# 2 -0.003983 0.011392 -0.011604 0.000000 0.000000 0.000000
# 3 0.001893 -0.011604 0.031215 0.000000 0.000000 0.000000
# 4 0.000000 0.000000 0.000000 0.020829 0.000000 0.000000
# 5 0.000000 0.000000 0.000000 0.000000 0.023935 0.000000
# 6 0.000000 0.000000 0.000000 0.000000 0.000000 0.024927
#
#
# Mechanical properties :
#
#
# Convention : Reuss Voigt Hill
#
# Bulk Modulus (GPa) = 36.32937 58.91853 47.62395
# Shear Modulus (GPa) = 31.02307 39.08667 35.05487
#
# Velocity S-wave (km/s) = 3.92559 4.40633 4.17289
# Velocity P-wave (km/s) = 6.21233 7.42661 6.84645
#
# Compressibility (1/GPa) = 0.02752594
#
# Stress axis : x y z
#
# Youngs Moduli (GPa) = 81.25000 87.78172 32.03570
#
# Poissons Ratio (x) = 0.34963 -0.06064
# Poissons Ratio (y) = 0.32361 0.37175
# Poissons Ratio (z) = -0.15379 1.01864
#
# Static dielectric constant tensor:
#      x y z
#    x 1.747470 0.000000 0.000000 
#    y 0.000000 1.712790 0.000000 
#    z 0.000000 0.000000 1.722950 
# 
# From -- ./inp_files/21675.got.cif
#   From: 2010.05.17/outbox.cif.g08.bks.cpg/sg56_11_cif.got.tgz:21675.got - 2010.06.03 13:42:01.
