data_PCOD9433803
_publ_section_title
;
Structure prediction by ZEFSAII (Michael W. Deem and Ramdas Pophale) SiO2 
 PCOD9433803
Probable space group: P C C N
;
_chemical_formula_sum "Si O2"
_cell_formula_units_Z 32
_cell_length_a 5.139309
_cell_length_b 13.915678
_cell_length_c 16.256377
_cell_angle_alpha 90.000000
_cell_angle_beta 90.000000
_cell_angle_gamma 90.000000
_cell_volume 1162.606813
_symmetry_space_group_name_H-M "P C C N"
_symmetry_group_IT_number 56
_symmetry_cell_setting 'orthorhombic'
loop_
_space_group_symop_operation_xyz
x,y,z
1/2-x,1/2-y,z
1/2+x,-y,1/2-z
-x,1/2+y,1/2-z
-x,-y,-z
1/2+x,1/2+y,-z
1/2-x,y,1/2+z
x,1/2-y,1/2+z
loop_
_atom_site_type_symbol
_atom_site_label
_atom_site_fract_x
_atom_site_fract_y
_atom_site_fract_z
Si Si1 0.591393 0.095081 0.666103
Si Si2 0.581685 0.123521 0.003804
Si Si3 0.432401 0.394833 0.891952
Si Si4 0.750000 0.750000 0.915968
Si Si5 0.250000 0.750000 0.701343
O O1 0.813054 0.099293 0.595408
O O2 0.339010 0.155237 0.632943
O O3 0.665639 0.160219 0.743216
O O4 0.563818 0.980966 0.675303
O O5 0.319763 0.096141 0.951363
O O6 0.812309 0.087974 0.946976
O O7 0.491390 0.231509 0.024529
O O8 0.510229 0.293216 0.850356
#
# Coordination Sequence:
#
# PCOD9433803 Si02
#       5
#     8   8   8   4   4
#     4  12  28  51  86 120 170 224 278 343 426 504
#     4  12  25  53  80 123 158 214 286 348 401 493
#     4  12  30  51  85 121 163 217 282 351 416 496
#     4  12  24  44  86 120 166 208 276 336 422 484
#     4  12  30  56  78 128 174 228 270 352 432 520
#
# _framework density 27.524355
#
# number of rings (size 3 to 8) (size 9 to 14) (size 15 to 20)
#    0.000    0.000    5.000    3.000    3.500    6.000 
#    0.000    0.000    0.000    0.000    0.000    0.000 
#    0.000    0.000    0.000    0.000    0.000    0.000 
#
# Total GULP energy -178586.716974 kJ/mol
# GULP energy per Si atom -5580.834905 kJ/mol
# Density = 2.746171 g / cm^3
# Si number density = 27.524355 Si / 1000 Ang^3
#
#
#
# Elastic Constant Matrix: (Units=GPa)
#
#
# Indices 1 2 3 4 5 6 
#
# 1 235.7551 37.5492 58.0259 0.0000 0.0000 0.0000
# 2 37.5492 126.4519 52.3151 0.0000 0.0000 0.0000
# 3 58.0259 52.3151 120.5964 0.0000 0.0000 0.0000
# 4 0.0000 0.0000 0.0000 49.7827 0.0000 0.0000
# 5 0.0000 0.0000 0.0000 0.0000 39.7296 0.0000
# 6 0.0000 0.0000 0.0000 0.0000 0.0000 27.0627
#
#
#
# Elastic Compliance Matrix: (Units=1/GPa)
#
#
# Indices 1 2 3 4 5 6 
#
# 1 0.004846 -0.000578 -0.002081 0.000000 0.000000 0.000000
# 2 -0.000578 0.009707 -0.003933 0.000000 0.000000 0.000000
# 3 -0.002081 -0.003933 0.010999 0.000000 0.000000 0.000000
# 4 0.000000 0.000000 0.000000 0.020087 0.000000 0.000000
# 5 0.000000 0.000000 0.000000 0.000000 0.025170 0.000000
# 6 0.000000 0.000000 0.000000 0.000000 0.000000 0.036951
#
#
# Mechanical properties :
#
#
# Convention : Reuss Voigt Hill
#
# Bulk Modulus (GPa) = 80.84862 86.50931 83.67897
# Shear Modulus (GPa) = 39.97853 45.64253 42.81053
#
# Velocity S-wave (km/s) = 3.81527 4.07659 3.94810
# Velocity P-wave (km/s) = 6.98897 7.32506 7.15898
#
# Compressibility (1/GPa) = 0.01236879
#
# Stress axis : x y z
#
# Youngs Moduli (GPa) = 206.35899 103.02029 90.91426
#
# Poissons Ratio (x) = 0.05955 0.18918
# Poissons Ratio (y) = 0.11929 0.35754
# Poissons Ratio (z) = 0.42941 0.40515
#
# Static dielectric constant tensor:
#      x y z
#    x 2.253890 0.000000 0.000000 
#    y 0.000000 2.312580 0.000000 
#    z 0.000000 0.000000 2.187110 
# 
# From -- ./inp_files/13743.got.cif
#   From: 2010.05.17/outbox.cif.g08.bks.cpg/sg56_7_cif.got.tgz:13743.got - 2010.06.03 13:42:01.
