data_PCOD9433455
_publ_section_title
;
Structure prediction by ZEFSAII (Michael W. Deem and Ramdas Pophale) SiO2 
 PCOD9433455
Probable space group: P C C N
;
_chemical_formula_sum "Si O2"
_cell_formula_units_Z 60
_cell_length_a 17.238775
_cell_length_b 9.439026
_cell_length_c 17.718612
_cell_angle_alpha 90.000000
_cell_angle_beta 90.000000
_cell_angle_gamma 90.000000
_cell_volume 2883.123738
_symmetry_space_group_name_H-M "P C C N"
_symmetry_group_IT_number 56
_symmetry_cell_setting 'orthorhombic'
loop_
_space_group_symop_operation_xyz
x,y,z
1/2-x,1/2-y,z
1/2+x,-y,1/2-z
-x,1/2+y,1/2-z
-x,-y,-z
1/2+x,1/2+y,-z
1/2-x,y,1/2+z
x,1/2-y,1/2+z
loop_
_atom_site_type_symbol
_atom_site_label
_atom_site_fract_x
_atom_site_fract_y
_atom_site_fract_z
Si Si1 0.706694 0.031649 0.931240
Si Si2 0.750000 0.750000 0.521761
Si Si3 0.132099 0.281432 0.344086
Si Si4 0.912349 0.308073 0.644488
Si Si5 0.873139 0.035026 0.717678
Si Si6 0.638265 0.311225 0.980593
Si Si7 0.196763 0.523671 0.247195
Si Si8 0.526035 0.452001 0.867746
O O1 0.643711 0.142955 0.964046
O O2 0.787583 0.112994 0.944627
O O3 0.692483 0.017380 0.842486
O O4 0.718242 0.881059 0.972216
O O5 0.820111 0.706745 0.577932
O O6 0.180429 0.370504 0.282875
O O7 0.048676 0.355130 0.350757
O O8 0.123239 0.121509 0.316461
O O9 0.916364 0.143408 0.662360
O O10 0.861389 0.332700 0.570037
O O11 0.868803 0.376845 0.716079
O O12 0.992325 0.388905 0.628700
O O13 0.782287 0.072259 0.727232
O O14 0.913703 0.048778 0.798804
O O15 0.565986 0.388669 0.941761
#
# Coordination Sequence:
#
# PCOD9433455 Si02
#       8
#     8   4   8   8   8   8   8   8
#     4  11  25  40  69 100 135 177 232 285 344 413
#     4  12  24  44  66 104 136 176 234 292 342 410
#     4  11  25  44  70  98 139 180 227 285 350 410
#     4  11  25  40  70  98 134 180 231 279 343 411
#     4  12  22  41  68  98 133 179 226 283 342 408
#     4  11  24  44  66  98 137 180 227 281 345 410
#     4  11  23  42  66 101 131 176 226 282 340 407
#     4  11  24  45  64  99 141 180 226 281 346 417
#
# _framework density 20.810759999999998
#
# number of rings (size 3 to 8) (size 9 to 14) (size 15 to 20)
#    0.000    0.800    2.667    4.800    7.467    1.067 
#    0.000    6.667    0.000    0.000    0.000    0.000 
#    0.000    0.000    0.000    0.000    0.000    0.000 
#
# Total GULP energy -335538.145800 kJ/mol
# GULP energy per Si atom -5592.302430 kJ/mol
# Density = 2.076339 g / cm^3
# Si number density = 20.810760 Si / 1000 Ang^3
#
#
#
# Elastic Constant Matrix: (Units=GPa)
#
#
# Indices 1 2 3 4 5 6 
#
# 1 54.3660 13.5945 7.7048 0.0000 0.0000 0.0000
# 2 13.5945 128.5791 38.0191 0.0000 0.0000 0.0000
# 3 7.7048 38.0191 140.8290 0.0000 0.0000 0.0000
# 4 0.0000 0.0000 0.0000 9.1539 0.0000 0.0000
# 5 0.0000 0.0000 0.0000 0.0000 29.7003 0.0000
# 6 0.0000 0.0000 0.0000 0.0000 0.0000 15.3399
#
#
#
# Elastic Compliance Matrix: (Units=1/GPa)
#
#
# Indices 1 2 3 4 5 6 
#
# 1 0.018931 -0.001842 -0.000538 0.000000 0.000000 0.000000
# 2 -0.001842 0.008631 -0.002229 0.000000 0.000000 0.000000
# 3 -0.000538 -0.002229 0.007732 0.000000 0.000000 0.000000
# 4 0.000000 0.000000 0.000000 0.109243 0.000000 0.000000
# 5 0.000000 0.000000 0.000000 0.000000 0.033670 0.000000
# 6 0.000000 0.000000 0.000000 0.000000 0.000000 0.065190
#
#
# Mechanical properties :
#
#
# Convention : Reuss Voigt Hill
#
# Bulk Modulus (GPa) = 38.35222 49.15680 43.75451
# Shear Modulus (GPa) = 19.13451 28.46920 23.80186
#
# Velocity S-wave (km/s) = 3.03554 3.70267 3.38557
# Velocity P-wave (km/s) = 5.54572 6.47702 6.02938
#
# Compressibility (1/GPa) = 0.02607411
#
# Stress axis : x y z
#
# Youngs Moduli (GPa) = 52.82392 115.85740 129.33071
#
# Poissons Ratio (x) = 0.21345 0.06962
# Poissons Ratio (y) = 0.09732 0.28833
# Poissons Ratio (z) = 0.02844 0.25829
#
# Static dielectric constant tensor:
#      x y z
#    x 1.754650 0.000000 0.000000 
#    y 0.000000 1.772850 0.000000 
#    z 0.000000 0.000000 1.721320 
# 
# From -- ./inp_files/16658.got.cif
#   From: 2010.05.17/outbox.cif.g08.bks.cpg/sg56_9_cif.got.tgz:16658.got - 2010.06.03 13:42:01.
