data_PCOD9433844
_publ_section_title
;
Structure prediction by ZEFSAII (Michael W. Deem and Ramdas Pophale) SiO2 
 PCOD9433844
Probable space group: P C C N
;
_chemical_formula_sum "Si O2"
_cell_formula_units_Z 36
_cell_length_a 6.411098
_cell_length_b 20.991040
_cell_length_c 11.811617
_cell_angle_alpha 90.000000
_cell_angle_beta 90.000000
_cell_angle_gamma 90.000000
_cell_volume 1589.555617
_symmetry_space_group_name_H-M "P C C N"
_symmetry_group_IT_number 56
_symmetry_cell_setting 'orthorhombic'
loop_
_space_group_symop_operation_xyz
x,y,z
1/2-x,1/2-y,z
1/2+x,-y,1/2-z
-x,1/2+y,1/2-z
-x,-y,-z
1/2+x,1/2+y,-z
1/2-x,y,1/2+z
x,1/2-y,1/2+z
loop_
_atom_site_type_symbol
_atom_site_label
_atom_site_fract_x
_atom_site_fract_y
_atom_site_fract_z
Si Si1 0.401461 0.905565 0.712673
Si Si2 0.768284 0.639687 0.537569
Si Si3 0.250000 0.250000 0.646159
Si Si4 0.338259 0.021898 0.094810
Si Si5 0.093053 0.801902 0.689478
O O1 0.551079 0.864671 0.630649
O O2 0.539678 0.939178 0.808177
O O3 0.228299 0.855408 0.754631
O O4 0.285506 0.962922 0.647138
O O5 0.764960 0.690919 0.438427
O O6 0.795543 0.572870 0.473509
O O7 0.555337 0.657661 0.605184
O O8 0.446586 0.238946 0.727839
O O9 0.500000 0.000000 0.000000
O O10 0.250000 0.750000 0.634025
#
# Coordination Sequence:
#
# PCOD9433844 Si02
#       5
#     8   8   4   8   8
#     4  12  28  47  76 111 158 191 259 312 372 469
#     4  12  26  49  73 109 151 201 248 308 387 452
#     4  12  28  44  78 106 148 202 252 314 384 444
#     4  12  26  47  77 112 150 203 246 311 387 446
#     4  12  26  48  72 109 149 193 256 311 369 456
#
# _framework density 22.647839999999999
#
# number of rings (size 3 to 8) (size 9 to 14) (size 15 to 20)
#    0.000    0.000    2.222    8.000    6.222    4.444 
#    0.000    0.000    0.000    0.000    0.000    0.000 
#    0.000    0.000    0.000    0.000    0.000    0.000 
#
# Total GULP energy -201264.949509 kJ/mol
# GULP energy per Si atom -5590.693042 kJ/mol
# Density = 2.259629 g / cm^3
# Si number density = 22.647840 Si / 1000 Ang^3
#
#
#
# Elastic Constant Matrix: (Units=GPa)
#
#
# Indices 1 2 3 4 5 6 
#
# 1 110.3271 52.8773 50.9959 0.0000 0.0000 0.0000
# 2 52.8773 129.8788 32.8754 0.0000 0.0000 0.0000
# 3 50.9959 32.8754 91.2327 0.0000 0.0000 0.0000
# 4 0.0000 0.0000 0.0000 47.6977 0.0000 0.0000
# 5 0.0000 0.0000 0.0000 0.0000 2.6179 0.0000
# 6 0.0000 0.0000 0.0000 0.0000 0.0000 61.1247
#
#
#
# Elastic Compliance Matrix: (Units=1/GPa)
#
#
# Indices 1 2 3 4 5 6 
#
# 1 0.013940 -0.004075 -0.006324 0.000000 0.000000 0.000000
# 2 -0.004075 0.009663 -0.001205 0.000000 0.000000 0.000000
# 3 -0.006324 -0.001205 0.014930 0.000000 0.000000 0.000000
# 4 0.000000 0.000000 0.000000 0.020965 0.000000 0.000000
# 5 0.000000 0.000000 0.000000 0.000000 0.381991 0.000000
# 6 0.000000 0.000000 0.000000 0.000000 0.000000 0.016360
#
#
# Mechanical properties :
#
#
# Convention : Reuss Voigt Hill
#
# Bulk Modulus (GPa) = 65.24330 67.21508 66.22919
# Shear Modulus (GPa) = 10.28460 35.26738 22.77599
#
# Velocity S-wave (km/s) = 2.13330 3.95043 3.17465
# Velocity P-wave (km/s) = 5.91086 7.10990 6.53792
#
# Compressibility (1/GPa) = 0.01532724
#
# Stress axis : x y z
#
# Youngs Moduli (GPa) = 71.73741 103.48453 66.98060
#
# Poissons Ratio (x) = 0.42166 0.42356
# Poissons Ratio (y) = 0.29230 0.08068
# Poissons Ratio (z) = 0.45364 0.12465
#
# Static dielectric constant tensor:
#      x y z
#    x 1.830170 0.000000 0.000000 
#    y 0.000000 1.845280 0.000000 
#    z 0.000000 0.000000 1.837100 
# 
# From -- ./inp_files/5535.got.cif
#   From: 2010.05.17/outbox.cif.g08.bks.cpg/sg56_3_cif.got.tgz:5535.got - 2010.06.03 13:42:01.
