data_PCOD9433617
_publ_section_title
;
Structure prediction by ZEFSAII (Michael W. Deem and Ramdas Pophale) SiO2 
 PCOD9433617
Probable space group: P C C N
;
_chemical_formula_sum "Si O2"
_cell_formula_units_Z 40
_cell_length_a 29.928038
_cell_length_b 4.734864
_cell_length_c 9.918323
_cell_angle_alpha 90.000000
_cell_angle_beta 90.000000
_cell_angle_gamma 90.000000
_cell_volume 1405.477842
_symmetry_space_group_name_H-M "P C C N"
_symmetry_group_IT_number 56
_symmetry_cell_setting 'orthorhombic'
loop_
_space_group_symop_operation_xyz
x,y,z
1/2-x,1/2-y,z
1/2+x,-y,1/2-z
-x,1/2+y,1/2-z
-x,-y,-z
1/2+x,1/2+y,-z
1/2-x,y,1/2+z
x,1/2-y,1/2+z
loop_
_atom_site_type_symbol
_atom_site_label
_atom_site_fract_x
_atom_site_fract_y
_atom_site_fract_z
Si Si1 0.111831 0.643072 0.098346
Si Si2 0.794437 0.086710 0.418183
Si Si3 0.108455 0.361975 0.425234
Si Si4 0.200145 0.358966 0.799924
Si Si5 0.029213 0.999144 0.761152
O O1 0.161331 0.732782 0.148558
O O2 0.066992 0.675699 0.180117
O O3 0.112000 0.314164 0.061730
O O4 0.107768 0.809985 0.960044
O O5 0.750000 0.250000 0.371367
O O6 0.799773 0.102379 0.579694
O O7 0.796391 0.772895 0.354782
O O8 0.152444 0.280270 0.343071
O O9 0.060048 0.318894 0.361842
O O10 0.250000 0.250000 0.844619
O O11 0.002325 0.248050 0.684586
#
# Coordination Sequence:
#
# PCOD9433617 Si02
#       5
#     8   8   8   8   8
#     4  11  25  47  73 106 151 195 252 321 389 470
#     4  11  25  48  77 113 159 209 262 324 395 480
#     4  11  25  46  73 108 148 198 252 318 393 469
#     4  11  24  47  74 112 155 206 256 316 389 473
#     4  12  26  46  73 107 144 194 258 324 395 461
#
# _framework density 28.460070000000002
#
# number of rings (size 3 to 8) (size 9 to 14) (size 15 to 20)
#    0.000    0.800    2.000    4.200    0.000   10.400 
#    7.200    1.000    0.000    0.000    0.000    0.000 
#    0.000    0.000    0.000    0.000    0.000    0.000 
#
# Total GULP energy -222713.521738 kJ/mol
# GULP energy per Si atom -5567.838043 kJ/mol
# Density = 2.839529 g / cm^3
# Si number density = 28.460070 Si / 1000 Ang^3
#
#
#
# Elastic Constant Matrix: (Units=GPa)
#
#
# Indices 1 2 3 4 5 6 
#
# 1 196.0713 35.0289 18.5849 0.0000 0.0000 0.0000
# 2 35.0289 100.0082 -0.8387 0.0000 0.0000 0.0000
# 3 18.5849 -0.8387 90.1479 0.0000 0.0000 0.0000
# 4 0.0000 0.0000 0.0000 27.4953 0.0000 0.0000
# 5 0.0000 0.0000 0.0000 0.0000 42.0788 0.0000
# 6 0.0000 0.0000 0.0000 0.0000 0.0000 60.8587
#
#
#
# Elastic Compliance Matrix: (Units=1/GPa)
#
#
# Indices 1 2 3 4 5 6 
#
# 1 0.005560 -0.001957 -0.001165 0.000000 0.000000 0.000000
# 2 -0.001957 0.010689 0.000503 0.000000 0.000000 0.000000
# 3 -0.001165 0.000503 0.011338 0.000000 0.000000 0.000000
# 4 0.000000 0.000000 0.000000 0.036370 0.000000 0.000000
# 5 0.000000 0.000000 0.000000 0.000000 0.023765 0.000000
# 6 0.000000 0.000000 0.000000 0.000000 0.000000 0.016431
#
#
# Mechanical properties :
#
#
# Convention : Reuss Voigt Hill
#
# Bulk Modulus (GPa) = 44.74440 54.64193 49.69316
# Shear Modulus (GPa) = 42.79337 48.31673 45.55505
#
# Velocity S-wave (km/s) = 3.88187 4.12479 4.00517
# Velocity P-wave (km/s) = 5.98731 6.47506 6.23595
#
# Compressibility (1/GPa) = 0.02234917
#
# Stress axis : x y z
#
# Youngs Moduli (GPa) = 179.84829 93.55445 88.20177
#
# Poissons Ratio (x) = 0.18311 0.10271
# Poissons Ratio (y) = 0.35202 -0.04436
# Poissons Ratio (z) = 0.20943 -0.04705
#
# Static dielectric constant tensor:
#      x y z
#    x 2.026670 0.000000 0.000000 
#    y 0.000000 2.246450 0.000000 
#    z 0.000000 0.000000 2.392220 
# 
# From -- ./inp_files/9003.got.cif
#   From: 2010.05.17/outbox.cif.g08.bks.cpg/sg56_5_cif.got.tgz:9003.got - 2010.06.03 13:42:01.
