data_PCOD9433004
_publ_section_title
;
Structure prediction by ZEFSAII (Michael W. Deem and Ramdas Pophale) SiO2 
 PCOD9433004
Probable space group: P C C N
;
_chemical_formula_sum "Si O2"
_cell_formula_units_Z 32
_cell_length_a 4.695361
_cell_length_b 8.751281
_cell_length_c 29.591314
_cell_angle_alpha 90.000000
_cell_angle_beta 90.000000
_cell_angle_gamma 90.000000
_cell_volume 1215.919624
_symmetry_space_group_name_H-M "P C C N"
_symmetry_group_IT_number 56
_symmetry_cell_setting 'orthorhombic'
loop_
_space_group_symop_operation_xyz
x,y,z
1/2-x,1/2-y,z
1/2+x,-y,1/2-z
-x,1/2+y,1/2-z
-x,-y,-z
1/2+x,1/2+y,-z
1/2-x,y,1/2+z
x,1/2-y,1/2+z
loop_
_atom_site_type_symbol
_atom_site_label
_atom_site_fract_x
_atom_site_fract_y
_atom_site_fract_z
Si Si1 0.750000 0.750000 0.568447
Si Si2 0.500000 0.000000 0.500000
Si Si3 0.567286 0.504638 0.188912
Si Si4 0.750000 0.250000 0.751557
Si Si5 0.750000 0.250000 0.570055
Si Si6 0.934279 0.495981 0.873161
O O1 0.588208 0.868648 0.536582
O O2 0.530124 0.650350 0.597976
O O3 0.417340 0.865945 0.462580
O O4 0.443727 0.642631 0.217522
O O5 0.555875 0.354116 0.219108
O O6 0.892577 0.518878 0.173672
O O7 0.390548 0.495152 0.142232
O O8 0.542151 0.354467 0.600501
#
# Coordination Sequence:
#
# PCOD9433004 Si02
#       6
#     4   4   8   4   4   8
#     4  10  24  46  76 112 152 198 250 312 376 448
#     4  10  24  46  70 108 148 192 248 304 372 444
#     4  12  28  50  76 111 151 199 253 311 377 449
#     4  12  29  50  79 112 154 200 254 316 379 448
#     4  10  25  44  73 108 150 196 248 308 373 446
#     4  11  26  47  76 111 151 200 251 310 376 448
#
# _framework density 26.317527999999999
#
# number of rings (size 3 to 8) (size 9 to 14) (size 15 to 20)
#    0.000    1.000    0.000    3.750    0.000   25.000 
#    0.000    0.000    0.000    0.000    0.000    0.000 
#    0.000    0.000    0.000    0.000    0.000    0.000 
#
# Total GULP energy -178863.928793 kJ/mol
# GULP energy per Si atom -5589.497775 kJ/mol
# Density = 2.625763 g / cm^3
# Si number density = 26.317528 Si / 1000 Ang^3
#
#
#
# Elastic Constant Matrix: (Units=GPa)
#
#
# Indices 1 2 3 4 5 6 
#
# 1 65.0015 29.5430 20.1203 0.0000 0.0000 0.0000
# 2 29.5430 240.6805 84.3496 0.0000 0.0000 0.0000
# 3 20.1203 84.3496 143.1114 0.0000 0.0000 0.0000
# 4 0.0000 0.0000 0.0000 22.8602 0.0000 0.0000
# 5 0.0000 0.0000 0.0000 0.0000 43.6511 0.0000
# 6 0.0000 0.0000 0.0000 0.0000 0.0000 31.7068
#
#
#
# Elastic Compliance Matrix: (Units=1/GPa)
#
#
# Indices 1 2 3 4 5 6 
#
# 1 0.016519 -0.001530 -0.001421 0.000000 0.000000 0.000000
# 2 -0.001530 0.005378 -0.002955 0.000000 0.000000 0.000000
# 3 -0.001421 -0.002955 0.008929 0.000000 0.000000 0.000000
# 4 0.000000 0.000000 0.000000 0.043744 0.000000 0.000000
# 5 0.000000 0.000000 0.000000 0.000000 0.022909 0.000000
# 6 0.000000 0.000000 0.000000 0.000000 0.000000 0.031539
#
#
# Mechanical properties :
#
#
# Convention : Reuss Voigt Hill
#
# Bulk Modulus (GPa) = 52.58851 79.64657 66.11754
# Shear Modulus (GPa) = 33.97480 40.62900 37.30190
#
# Velocity S-wave (km/s) = 3.59689 3.93338 3.76889
# Velocity P-wave (km/s) = 6.10539 7.13849 6.64206
#
# Compressibility (1/GPa) = 0.01901556
#
# Stress axis : x y z
#
# Youngs Moduli (GPa) = 60.53515 185.93501 111.99583
#
# Poissons Ratio (x) = 0.28444 0.15913
# Poissons Ratio (y) = 0.09260 0.33093
# Poissons Ratio (z) = 0.08601 0.54941
#
# Static dielectric constant tensor:
#      x y z
#    x 2.061100 0.000000 0.000000 
#    y 0.000000 1.980250 0.000000 
#    z 0.000000 0.000000 1.988770 
# 
# From -- ./inp_files/22753.got.cif
#   From: 2010.05.17/outbox.cif.g08.bks.cpg/sg56_12_cif.got.tgz:22753.got - 2010.06.03 13:42:01.
