data_PCOD9433827
_publ_section_title
;
Structure prediction by ZEFSAII (Michael W. Deem and Ramdas Pophale) SiO2 
 PCOD9433827
Probable space group: P C C N
;
_chemical_formula_sum "Si O2"
_cell_formula_units_Z 28
_cell_length_a 7.675899
_cell_length_b 7.600617
_cell_length_c 19.790882
_cell_angle_alpha 90.000000
_cell_angle_beta 90.000000
_cell_angle_gamma 90.000000
_cell_volume 1154.631096
_symmetry_space_group_name_H-M "P C C N"
_symmetry_group_IT_number 56
_symmetry_cell_setting 'orthorhombic'
loop_
_space_group_symop_operation_xyz
x,y,z
1/2-x,1/2-y,z
1/2+x,-y,1/2-z
-x,1/2+y,1/2-z
-x,-y,-z
1/2+x,1/2+y,-z
1/2-x,y,1/2+z
x,1/2-y,1/2+z
loop_
_atom_site_type_symbol
_atom_site_label
_atom_site_fract_x
_atom_site_fract_y
_atom_site_fract_z
Si Si1 0.948103 0.682933 0.692530
Si Si2 0.750000 0.250000 0.901105
Si Si3 0.158427 0.091201 0.537239
Si Si4 0.950278 0.276088 0.656934
O O1 0.750000 0.750000 0.687609
O O2 0.969792 0.483558 0.668199
O O3 0.084252 0.789697 0.646432
O O4 0.009383 0.691972 0.770117
O O5 0.719886 0.425920 0.944259
O O6 0.250000 0.250000 0.496906
O O7 0.076429 0.191921 0.601758
O O8 0.000000 0.000000 0.500000
O O9 0.750000 0.250000 0.637005
#
# Coordination Sequence:
#
# PCOD9433827 Si02
#       4
#     8   4   8   8
#     4  12  25  45  79 118 158 196 246 319 399 468
#     4  12  26  52  78 116 156 198 260 316 392 466
#     4  12  29  52  80 109 155 211 267 324 384 465
#     4  12  25  46  76 117 154 198 253 317 391 465
#
# _framework density 24.250171000000002
#
# number of rings (size 3 to 8) (size 9 to 14) (size 15 to 20)
#    0.000    0.000    4.286    6.000    2.000    4.571 
#    0.000    0.000    0.000    0.000    0.000    0.000 
#    0.000    0.000    0.000    0.000    0.000    0.000 
#
# Total GULP energy -156973.615448 kJ/mol
# GULP energy per Si atom -5606.200552 kJ/mol
# Density = 2.419498 g / cm^3
# Si number density = 24.250171 Si / 1000 Ang^3
#
#
#
# Elastic Constant Matrix: (Units=GPa)
#
#
# Indices 1 2 3 4 5 6 
#
# 1 127.0519 17.7007 13.5962 0.0000 0.0000 0.0000
# 2 17.7007 167.9081 24.7927 0.0000 0.0000 0.0000
# 3 13.5962 24.7927 41.5628 0.0000 0.0000 0.0000
# 4 0.0000 0.0000 0.0000 23.7249 0.0000 0.0000
# 5 0.0000 0.0000 0.0000 0.0000 63.3249 0.0000
# 6 0.0000 0.0000 0.0000 0.0000 0.0000 43.3847
#
#
#
# Elastic Compliance Matrix: (Units=1/GPa)
#
#
# Indices 1 2 3 4 5 6 
#
# 1 0.008196 -0.000513 -0.002375 0.000000 0.000000 0.000000
# 2 -0.000513 0.006563 -0.003747 0.000000 0.000000 0.000000
# 3 -0.002375 -0.003747 0.027072 0.000000 0.000000 0.000000
# 4 0.000000 0.000000 0.000000 0.042150 0.000000 0.000000
# 5 0.000000 0.000000 0.000000 0.000000 0.015792 0.000000
# 6 0.000000 0.000000 0.000000 0.000000 0.000000 0.023050
#
#
# Mechanical properties :
#
#
# Convention : Reuss Voigt Hill
#
# Bulk Modulus (GPa) = 35.01311 49.85579 42.43445
# Shear Modulus (GPa) = 34.33749 44.78246 39.55997
#
# Velocity S-wave (km/s) = 3.76702 4.30197 4.04335
# Velocity P-wave (km/s) = 5.77843 6.72901 6.27175
#
# Compressibility (1/GPa) = 0.02856073
#
# Stress axis : x y z
#
# Youngs Moduli (GPa) = 122.00357 152.36879 36.93853
#
# Poissons Ratio (x) = 0.07822 0.08773
# Poissons Ratio (y) = 0.06263 0.13841
# Poissons Ratio (z) = 0.28976 0.57092
#
# Static dielectric constant tensor:
#      x y z
#    x 1.963270 0.000000 0.000000 
#    y 0.000000 1.959060 0.000000 
#    z 0.000000 0.000000 1.927680 
# 
# From -- ./inp_files/14301.got.cif
#   From: 2010.05.17/outbox.cif.g08.bks.cpg/sg56_8_cif.got.tgz:14301.got - 2010.06.03 13:42:01.
