data_PCOD9433150
_publ_section_title
;
Structure prediction by ZEFSAII (Michael W. Deem and Ramdas Pophale) SiO2 
 PCOD9433150
Probable space group: P C C N
;
_chemical_formula_sum "Si O2"
_cell_formula_units_Z 40
_cell_length_a 5.576144
_cell_length_b 17.392985
_cell_length_c 17.327354
_cell_angle_alpha 90.000000
_cell_angle_beta 90.000000
_cell_angle_gamma 90.000000
_cell_volume 1680.507098
_symmetry_space_group_name_H-M "P C C N"
_symmetry_group_IT_number 56
_symmetry_cell_setting 'orthorhombic'
loop_
_space_group_symop_operation_xyz
x,y,z
1/2-x,1/2-y,z
1/2+x,-y,1/2-z
-x,1/2+y,1/2-z
-x,-y,-z
1/2+x,1/2+y,-z
1/2-x,y,1/2+z
x,1/2-y,1/2+z
loop_
_atom_site_type_symbol
_atom_site_label
_atom_site_fract_x
_atom_site_fract_y
_atom_site_fract_z
Si Si1 0.051648 0.698858 0.728637
Si Si2 0.750000 0.250000 0.125097
Si Si3 0.800038 0.994996 0.935870
Si Si4 0.820546 0.471982 0.270616
Si Si5 0.037494 0.635692 0.990685
Si Si6 0.250000 0.250000 0.900671
O O1 0.250000 0.750000 0.685501
O O2 0.032525 0.742879 0.811421
O O3 0.159291 0.617133 0.747613
O O4 0.850434 0.690112 0.663911
O O5 0.778843 0.323177 0.068799
O O6 0.921342 0.004801 0.854047
O O7 0.644075 0.071238 0.952574
O O8 0.655502 0.915349 0.943448
O O9 0.000000 0.000000 0.000000
O O10 0.537894 0.491619 0.278910
O O11 0.920918 0.702877 0.042071
#
# Coordination Sequence:
#
# PCOD9433150 Si02
#       6
#     8   4   8   8   8   4
#     4  10  26  47  72 105 152 198 250 315 387 465
#     4  10  26  46  72 104 152 186 256 314 386 462
#     4  11  27  49  76 105 156 199 259 320 390 468
#     4  12  29  47  79 112 153 202 258 318 392 469
#     4  11  27  46  75 113 145 202 256 320 393 462
#     4  12  26  46  78 106 150 198 258 318 396 472
#
# _framework density 23.802340000000001
#
# number of rings (size 3 to 8) (size 9 to 14) (size 15 to 20)
#    0.600    0.400    0.000    3.600   21.000    0.800 
#    0.000    0.000    0.000    0.000    0.000    0.000 
#    0.000    0.000    0.000    0.000    0.000    0.000 
#
# Total GULP energy -222809.388659 kJ/mol
# GULP energy per Si atom -5570.234716 kJ/mol
# Density = 2.374816 g / cm^3
# Si number density = 23.802340 Si / 1000 Ang^3
#
#
#
# Elastic Constant Matrix: (Units=GPa)
#
#
# Indices 1 2 3 4 5 6 
#
# 1 42.1566 31.2265 -6.2805 0.0000 0.0000 0.0000
# 2 31.2265 127.7389 22.2535 0.0000 0.0000 0.0000
# 3 -6.2805 22.2535 104.1747 0.0000 0.0000 0.0000
# 4 0.0000 0.0000 0.0000 25.2902 0.0000 0.0000
# 5 0.0000 0.0000 0.0000 0.0000 -55.4481 0.0000
# 6 0.0000 0.0000 0.0000 0.0000 0.0000 30.8219
#
#
#
# Elastic Compliance Matrix: (Units=1/GPa)
#
#
# Indices 1 2 3 4 5 6 
#
# 1 0.030163 -0.007987 0.003525 0.000000 0.000000 0.000000
# 2 -0.007987 0.010246 -0.002670 0.000000 0.000000 0.000000
# 3 0.003525 -0.002670 0.010382 0.000000 0.000000 0.000000
# 4 0.000000 0.000000 0.000000 0.039541 0.000000 0.000000
# 5 0.000000 0.000000 0.000000 0.000000 -0.018035 0.000000
# 6 0.000000 0.000000 0.000000 0.000000 0.000000 0.032444
#
#
# Mechanical properties :
#
#
# Convention : Reuss Voigt Hill
#
# Bulk Modulus (GPa) = 27.37854 40.94100 34.15977
# Shear Modulus (GPa) = 38.11473 15.25752 26.68613
#
# Velocity S-wave (km/s) = 4.00597 2.53456 3.35200
# Velocity P-wave (km/s) = 5.73799 5.07967 5.41884
#
# Compressibility (1/GPa) = 0.03652495
#
# Stress axis : x y z
#
# Youngs Moduli (GPa) = 33.15354 97.59666 96.31886
#
# Poissons Ratio (x) = 0.77955 -0.33950
# Poissons Ratio (y) = 0.26481 0.25720
# Poissons Ratio (z) = -0.11686 0.26061
#
# Static dielectric constant tensor:
#      x y z
#    x 2.148340 0.000000 0.000000 
#    y 0.000000 1.921310 0.000000 
#    z 0.000000 0.000000 1.909310 
# 
# From -- ./inp_files/13869.got.cif
#   From: 2010.05.17/outbox.cif.g08.bks.cpg/sg56_7_cif.got.tgz:13869.got - 2010.06.03 13:42:01.
