data_PCOD9433479
_publ_section_title
;
Structure prediction by ZEFSAII (Michael W. Deem and Ramdas Pophale) SiO2 
 PCOD9433479
Probable space group: P C C N
;
_chemical_formula_sum "Si O2"
_cell_formula_units_Z 32
_cell_length_a 8.921031
_cell_length_b 14.258420
_cell_length_c 10.813170
_cell_angle_alpha 90.000000
_cell_angle_beta 90.000000
_cell_angle_gamma 90.000000
_cell_volume 1375.433135
_symmetry_space_group_name_H-M "P C C N"
_symmetry_group_IT_number 56
_symmetry_cell_setting 'orthorhombic'
loop_
_space_group_symop_operation_xyz
x,y,z
1/2-x,1/2-y,z
1/2+x,-y,1/2-z
-x,1/2+y,1/2-z
-x,-y,-z
1/2+x,1/2+y,-z
1/2-x,y,1/2+z
x,1/2-y,1/2+z
loop_
_atom_site_type_symbol
_atom_site_label
_atom_site_fract_x
_atom_site_fract_y
_atom_site_fract_z
Si Si1 0.669082 0.352436 0.327084
Si Si2 0.315208 0.354275 0.296419
Si Si3 0.121651 0.082951 0.028700
Si Si4 0.820335 0.351954 0.560977
O O1 0.750000 0.250000 0.327073
O O2 0.490778 0.346337 0.330947
O O3 0.736835 0.401669 0.447637
O O4 0.703321 0.397998 0.194456
O O5 0.250000 0.250000 0.275623
O O6 0.228298 0.398683 0.413076
O O7 0.306565 0.410271 0.165483
O O8 0.995261 0.165234 0.035392
O O9 0.000000 0.000000 0.000000
O O10 0.750000 0.250000 0.572766
#
# Coordination Sequence:
#
# PCOD9433479 Si02
#       4
#     8   8   8   8
#     4   9  18  32  57  91 119 155 212 268 313 374
#     4  11  23  43  70  98 132 181 231 278 335 414
#     4  11  26  44  64 101 141 175 225 288 349 404
#     4   9  18  35  58  86 120 163 213 260 313 392
#
# _framework density 23.2654
#
# number of rings (size 3 to 8) (size 9 to 14) (size 15 to 20)
#    0.000    2.000    0.000    3.750    0.000   12.000 
#    0.000    2.500    0.000    0.000    0.000    0.000 
#    0.000    0.000    0.000    0.000    0.000    0.000 
#
# Total GULP energy -178501.148331 kJ/mol
# GULP energy per Si atom -5578.160885 kJ/mol
# Density = 2.321245 g / cm^3
# Si number density = 23.265400 Si / 1000 Ang^3
#
#
#
# Elastic Constant Matrix: (Units=GPa)
#
#
# Indices 1 2 3 4 5 6 
#
# 1 147.6522 42.3699 120.3751 0.0000 0.0000 0.0000
# 2 42.3699 61.8964 57.1125 0.0000 0.0000 0.0000
# 3 120.3751 57.1125 302.5796 0.0000 0.0000 0.0000
# 4 0.0000 0.0000 0.0000 41.2869 0.0000 0.0000
# 5 0.0000 0.0000 0.0000 0.0000 53.1044 0.0000
# 6 0.0000 0.0000 0.0000 0.0000 0.0000 20.3765
#
#
#
# Elastic Compliance Matrix: (Units=1/GPa)
#
#
# Indices 1 2 3 4 5 6 
#
# 1 0.010845 -0.004169 -0.003528 0.000000 0.000000 0.000000
# 2 -0.004169 0.021166 -0.002337 0.000000 0.000000 0.000000
# 3 -0.003528 -0.002337 0.005149 0.000000 0.000000 0.000000
# 4 0.000000 0.000000 0.000000 0.024221 0.000000 0.000000
# 5 0.000000 0.000000 0.000000 0.000000 0.018831 0.000000
# 6 0.000000 0.000000 0.000000 0.000000 0.000000 0.049076
#
#
# Mechanical properties :
#
#
# Convention : Reuss Voigt Hill
#
# Bulk Modulus (GPa) = 58.49987 105.76034 82.13010
# Shear Modulus (GPa) = 32.24742 42.43826 37.34284
#
# Velocity S-wave (km/s) = 3.72703 4.27557 4.01069
# Velocity P-wave (km/s) = 6.61212 8.36247 7.53827
#
# Compressibility (1/GPa) = 0.01709406
#
# Stress axis : x y z
#
# Youngs Moduli (GPa) = 92.21048 47.24640 194.20070
#
# Poissons Ratio (x) = 0.19695 0.68505
# Poissons Ratio (y) = 0.38439 0.45378
# Poissons Ratio (z) = 0.32527 0.11040
#
# Static dielectric constant tensor:
#      x y z
#    x 1.905730 0.000000 0.000000 
#    y 0.000000 2.232550 0.000000 
#    z 0.000000 0.000000 1.993020 
# 
# From -- ./inp_files/5937.got.cif
#   From: 2010.05.17/outbox.cif.g08.bks.cpg/sg56_3_cif.got.tgz:5937.got - 2010.06.03 13:42:01.
