data_PCOD9433805
_publ_section_title
;
Structure prediction by ZEFSAII (Michael W. Deem and Ramdas Pophale) SiO2 
 PCOD9433805
Probable space group: P C C N
;
_chemical_formula_sum "Si O2"
_cell_formula_units_Z 36
_cell_length_a 6.714636
_cell_length_b 10.594538
_cell_length_c 22.686841
_cell_angle_alpha 90.000000
_cell_angle_beta 90.000000
_cell_angle_gamma 90.000000
_cell_volume 1613.907073
_symmetry_space_group_name_H-M "P C C N"
_symmetry_group_IT_number 56
_symmetry_cell_setting 'orthorhombic'
loop_
_space_group_symop_operation_xyz
x,y,z
1/2-x,1/2-y,z
1/2+x,-y,1/2-z
-x,1/2+y,1/2-z
-x,-y,-z
1/2+x,1/2+y,-z
1/2-x,y,1/2+z
x,1/2-y,1/2+z
loop_
_atom_site_type_symbol
_atom_site_label
_atom_site_fract_x
_atom_site_fract_y
_atom_site_fract_z
Si Si1 0.250000 0.250000 0.489882
Si Si2 0.342038 0.612488 0.825010
Si Si3 0.405114 0.639192 0.585214
Si Si4 0.402929 0.366749 0.291376
Si Si5 0.080099 0.442349 0.560286
O O1 0.383456 0.339357 0.447766
O O2 0.094607 0.301364 0.537431
O O3 0.250000 0.750000 0.838967
O O4 0.497132 0.635633 0.772340
O O5 0.192747 0.504773 0.801654
O O6 0.447118 0.551851 0.882140
O O7 0.250000 0.750000 0.568044
O O8 0.444426 0.650002 0.654758
O O9 0.292658 0.508549 0.572045
O O10 0.250000 0.250000 0.295607
O O11 0.000000 0.500000 0.500000
#
# Coordination Sequence:
#
# PCOD9433805 Si02
#       5
#     4   8   8   8   8
#     4  12  26  44  72 106 146 198 248 304 376 450
#     4  12  28  46  76 112 153 198 256 319 383 454
#     4  12  24  47  74 105 144 197 251 306 376 452
#     4  12  25  49  76 109 149 198 253 315 385 451
#     4  12  27  45  72 107 151 195 247 310 376 454
#
# _framework density 22.306118999999999
#
# number of rings (size 3 to 8) (size 9 to 14) (size 15 to 20)
#    0.000    0.000    3.333    6.667    7.778    0.000 
#    0.000    0.000    0.000    0.000    0.000    0.000 
#    0.000    0.000    0.000    0.000    0.000    0.000 
#
# Total GULP energy -201049.679914 kJ/mol
# GULP energy per Si atom -5584.713331 kJ/mol
# Density = 2.225535 g / cm^3
# Si number density = 22.306119 Si / 1000 Ang^3
#
#
#
# Elastic Constant Matrix: (Units=GPa)
#
#
# Indices 1 2 3 4 5 6 
#
# 1 87.9669 28.8845 55.7315 0.0000 0.0000 0.0000
# 2 28.8845 84.3786 2.1937 0.0000 0.0000 0.0000
# 3 55.7315 2.1937 136.0265 0.0000 0.0000 0.0000
# 4 0.0000 0.0000 0.0000 36.0116 0.0000 0.0000
# 5 0.0000 0.0000 0.0000 0.0000 28.2949 0.0000
# 6 0.0000 0.0000 0.0000 0.0000 0.0000 59.4802
#
#
#
# Elastic Compliance Matrix: (Units=1/GPa)
#
#
# Indices 1 2 3 4 5 6 
#
# 1 0.017906 -0.005941 -0.007240 0.000000 0.000000 0.000000
# 2 -0.005941 0.013828 0.002211 0.000000 0.000000 0.000000
# 3 -0.007240 0.002211 0.010282 0.000000 0.000000 0.000000
# 4 0.000000 0.000000 0.000000 0.027769 0.000000 0.000000
# 5 0.000000 0.000000 0.000000 0.000000 0.035342 0.000000
# 6 0.000000 0.000000 0.000000 0.000000 0.000000 0.016812
#
#
# Mechanical properties :
#
#
# Convention : Reuss Voigt Hill
#
# Bulk Modulus (GPa) = 49.81347 53.55460 51.68404
# Shear Modulus (GPa) = 33.20667 39.52815 36.36741
#
# Velocity S-wave (km/s) = 3.86253 4.21417 4.04217
# Velocity P-wave (km/s) = 6.50172 6.90942 6.70867
#
# Compressibility (1/GPa) = 0.02007489
#
# Stress axis : x y z
#
# Youngs Moduli (GPa) = 55.84714 72.31859 97.25399
#
# Poissons Ratio (x) = 0.42967 0.70417
# Poissons Ratio (y) = 0.33181 -0.21505
# Poissons Ratio (z) = 0.40436 -0.15991
#
# Static dielectric constant tensor:
#      x y z
#    x 1.783910 0.000000 0.000000 
#    y 0.000000 1.943250 0.000000 
#    z 0.000000 0.000000 1.772010 
# 
# From -- ./inp_files/19899.got.cif
#   From: 2010.05.17/outbox.cif.g08.bks.cpg/sg56_10_cif.got.tgz:19899.got - 2010.06.03 13:42:01.
