data_PCOD9433348
_publ_section_title
;
Structure prediction by ZEFSAII (Michael W. Deem and Ramdas Pophale) SiO2 
 PCOD9433348
Probable space group: P C C N
;
_chemical_formula_sum "Si O2"
_cell_formula_units_Z 36
_cell_length_a 5.382818
_cell_length_b 13.986706
_cell_length_c 22.033450
_cell_angle_alpha 90.000000
_cell_angle_beta 90.000000
_cell_angle_gamma 90.000000
_cell_volume 1658.852022
_symmetry_space_group_name_H-M "P C C N"
_symmetry_group_IT_number 56
_symmetry_cell_setting 'orthorhombic'
loop_
_space_group_symop_operation_xyz
x,y,z
1/2-x,1/2-y,z
1/2+x,-y,1/2-z
-x,1/2+y,1/2-z
-x,-y,-z
1/2+x,1/2+y,-z
1/2-x,y,1/2+z
x,1/2-y,1/2+z
loop_
_atom_site_type_symbol
_atom_site_label
_atom_site_fract_x
_atom_site_fract_y
_atom_site_fract_z
Si Si1 0.373889 0.624379 0.190249
Si Si2 0.059866 0.909060 0.808352
Si Si3 0.250000 0.250000 0.238452
Si Si4 0.244438 0.559197 0.930825
Si Si5 0.751649 0.069832 0.936377
O O1 0.512657 0.521931 0.188798
O O2 0.175849 0.608675 0.242875
O O3 0.545272 0.707242 0.216137
O O4 0.272215 0.636682 0.122414
O O5 0.222967 0.884992 0.867606
O O6 0.826911 0.838253 0.804760
O O7 0.496462 0.494684 0.935493
O O8 0.994773 0.495256 0.927342
O O9 0.232063 0.612488 0.995781
#
# Coordination Sequence:
#
# PCOD9433348 Si02
#       5
#     8   8   4   8   8
#     4  11  22  40  66  93 134 175 221 277 334 394
#     4  11  22  40  66  93 134 175 221 277 334 394
#     4  12  26  40  62 100 132 176 226 278 330 390
#     4   9  19  36  64  97 129 170 219 269 330 396
#     4   9  19  36  64  97 129 170 219 269 330 396
#
# _framework density 21.701753
#
# number of rings (size 3 to 8) (size 9 to 14) (size 15 to 20)
#    0.000    1.778    2.222    2.000    6.222    0.000 
#    0.000    1.111    0.000    5.333    0.000    0.000 
#    0.000    0.000    0.000    0.000    0.000    0.000 
#
# Total GULP energy -200628.151855 kJ/mol
# GULP energy per Si atom -5573.004218 kJ/mol
# Density = 2.165236 g / cm^3
# Si number density = 21.701753 Si / 1000 Ang^3
#
#
#
# Elastic Constant Matrix: (Units=GPa)
#
#
# Indices 1 2 3 4 5 6 
#
# 1 85.0262 6.6034 19.2974 0.0000 0.0000 0.0000
# 2 6.6034 69.7649 33.8984 0.0000 0.0000 0.0000
# 3 19.2974 33.8984 194.4412 0.0000 0.0000 0.0000
# 4 0.0000 0.0000 0.0000 -17.4519 0.0000 0.0000
# 5 0.0000 0.0000 0.0000 0.0000 34.8157 0.0000
# 6 0.0000 0.0000 0.0000 0.0000 0.0000 13.8109
#
#
#
# Elastic Compliance Matrix: (Units=1/GPa)
#
#
# Indices 1 2 3 4 5 6 
#
# 1 0.012056 -0.000612 -0.001090 0.000000 0.000000 0.000000
# 2 -0.000612 0.015691 -0.002675 0.000000 0.000000 0.000000
# 3 -0.001090 -0.002675 0.005717 0.000000 0.000000 0.000000
# 4 0.000000 0.000000 0.000000 -0.057300 0.000000 0.000000
# 5 0.000000 0.000000 0.000000 0.000000 0.028723 0.000000
# 6 0.000000 0.000000 0.000000 0.000000 0.000000 0.072407
#
#
# Mechanical properties :
#
#
# Convention : Reuss Voigt Hill
#
# Bulk Modulus (GPa) = 40.46593 52.09231 46.27912
# Shear Modulus (GPa) = 53.03133 25.53048 39.28091
#
# Velocity S-wave (km/s) = 4.94868 3.43363 4.25906
# Velocity P-wave (km/s) = 7.16516 6.30679 6.74963
#
# Compressibility (1/GPa) = 0.02471215
#
# Stress axis : x y z
#
# Youngs Moduli (GPa) = 82.94672 63.72891 174.90319
#
# Poissons Ratio (x) = 0.03897 0.19062
# Poissons Ratio (y) = 0.05073 0.46785
# Poissons Ratio (z) = 0.09040 0.17047
#
# Static dielectric constant tensor:
#      x y z
#    x 2.364990 0.000000 0.000000 
#    y 0.000000 1.828400 0.000000 
#    z 0.000000 0.000000 1.842620 
# 
# From -- ./inp_files/17362.got.cif
#   From: 2010.05.17/outbox.cif.g08.bks.cpg/sg56_9_cif.got.tgz:17362.got - 2010.06.03 13:42:01.
