data_PCOD9433943
_publ_section_title
;
Structure prediction by ZEFSAII (Michael W. Deem and Ramdas Pophale) SiO2 
 PCOD9433943
Probable space group: P C C N
;
_chemical_formula_sum "Si O2"
_cell_formula_units_Z 40
_cell_length_a 9.000000
_cell_length_b 9.000000
_cell_length_c 27.000000
_cell_angle_alpha 90.000000
_cell_angle_beta 90.000000
_cell_angle_gamma 90.000000
_cell_volume 2187.000000
_symmetry_space_group_name_H-M "P C C N"
_symmetry_group_IT_number 56
_symmetry_cell_setting 'orthorhombic'
loop_
_space_group_symop_operation_xyz
x,y,z
1/2-x,1/2-y,z
1/2+x,-y,1/2-z
-x,1/2+y,1/2-z
-x,-y,-z
1/2+x,1/2+y,-z
1/2-x,y,1/2+z
x,1/2-y,1/2+z
loop_
_atom_site_type_symbol
_atom_site_label
_atom_site_fract_x
_atom_site_fract_y
_atom_site_fract_z
Si Si1 0.250000 0.250000 0.846498
Si Si2 0.533365 0.824204 0.296222
Si Si3 0.483133 0.798558 0.413550
Si Si4 0.750000 0.750000 0.488204
Si Si5 0.698352 0.992727 0.072571
Si Si6 0.661450 0.934560 0.744712
O O1 0.179986 0.374987 0.882252
O O2 0.153001 0.155857 0.807402
O O3 0.528461 0.825980 0.355950
O O4 0.678998 0.907018 0.271740
O O5 0.548462 0.652617 0.280454
O O6 0.392424 0.902802 0.270456
O O7 0.618931 0.806704 0.452060
O O8 0.357981 0.923228 0.424998
O O9 0.414359 0.631886 0.421288
O O10 0.695739 0.613408 0.523797
#
# Coordination Sequence:
#
# PCOD9433943 Si02
#       6
#     4   8   8   4   8   8
#     4   9  18  39  54  84 112 155 202 225 278 362
#     4  10  22  37  60  87 120 159 194 243 282 353
#     4  11  22  39  61  91 117 155 202 241 300 350
#     4  11  22  41  60  90 122 143 202 259 292 346
#     4  10  22  37  66  81 115 165 192 239 304 360
#     4  10  22  37  58  86 121 158 195 237 292 337
#
# _framework density 18.289895000000001
#
# number of rings (size 3 to 8) (size 9 to 14) (size 15 to 20)
#    0.000    2.000    2.000    2.400    5.600    0.800 
#    0.000    0.000    0.000    0.000    0.000    0.000 
#    0.000    0.000    0.000    0.000    0.000    0.000 
#
# Total GULP energy -222853.412323 kJ/mol
# GULP energy per Si atom -5571.335308 kJ/mol
# Density = 1.824827 g / cm^3
# Si number density = 18.289895 Si / 1000 Ang^3
#
#
#
# Elastic Constant Matrix: (Units=GPa)
#
#
# Indices 1 2 3 4 5 6 
#
# 1 59.0809 16.2159 38.0467 0.0000 0.0000 0.0000
# 2 16.2159 64.2615 22.9620 0.0000 0.0000 0.0000
# 3 38.0467 22.9620 143.2079 0.0000 0.0000 0.0000
# 4 0.0000 0.0000 0.0000 31.7283 0.0000 0.0000
# 5 0.0000 0.0000 0.0000 0.0000 24.7496 0.0000
# 6 0.0000 0.0000 0.0000 0.0000 0.0000 33.0359
#
#
#
# Elastic Compliance Matrix: (Units=1/GPa)
#
#
# Indices 1 2 3 4 5 6 
#
# 1 0.021149 -0.003531 -0.005053 0.000000 0.000000 0.000000
# 2 -0.003531 0.017097 -0.001803 0.000000 0.000000 0.000000
# 3 -0.005053 -0.001803 0.008614 0.000000 0.000000 0.000000
# 4 0.000000 0.000000 0.000000 0.031518 0.000000 0.000000
# 5 0.000000 0.000000 0.000000 0.000000 0.040405 0.000000
# 6 0.000000 0.000000 0.000000 0.000000 0.000000 0.030270
#
#
# Mechanical properties :
#
#
# Convention : Reuss Voigt Hill
#
# Bulk Modulus (GPa) = 38.33472 46.77772 42.55622
# Shear Modulus (GPa) = 28.00779 30.52447 29.26613
#
# Velocity S-wave (km/s) = 3.91746 4.08968 4.00450
# Velocity P-wave (km/s) = 6.43949 6.92329 6.68576
#
# Compressibility (1/GPa) = 0.02608601
#
# Stress axis : x y z
#
# Youngs Moduli (GPa) = 47.28377 58.49039 116.08622
#
# Poissons Ratio (x) = 0.20655 0.58653
# Poissons Ratio (y) = 0.16698 0.20932
# Poissons Ratio (z) = 0.23890 0.10546
#
# Static dielectric constant tensor:
#      x y z
#    x 1.658770 0.000000 0.000000 
#    y 0.000000 1.650190 0.000000 
#    z 0.000000 0.000000 1.623460 
# 
# From -- ./inp_files/21991.got.cif
#   From: 2010.05.17/outbox.ucp.g08.bks.cvg/sg56_11_cif.got.tgz:21991.got - 2010.06.11 16:37:52.
