data_PCOD9433842
_publ_section_title
;
Structure prediction by ZEFSAII (Michael W. Deem and Ramdas Pophale) SiO2 
 PCOD9433842
Probable space group: P C C N
;
_chemical_formula_sum "Si O2"
_cell_formula_units_Z 40
_cell_length_a 25.656085
_cell_length_b 5.008446
_cell_length_c 13.288030
_cell_angle_alpha 90.000000
_cell_angle_beta 90.000000
_cell_angle_gamma 90.000000
_cell_volume 1707.473536
_symmetry_space_group_name_H-M "P C C N"
_symmetry_group_IT_number 56
_symmetry_cell_setting 'orthorhombic'
loop_
_space_group_symop_operation_xyz
x,y,z
1/2-x,1/2-y,z
1/2+x,-y,1/2-z
-x,1/2+y,1/2-z
-x,-y,-z
1/2+x,1/2+y,-z
1/2-x,y,1/2+z
x,1/2-y,1/2+z
loop_
_atom_site_type_symbol
_atom_site_label
_atom_site_fract_x
_atom_site_fract_y
_atom_site_fract_z
Si Si1 0.874966 0.065647 0.382232
Si Si2 0.188518 0.733859 0.311890
Si Si3 0.652534 0.729384 0.561471
Si Si4 0.059313 0.948589 0.968877
Si Si5 0.033548 0.523940 0.255879
O O1 0.840972 0.189293 0.292926
O O2 0.905162 0.278298 0.454279
O O3 0.922528 0.926942 0.321756
O O4 0.837159 0.880169 0.449337
O O5 0.250000 0.750000 0.295741
O O6 0.176671 0.499127 0.393384
O O7 0.168235 0.004377 0.361063
O O8 0.590803 0.778552 0.549380
O O9 0.057427 0.837777 0.855383
O O10 0.000000 0.000000 0.000000
O O11 0.001003 0.264130 0.287714
#
# Coordination Sequence:
#
# PCOD9433842 Si02
#       5
#     8   8   8   8   8
#     4  12  27  47  81 112 162 202 264 320 395 461
#     4  12  30  55  81 111 153 204 269 335 399 460
#     4  12  27  52  79 115 157 200 262 327 387 475
#     4  12  26  46  78 118 163 207 256 313 392 482
#     4  12  27  43  72 111 160 211 255 307 382 470
#
# _framework density 23.426423
#
# number of rings (size 3 to 8) (size 9 to 14) (size 15 to 20)
#    0.000    0.000    6.000    1.800    8.400    2.400 
#    3.600    0.000    0.000    0.000    0.000    0.000 
#    0.000    0.000    0.000    0.000    0.000    0.000 
#
# Total GULP energy -223629.626452 kJ/mol
# GULP energy per Si atom -5590.740661 kJ/mol
# Density = 2.337310 g / cm^3
# Si number density = 23.426423 Si / 1000 Ang^3
#
#
#
# Elastic Constant Matrix: (Units=GPa)
#
#
# Indices 1 2 3 4 5 6 
#
# 1 109.5704 23.6061 32.6730 0.0000 0.0000 0.0000
# 2 23.6061 87.4678 -4.4983 0.0000 0.0000 0.0000
# 3 32.6730 -4.4983 116.0875 0.0000 0.0000 0.0000
# 4 0.0000 0.0000 0.0000 17.7027 0.0000 0.0000
# 5 0.0000 0.0000 0.0000 0.0000 21.6782 0.0000
# 6 0.0000 0.0000 0.0000 0.0000 0.0000 23.3722
#
#
#
# Elastic Compliance Matrix: (Units=1/GPa)
#
#
# Indices 1 2 3 4 5 6 
#
# 1 0.010720 -0.003054 -0.003135 0.000000 0.000000 0.000000
# 2 -0.003054 0.012326 0.001337 0.000000 0.000000 0.000000
# 3 -0.003135 0.001337 0.009548 0.000000 0.000000 0.000000
# 4 0.000000 0.000000 0.000000 0.056489 0.000000 0.000000
# 5 0.000000 0.000000 0.000000 0.000000 0.046129 0.000000
# 6 0.000000 0.000000 0.000000 0.000000 0.000000 0.042786
#
#
# Mechanical properties :
#
#
# Convention : Reuss Voigt Hill
#
# Bulk Modulus (GPa) = 43.68905 46.29860 44.99383
# Shear Modulus (GPa) = 25.59744 29.97362 27.78553
#
# Velocity S-wave (km/s) = 3.30915 3.58086 3.44768
# Velocity P-wave (km/s) = 5.76980 6.07479 5.92426
#
# Compressibility (1/GPa) = 0.02288903
#
# Stress axis : x y z
#
# Youngs Moduli (GPa) = 93.28783 81.13036 104.72890
#
# Poissons Ratio (x) = 0.24779 0.32836
# Poissons Ratio (y) = 0.28493 -0.14005
# Poissons Ratio (z) = 0.29249 -0.10849
#
# Static dielectric constant tensor:
#      x y z
#    x 1.966710 0.000000 0.000000 
#    y 0.000000 1.987390 0.000000 
#    z 0.000000 0.000000 1.976790 
# 
# From -- ./inp_files/9006.got.cif
#   From: 2010.05.17/outbox.cif.g08.bks.cpg/sg56_5_cif.got.tgz:9006.got - 2010.06.03 13:42:01.
