data_PCOD9433435
_publ_section_title
;
Structure prediction by ZEFSAII (Michael W. Deem and Ramdas Pophale) SiO2 
 PCOD9433435
Probable space group: P C C N
;
_chemical_formula_sum "Si O2"
_cell_formula_units_Z 48
_cell_length_a 8.267564
_cell_length_b 7.915670
_cell_length_c 32.107439
_cell_angle_alpha 90.000000
_cell_angle_beta 90.000000
_cell_angle_gamma 90.000000
_cell_volume 2101.217030
_symmetry_space_group_name_H-M "P C C N"
_symmetry_group_IT_number 56
_symmetry_cell_setting 'orthorhombic'
loop_
_space_group_symop_operation_xyz
x,y,z
1/2-x,1/2-y,z
1/2+x,-y,1/2-z
-x,1/2+y,1/2-z
-x,-y,-z
1/2+x,1/2+y,-z
1/2-x,y,1/2+z
x,1/2-y,1/2+z
loop_
_atom_site_type_symbol
_atom_site_label
_atom_site_fract_x
_atom_site_fract_y
_atom_site_fract_z
Si Si1 0.052799 0.927734 0.063549
Si Si2 0.572355 0.773848 0.639225
Si Si3 0.057276 0.759909 0.482479
Si Si4 0.943045 0.003487 0.791624
Si Si5 0.250000 0.750000 0.269015
Si Si6 0.750000 0.750000 0.347874
Si Si7 0.588532 0.976967 0.911613
O O1 0.936337 0.913368 0.102778
O O2 0.235560 0.942319 0.079666
O O3 0.024850 0.773376 0.031390
O O4 0.020919 0.096972 0.038709
O O5 0.750000 0.750000 0.654923
O O6 0.510738 0.610131 0.615213
O O7 0.473769 0.838419 0.677853
O O8 0.250000 0.750000 0.477806
O O9 0.985394 0.912150 0.455311
O O10 0.814443 0.893366 0.817401
O O11 0.101918 0.877882 0.786665
O O12 0.860395 0.101101 0.752719
O O13 0.883887 0.820767 0.379984
#
# Coordination Sequence:
#
# PCOD9433435 Si02
#       7
#     8   8   8   8   4   4   8
#     4  11  24  44  64 101 140 197 256 310 373 441
#     4  12  27  43  73 105 149 188 251 301 373 440
#     4  11  23  40  66  96 145 190 257 314 372 426
#     4  12  28  51  81 116 152 199 238 317 369 482
#     4  12  30  52  84 118 162 190 254 298 406 460
#     4  12  24  46  78 106 148 202 248 296 380 448
#     4  12  23  44  69 102 146 202 249 313 371 444
#
# _framework density 22.843903999999998
#
# number of rings (size 3 to 8) (size 9 to 14) (size 15 to 20)
#    0.000    0.333    3.333    4.500    4.667    5.333 
#    1.500    0.000    0.000    0.000    0.000    0.000 
#    0.000    0.000    0.000    0.000    0.000    0.000 
#
# Total GULP energy -267817.346419 kJ/mol
# GULP energy per Si atom -5579.528050 kJ/mol
# Density = 2.279191 g / cm^3
# Si number density = 22.843904 Si / 1000 Ang^3
#
#
#
# Elastic Constant Matrix: (Units=GPa)
#
#
# Indices 1 2 3 4 5 6 
#
# 1 43.2370 6.9858 2.0279 0.0000 0.0000 0.0000
# 2 6.9858 89.1108 15.5729 0.0000 0.0000 0.0000
# 3 2.0279 15.5729 48.4200 0.0000 0.0000 0.0000
# 4 0.0000 0.0000 0.0000 50.6590 0.0000 0.0000
# 5 0.0000 0.0000 0.0000 0.0000 27.4603 0.0000
# 6 0.0000 0.0000 0.0000 0.0000 0.0000 46.1461
#
#
#
# Elastic Compliance Matrix: (Units=1/GPa)
#
#
# Indices 1 2 3 4 5 6 
#
# 1 0.023433 -0.001765 -0.000414 0.000000 0.000000 0.000000
# 2 -0.001765 0.012023 -0.003793 0.000000 0.000000 0.000000
# 3 -0.000414 -0.003793 0.021890 0.000000 0.000000 0.000000
# 4 0.000000 0.000000 0.000000 0.019740 0.000000 0.000000
# 5 0.000000 0.000000 0.000000 0.000000 0.036416 0.000000
# 6 0.000000 0.000000 0.000000 0.000000 0.000000 0.021670
#
#
# Mechanical properties :
#
#
# Convention : Reuss Voigt Hill
#
# Bulk Modulus (GPa) = 22.02505 25.54899 23.78702
# Shear Modulus (GPa) = 30.81672 35.26517 33.04095
#
# Velocity S-wave (km/s) = 3.67688 3.93331 3.80725
# Velocity P-wave (km/s) = 5.26197 5.64237 5.45549
#
# Compressibility (1/GPa) = 0.04540285
#
# Stress axis : x y z
#
# Youngs Moduli (GPa) = 42.67514 83.17260 45.68323
#
# Poissons Ratio (x) = 0.14677 0.01891
# Poissons Ratio (y) = 0.07531 0.17328
# Poissons Ratio (z) = 0.01766 0.31547
#
# Static dielectric constant tensor:
#      x y z
#    x 1.834170 0.000000 0.000000 
#    y 0.000000 2.111380 0.000000 
#    z 0.000000 0.000000 1.827860 
# 
# From -- ./inp_files/23274.got.cif
#   From: 2010.05.17/outbox.cif.g08.bks.cpg/sg56_12_cif.got.tgz:23274.got - 2010.06.03 13:42:01.
