data_PCOD9433327
_publ_section_title
;
Structure prediction by ZEFSAII (Michael W. Deem and Ramdas Pophale) SiO2 
 PCOD9433327
Probable space group: P C C N
;
_chemical_formula_sum "Si O2"
_cell_formula_units_Z 48
_cell_length_a 12.980354
_cell_length_b 6.805895
_cell_length_c 23.523026
_cell_angle_alpha 90.000000
_cell_angle_beta 90.000000
_cell_angle_gamma 90.000000
_cell_volume 2078.092954
_symmetry_space_group_name_H-M "P C C N"
_symmetry_group_IT_number 56
_symmetry_cell_setting 'orthorhombic'
loop_
_space_group_symop_operation_xyz
x,y,z
1/2-x,1/2-y,z
1/2+x,-y,1/2-z
-x,1/2+y,1/2-z
-x,-y,-z
1/2+x,1/2+y,-z
1/2-x,y,1/2+z
x,1/2-y,1/2+z
loop_
_atom_site_type_symbol
_atom_site_label
_atom_site_fract_x
_atom_site_fract_y
_atom_site_fract_z
Si Si1 0.750000 0.250000 0.031532
Si Si2 0.954177 0.424340 0.191298
Si Si3 0.464098 0.833863 0.412716
Si Si4 0.180885 0.060389 0.059504
Si Si5 0.355735 0.571887 0.753974
Si Si6 0.250000 0.750000 0.149070
Si Si7 0.147189 0.191360 0.857661
O O1 0.858392 0.268422 0.065321
O O2 0.730452 0.441184 0.992709
O O3 0.002325 0.289038 0.142022
O O4 0.867041 0.287408 0.218888
O O5 0.913613 0.619538 0.162334
O O6 0.031439 0.484459 0.240938
O O7 0.564068 0.866511 0.451496
O O8 0.424707 0.044575 0.391646
O O9 0.250000 0.250000 0.073692
O O10 0.182400 0.894153 0.109413
O O11 0.307887 0.603066 0.692200
O O12 0.313139 0.428639 0.802032
O O13 0.250000 0.250000 0.891029
#
# Coordination Sequence:
#
# PCOD9433327 Si02
#       7
#     4   8   8   8   8   4   8
#     4  11  26  49  70 100 132 169 240 295 348 418
#     4  11  22  37  62  95 135 179 224 267 333 405
#     4  11  25  45  71 100 137 175 227 291 343 412
#     4  11  26  46  71 100 131 179 227 286 362 405
#     4  11  22  37  60  93 136 180 227 269 326 399
#     4  11  24  39  62  94 134 175 230 285 324 414
#     4  11  23  39  63  96 136 184 227 277 338 395
#
# _framework density 23.098099999999999
#
# number of rings (size 3 to 8) (size 9 to 14) (size 15 to 20)
#    0.000    1.000    1.667    4.500    2.333   10.000 
#    0.000    0.000    0.000    0.000    0.000    0.000 
#    0.000    0.000    0.000    0.000    0.000    0.000 
#
# Total GULP energy -268336.194470 kJ/mol
# GULP energy per Si atom -5590.337385 kJ/mol
# Density = 2.304553 g / cm^3
# Si number density = 23.098100 Si / 1000 Ang^3
#
#
#
# Elastic Constant Matrix: (Units=GPa)
#
#
# Indices 1 2 3 4 5 6 
#
# 1 119.5894 44.1739 18.5371 0.0000 0.0000 0.0000
# 2 44.1739 106.2479 23.7774 0.0000 0.0000 0.0000
# 3 18.5371 23.7774 59.8947 0.0000 0.0000 0.0000
# 4 0.0000 0.0000 0.0000 -1.8632 0.0000 0.0000
# 5 0.0000 0.0000 0.0000 0.0000 33.8413 0.0000
# 6 0.0000 0.0000 0.0000 0.0000 0.0000 33.5033
#
#
#
# Elastic Compliance Matrix: (Units=1/GPa)
#
#
# Indices 1 2 3 4 5 6 
#
# 1 0.010015 -0.003808 -0.001588 0.000000 0.000000 0.000000
# 2 -0.003808 0.011778 -0.003497 0.000000 0.000000 0.000000
# 3 -0.001588 -0.003497 0.018576 0.000000 0.000000 0.000000
# 4 0.000000 0.000000 0.000000 -0.536703 0.000000 0.000000
# 5 0.000000 0.000000 0.000000 0.000000 0.029550 0.000000
# 6 0.000000 0.000000 0.000000 0.000000 0.000000 0.029848
#
#
# Mechanical properties :
#
#
# Convention : Reuss Voigt Hill
#
# Bulk Modulus (GPa) = 44.28270 50.96766 47.62518
# Shear Modulus (GPa) = -12.14702 26.37919 7.11608
#
# Velocity S-wave (km/s) = -2.29571 3.38309 1.75713
# Velocity P-wave (km/s) = 3.49086 6.11343 4.97796
#
# Compressibility (1/GPa) = 0.02258218
#
# Stress axis : x y z
#
# Youngs Moduli (GPa) = 99.85210 84.90422 53.83414
#
# Poissons Ratio (x) = 0.32336 0.08547
# Poissons Ratio (y) = 0.38029 0.18826
# Poissons Ratio (z) = 0.15853 0.29691
#
# Static dielectric constant tensor:
#      x y z
#    x 1.920200 0.000000 0.000000 
#    y 0.000000 1.824870 0.000000 
#    z 0.000000 0.000000 1.888910 
# 
# From -- ./inp_files/22458.got.cif
#   From: 2010.05.17/outbox.cif.g08.bks.cpg/sg56_12_cif.got.tgz:22458.got - 2010.06.03 13:42:01.
