data_PCOD9433149
_publ_section_title
;
Structure prediction by ZEFSAII (Michael W. Deem and Ramdas Pophale) SiO2 
 PCOD9433149
Probable space group: P C C N
;
_chemical_formula_sum "Si O2"
_cell_formula_units_Z 48
_cell_length_a 16.304668
_cell_length_b 13.088890
_cell_length_c 9.812803
_cell_angle_alpha 90.000000
_cell_angle_beta 90.000000
_cell_angle_gamma 90.000000
_cell_volume 2094.150347
_symmetry_space_group_name_H-M "P C C N"
_symmetry_group_IT_number 56
_symmetry_cell_setting 'orthorhombic'
loop_
_space_group_symop_operation_xyz
x,y,z
1/2-x,1/2-y,z
1/2+x,-y,1/2-z
-x,1/2+y,1/2-z
-x,-y,-z
1/2+x,1/2+y,-z
1/2-x,y,1/2+z
x,1/2-y,1/2+z
loop_
_atom_site_type_symbol
_atom_site_label
_atom_site_fract_x
_atom_site_fract_y
_atom_site_fract_z
Si Si1 0.356675 0.065749 0.830374
Si Si2 0.250000 0.750000 0.119938
Si Si3 0.123508 0.413185 0.120219
Si Si4 0.461510 0.620021 0.222878
Si Si5 0.900598 0.279097 0.547876
Si Si6 0.250000 0.250000 0.203026
Si Si7 0.284762 0.572699 0.790208
O O1 0.315111 0.171172 0.776631
O O2 0.409955 0.987447 0.735973
O O3 0.274866 0.002133 0.869993
O O4 0.409548 0.080569 0.966926
O O5 0.327091 0.778602 0.030020
O O6 0.271370 0.657721 0.218443
O O7 0.189234 0.322170 0.120088
O O8 0.173041 0.511066 0.169798
O O9 0.054712 0.401225 0.234607
O O10 0.454289 0.672104 0.073852
O O11 0.437287 0.703938 0.339429
O O12 0.853259 0.371397 0.622364
#
# Coordination Sequence:
#
# PCOD9433149 Si02
#       7
#     8   4   8   8   8   4   8
#     4  11  23  45  69 100 138 186 237 295 354 427
#     4  12  20  42  70 108 136 182 224 294 358 438
#     4  11  26  45  69 100 137 192 238 297 351 434
#     4  12  27  43  73 104 147 184 233 304 368 420
#     4  12  24  42  68 108 141 182 232 297 365 431
#     4  10  26  46  72 100 138 196 246 288 348 444
#     4  11  22  41  70 100 136 178 235 286 360 428
#
# _framework density 22.920988999999999
#
# number of rings (size 3 to 8) (size 9 to 14) (size 15 to 20)
#    0.000    0.667    3.333    4.500    4.667    2.000 
#    0.000    0.000    0.000    0.000    0.000    0.000 
#    0.000    0.000    0.000    0.000    0.000    0.000 
#
# Total GULP energy -267961.277355 kJ/mol
# GULP energy per Si atom -5582.526612 kJ/mol
# Density = 2.286882 g / cm^3
# Si number density = 22.920989 Si / 1000 Ang^3
#
#
#
# Elastic Constant Matrix: (Units=GPa)
#
#
# Indices 1 2 3 4 5 6 
#
# 1 29.0371 11.9492 -15.2562 0.0000 0.0000 0.0000
# 2 11.9492 118.3298 32.0165 0.0000 0.0000 0.0000
# 3 -15.2562 32.0165 83.1914 0.0000 0.0000 0.0000
# 4 0.0000 0.0000 0.0000 13.5645 0.0000 0.0000
# 5 0.0000 0.0000 0.0000 0.0000 28.4273 0.0000
# 6 0.0000 0.0000 0.0000 0.0000 0.0000 2.7662
#
#
#
# Elastic Compliance Matrix: (Units=1/GPa)
#
#
# Indices 1 2 3 4 5 6 
#
# 1 0.043023 -0.007232 0.010673 0.000000 0.000000 0.000000
# 2 -0.007232 0.010649 -0.005425 0.000000 0.000000 0.000000
# 3 0.010673 -0.005425 0.016065 0.000000 0.000000 0.000000
# 4 0.000000 0.000000 0.000000 0.073722 0.000000 0.000000
# 5 0.000000 0.000000 0.000000 0.000000 0.035177 0.000000
# 6 0.000000 0.000000 0.000000 0.000000 0.000000 0.361508
#
#
# Mechanical properties :
#
#
# Convention : Reuss Voigt Hill
#
# Bulk Modulus (GPa) = 15.20461 31.99748 23.60105
# Shear Modulus (GPa) = 8.83337 22.40819 15.62078
#
# Velocity S-wave (km/s) = 1.96525 3.13010 2.61340
# Velocity P-wave (km/s) = 3.43475 5.20130 4.40744
#
# Compressibility (1/GPa) = 0.06576952
#
# Stress axis : x y z
#
# Youngs Moduli (GPa) = 23.24357 93.90508 62.24520
#
# Poissons Ratio (x) = 0.67916 -0.66435
# Poissons Ratio (y) = 0.16811 0.33766
# Poissons Ratio (z) = -0.24808 0.50940
#
# Static dielectric constant tensor:
#      x y z
#    x 1.960240 0.000000 0.000000 
#    y 0.000000 1.268600 0.000000 
#    z 0.000000 0.000000 1.879440 
# 
# From -- ./inp_files/3413.got.cif
#   From: 2010.05.17/outbox.cif.g08.bks.cpg/sg56_2_cif.got.tgz:3413.got - 2010.06.03 13:42:01.
