data_PCOD9433583
_publ_section_title
;
Structure prediction by ZEFSAII (Michael W. Deem and Ramdas Pophale) SiO2 
 PCOD9433583
Probable space group: P C C N
;
_chemical_formula_sum "Si O2"
_cell_formula_units_Z 24
_cell_length_a 12.351632
_cell_length_b 6.087180
_cell_length_c 13.914761
_cell_angle_alpha 90.000000
_cell_angle_beta 90.000000
_cell_angle_gamma 90.000000
_cell_volume 1046.203671
_symmetry_space_group_name_H-M "P C C N"
_symmetry_group_IT_number 56
_symmetry_cell_setting 'orthorhombic'
loop_
_space_group_symop_operation_xyz
x,y,z
1/2-x,1/2-y,z
1/2+x,-y,1/2-z
-x,1/2+y,1/2-z
-x,-y,-z
1/2+x,1/2+y,-z
1/2-x,y,1/2+z
x,1/2-y,1/2+z
loop_
_atom_site_type_symbol
_atom_site_label
_atom_site_fract_x
_atom_site_fract_y
_atom_site_fract_z
Si Si1 0.481685 0.864879 0.874491
Si Si2 0.143870 0.100259 0.231383
Si Si3 0.873425 0.233379 0.947994
O O1 0.538455 0.749202 0.785094
O O2 0.375472 0.983170 0.832793
O O3 0.571043 0.038749 0.912270
O O4 0.446191 0.695754 0.957058
O O5 0.250000 0.250000 0.228440
O O6 0.138212 0.932946 0.141462
O O7 0.750000 0.250000 0.981867
#
# Coordination Sequence:
#
# PCOD9433583 Si02
#       3
#     8   8   8
#     4  11  25  44  69 103 139 184 231 288 345 412
#     4  12  24  45  75 101 137 185 233 286 349 414
#     4  11  24  45  68 100 143 182 230 287 348 410
#
# _framework density 22.940085
#
# number of rings (size 3 to 8) (size 9 to 14) (size 15 to 20)
#    0.000    0.667    6.667    1.000    0.000    4.000 
#   12.000    0.000    0.000    0.000    0.000    0.000 
#    0.000    0.000    0.000    0.000    0.000    0.000 
#
# Total GULP energy -133931.029592 kJ/mol
# GULP energy per Si atom -5580.459566 kJ/mol
# Density = 2.288787 g / cm^3
# Si number density = 22.940085 Si / 1000 Ang^3
#
#
#
# Elastic Constant Matrix: (Units=GPa)
#
#
# Indices 1 2 3 4 5 6 
#
# 1 131.4250 62.6778 58.3275 0.0000 0.0000 0.0000
# 2 62.6778 70.8982 41.2751 0.0000 0.0000 0.0000
# 3 58.3275 41.2751 93.8100 0.0000 0.0000 0.0000
# 4 0.0000 0.0000 0.0000 51.6637 0.0000 0.0000
# 5 0.0000 0.0000 0.0000 0.0000 32.6310 0.0000
# 6 0.0000 0.0000 0.0000 0.0000 0.0000 26.2009
#
#
#
# Elastic Compliance Matrix: (Units=1/GPa)
#
#
# Indices 1 2 3 4 5 6 
#
# 1 0.014455 -0.010145 -0.004524 0.000000 0.000000 0.000000
# 2 -0.010145 0.026082 -0.005168 0.000000 0.000000 0.000000
# 3 -0.004524 -0.005168 0.015746 0.000000 0.000000 0.000000
# 4 0.000000 0.000000 0.000000 0.019356 0.000000 0.000000
# 5 0.000000 0.000000 0.000000 0.000000 0.030646 0.000000
# 6 0.000000 0.000000 0.000000 0.000000 0.000000 0.038167
#
#
# Mechanical properties :
#
#
# Convention : Reuss Voigt Hill
#
# Bulk Modulus (GPa) = 60.20574 68.96601 64.58587
# Shear Modulus (GPa) = 26.36260 31.02263 28.69261
#
# Velocity S-wave (km/s) = 3.39365 3.68140 3.54045
# Velocity P-wave (km/s) = 6.45427 6.94255 6.70286
#
# Compressibility (1/GPa) = 0.01660971
#
# Stress axis : x y z
#
# Youngs Moduli (GPa) = 69.18016 38.34006 63.50682
#
# Poissons Ratio (x) = 0.38897 0.28729
# Poissons Ratio (y) = 0.70186 0.32820
# Poissons Ratio (z) = 0.31295 0.19814
#
# Static dielectric constant tensor:
#      x y z
#    x 1.823490 0.000000 0.000000 
#    y 0.000000 1.952750 0.000000 
#    z 0.000000 0.000000 1.858090 
# 
# From -- ./inp_files/9286.got.cif
#   From: 2010.05.17/outbox.cif.g08.bks.cpg/sg56_5_cif.got.tgz:9286.got - 2010.06.03 13:42:01.
