data_PCOD9433273
_publ_section_title
;
Structure prediction by ZEFSAII (Michael W. Deem and Ramdas Pophale) SiO2 
 PCOD9433273
Probable space group: P C C N
;
_chemical_formula_sum "Si O2"
_cell_formula_units_Z 56
_cell_length_a 10.850788
_cell_length_b 20.564314
_cell_length_c 10.066503
_cell_angle_alpha 90.000000
_cell_angle_beta 90.000000
_cell_angle_gamma 90.000000
_cell_volume 2246.229529
_symmetry_space_group_name_H-M "P C C N"
_symmetry_group_IT_number 56
_symmetry_cell_setting 'orthorhombic'
loop_
_space_group_symop_operation_xyz
x,y,z
1/2-x,1/2-y,z
1/2+x,-y,1/2-z
-x,1/2+y,1/2-z
-x,-y,-z
1/2+x,1/2+y,-z
1/2-x,y,1/2+z
x,1/2-y,1/2+z
loop_
_atom_site_type_symbol
_atom_site_label
_atom_site_fract_x
_atom_site_fract_y
_atom_site_fract_z
Si Si1 0.711855 0.821936 0.262297
Si Si2 0.104684 0.060683 0.096100
Si Si3 0.751880 0.058097 0.042418
Si Si4 0.945384 0.875291 0.301382
Si Si5 0.103162 0.227837 0.469200
Si Si6 0.066820 0.851562 0.060434
Si Si7 0.400723 0.973298 0.192198
O O1 0.750000 0.750000 0.307189
O O2 0.682146 0.874981 0.372191
O O3 0.834246 0.853323 0.200815
O O4 0.594386 0.809572 0.171438
O O5 0.024996 0.047194 0.228786
O O6 0.183177 0.001799 0.038922
O O7 0.009865 0.084734 0.985785
O O8 0.806256 0.129750 0.010053
O O9 0.625188 0.056773 0.954407
O O10 0.790808 0.041599 0.196529
O O11 0.926948 0.826228 0.421964
O O12 0.067998 0.858374 0.219683
O O13 0.921436 0.949939 0.327501
O O14 0.250000 0.250000 0.454290
O O15 0.004938 0.286196 0.480626
#
# Coordination Sequence:
#
# PCOD9433273 Si02
#       7
#     8   8   8   8   8   8   8
#     4  11  22  35  58  95 132 161 203 267 337 391
#     4  11  21  39  63  94 127 172 212 269 328 405
#     4  11  23  42  65  92 129 182 217 272 325 400
#     4  12  20  34  58  93 129 165 209 264 323 396
#     4  11  24  34  56  95 133 166 205 265 330 398
#     4  11  21  39  60  88 130 173 213 253 335 396
#     4  11  24  40  64  93 132 172 223 267 331 390
#
# _framework density 24.930665999999999
#
# number of rings (size 3 to 8) (size 9 to 14) (size 15 to 20)
#    0.000    0.857    7.143    3.000    2.000    0.000 
#    2.571    1.429    0.000    0.857    0.000    0.000 
#    0.000    0.000    0.000    0.000    0.000    0.000 
#
# Total GULP energy -311958.019429 kJ/mol
# GULP energy per Si atom -5570.678918 kJ/mol
# Density = 2.487392 g / cm^3
# Si number density = 24.930666 Si / 1000 Ang^3
#
#
#
# Elastic Constant Matrix: (Units=GPa)
#
#
# Indices 1 2 3 4 5 6 
#
# 1 43.4415 39.5179 12.3554 0.0000 0.0000 0.0000
# 2 39.5179 139.6417 23.0383 0.0000 0.0000 0.0000
# 3 12.3554 23.0383 75.1283 0.0000 0.0000 0.0000
# 4 0.0000 0.0000 0.0000 42.9253 0.0000 0.0000
# 5 0.0000 0.0000 0.0000 0.0000 24.4100 0.0000
# 6 0.0000 0.0000 0.0000 0.0000 0.0000 33.6954
#
#
#
# Elastic Compliance Matrix: (Units=1/GPa)
#
#
# Indices 1 2 3 4 5 6 
#
# 1 0.031466 -0.008480 -0.002574 0.000000 0.000000 0.000000
# 2 -0.008480 0.009828 -0.001619 0.000000 0.000000 0.000000
# 3 -0.002574 -0.001619 0.014230 0.000000 0.000000 0.000000
# 4 0.000000 0.000000 0.000000 0.023296 0.000000 0.000000
# 5 0.000000 0.000000 0.000000 0.000000 0.040967 0.000000
# 6 0.000000 0.000000 0.000000 0.000000 0.000000 0.029678
#
#
# Mechanical properties :
#
#
# Convention : Reuss Voigt Hill
#
# Bulk Modulus (GPa) = 33.13759 45.33719 39.23739
# Shear Modulus (GPa) = 27.04587 32.42612 29.73599
#
# Velocity S-wave (km/s) = 3.29727 3.61037 3.45736
# Velocity P-wave (km/s) = 5.27416 5.96695 5.63122
#
# Compressibility (1/GPa) = 0.03017721
#
# Stress axis : x y z
#
# Youngs Moduli (GPa) = 31.78068 101.74908 70.27173
#
# Poissons Ratio (x) = 0.86282 0.18091
# Poissons Ratio (y) = 0.26950 0.11379
# Poissons Ratio (z) = 0.08182 0.16475
#
# Static dielectric constant tensor:
#      x y z
#    x 2.326850 0.000000 0.000000 
#    y 0.000000 1.867300 0.000000 
#    z 0.000000 0.000000 2.218940 
# 
# From -- ./inp_files/7253.got.cif
#   From: 2010.05.17/outbox.cif.g08.bks.cpg/sg56_4_cif.got.tgz:7253.got - 2010.06.03 13:42:01.
