data_PCOD9433545
_publ_section_title
;
Structure prediction by ZEFSAII (Michael W. Deem and Ramdas Pophale) SiO2 
 PCOD9433545
Probable space group: P C C N
;
_chemical_formula_sum "Si O2"
_cell_formula_units_Z 48
_cell_length_a 6.301768
_cell_length_b 24.796320
_cell_length_c 14.028219
_cell_angle_alpha 90.000000
_cell_angle_beta 90.000000
_cell_angle_gamma 90.000000
_cell_volume 2192.058702
_symmetry_space_group_name_H-M "P C C N"
_symmetry_group_IT_number 56
_symmetry_cell_setting 'orthorhombic'
loop_
_space_group_symop_operation_xyz
x,y,z
1/2-x,1/2-y,z
1/2+x,-y,1/2-z
-x,1/2+y,1/2-z
-x,-y,-z
1/2+x,1/2+y,-z
1/2-x,y,1/2+z
x,1/2-y,1/2+z
loop_
_atom_site_type_symbol
_atom_site_label
_atom_site_fract_x
_atom_site_fract_y
_atom_site_fract_z
Si Si1 0.626190 0.117990 0.509010
Si Si2 0.228452 0.188510 0.581191
Si Si3 0.154946 0.364076 0.763000
Si Si4 0.900546 0.302364 0.905156
Si Si5 0.771404 0.436734 0.688469
Si Si6 0.065539 0.053882 0.859374
O O1 0.445950 0.160356 0.543136
O O2 0.750129 0.146716 0.424017
O O3 0.777261 0.099900 0.595662
O O4 0.528999 0.064155 0.463450
O O5 0.250000 0.250000 0.613852
O O6 0.192143 0.154370 0.677496
O O7 0.060422 0.194660 0.495285
O O8 0.279728 0.395361 0.844445
O O9 0.031767 0.313579 0.809283
O O10 0.985591 0.407581 0.724789
O O11 0.750000 0.250000 0.903566
O O12 0.604661 0.441240 0.773703
O O13 0.819610 0.497242 0.654234
#
# Coordination Sequence:
#
# PCOD9433545 Si02
#       6
#     8   8   8   8   8   8
#     4  11  24  42  66  98 135 172 224 277 335 402
#     4  11  24  44  66  96 136 174 221 276 338 397
#     4  11  25  43  67  99 135 178 222 273 337 403
#     4  12  24  45  71 100 133 176 226 280 335 398
#     4  11  24  42  65 100 131 178 221 281 335 398
#     4  12  22  44  69  93 136 173 226 272 337 406
#
# _framework density 21.897224999999999
#
# number of rings (size 3 to 8) (size 9 to 14) (size 15 to 20)
#    0.000    0.667    6.667    1.500    0.000    2.000 
#    6.000    1.667    0.000    0.000    0.000    0.000 
#    0.000    0.000    0.000    0.000    0.000    0.000 
#
# Total GULP energy -267929.850634 kJ/mol
# GULP energy per Si atom -5581.871888 kJ/mol
# Density = 2.184739 g / cm^3
# Si number density = 21.897225 Si / 1000 Ang^3
#
#
#
# Elastic Constant Matrix: (Units=GPa)
#
#
# Indices 1 2 3 4 5 6 
#
# 1 45.9107 33.1514 13.6234 0.0000 0.0000 0.0000
# 2 33.1514 105.2595 23.9023 0.0000 0.0000 0.0000
# 3 13.6234 23.9023 65.3558 0.0000 0.0000 0.0000
# 4 0.0000 0.0000 0.0000 35.6867 0.0000 0.0000
# 5 0.0000 0.0000 0.0000 0.0000 31.4606 0.0000
# 6 0.0000 0.0000 0.0000 0.0000 0.0000 20.6628
#
#
#
# Elastic Compliance Matrix: (Units=1/GPa)
#
#
# Indices 1 2 3 4 5 6 
#
# 1 0.028695 -0.008375 -0.002919 0.000000 0.000000 0.000000
# 2 -0.008375 0.012805 -0.002937 0.000000 0.000000 0.000000
# 3 -0.002919 -0.002937 0.016984 0.000000 0.000000 0.000000
# 4 0.000000 0.000000 0.000000 0.028022 0.000000 0.000000
# 5 0.000000 0.000000 0.000000 0.000000 0.031786 0.000000
# 6 0.000000 0.000000 0.000000 0.000000 0.000000 0.048396
#
#
# Mechanical properties :
#
#
# Convention : Reuss Voigt Hill
#
# Bulk Modulus (GPa) = 33.30901 39.76445 36.53673
# Shear Modulus (GPa) = 24.37181 27.28528 25.82854
#
# Velocity S-wave (km/s) = 3.33980 3.53379 3.43816
# Velocity P-wave (km/s) = 5.48788 5.90332 5.69939
#
# Compressibility (1/GPa) = 0.03002191
#
# Stress axis : x y z
#
# Youngs Moduli (GPa) = 34.84980 78.09504 58.88062
#
# Poissons Ratio (x) = 0.65401 0.17185
# Poissons Ratio (y) = 0.29185 0.17296
# Poissons Ratio (z) = 0.10171 0.22940
#
# Static dielectric constant tensor:
#      x y z
#    x 1.838460 0.000000 0.000000 
#    y 0.000000 1.765500 0.000000 
#    z 0.000000 0.000000 1.803950 
# 
# From -- ./inp_files/9701.got.cif
#   From: 2010.05.17/outbox.cif.g08.bks.cpg/sg56_5_cif.got.tgz:9701.got - 2010.06.03 13:42:01.
