data_PCOD9433275
_publ_section_title
;
Structure prediction by ZEFSAII (Michael W. Deem and Ramdas Pophale) SiO2 
 PCOD9433275
Probable space group: P C C N
;
_chemical_formula_sum "Si O2"
_cell_formula_units_Z 64
_cell_length_a 11.684603
_cell_length_b 18.148487
_cell_length_c 15.409630
_cell_angle_alpha 90.000000
_cell_angle_beta 90.000000
_cell_angle_gamma 90.000000
_cell_volume 3267.733248
_symmetry_space_group_name_H-M "P C C N"
_symmetry_group_IT_number 56
_symmetry_cell_setting 'orthorhombic'
loop_
_space_group_symop_operation_xyz
x,y,z
1/2-x,1/2-y,z
1/2+x,-y,1/2-z
-x,1/2+y,1/2-z
-x,-y,-z
1/2+x,1/2+y,-z
1/2-x,y,1/2+z
x,1/2-y,1/2+z
loop_
_atom_site_type_symbol
_atom_site_label
_atom_site_fract_x
_atom_site_fract_y
_atom_site_fract_z
Si Si1 0.487747 0.597278 0.250411
Si Si2 0.118215 0.222889 0.506473
Si Si3 0.390552 0.245307 0.314805
Si Si4 0.717711 0.023395 0.177401
Si Si5 0.902194 0.666636 0.345893
Si Si6 0.031322 0.519852 0.400564
Si Si7 0.387396 0.452072 0.484844
Si Si8 0.292997 0.061454 0.152062
O O1 0.549071 0.672930 0.223405
O O2 0.363513 0.591931 0.295781
O O3 0.492472 0.545303 0.165084
O O4 0.574752 0.565461 0.321882
O O5 0.250000 0.250000 0.503653
O O6 0.070897 0.249736 0.414021
O O7 0.071283 0.265605 0.590114
O O8 0.101510 0.135149 0.503197
O O9 0.250000 0.250000 0.312202
O O10 0.428851 0.311253 0.252128
O O11 0.836811 0.035764 0.126927
O O12 0.652597 0.968026 0.112398
O O13 0.739670 0.982960 0.268514
O O14 0.769106 0.640840 0.350184
O O15 0.965209 0.594192 0.377408
O O16 0.000000 0.500000 0.500000
O O17 0.500000 0.500000 0.500000
O O18 0.291174 0.474075 0.556710
#
# Coordination Sequence:
#
# PCOD9433275 Si02
#       8
#     8   8   8   8   8   8   8   8
#     4  11  22  40  64  97 133 172 225 284 334 411
#     4  11  24  36  62 100 132 164 218 279 344 400
#     4  11  23  37  64  97 135 169 213 284 345 401
#     4  11  25  40  65  98 131 174 229 273 344 411
#     4  12  21  41  64  93 133 176 216 275 348 403
#     4  11  25  42  68  96 134 183 231 282 342 418
#     4  12  24  41  67  95 132 173 220 281 337 403
#     4  11  21  39  61  97 132 166 220 277 336 401
#
# _framework density 19.585440999999999
#
# number of rings (size 3 to 8) (size 9 to 14) (size 15 to 20)
#    0.000    0.750    5.000    3.375    5.250    0.000 
#    0.000    0.625    0.000    0.000    0.000    0.000 
#    0.000    0.000    0.000    0.000    0.000    0.000 
#
# Total GULP energy -356863.913334 kJ/mol
# GULP energy per Si atom -5575.998646 kJ/mol
# Density = 1.954086 g / cm^3
# Si number density = 19.585441 Si / 1000 Ang^3
#
#
#
# Elastic Constant Matrix: (Units=GPa)
#
#
# Indices 1 2 3 4 5 6 
#
# 1 83.0433 35.7795 39.9650 0.0000 0.0000 0.0000
# 2 35.7795 94.5597 35.8350 0.0000 0.0000 0.0000
# 3 39.9650 35.8350 113.2584 0.0000 0.0000 0.0000
# 4 0.0000 0.0000 0.0000 37.3466 0.0000 0.0000
# 5 0.0000 0.0000 0.0000 0.0000 24.5787 0.0000
# 6 0.0000 0.0000 0.0000 0.0000 0.0000 28.2300
#
#
#
# Elastic Compliance Matrix: (Units=1/GPa)
#
#
# Indices 1 2 3 4 5 6 
#
# 1 0.015997 -0.004447 -0.004238 0.000000 0.000000 0.000000
# 2 -0.004447 0.013252 -0.002624 0.000000 0.000000 0.000000
# 3 -0.004238 -0.002624 0.011155 0.000000 0.000000 0.000000
# 4 0.000000 0.000000 0.000000 0.026776 0.000000 0.000000
# 5 0.000000 0.000000 0.000000 0.000000 0.040686 0.000000
# 6 0.000000 0.000000 0.000000 0.000000 0.000000 0.035423
#
#
# Mechanical properties :
#
#
# Convention : Reuss Voigt Hill
#
# Bulk Modulus (GPa) = 56.22036 57.11338 56.66687
# Shear Modulus (GPa) = 29.09741 29.98319 29.54030
#
# Velocity S-wave (km/s) = 3.85861 3.91691 3.88787
# Velocity P-wave (km/s) = 6.97276 7.04845 7.01071
#
# Compressibility (1/GPa) = 0.01778715
#
# Stress axis : x y z
#
# Youngs Moduli (GPa) = 62.50994 75.45821 89.64625
#
# Poissons Ratio (x) = 0.33557 0.37991
# Poissons Ratio (y) = 0.27799 0.23522
# Poissons Ratio (z) = 0.26491 0.19799
#
# Static dielectric constant tensor:
#      x y z
#    x 1.742160 0.000000 0.000000 
#    y 0.000000 1.683420 0.000000 
#    z 0.000000 0.000000 1.733150 
# 
# From -- ./inp_files/11833.got.cif
#   From: 2010.05.17/outbox.cif.g08.bks.cpg/sg56_6_cif.got.tgz:11833.got - 2010.06.03 13:42:01.
