data_PCOD9433996
_publ_section_title
;
Structure prediction by ZEFSAII (Michael W. Deem and Ramdas Pophale) SiO2 
 PCOD9433996
Probable space group: P B C M
;
_chemical_formula_sum "Si O2"
_cell_formula_units_Z 44
_cell_length_a 27.313759
_cell_length_b 5.362325
_cell_length_c 13.944579
_cell_angle_alpha 90.000000
_cell_angle_beta 90.000000
_cell_angle_gamma 90.000000
_cell_volume 2042.396287
_symmetry_space_group_name_H-M "P B C M"
_symmetry_group_IT_number 57
_symmetry_cell_setting 'orthorhombic'
loop_
_space_group_symop_operation_xyz
x,y,z
-x,-y,1/2+z
x,1/2-y,-z
-x,1/2+y,1/2-z
-x,-y,-z
x,y,1/2-z
-x,1/2+y,z
x,1/2-y,1/2+z
loop_
_atom_site_type_symbol
_atom_site_label
_atom_site_fract_x
_atom_site_fract_y
_atom_site_fract_z
Si Si1 0.377490 0.606382 0.860330
Si Si2 0.126289 0.500118 0.064203
Si Si3 0.469350 0.018034 0.250000
Si Si4 0.337677 0.394957 0.361748
Si Si5 0.766195 0.999827 0.064433
Si Si6 0.021871 0.899539 0.637738
O O1 0.357797 0.639919 0.750000
O O2 0.433267 0.525002 0.841051
O O3 0.347409 0.378694 0.904486
O O4 0.370330 0.879862 0.902708
O O5 0.180024 0.501021 0.112602
O O6 0.078027 0.519596 0.127745
O O7 0.125731 0.750000 0.000000
O O8 0.122762 0.250000 0.000000
O O9 0.508312 0.793498 0.250000
O O10 0.351953 0.362051 0.250000
O O11 0.281593 0.477153 0.370662
O O12 0.765754 0.750000 0.000000
O O13 0.762026 0.250000 0.000000
O O14 0.009441 0.874256 0.750000
O O15 0.011138 0.624433 0.596919
#
# Coordination Sequence:
#
# PCOD9433996 Si02
#       6
#     8   8   4   8   8   8
#     4   8  17  27  43  70 100 131 160 207 241 299
#     4  10  21  36  53  75 102 131 169 213 252 303
#     4  10  16  26  44  70 110 140 158 202 266 300
#     4  10  17  32  50  70  99 136 163 207 251 296
#     4  10  21  35  51  74 103 133 170 213 253 300
#     4  10  21  36  54  77 104 132 165 211 256 305
#
# _framework density 21.543320000000001
#
# number of rings (size 3 to 8) (size 9 to 14) (size 15 to 20)
#    0.545    1.818    0.000    3.273    0.000    2.909 
#    0.000    0.000    0.000   13.091    0.000    0.000 
#    0.000   50.909    0.000    0.000    0.000    0.000 
#
# Total GULP energy -245266.373240 kJ/mol
# GULP energy per Si atom -5574.235755 kJ/mol
# Density = 2.149429 g / cm^3
# Si number density = 21.543320 Si / 1000 Ang^3
#
#
#
# Elastic Constant Matrix: (Units=GPa)
#
#
# Indices 1 2 3 4 5 6 
#
# 1 86.6537 6.0651 -11.1656 0.0000 0.0000 0.0000
# 2 6.0651 154.1130 14.7999 0.0000 0.0000 0.0000
# 3 -11.1656 14.7999 28.6143 0.0000 0.0000 0.0000
# 4 0.0000 0.0000 0.0000 22.3954 0.0000 0.0000
# 5 0.0000 0.0000 0.0000 0.0000 96.8384 0.0000
# 6 0.0000 0.0000 0.0000 0.0000 0.0000 43.2924
#
#
#
# Elastic Compliance Matrix: (Units=1/GPa)
#
#
# Indices 1 2 3 4 5 6 
#
# 1 0.012294 -0.000994 0.005311 0.000000 0.000000 0.000000
# 2 -0.000994 0.006908 -0.003961 0.000000 0.000000 0.000000
# 3 0.005311 -0.003961 0.039069 0.000000 0.000000 0.000000
# 4 0.000000 0.000000 0.000000 0.044652 0.000000 0.000000
# 5 0.000000 0.000000 0.000000 0.000000 0.010326 0.000000
# 6 0.000000 0.000000 0.000000 0.000000 0.000000 0.023099
#
#
# Mechanical properties :
#
#
# Convention : Reuss Voigt Hill
#
# Bulk Modulus (GPa) = 16.95363 32.08663 24.52013
# Shear Modulus (GPa) = 32.19640 49.81733 41.00687
#
# Velocity S-wave (km/s) = 3.87006 4.81399 4.36760
# Velocity P-wave (km/s) = 5.27793 6.76946 6.06968
#
# Compressibility (1/GPa) = 0.05898440
#
# Stress axis : x y z
#
# Youngs Moduli (GPa) = 81.33949 144.75473 25.59584
#
# Poissons Ratio (x) = 0.14387 -0.13595
# Poissons Ratio (y) = 0.08084 0.10138
# Poissons Ratio (z) = -0.43203 0.57336
#
# Static dielectric constant tensor:
#      x y z
#    x 1.776770 0.000000 0.000000 
#    y 0.000000 1.827250 0.000000 
#    z 0.000000 0.000000 1.798730 
# 
# From -- ./inp_files/23094.got.cif
#   From: 2010.05.17/outbox.cif.g08.bks.cpg/sg57_12_cif.got.tgz:23094.got - 2010.06.03 13:58:18.
