data_PCOD9433675
_publ_section_title
;
Structure prediction by ZEFSAII (Michael W. Deem and Ramdas Pophale) SiO2 
 PCOD9433675
Probable space group: P C C N
;
_chemical_formula_sum "Si O2"
_cell_formula_units_Z 40
_cell_length_a 10.443338
_cell_length_b 17.949816
_cell_length_c 9.198074
_cell_angle_alpha 90.000000
_cell_angle_beta 90.000000
_cell_angle_gamma 90.000000
_cell_volume 1724.234119
_symmetry_space_group_name_H-M "P C C N"
_symmetry_group_IT_number 56
_symmetry_cell_setting 'orthorhombic'
loop_
_space_group_symop_operation_xyz
x,y,z
1/2-x,1/2-y,z
1/2+x,-y,1/2-z
-x,1/2+y,1/2-z
-x,-y,-z
1/2+x,1/2+y,-z
1/2-x,y,1/2+z
x,1/2-y,1/2+z
loop_
_atom_site_type_symbol
_atom_site_label
_atom_site_fract_x
_atom_site_fract_y
_atom_site_fract_z
Si Si1 0.250000 0.250000 0.911507
Si Si2 0.250000 0.750000 0.785316
Si Si3 0.503983 0.320295 0.307401
Si Si4 0.586691 0.887468 0.474318
Si Si5 0.371320 0.543914 0.166527
Si Si6 0.153597 0.608635 0.967543
O O1 0.369906 0.220548 0.820450
O O2 0.188516 0.177709 0.992246
O O3 0.373805 0.733089 0.687832
O O4 0.204560 0.681142 0.883152
O O5 0.509382 0.356838 0.149100
O O6 0.523790 0.374130 0.444572
O O7 0.503034 0.917160 0.610520
O O8 0.640601 0.961022 0.396786
O O9 0.362333 0.548540 0.339782
O O10 0.254737 0.586818 0.090725
#
# Coordination Sequence:
#
# PCOD9433675 Si02
#       6
#     4   4   8   8   8   8
#     4  12  28  48  76 114 156 202 242 322 384 466
#     4  12  22  44  80 112 144 192 254 320 354 458
#     4  12  26  47  77 111 148 195 255 302 387 441
#     4  11  26  50  70 110 154 198 246 313 376 462
#     4  11  25  47  76 107 151 194 256 309 378 446
#     4  12  24  45  76 108 142 194 253 314 364 449
#
# _framework density 23.198705
#
# number of rings (size 3 to 8) (size 9 to 14) (size 15 to 20)
#    0.000    0.400    4.000    3.600    2.800    2.400 
#    3.600    0.000    0.000    0.000    0.000    0.000 
#    0.000    0.000    0.000    0.000    0.000    0.000 
#
# Total GULP energy -223752.284009 kJ/mol
# GULP energy per Si atom -5593.807100 kJ/mol
# Density = 2.314590 g / cm^3
# Si number density = 23.198705 Si / 1000 Ang^3
#
#
#
# Elastic Constant Matrix: (Units=GPa)
#
#
# Indices 1 2 3 4 5 6 
#
# 1 85.2178 18.4924 27.7621 0.0000 0.0000 0.0000
# 2 18.4924 83.2280 -4.7490 0.0000 0.0000 0.0000
# 3 27.7621 -4.7490 76.2682 0.0000 0.0000 0.0000
# 4 0.0000 0.0000 0.0000 4.3890 0.0000 0.0000
# 5 0.0000 0.0000 0.0000 0.0000 27.9069 0.0000
# 6 0.0000 0.0000 0.0000 0.0000 0.0000 27.3486
#
#
#
# Elastic Compliance Matrix: (Units=1/GPa)
#
#
# Indices 1 2 3 4 5 6 
#
# 1 0.014249 -0.003474 -0.005403 0.000000 0.000000 0.000000
# 2 -0.003474 0.012905 0.002068 0.000000 0.000000 0.000000
# 3 -0.005403 0.002068 0.015207 0.000000 0.000000 0.000000
# 4 0.000000 0.000000 0.000000 0.227841 0.000000 0.000000
# 5 0.000000 0.000000 0.000000 0.000000 0.035833 0.000000
# 6 0.000000 0.000000 0.000000 0.000000 0.000000 0.036565
#
#
# Mechanical properties :
#
#
# Convention : Reuss Voigt Hill
#
# Bulk Modulus (GPa) = 34.79105 36.41390 35.60247
# Shear Modulus (GPa) = 13.66870 25.47616 19.57243
#
# Velocity S-wave (km/s) = 2.42998 3.31746 2.90778
# Velocity P-wave (km/s) = 4.78567 5.51404 5.16272
#
# Compressibility (1/GPa) = 0.02874303
#
# Stress axis : x y z
#
# Youngs Moduli (GPa) = 70.18184 77.48862 65.75872
#
# Poissons Ratio (x) = 0.26921 0.35529
# Poissons Ratio (y) = 0.24383 -0.13600
# Poissons Ratio (z) = 0.37919 -0.16026
#
# Static dielectric constant tensor:
#      x y z
#    x 1.864120 0.000000 0.000000 
#    y 0.000000 1.978810 0.000000 
#    z 0.000000 0.000000 1.871800 
# 
# From -- ./inp_files/2632.got.cif
#   From: 2010.05.17/outbox.cif.g08.bks.cpg/sg56_2_cif.got.tgz:2632.got - 2010.06.03 13:42:01.
