data_PCOD9433673
_publ_section_title
;
Structure prediction by ZEFSAII (Michael W. Deem and Ramdas Pophale) SiO2 
 PCOD9433673
Probable space group: P C C N
;
_chemical_formula_sum "Si O2"
_cell_formula_units_Z 36
_cell_length_a 9.616991
_cell_length_b 9.019329
_cell_length_c 16.610306
_cell_angle_alpha 90.000000
_cell_angle_beta 90.000000
_cell_angle_gamma 90.000000
_cell_volume 1440.758107
_symmetry_space_group_name_H-M "P C C N"
_symmetry_group_IT_number 56
_symmetry_cell_setting 'orthorhombic'
loop_
_space_group_symop_operation_xyz
x,y,z
1/2-x,1/2-y,z
1/2+x,-y,1/2-z
-x,1/2+y,1/2-z
-x,-y,-z
1/2+x,1/2+y,-z
1/2-x,y,1/2+z
x,1/2-y,1/2+z
loop_
_atom_site_type_symbol
_atom_site_label
_atom_site_fract_x
_atom_site_fract_y
_atom_site_fract_z
Si Si1 0.414227 0.255370 0.797946
Si Si2 0.280328 0.413556 0.532371
Si Si3 0.053797 0.529199 0.885396
Si Si4 0.250000 0.750000 0.868675
Si Si5 0.013340 0.072470 0.138555
O O1 0.250000 0.250000 0.808977
O O2 0.463468 0.419268 0.820727
O O3 0.442676 0.179011 0.712039
O O4 0.479137 0.136109 0.858786
O O5 0.250000 0.250000 0.497478
O O6 0.405950 0.398599 0.596156
O O7 0.351154 0.518285 0.465855
O O8 0.139695 0.458756 0.577632
O O9 0.160472 0.617874 0.826819
O O10 0.383014 0.658517 0.903409
#
# Coordination Sequence:
#
# PCOD9433673 Si02
#       5
#     8   8   8   4   8
#     4  12  27  48  75 111 149 198 249 318 374 462
#     4  11  25  47  75 107 151 198 245 313 374 451
#     4  11  26  46  74 110 146 194 257 300 381 450
#     4  12  24  46  70 112 142 198 250 312 370 466
#     4  12  28  46  79 107 158 194 256 308 393 440
#
# _framework density 24.986847000000001
#
# number of rings (size 3 to 8) (size 9 to 14) (size 15 to 20)
#    0.000    0.444    4.444    2.667    3.111    5.333 
#    0.000    0.000    0.000    0.000    0.000    0.000 
#    0.000    0.000    0.000    0.000    0.000    0.000 
#
# Total GULP energy -200912.889883 kJ/mol
# GULP energy per Si atom -5580.913608 kJ/mol
# Density = 2.492998 g / cm^3
# Si number density = 24.986847 Si / 1000 Ang^3
#
#
#
# Elastic Constant Matrix: (Units=GPa)
#
#
# Indices 1 2 3 4 5 6 
#
# 1 175.0046 53.5493 50.8758 0.0000 0.0000 0.0000
# 2 53.5493 138.4725 42.0918 0.0000 0.0000 0.0000
# 3 50.8758 42.0918 89.8144 0.0000 0.0000 0.0000
# 4 0.0000 0.0000 0.0000 40.3321 0.0000 0.0000
# 5 0.0000 0.0000 0.0000 0.0000 31.4832 0.0000
# 6 0.0000 0.0000 0.0000 0.0000 0.0000 48.6758
#
#
#
# Elastic Compliance Matrix: (Units=1/GPa)
#
#
# Indices 1 2 3 4 5 6 
#
# 1 0.007207 -0.001803 -0.003237 0.000000 0.000000 0.000000
# 2 -0.001803 0.008872 -0.003137 0.000000 0.000000 0.000000
# 3 -0.003237 -0.003137 0.014438 0.000000 0.000000 0.000000
# 4 0.000000 0.000000 0.000000 0.024794 0.000000 0.000000
# 5 0.000000 0.000000 0.000000 0.000000 0.031763 0.000000
# 6 0.000000 0.000000 0.000000 0.000000 0.000000 0.020544
#
#
# Mechanical properties :
#
#
# Convention : Reuss Voigt Hill
#
# Bulk Modulus (GPa) = 70.60664 77.36948 73.98806
# Shear Modulus (GPa) = 38.85185 41.21651 40.03418
#
# Velocity S-wave (km/s) = 3.94749 4.06584 4.00710
# Velocity P-wave (km/s) = 7.00684 7.28511 7.14733
#
# Compressibility (1/GPa) = 0.01416297
#
# Stress axis : x y z
#
# Youngs Moduli (GPa) = 138.75429 112.70951 69.26159
#
# Poissons Ratio (x) = 0.20321 0.22423
# Poissons Ratio (y) = 0.25017 0.21726
# Poissons Ratio (z) = 0.44921 0.35355
#
# Static dielectric constant tensor:
#      x y z
#    x 1.936170 0.000000 0.000000 
#    y 0.000000 2.123960 0.000000 
#    z 0.000000 0.000000 2.064930 
# 
# From -- ./inp_files/17850.got.cif
#   From: 2010.05.17/outbox.cif.g08.bks.cpg/sg56_9_cif.got.tgz:17850.got - 2010.06.03 13:42:01.
