data_PCOD9433003
_publ_section_title
;
Structure prediction by ZEFSAII (Michael W. Deem and Ramdas Pophale) SiO2 
 PCOD9433003
Probable space group: P C C N
;
_chemical_formula_sum "Si O2"
_cell_formula_units_Z 24
_cell_length_a 8.358174
_cell_length_b 10.239104
_cell_length_c 10.204032
_cell_angle_alpha 90.000000
_cell_angle_beta 90.000000
_cell_angle_gamma 90.000000
_cell_volume 873.263230
_symmetry_space_group_name_H-M "P C C N"
_symmetry_group_IT_number 56
_symmetry_cell_setting 'orthorhombic'
loop_
_space_group_symop_operation_xyz
x,y,z
1/2-x,1/2-y,z
1/2+x,-y,1/2-z
-x,1/2+y,1/2-z
-x,-y,-z
1/2+x,1/2+y,-z
1/2-x,y,1/2+z
x,1/2-y,1/2+z
loop_
_atom_site_type_symbol
_atom_site_label
_atom_site_fract_x
_atom_site_fract_y
_atom_site_fract_z
Si Si1 0.426610 0.254208 0.635260
Si Si2 0.386995 0.987501 0.782579
Si Si3 0.842207 0.409118 0.490559
O O1 0.250000 0.250000 0.572522
O O2 0.458853 0.394603 0.697686
O O3 0.578132 0.224868 0.541607
O O4 0.284696 0.973683 0.913288
O O5 0.298817 0.914768 0.661091
O O6 0.422124 0.136069 0.741144
O O7 0.000000 0.500000 0.500000
#
# Coordination Sequence:
#
# PCOD9433003 Si02
#       3
#     8   8   8
#     4  11  24  44  71 107 145 188 239 298 359 427
#     4  11  25  48  75 104 144 189 240 296 361 431
#     4  10  24  46  70 103 141 187 239 294 357 426
#
# _framework density 27.483121000000001
#
# number of rings (size 3 to 8) (size 9 to 14) (size 15 to 20)
#    0.000    1.333    0.000    5.000    0.000   12.000 
#    0.000   25.000    0.000    0.000    0.000    0.000 
#    0.000    0.000    0.000    0.000    0.000    0.000 
#
# Total GULP energy -134513.621433 kJ/mol
# GULP energy per Si atom -5604.734226 kJ/mol
# Density = 2.742057 g / cm^3
# Si number density = 27.483121 Si / 1000 Ang^3
#
#
#
# Elastic Constant Matrix: (Units=GPa)
#
#
# Indices 1 2 3 4 5 6 
#
# 1 130.8590 44.7341 41.7207 0.0000 0.0000 0.0000
# 2 44.7341 138.4333 5.1767 0.0000 0.0000 0.0000
# 3 41.7207 5.1767 122.6007 0.0000 0.0000 0.0000
# 4 0.0000 0.0000 0.0000 37.2843 0.0000 0.0000
# 5 0.0000 0.0000 0.0000 0.0000 48.3165 0.0000
# 6 0.0000 0.0000 0.0000 0.0000 0.0000 46.6783
#
#
#
# Elastic Compliance Matrix: (Units=1/GPa)
#
#
# Indices 1 2 3 4 5 6 
#
# 1 0.009680 -0.003010 -0.003167 0.000000 0.000000 0.000000
# 2 -0.003010 0.008171 0.000679 0.000000 0.000000 0.000000
# 3 -0.003167 0.000679 0.009206 0.000000 0.000000 0.000000
# 4 0.000000 0.000000 0.000000 0.026821 0.000000 0.000000
# 5 0.000000 0.000000 0.000000 0.000000 0.020697 0.000000
# 6 0.000000 0.000000 0.000000 0.000000 0.000000 0.021423
#
#
# Mechanical properties :
#
#
# Convention : Reuss Voigt Hill
#
# Bulk Modulus (GPa) = 62.26032 63.90620 63.08326
# Shear Modulus (GPa) = 44.50487 46.47327 45.48907
#
# Velocity S-wave (km/s) = 4.02848 4.11661 4.07278
# Velocity P-wave (km/s) = 6.65894 6.77485 6.71715
#
# Compressibility (1/GPa) = 0.01606159
#
# Stress axis : x y z
#
# Youngs Moduli (GPa) = 103.30094 122.38577 108.62886
#
# Poissons Ratio (x) = 0.36835 0.34404
# Poissons Ratio (y) = 0.31091 -0.07378
# Poissons Ratio (z) = 0.32717 -0.08312
#
# Static dielectric constant tensor:
#      x y z
#    x 2.171450 0.000000 0.000000 
#    y 0.000000 2.265180 0.000000 
#    z 0.000000 0.000000 2.169320 
# 
# From -- ./inp_files/5820.got.cif
#   From: 2010.05.17/outbox.cif.g08.bks.cpg/sg56_3_cif.got.tgz:5820.got - 2010.06.03 13:42:01.
