data_PCOD9433746
_publ_section_title
;
Structure prediction by ZEFSAII (Michael W. Deem and Ramdas Pophale) SiO2 
 PCOD9433746
Probable space group: P C C N
;
_chemical_formula_sum "Si O2"
_cell_formula_units_Z 32
_cell_length_a 16.916396
_cell_length_b 5.586112
_cell_length_c 13.915074
_cell_angle_alpha 90.000000
_cell_angle_beta 90.000000
_cell_angle_gamma 90.000000
_cell_volume 1314.931115
_symmetry_space_group_name_H-M "P C C N"
_symmetry_group_IT_number 56
_symmetry_cell_setting 'orthorhombic'
loop_
_space_group_symop_operation_xyz
x,y,z
1/2-x,1/2-y,z
1/2+x,-y,1/2-z
-x,1/2+y,1/2-z
-x,-y,-z
1/2+x,1/2+y,-z
1/2-x,y,1/2+z
x,1/2-y,1/2+z
loop_
_atom_site_type_symbol
_atom_site_label
_atom_site_fract_x
_atom_site_fract_y
_atom_site_fract_z
Si Si1 0.832445 0.393208 0.391290
Si Si2 0.016550 0.546249 0.110390
Si Si3 0.609066 0.753088 0.748792
Si Si4 0.797597 0.498918 0.604474
O O1 0.750000 0.250000 0.388920
O O2 0.910980 0.232974 0.380610
O O3 0.830838 0.585183 0.305769
O O4 0.837238 0.502387 0.498948
O O5 0.046478 0.317804 0.169063
O O6 0.937184 0.626894 0.162847
O O7 0.000000 0.500000 0.000000
O O8 0.645971 0.983118 0.696727
O O9 0.750000 0.750000 0.609282
O O10 0.750000 0.250000 0.609189
#
# Coordination Sequence:
#
# PCOD9433746 Si02
#       4
#     8   8   8   8
#     4  11  29  52  80 117 166 217 281 349 420 502
#     4  12  29  50  81 118 167 216 276 343 425 501
#     4  12  28  49  81 118 163 224 272 348 419 516
#     4  11  30  51  82 121 166 216 277 347 415 495
#
# _framework density 24.335875999999999
#
# number of rings (size 3 to 8) (size 9 to 14) (size 15 to 20)
#    0.000    0.500    2.500    1.500   24.500    2.000 
#    0.000    0.000    0.000    0.000    0.000    0.000 
#    0.000    0.000    0.000    0.000    0.000    0.000 
#
# Total GULP energy -179331.881769 kJ/mol
# GULP energy per Si atom -5604.121305 kJ/mol
# Density = 2.428049 g / cm^3
# Si number density = 24.335876 Si / 1000 Ang^3
#
#
#
# Elastic Constant Matrix: (Units=GPa)
#
#
# Indices 1 2 3 4 5 6 
#
# 1 71.9993 30.3485 58.7866 0.0000 0.0000 0.0000
# 2 30.3485 90.2475 63.6987 0.0000 0.0000 0.0000
# 3 58.7866 63.6987 252.2446 0.0000 0.0000 0.0000
# 4 0.0000 0.0000 0.0000 54.3434 0.0000 0.0000
# 5 0.0000 0.0000 0.0000 0.0000 53.0826 0.0000
# 6 0.0000 0.0000 0.0000 0.0000 0.0000 44.0182
#
#
#
# Elastic Compliance Matrix: (Units=1/GPa)
#
#
# Indices 1 2 3 4 5 6 
#
# 1 0.018163 -0.003797 -0.003274 0.000000 0.000000 0.000000
# 2 -0.003797 0.014278 -0.002721 0.000000 0.000000 0.000000
# 3 -0.003274 -0.002721 0.005414 0.000000 0.000000 0.000000
# 4 0.000000 0.000000 0.000000 0.018401 0.000000 0.000000
# 5 0.000000 0.000000 0.000000 0.000000 0.018839 0.000000
# 6 0.000000 0.000000 0.000000 0.000000 0.000000 0.022718
#
#
# Mechanical properties :
#
#
# Convention : Reuss Voigt Hill
#
# Bulk Modulus (GPa) = 54.72926 80.01767 67.37347
# Shear Modulus (GPa) = 40.49025 47.73269 44.11147
#
# Velocity S-wave (km/s) = 4.08341 4.43359 4.26210
# Velocity P-wave (km/s) = 6.69106 7.69161 7.20871
#
# Compressibility (1/GPa) = 0.01827176
#
# Stress axis : x y z
#
# Youngs Moduli (GPa) = 55.05800 70.03911 184.68984
#
# Poissons Ratio (x) = 0.26593 0.60469
# Poissons Ratio (y) = 0.20905 0.50248
# Poissons Ratio (z) = 0.18026 0.19055
#
# Static dielectric constant tensor:
#      x y z
#    x 2.103820 0.000000 0.000000 
#    y 0.000000 1.949360 0.000000 
#    z 0.000000 0.000000 1.875680 
# 
# From -- ./inp_files/12469.got.cif
#   From: 2010.05.17/outbox.cif.g08.bks.cpg/sg56_7_cif.got.tgz:12469.got - 2010.06.03 13:42:01.
