data_PCOD9433474
_publ_section_title
;
Structure prediction by ZEFSAII (Michael W. Deem and Ramdas Pophale) SiO2 
 PCOD9433474
Probable space group: P C C N
;
_chemical_formula_sum "Si O2"
_cell_formula_units_Z 64
_cell_length_a 20.841307
_cell_length_b 9.587127
_cell_length_c 14.655332
_cell_angle_alpha 90.000000
_cell_angle_beta 90.000000
_cell_angle_gamma 90.000000
_cell_volume 2928.256343
_symmetry_space_group_name_H-M "P C C N"
_symmetry_group_IT_number 56
_symmetry_cell_setting 'orthorhombic'
loop_
_space_group_symop_operation_xyz
x,y,z
1/2-x,1/2-y,z
1/2+x,-y,1/2-z
-x,1/2+y,1/2-z
-x,-y,-z
1/2+x,1/2+y,-z
1/2-x,y,1/2+z
x,1/2-y,1/2+z
loop_
_atom_site_type_symbol
_atom_site_label
_atom_site_fract_x
_atom_site_fract_y
_atom_site_fract_z
Si Si1 0.375418 0.230384 0.416881
Si Si2 0.198546 0.154855 0.250754
Si Si3 0.525935 0.944576 0.838301
Si Si4 0.307091 0.845894 0.779574
Si Si5 0.391950 0.793029 0.122687
Si Si6 0.505869 0.070658 0.366665
Si Si7 0.593858 0.828503 0.390138
Si Si8 0.601032 0.439912 0.562415
O O1 0.323071 0.248367 0.336883
O O2 0.436580 0.137790 0.386213
O O3 0.364032 0.170212 0.517989
O O4 0.391294 0.393318 0.432914
O O5 0.250000 0.250000 0.198990
O O6 0.135455 0.116262 0.193354
O O7 0.223573 0.000375 0.269755
O O8 0.490112 0.923649 0.742910
O O9 0.577830 0.827271 0.858936
O O10 0.474410 0.923961 0.918476
O O11 0.561002 0.093279 0.830292
O O12 0.250000 0.750000 0.813616
O O13 0.338471 0.771920 0.689798
O O14 0.361767 0.867673 0.854776
O O15 0.438755 0.668205 0.093123
O O16 0.372527 0.874764 0.030999
O O17 0.527822 0.916699 0.398447
#
# Coordination Sequence:
#
# PCOD9433474 Si02
#       8
#     8   8   8   8   8   8   8   8
#     4  11  23  43  68 100 136 178 225 275 344 403
#     4  11  26  50  69  94 136 180 229 280 338 401
#     4  12  22  40  69 101 142 183 216 268 352 404
#     4  11  27  48  70  97 130 180 236 280 328 404
#     4  12  23  43  70  98 138 182 220 277 341 404
#     4  12  22  40  66 104 144 175 219 279 336 406
#     4  12  24  42  66 104 137 176 226 279 332 410
#     4  11  23  43  68  99 138 176 224 280 341 404
#
# _framework density 21.856010000000001
#
# number of rings (size 3 to 8) (size 9 to 14) (size 15 to 20)
#    0.000    0.500    6.250    3.000    1.750    1.000 
#    2.250    2.500    0.000    0.000    0.000    0.000 
#    0.000    0.000    0.000    0.000    0.000    0.000 
#
# Total GULP energy -357090.561373 kJ/mol
# GULP energy per Si atom -5579.540021 kJ/mol
# Density = 2.180626 g / cm^3
# Si number density = 21.856010 Si / 1000 Ang^3
#
#
#
# Elastic Constant Matrix: (Units=GPa)
#
#
# Indices 1 2 3 4 5 6 
#
# 1 40.0510 29.5788 12.6489 0.0000 0.0000 0.0000
# 2 29.5788 91.1024 24.6139 0.0000 0.0000 0.0000
# 3 12.6489 24.6139 94.5626 0.0000 0.0000 0.0000
# 4 0.0000 0.0000 0.0000 24.2871 0.0000 0.0000
# 5 0.0000 0.0000 0.0000 0.0000 -12.0754 0.0000
# 6 0.0000 0.0000 0.0000 0.0000 0.0000 40.7223
#
#
#
# Elastic Compliance Matrix: (Units=1/GPa)
#
#
# Indices 1 2 3 4 5 6 
#
# 1 0.033112 -0.010277 -0.001754 0.000000 0.000000 0.000000
# 2 -0.010277 0.014996 -0.002529 0.000000 0.000000 0.000000
# 3 -0.001754 -0.002529 0.011468 0.000000 0.000000 0.000000
# 4 0.000000 0.000000 0.000000 0.041174 0.000000 0.000000
# 5 0.000000 0.000000 0.000000 0.000000 -0.082813 0.000000
# 6 0.000000 0.000000 0.000000 0.000000 0.000000 0.024557
#
#
# Mechanical properties :
#
#
# Convention : Reuss Voigt Hill
#
# Bulk Modulus (GPa) = 32.83342 39.93325 36.38333
# Shear Modulus (GPa) = 61.15053 21.17843 41.16448
#
# Velocity S-wave (km/s) = 5.29524 3.11625 4.34457
# Velocity P-wave (km/s) = 7.24164 5.59095 6.46916
#
# Compressibility (1/GPa) = 0.03045678
#
# Stress axis : x y z
#
# Youngs Moduli (GPa) = 30.20079 66.68239 87.20009
#
# Poissons Ratio (x) = 0.68527 0.15296
# Poissons Ratio (y) = 0.31036 0.22051
# Poissons Ratio (z) = 0.05298 0.16863
#
# Static dielectric constant tensor:
#      x y z
#    x 1.734940 0.000000 0.000000 
#    y 0.000000 1.812530 0.000000 
#    z 0.000000 0.000000 1.848330 
# 
# From -- ./inp_files/13287.got.cif
#   From: 2010.05.17/outbox.cif.g08.bks.cpg/sg56_7_cif.got.tgz:13287.got - 2010.06.03 13:42:01.
