data_PCOD9433761
_publ_section_title
;
Structure prediction by ZEFSAII (Michael W. Deem and Ramdas Pophale) SiO2 
 PCOD9433761
Probable space group: P C C N
;
_chemical_formula_sum "Si O2"
_cell_formula_units_Z 48
_cell_length_a 10.912531
_cell_length_b 12.871939
_cell_length_c 15.520102
_cell_angle_alpha 90.000000
_cell_angle_beta 90.000000
_cell_angle_gamma 90.000000
_cell_volume 2180.037853
_symmetry_space_group_name_H-M "P C C N"
_symmetry_group_IT_number 56
_symmetry_cell_setting 'orthorhombic'
loop_
_space_group_symop_operation_xyz
x,y,z
1/2-x,1/2-y,z
1/2+x,-y,1/2-z
-x,1/2+y,1/2-z
-x,-y,-z
1/2+x,1/2+y,-z
1/2-x,y,1/2+z
x,1/2-y,1/2+z
loop_
_atom_site_type_symbol
_atom_site_label
_atom_site_fract_x
_atom_site_fract_y
_atom_site_fract_z
Si Si1 0.960805 0.541017 0.908792
Si Si2 0.316652 0.866813 0.431521
Si Si3 0.250000 0.250000 0.769723
Si Si4 0.489371 0.752976 0.326520
Si Si5 0.170179 0.029239 0.307476
Si Si6 0.210353 0.543572 0.616520
Si Si7 0.250000 0.750000 0.706506
O O1 0.816318 0.538262 0.902053
O O2 0.004519 0.655842 0.890176
O O3 0.031494 0.467375 0.841681
O O4 0.000000 0.500000 0.000000
O O5 0.250000 0.750000 0.439500
O O6 0.445920 0.849004 0.383821
O O7 0.239702 0.943194 0.367299
O O8 0.341113 0.921767 0.523509
O O9 0.378545 0.245408 0.718009
O O10 0.241851 0.361673 0.817154
O O11 0.374782 0.736938 0.261404
O O12 0.155570 0.996913 0.207107
O O13 0.270731 0.650858 0.647935
#
# Coordination Sequence:
#
# PCOD9433761 Si02
#       7
#     8   8   4   8   8   8   4
#     4  12  23  43  75 107 149 196 250 311 388 447
#     4  12  22  44  77 114 141 184 264 318 358 448
#     4  12  30  46  74 102 162 210 230 306 414 448
#     4  12  23  48  74 111 150 190 250 320 368 459
#     4  12  25  47  71 111 149 200 254 310 378 471
#     4  12  23  41  76 110 141 195 249 319 379 438
#     4  12  22  42  80 108 134 194 262 304 358 446
#
# _framework density 22.017966000000001
#
# number of rings (size 3 to 8) (size 9 to 14) (size 15 to 20)
#    0.000    0.000   10.000    1.000    0.000    0.000 
#    0.000    4.167    3.667    0.000    0.000    0.000 
#    0.000    0.000    0.000    0.000    0.000    0.000 
#
# Total GULP energy -267610.454804 kJ/mol
# GULP energy per Si atom -5575.217808 kJ/mol
# Density = 2.196785 g / cm^3
# Si number density = 22.017966 Si / 1000 Ang^3
#
#
#
# Elastic Constant Matrix: (Units=GPa)
#
#
# Indices 1 2 3 4 5 6 
#
# 1 82.7906 6.6845 23.9110 0.0000 0.0000 0.0000
# 2 6.6845 111.4156 22.5155 0.0000 0.0000 0.0000
# 3 23.9110 22.5155 125.0755 0.0000 0.0000 0.0000
# 4 0.0000 0.0000 0.0000 36.2757 0.0000 0.0000
# 5 0.0000 0.0000 0.0000 0.0000 24.7105 0.0000
# 6 0.0000 0.0000 0.0000 0.0000 0.0000 25.0953
#
#
#
# Elastic Compliance Matrix: (Units=1/GPa)
#
#
# Indices 1 2 3 4 5 6 
#
# 1 0.012793 -0.000284 -0.002395 0.000000 0.000000 0.000000
# 2 -0.000284 0.009321 -0.001624 0.000000 0.000000 0.000000
# 3 -0.002395 -0.001624 0.008745 0.000000 0.000000 0.000000
# 4 0.000000 0.000000 0.000000 0.027567 0.000000 0.000000
# 5 0.000000 0.000000 0.000000 0.000000 0.040469 0.000000
# 6 0.000000 0.000000 0.000000 0.000000 0.000000 0.039848
#
#
# Mechanical properties :
#
#
# Convention : Reuss Voigt Hill
#
# Bulk Modulus (GPa) = 44.93337 47.27819 46.10578
# Shear Modulus (GPa) = 32.30718 34.96102 33.63410
#
# Velocity S-wave (km/s) = 3.83470 3.98909 3.91266
# Velocity P-wave (km/s) = 6.32918 6.53730 6.43408
#
# Compressibility (1/GPa) = 0.02225517
#
# Stress axis : x y z
#
# Youngs Moduli (GPa) = 78.16665 107.29000 114.34793
#
# Poissons Ratio (x) = 0.03043 0.27382
# Poissons Ratio (y) = 0.02217 0.18566
# Poissons Ratio (z) = 0.18718 0.17420
#
# Static dielectric constant tensor:
#      x y z
#    x 1.868870 0.000000 0.000000 
#    y 0.000000 1.873740 0.000000 
#    z 0.000000 0.000000 1.750840 
# 
# From -- ./inp_files/11648.got.cif
#   From: 2010.05.17/outbox.cif.g08.bks.cpg/sg56_6_cif.got.tgz:11648.got - 2010.06.03 13:42:01.
