data_PCOD9433308
_publ_section_title
;
Structure prediction by ZEFSAII (Michael W. Deem and Ramdas Pophale) SiO2 
 PCOD9433308
Probable space group: P C C N
;
_chemical_formula_sum "Si O2"
_cell_formula_units_Z 40
_cell_length_a 8.980626
_cell_length_b 12.019047
_cell_length_c 17.761775
_cell_angle_alpha 90.000000
_cell_angle_beta 90.000000
_cell_angle_gamma 90.000000
_cell_volume 1917.180523
_symmetry_space_group_name_H-M "P C C N"
_symmetry_group_IT_number 56
_symmetry_cell_setting 'orthorhombic'
loop_
_space_group_symop_operation_xyz
x,y,z
1/2-x,1/2-y,z
1/2+x,-y,1/2-z
-x,1/2+y,1/2-z
-x,-y,-z
1/2+x,1/2+y,-z
1/2-x,y,1/2+z
x,1/2-y,1/2+z
loop_
_atom_site_type_symbol
_atom_site_label
_atom_site_fract_x
_atom_site_fract_y
_atom_site_fract_z
Si Si1 0.233335 0.886244 0.805040
Si Si2 0.644741 0.839523 0.954355
Si Si3 0.879950 0.322900 0.943143
Si Si4 0.664454 0.487983 0.034215
Si Si5 0.536005 0.487608 0.328199
O O1 0.250000 0.750000 0.805666
O O2 0.164819 0.935520 0.882781
O O3 0.393581 0.946306 0.798972
O O4 0.136119 0.939118 0.738293
O O5 0.750000 0.750000 0.916967
O O6 0.604409 0.927349 0.889809
O O7 0.496664 0.787200 0.992114
O O8 0.746358 0.897216 0.019155
O O9 0.750000 0.250000 0.905252
O O10 0.983017 0.379254 0.880770
O O11 0.770612 0.405619 0.987628
O O12 0.500000 0.500000 0.000000
#
# Coordination Sequence:
#
# PCOD9433308 Si02
#       5
#     8   8   8   8   8
#     4  12  27  49  73 102 151 199 237 301 375 428
#     4  11  23  43  71 106 142 186 239 304 364 432
#     4  11  21  44  71 100 141 184 237 298 361 426
#     4  11  23  41  71 104 137 183 246 298 356 439
#     4  11  26  46  67 105 144 185 247 293 352 454
#
# _framework density 20.863972
#
# number of rings (size 3 to 8) (size 9 to 14) (size 15 to 20)
#    0.000    0.800    4.000    3.600    8.400    0.000 
#    3.600    1.000    0.000    0.000    0.000    0.000 
#    0.000    0.000    0.000    0.000    0.000    0.000 
#
# Total GULP energy -222731.101336 kJ/mol
# GULP energy per Si atom -5568.277533 kJ/mol
# Density = 2.081649 g / cm^3
# Si number density = 20.863972 Si / 1000 Ang^3
#
#
#
# Elastic Constant Matrix: (Units=GPa)
#
#
# Indices 1 2 3 4 5 6 
#
# 1 149.7729 47.6286 53.0200 0.0000 0.0000 0.0000
# 2 47.6286 68.5875 34.1940 0.0000 0.0000 0.0000
# 3 53.0200 34.1940 126.8721 0.0000 0.0000 0.0000
# 4 0.0000 0.0000 0.0000 10.5214 0.0000 0.0000
# 5 0.0000 0.0000 0.0000 0.0000 50.2172 0.0000
# 6 0.0000 0.0000 0.0000 0.0000 0.0000 36.7664
#
#
#
# Elastic Compliance Matrix: (Units=1/GPa)
#
#
# Indices 1 2 3 4 5 6 
#
# 1 0.009183 -0.005157 -0.002448 0.000000 0.000000 0.000000
# 2 -0.005157 0.019739 -0.003165 0.000000 0.000000 0.000000
# 3 -0.002448 -0.003165 0.009758 0.000000 0.000000 0.000000
# 4 0.000000 0.000000 0.000000 0.095044 0.000000 0.000000
# 5 0.000000 0.000000 0.000000 0.000000 0.019913 0.000000
# 6 0.000000 0.000000 0.000000 0.000000 0.000000 0.027199
#
#
# Mechanical properties :
#
#
# Convention : Reuss Voigt Hill
#
# Bulk Modulus (GPa) = 58.33989 68.32416 63.33202
# Shear Modulus (GPa) = 24.02824 33.52702 28.77763
#
# Velocity S-wave (km/s) = 3.39730 4.01301 3.71792
# Velocity P-wave (km/s) = 6.58874 7.36823 6.98936
#
# Compressibility (1/GPa) = 0.01714093
#
# Stress axis : x y z
#
# Youngs Moduli (GPa) = 108.89505 50.66210 102.48095
#
# Poissons Ratio (x) = 0.26124 0.25086
# Poissons Ratio (y) = 0.56153 0.32434
# Poissons Ratio (z) = 0.26656 0.16034
#
# Static dielectric constant tensor:
#      x y z
#    x 1.725230 0.000000 0.000000 
#    y 0.000000 1.655800 0.000000 
#    z 0.000000 0.000000 1.789940 
# 
# From -- ./inp_files/14409.got.cif
#   From: 2010.05.17/outbox.cif.g08.bks.cpg/sg56_8_cif.got.tgz:14409.got - 2010.06.03 13:42:01.
