data_PCOD9433666
_publ_section_title
;
Structure prediction by ZEFSAII (Michael W. Deem and Ramdas Pophale) SiO2 
 PCOD9433666
Probable space group: P C C N
;
_chemical_formula_sum "Si O2"
_cell_formula_units_Z 40
_cell_length_a 9.815725
_cell_length_b 14.110487
_cell_length_c 12.350977
_cell_angle_alpha 90.000000
_cell_angle_beta 90.000000
_cell_angle_gamma 90.000000
_cell_volume 1710.667870
_symmetry_space_group_name_H-M "P C C N"
_symmetry_group_IT_number 56
_symmetry_cell_setting 'orthorhombic'
loop_
_space_group_symop_operation_xyz
x,y,z
1/2-x,1/2-y,z
1/2+x,-y,1/2-z
-x,1/2+y,1/2-z
-x,-y,-z
1/2+x,1/2+y,-z
1/2-x,y,1/2+z
x,1/2-y,1/2+z
loop_
_atom_site_type_symbol
_atom_site_label
_atom_site_fract_x
_atom_site_fract_y
_atom_site_fract_z
Si Si1 0.902900 0.756690 0.699748
Si Si2 0.378777 0.775463 0.866499
Si Si3 0.018925 0.601680 0.049688
Si Si4 0.976586 0.542707 0.622189
Si Si5 0.258166 0.562667 0.727623
O O1 0.750000 0.750000 0.743132
O O2 0.905924 0.846745 0.620947
O O3 0.950317 0.657753 0.638701
O O4 0.014429 0.779069 0.792123
O O5 0.250000 0.750000 0.942917
O O6 0.292297 0.843534 0.788073
O O7 0.472212 0.833546 0.945359
O O8 0.151795 0.591219 0.124666
O O9 0.000000 0.500000 0.000000
O O10 0.850602 0.495278 0.687145
O O11 0.000000 0.500000 0.500000
O O12 0.116820 0.517885 0.685759
#
# Coordination Sequence:
#
# PCOD9433666 Si02
#       5
#     8   8   8   8   8
#     4  11  28  48  71 109 153 189 256 318 376 460
#     4  11  25  46  77 104 144 202 244 311 385 450
#     4  12  27  47  75 109 150 198 254 314 381 448
#     4  11  27  47  78 110 152 204 249 314 389 456
#     4  11  25  47  74 106 153 189 256 309 372 459
#
# _framework density 23.382680000000001
#
# number of rings (size 3 to 8) (size 9 to 14) (size 15 to 20)
#    0.000    0.800    2.000    3.600   16.800    0.800 
#    0.000    0.000    0.000    0.000    0.000    0.000 
#    0.000    0.000    0.000    0.000    0.000    0.000 
#
# Total GULP energy -223093.749577 kJ/mol
# GULP energy per Si atom -5577.343739 kJ/mol
# Density = 2.332946 g / cm^3
# Si number density = 23.382680 Si / 1000 Ang^3
#
#
#
# Elastic Constant Matrix: (Units=GPa)
#
#
# Indices 1 2 3 4 5 6 
#
# 1 152.1968 10.4305 35.2170 0.0000 0.0000 0.0000
# 2 10.4305 59.2993 27.5393 0.0000 0.0000 0.0000
# 3 35.2170 27.5393 84.2416 0.0000 0.0000 0.0000
# 4 0.0000 0.0000 0.0000 22.3730 0.0000 0.0000
# 5 0.0000 0.0000 0.0000 0.0000 27.8969 0.0000
# 6 0.0000 0.0000 0.0000 0.0000 0.0000 37.8868
#
#
#
# Elastic Compliance Matrix: (Units=1/GPa)
#
#
# Indices 1 2 3 4 5 6 
#
# 1 0.007275 0.000157 -0.003093 0.000000 0.000000 0.000000
# 2 0.000157 0.019885 -0.006566 0.000000 0.000000 0.000000
# 3 -0.003093 -0.006566 0.015310 0.000000 0.000000 0.000000
# 4 0.000000 0.000000 0.000000 0.044697 0.000000 0.000000
# 5 0.000000 0.000000 0.000000 0.000000 0.035846 0.000000
# 6 0.000000 0.000000 0.000000 0.000000 0.000000 0.026394
#
#
# Mechanical properties :
#
#
# Convention : Reuss Voigt Hill
#
# Bulk Modulus (GPa) = 42.61423 49.12346 45.86884
# Shear Modulus (GPa) = 28.37126 32.46809 30.41968
#
# Velocity S-wave (km/s) = 3.48709 3.73037 3.61078
# Velocity P-wave (km/s) = 5.87174 6.29351 6.08628
#
# Compressibility (1/GPa) = 0.02346634
#
# Stress axis : x y z
#
# Youngs Moduli (GPa) = 137.45113 50.28802 65.31675
#
# Poissons Ratio (x) = -0.00787 0.20200
# Poissons Ratio (y) = -0.02152 0.42888
# Poissons Ratio (z) = 0.42508 0.33020
#
# Static dielectric constant tensor:
#      x y z
#    x 1.679740 0.000000 0.000000 
#    y 0.000000 2.319250 0.000000 
#    z 0.000000 0.000000 1.876020 
# 
# From -- ./inp_files/6154.got.cif
#   From: 2010.05.17/outbox.cif.g08.bks.cpg/sg56_4_cif.got.tgz:6154.got - 2010.06.03 13:42:01.
