data_PCOD9433748
_publ_section_title
;
Structure prediction by ZEFSAII (Michael W. Deem and Ramdas Pophale) SiO2 
 PCOD9433748
Probable space group: P C C N
;
_chemical_formula_sum "Si O2"
_cell_formula_units_Z 56
_cell_length_a 8.813914
_cell_length_b 12.495634
_cell_length_c 21.521592
_cell_angle_alpha 90.000000
_cell_angle_beta 90.000000
_cell_angle_gamma 90.000000
_cell_volume 2370.290079
_symmetry_space_group_name_H-M "P C C N"
_symmetry_group_IT_number 56
_symmetry_cell_setting 'orthorhombic'
loop_
_space_group_symop_operation_xyz
x,y,z
1/2-x,1/2-y,z
1/2+x,-y,1/2-z
-x,1/2+y,1/2-z
-x,-y,-z
1/2+x,1/2+y,-z
1/2-x,y,1/2+z
x,1/2-y,1/2+z
loop_
_atom_site_type_symbol
_atom_site_label
_atom_site_fract_x
_atom_site_fract_y
_atom_site_fract_z
Si Si1 0.057186 0.328157 0.977860
Si Si2 0.753640 0.425786 0.134322
Si Si3 0.052537 0.199833 0.610118
Si Si4 0.038268 0.122901 0.207061
Si Si5 0.542390 0.638707 0.653920
Si Si6 0.744701 0.011624 0.367201
Si Si7 0.746271 0.036554 0.500089
O O1 0.066819 0.287958 0.907146
O O2 0.183892 0.419789 0.986117
O O3 0.068590 0.258385 0.039569
O O4 0.895353 0.388813 0.987458
O O5 0.881952 0.335762 0.126833
O O6 0.634345 0.404316 0.188444
O O7 0.847147 0.535765 0.144953
O O8 0.675827 0.429253 0.065739
O O9 0.092450 0.290286 0.657878
O O10 0.149124 0.091700 0.618271
O O11 0.063915 0.170425 0.275104
O O12 0.134576 0.017476 0.189210
O O13 0.367210 0.601237 0.649839
O O14 0.664780 0.038031 0.433366
#
# Coordination Sequence:
#
# PCOD9433748 Si02
#       7
#     8   8   8   8   8   8   8
#     4   7  12  28  52  67  83 123 172 196 220 284
#     4   9  18  32  50  71  97 128 166 202 238 289
#     4   9  18  33  51  69  94 130 168 202 239 287
#     4  12  20  27  48  79 106 128 156 205 256 287
#     4   9  18  33  51  71  97 134 170 194 235 299
#     4   9  18  32  50  71  97 128 166 202 238 289
#     4   7  12  27  50  70  86 118 162 204 232 268
#
# _framework density 23.625800999999999
#
# number of rings (size 3 to 8) (size 9 to 14) (size 15 to 20)
#    0.000    3.143    0.000    5.143    0.000    0.571 
#    0.000    0.000    0.000   27.429    0.000    0.000 
#    0.000    0.000    0.000    0.000    0.000    0.000 
#
# Total GULP energy -312323.403979 kJ/mol
# GULP energy per Si atom -5577.203642 kJ/mol
# Density = 2.357203 g / cm^3
# Si number density = 23.625801 Si / 1000 Ang^3
#
#
#
# Elastic Constant Matrix: (Units=GPa)
#
#
# Indices 1 2 3 4 5 6 
#
# 1 75.7541 3.9483 13.0332 0.0000 0.0000 0.0000
# 2 3.9483 15.7373 14.7593 0.0000 0.0000 0.0000
# 3 13.0332 14.7593 211.2898 0.0000 0.0000 0.0000
# 4 0.0000 0.0000 0.0000 12.3040 0.0000 0.0000
# 5 0.0000 0.0000 0.0000 0.0000 -0.4427 0.0000
# 6 0.0000 0.0000 0.0000 0.0000 0.0000 13.5007
#
#
#
# Elastic Compliance Matrix: (Units=1/GPa)
#
#
# Indices 1 2 3 4 5 6 
#
# 1 0.013455 -0.002779 -0.000636 0.000000 0.000000 0.000000
# 2 -0.002779 0.068572 -0.004619 0.000000 0.000000 0.000000
# 3 -0.000636 -0.004619 0.005095 0.000000 0.000000 0.000000
# 4 0.000000 0.000000 0.000000 0.081274 0.000000 0.000000
# 5 0.000000 0.000000 0.000000 0.000000 -2.258682 0.000000
# 6 0.000000 0.000000 0.000000 0.000000 0.000000 0.074070
#
#
# Mechanical properties :
#
#
# Convention : Reuss Voigt Hill
#
# Bulk Modulus (GPa) = 14.07372 40.69584 27.38478
# Shear Modulus (GPa) = -2.52977 23.14176 10.30599
#
# Velocity S-wave (km/s) = -1.03590 3.13311 2.09085
# Velocity P-wave (km/s) = 2.13051 5.50918 4.17673
#
# Compressibility (1/GPa) = 0.07105443
#
# Stress axis : x y z
#
# Youngs Moduli (GPa) = 74.32260 14.58314 196.28337
#
# Poissons Ratio (x) = 0.04053 0.12480
# Poissons Ratio (y) = 0.20657 0.90654
# Poissons Ratio (z) = 0.04725 0.06735
#
# Static dielectric constant tensor:
#      x y z
#    x 1.892160 0.000000 0.000000 
#    y 0.000000 1.928300 0.000000 
#    z 0.000000 0.000000 1.939290 
# 
# From -- ./inp_files/18242.got.cif
#   From: 2010.05.17/outbox.cif.g08.bks.cpg/sg56_10_cif.got.tgz:18242.got - 2010.06.03 13:42:01.
