data_PCOD9433563
_publ_section_title
;
Structure prediction by ZEFSAII (Michael W. Deem and Ramdas Pophale) SiO2 
 PCOD9433563
Probable space group: P C C N
;
_chemical_formula_sum "Si O2"
_cell_formula_units_Z 56
_cell_length_a 6.152634
_cell_length_b 13.895550
_cell_length_c 29.415503
_cell_angle_alpha 90.000000
_cell_angle_beta 90.000000
_cell_angle_gamma 90.000000
_cell_volume 2514.855878
_symmetry_space_group_name_H-M "P C C N"
_symmetry_group_IT_number 56
_symmetry_cell_setting 'orthorhombic'
loop_
_space_group_symop_operation_xyz
x,y,z
1/2-x,1/2-y,z
1/2+x,-y,1/2-z
-x,1/2+y,1/2-z
-x,-y,-z
1/2+x,1/2+y,-z
1/2-x,y,1/2+z
x,1/2-y,1/2+z
loop_
_atom_site_type_symbol
_atom_site_label
_atom_site_fract_x
_atom_site_fract_y
_atom_site_fract_z
Si Si1 0.420302 0.662322 0.662500
Si Si2 0.059708 0.973250 0.196018
Si Si3 0.639347 0.854929 0.063662
Si Si4 0.716350 0.358776 0.962724
Si Si5 0.466001 0.997906 0.403544
Si Si6 0.498927 0.201013 0.551838
Si Si7 0.723247 0.649650 0.748306
O O1 0.250000 0.750000 0.661346
O O2 0.285350 0.568621 0.677391
O O3 0.539657 0.655118 0.614497
O O4 0.587854 0.675970 0.703329
O O5 0.943338 0.900310 0.230501
O O6 0.924993 0.984937 0.149602
O O7 0.097136 0.072352 0.221704
O O8 0.750000 0.750000 0.056980
O O9 0.465528 0.875048 0.023791
O O10 0.774658 0.952465 0.068109
O O11 0.750000 0.250000 0.944064
O O12 0.657231 0.434864 0.924229
O O13 0.544578 0.350657 0.002985
O O14 0.508491 0.886994 0.412888
O O15 0.750000 0.250000 0.558192
O O16 0.250000 0.250000 0.552572
O O17 0.750000 0.750000 0.774138
#
# Coordination Sequence:
#
# PCOD9433563 Si02
#       7
#     8   8   8   8   8   8   8
#     4  12  22  39  66 100 147 182 229 299 381 435
#     4  12  25  43  67 104 141 189 242 306 366 443
#     4  12  23  39  71 114 150 178 239 310 387 452
#     4  11  24  43  71 107 146 184 233 307 378 441
#     4  12  26  45  74 106 144 198 243 305 375 445
#     4  11  30  53  74 106 155 205 258 309 363 451
#     4  12  25  43  67 100 141 185 235 301 364 437
#
# _framework density 22.267679000000001
#
# number of rings (size 3 to 8) (size 9 to 14) (size 15 to 20)
#    0.000    0.286    7.143    2.143    6.000    1.143 
#    0.000    2.143    0.000    0.000    0.000    0.000 
#    0.000    0.000    0.000    0.000    0.000    0.000 
#
# Total GULP energy -312061.899414 kJ/mol
# GULP energy per Si atom -5572.533918 kJ/mol
# Density = 2.221700 g / cm^3
# Si number density = 22.267679 Si / 1000 Ang^3
#
#
#
# Elastic Constant Matrix: (Units=GPa)
#
#
# Indices 1 2 3 4 5 6 
#
# 1 95.7346 32.9787 3.1679 0.0000 0.0000 0.0000
# 2 32.9787 120.2630 22.9591 0.0000 0.0000 0.0000
# 3 3.1679 22.9591 29.7848 0.0000 0.0000 0.0000
# 4 0.0000 0.0000 0.0000 -17.3254 0.0000 0.0000
# 5 0.0000 0.0000 0.0000 0.0000 -17.8888 0.0000
# 6 0.0000 0.0000 0.0000 0.0000 0.0000 35.2249
#
#
#
# Elastic Compliance Matrix: (Units=1/GPa)
#
#
# Indices 1 2 3 4 5 6 
#
# 1 0.011587 -0.003450 0.001427 0.000000 0.000000 0.000000
# 2 -0.003450 0.010777 -0.007940 0.000000 0.000000 0.000000
# 3 0.001427 -0.007940 0.039543 0.000000 0.000000 0.000000
# 4 0.000000 0.000000 0.000000 -0.057719 0.000000 0.000000
# 5 0.000000 0.000000 0.000000 0.000000 -0.055901 0.000000
# 6 0.000000 0.000000 0.000000 0.000000 0.000000 0.028389
#
#
# Mechanical properties :
#
#
# Convention : Reuss Voigt Hill
#
# Bulk Modulus (GPa) = 23.82076 40.44376 32.13226
# Shear Modulus (GPa) = 471.87784 12.44724 242.16254
#
# Velocity S-wave (km/s) = 14.57297 2.36685 10.43967
# Velocity P-wave (km/s) = 17.14301 5.06668 12.64029
#
# Compressibility (1/GPa) = 0.04198020
#
# Stress axis : x y z
#
# Youngs Moduli (GPa) = 86.30592 92.79054 25.28890
#
# Poissons Ratio (x) = 0.32010 -0.03608
# Poissons Ratio (y) = 0.29773 0.20080
# Poissons Ratio (z) = -0.12314 0.73679
#
# Static dielectric constant tensor:
#      x y z
#    x 2.120630 0.000000 0.000000 
#    y 0.000000 2.020470 0.000000 
#    z 0.000000 0.000000 1.807850 
# 
# From -- ./inp_files/22865.got.cif
#   From: 2010.05.17/outbox.cif.g08.bks.cpg/sg56_12_cif.got.tgz:22865.got - 2010.06.03 13:42:01.
