data_PCOD9433682
_publ_section_title
;
Structure prediction by ZEFSAII (Michael W. Deem and Ramdas Pophale) SiO2 
 PCOD9433682
Probable space group: P C C N
;
_chemical_formula_sum "Si O2"
_cell_formula_units_Z 40
_cell_length_a 8.119077
_cell_length_b 10.357726
_cell_length_c 20.555420
_cell_angle_alpha 90.000000
_cell_angle_beta 90.000000
_cell_angle_gamma 90.000000
_cell_volume 1728.611641
_symmetry_space_group_name_H-M "P C C N"
_symmetry_group_IT_number 56
_symmetry_cell_setting 'orthorhombic'
loop_
_space_group_symop_operation_xyz
x,y,z
1/2-x,1/2-y,z
1/2+x,-y,1/2-z
-x,1/2+y,1/2-z
-x,-y,-z
1/2+x,1/2+y,-z
1/2-x,y,1/2+z
x,1/2-y,1/2+z
loop_
_atom_site_type_symbol
_atom_site_label
_atom_site_fract_x
_atom_site_fract_y
_atom_site_fract_z
Si Si1 0.078196 0.310382 0.821637
Si Si2 0.750000 0.750000 0.437916
Si Si3 0.250000 0.750000 0.109073
Si Si4 0.699712 0.481442 0.992057
Si Si5 0.690739 0.428910 0.634461
Si Si6 0.002233 0.176069 0.173778
O O1 0.250000 0.250000 0.844815
O O2 0.076068 0.451808 0.851646
O O3 0.083197 0.323376 0.743843
O O4 0.912438 0.244110 0.846158
O O5 0.714918 0.622715 0.481201
O O6 0.621176 0.814961 0.387810
O O7 0.259397 0.622013 0.064041
O O8 0.500000 0.500000 0.000000
O O9 0.769418 0.420486 0.058549
O O10 0.600520 0.306772 0.664325
O O11 0.869988 0.439061 0.668374
#
# Coordination Sequence:
#
# PCOD9433682 Si02
#       6
#     8   4   4   8   8   8
#     4  12  28  47  78 111 151 198 261 319 384 463
#     4  12  26  44  76 110 146 202 250 314 386 458
#     4  12  28  50  78 114 154 206 256 320 388 462
#     4  12  27  48  77 112 159 199 262 320 388 467
#     4  11  26  47  74 108 148 197 251 314 381 455
#     4  11  25  48  73 106 150 200 250 312 388 455
#
# _framework density 23.139958
#
# number of rings (size 3 to 8) (size 9 to 14) (size 15 to 20)
#    0.000    0.400    3.000    4.800    7.000    3.200 
#    0.000    0.000    0.000    0.000    0.000    0.000 
#    0.000    0.000    0.000    0.000    0.000    0.000 
#
# Total GULP energy -223651.728159 kJ/mol
# GULP energy per Si atom -5591.293204 kJ/mol
# Density = 2.308729 g / cm^3
# Si number density = 23.139958 Si / 1000 Ang^3
#
#
#
# Elastic Constant Matrix: (Units=GPa)
#
#
# Indices 1 2 3 4 5 6 
#
# 1 81.4831 -4.5152 18.3650 0.0000 0.0000 0.0000
# 2 -4.5152 64.4306 -3.8990 0.0000 0.0000 0.0000
# 3 18.3650 -3.8990 60.3418 0.0000 0.0000 0.0000
# 4 0.0000 0.0000 0.0000 29.4169 0.0000 0.0000
# 5 0.0000 0.0000 0.0000 0.0000 42.3547 0.0000
# 6 0.0000 0.0000 0.0000 0.0000 0.0000 30.1631
#
#
#
# Elastic Compliance Matrix: (Units=1/GPa)
#
#
# Indices 1 2 3 4 5 6 
#
# 1 0.013206 0.000685 -0.003975 0.000000 0.000000 0.000000
# 2 0.000685 0.015617 0.000801 0.000000 0.000000 0.000000
# 3 -0.003975 0.000801 0.017834 0.000000 0.000000 0.000000
# 4 0.000000 0.000000 0.000000 0.033994 0.000000 0.000000
# 5 0.000000 0.000000 0.000000 0.000000 0.023610 0.000000
# 6 0.000000 0.000000 0.000000 0.000000 0.000000 0.033153
#
#
# Mechanical properties :
#
#
# Convention : Reuss Voigt Hill
#
# Bulk Modulus (GPa) = 23.99338 25.12856 24.56097
# Shear Modulus (GPa) = 31.99259 33.47393 32.73326
#
# Velocity S-wave (km/s) = 3.72233 3.80753 3.76517
# Velocity P-wave (km/s) = 5.37267 5.49660 5.43499
#
# Compressibility (1/GPa) = 0.04167816
#
# Stress axis : x y z
#
# Youngs Moduli (GPa) = 75.72108 64.03270 56.07328
#
# Poissons Ratio (x) = -0.04386 0.22290
# Poissons Ratio (y) = -0.05186 -0.04489
# Poissons Ratio (z) = 0.30100 -0.05127
#
# Static dielectric constant tensor:
#      x y z
#    x 1.942970 0.000000 0.000000 
#    y 0.000000 1.741460 0.000000 
#    z 0.000000 0.000000 1.808900 
# 
# From -- ./inp_files/14512.got.cif
#   From: 2010.05.17/outbox.cif.g08.bks.cpg/sg56_8_cif.got.tgz:14512.got - 2010.06.03 13:42:01.
