data_PCOD9433624
_publ_section_title
;
Structure prediction by ZEFSAII (Michael W. Deem and Ramdas Pophale) SiO2 
 PCOD9433624
Probable space group: P C C N
;
_chemical_formula_sum "Si O2"
_cell_formula_units_Z 32
_cell_length_a 26.427193
_cell_length_b 5.016506
_cell_length_c 9.180600
_cell_angle_alpha 90.000000
_cell_angle_beta 90.000000
_cell_angle_gamma 90.000000
_cell_volume 1217.092085
_symmetry_space_group_name_H-M "P C C N"
_symmetry_group_IT_number 56
_symmetry_cell_setting 'orthorhombic'
loop_
_space_group_symop_operation_xyz
x,y,z
1/2-x,1/2-y,z
1/2+x,-y,1/2-z
-x,1/2+y,1/2-z
-x,-y,-z
1/2+x,1/2+y,-z
1/2-x,y,1/2+z
x,1/2-y,1/2+z
loop_
_atom_site_type_symbol
_atom_site_label
_atom_site_fract_x
_atom_site_fract_y
_atom_site_fract_z
Si Si1 0.564047 0.408767 0.163824
Si Si2 0.339080 0.575537 0.360803
Si Si3 0.802936 0.913167 0.962066
Si Si4 0.537108 0.701297 0.414062
O O1 0.602804 0.170376 0.147813
O O2 0.577551 0.564553 0.310177
O O3 0.504932 0.344118 0.185416
O O4 0.561969 0.584165 0.019130
O O5 0.335770 0.313139 0.458457
O O6 0.308586 0.822697 0.435907
O O7 0.318503 0.505638 0.199890
O O8 0.750000 0.750000 0.953344
O O9 0.500000 0.500000 0.500000
#
# Coordination Sequence:
#
# PCOD9433624 Si02
#       4
#     8   8   8   8
#     4  11  27  46  78 116 161 225 281 344 419 485
#     4  12  30  54  89 123 172 218 291 349 416 533
#     4  12  29  57  88 127 168 223 276 359 442 510
#     4  11  24  48  74 110 168 222 277 344 410 499
#
# _framework density 26.292176000000001
#
# number of rings (size 3 to 8) (size 9 to 14) (size 15 to 20)
#    0.000    0.500    2.500    3.000    7.000    4.000 
#    0.000    3.750    0.000    0.000    0.000    0.000 
#    0.000    0.000    0.000    0.000    0.000    0.000 
#
# Total GULP energy -179469.542168 kJ/mol
# GULP energy per Si atom -5608.423193 kJ/mol
# Density = 2.623233 g / cm^3
# Si number density = 26.292176 Si / 1000 Ang^3
#
#
#
# Elastic Constant Matrix: (Units=GPa)
#
#
# Indices 1 2 3 4 5 6 
#
# 1 126.7034 56.9470 67.9966 0.0000 0.0000 0.0000
# 2 56.9470 206.2406 114.2043 0.0000 0.0000 0.0000
# 3 67.9966 114.2043 213.4068 0.0000 0.0000 0.0000
# 4 0.0000 0.0000 0.0000 74.2924 0.0000 0.0000
# 5 0.0000 0.0000 0.0000 0.0000 26.4230 0.0000
# 6 0.0000 0.0000 0.0000 0.0000 0.0000 70.2372
#
#
#
# Elastic Compliance Matrix: (Units=1/GPa)
#
#
# Indices 1 2 3 4 5 6 
#
# 1 0.009792 -0.001387 -0.002378 0.000000 0.000000 0.000000
# 2 -0.001387 0.007087 -0.003351 0.000000 0.000000 0.000000
# 3 -0.002378 -0.003351 0.007237 0.000000 0.000000 0.000000
# 4 0.000000 0.000000 0.000000 0.013460 0.000000 0.000000
# 5 0.000000 0.000000 0.000000 0.000000 0.037846 0.000000
# 6 0.000000 0.000000 0.000000 0.000000 0.000000 0.014237
#
#
# Mechanical properties :
#
#
# Convention : Reuss Voigt Hill
#
# Bulk Modulus (GPa) = 101.16645 113.84963 107.50804
# Shear Modulus (GPa) = 46.64831 54.67071 50.65951
#
# Velocity S-wave (km/s) = 4.21673 4.56494 4.39428
# Velocity P-wave (km/s) = 7.89107 8.43686 8.16853
#
# Compressibility (1/GPa) = 0.00988470
#
# Stress axis : x y z
#
# Youngs Moduli (GPa) = 102.12562 141.10050 138.18706
#
# Poissons Ratio (x) = 0.19573 0.32855
# Poissons Ratio (y) = 0.14166 0.46302
# Poissons Ratio (z) = 0.24281 0.47279
#
# Static dielectric constant tensor:
#      x y z
#    x 2.126660 0.000000 0.000000 
#    y 0.000000 2.215510 0.000000 
#    z 0.000000 0.000000 2.014460 
# 
# From -- ./inp_files/5045.got.cif
#   From: 2010.05.17/outbox.cif.g08.bks.cpg/sg56_3_cif.got.tgz:5045.got - 2010.06.03 13:42:01.
