data_PCOD9433737
_publ_section_title
;
Structure prediction by ZEFSAII (Michael W. Deem and Ramdas Pophale) SiO2 
 PCOD9433737
Probable space group: P C C N
;
_chemical_formula_sum "Si O2"
_cell_formula_units_Z 40
_cell_length_a 7.651944
_cell_length_b 17.517345
_cell_length_c 11.929411
_cell_angle_alpha 90.000000
_cell_angle_beta 90.000000
_cell_angle_gamma 90.000000
_cell_volume 1599.039043
_symmetry_space_group_name_H-M "P C C N"
_symmetry_group_IT_number 56
_symmetry_cell_setting 'orthorhombic'
loop_
_space_group_symop_operation_xyz
x,y,z
1/2-x,1/2-y,z
1/2+x,-y,1/2-z
-x,1/2+y,1/2-z
-x,-y,-z
1/2+x,1/2+y,-z
1/2-x,y,1/2+z
x,1/2-y,1/2+z
loop_
_atom_site_type_symbol
_atom_site_label
_atom_site_fract_x
_atom_site_fract_y
_atom_site_fract_z
Si Si1 0.953845 0.644846 0.976421
Si Si2 0.361988 0.829282 0.744993
Si Si3 0.548216 0.688673 0.020956
Si Si4 0.943655 0.548078 0.392533
Si Si5 0.386384 0.537578 0.657735
O O1 0.751445 0.670510 0.993019
O O2 0.032729 0.728051 0.009428
O O3 0.998602 0.576197 0.060517
O O4 0.045849 0.638471 0.856245
O O5 0.250000 0.750000 0.757274
O O6 0.515631 0.825236 0.651614
O O7 0.238423 0.892756 0.691711
O O8 0.475342 0.630323 0.926613
O O9 0.013743 0.521238 0.272912
O O10 0.000000 0.500000 0.500000
O O11 0.735241 0.532662 0.381347
#
# Coordination Sequence:
#
# PCOD9433737 Si02
#       5
#     8   8   8   8   8
#     4  11  28  48  78 112 154 206 266 329 399 473
#     4  12  25  47  80 111 154 207 267 331 400 474
#     4  11  27  48  76 112 154 201 266 330 397 471
#     4  12  28  49  73 112 157 203 264 322 399 478
#     4  12  28  46  77 110 157 209 262 326 404 480
#
# _framework density 25.015025000000001
#
# number of rings (size 3 to 8) (size 9 to 14) (size 15 to 20)
#    0.000    0.400    4.000    2.400   11.200    2.400 
#    0.000    0.000    0.000    0.000    0.000    0.000 
#    0.000    0.000    0.000    0.000    0.000    0.000 
#
# Total GULP energy -223330.435323 kJ/mol
# GULP energy per Si atom -5583.260883 kJ/mol
# Density = 2.495809 g / cm^3
# Si number density = 25.015025 Si / 1000 Ang^3
#
#
#
# Elastic Constant Matrix: (Units=GPa)
#
#
# Indices 1 2 3 4 5 6 
#
# 1 81.5698 -0.3820 42.5504 0.0000 0.0000 0.0000
# 2 -0.3820 97.6447 23.8909 0.0000 0.0000 0.0000
# 3 42.5504 23.8909 188.9489 0.0000 0.0000 0.0000
# 4 0.0000 0.0000 0.0000 43.0252 0.0000 0.0000
# 5 0.0000 0.0000 0.0000 0.0000 65.9617 0.0000
# 6 0.0000 0.0000 0.0000 0.0000 0.0000 29.5235
#
#
#
# Elastic Compliance Matrix: (Units=1/GPa)
#
#
# Indices 1 2 3 4 5 6 
#
# 1 0.013959 0.000850 -0.003251 0.000000 0.000000 0.000000
# 2 0.000850 0.010620 -0.001534 0.000000 0.000000 0.000000
# 3 -0.003251 -0.001534 0.006219 0.000000 0.000000 0.000000
# 4 0.000000 0.000000 0.000000 0.023242 0.000000 0.000000
# 5 0.000000 0.000000 0.000000 0.000000 0.015160 0.000000
# 6 0.000000 0.000000 0.000000 0.000000 0.000000 0.033871
#
#
# Mechanical properties :
#
#
# Convention : Reuss Voigt Hill
#
# Bulk Modulus (GPa) = 43.61606 55.58689 49.60148
# Shear Modulus (GPa) = 42.16403 47.84236 45.00319
#
# Velocity S-wave (km/s) = 4.11000 4.37801 4.24612
# Velocity P-wave (km/s) = 6.32428 6.91561 6.62654
#
# Compressibility (1/GPa) = 0.02292733
#
# Stress axis : x y z
#
# Youngs Moduli (GPa) = 71.63677 94.16272 160.80931
#
# Poissons Ratio (x) = -0.08004 0.52280
# Poissons Ratio (y) = -0.06090 0.24672
# Poissons Ratio (z) = 0.23289 0.14447
#
# Static dielectric constant tensor:
#      x y z
#    x 2.297050 0.000000 0.000000 
#    y 0.000000 2.173230 0.000000 
#    z 0.000000 0.000000 1.975640 
# 
# From -- ./inp_files/6155.got.cif
#   From: 2010.05.17/outbox.cif.g08.bks.cpg/sg56_4_cif.got.tgz:6155.got - 2010.06.03 13:42:01.
