data_PCOD9433229
_publ_section_title
;
Structure prediction by ZEFSAII (Michael W. Deem and Ramdas Pophale) SiO2 
 PCOD9433229
Probable space group: P C C N
;
_chemical_formula_sum "Si O2"
_cell_formula_units_Z 40
_cell_length_a 13.047524
_cell_length_b 8.049026
_cell_length_c 17.608050
_cell_angle_alpha 90.000000
_cell_angle_beta 90.000000
_cell_angle_gamma 90.000000
_cell_volume 1849.194944
_symmetry_space_group_name_H-M "P C C N"
_symmetry_group_IT_number 56
_symmetry_cell_setting 'orthorhombic'
loop_
_space_group_symop_operation_xyz
x,y,z
1/2-x,1/2-y,z
1/2+x,-y,1/2-z
-x,1/2+y,1/2-z
-x,-y,-z
1/2+x,1/2+y,-z
1/2-x,y,1/2+z
x,1/2-y,1/2+z
loop_
_atom_site_type_symbol
_atom_site_label
_atom_site_fract_x
_atom_site_fract_y
_atom_site_fract_z
Si Si1 0.685166 0.391898 0.186962
Si Si2 0.070618 0.826126 0.658076
Si Si3 0.506157 0.514853 0.910441
Si Si4 0.640126 0.817237 0.862223
Si Si5 0.658302 0.662726 0.697756
O O1 0.750000 0.250000 0.144342
O O2 0.618633 0.323991 0.257561
O O3 0.603347 0.482015 0.132734
O O4 0.779575 0.499297 0.221077
O O5 0.071204 0.642375 0.621920
O O6 0.949788 0.871780 0.660949
O O7 0.123819 0.988473 0.621327
O O8 0.555726 0.693533 0.894348
O O9 0.500000 0.500000 0.000000
O O10 0.750000 0.750000 0.888110
O O11 0.635419 0.777594 0.771209
O O12 0.750000 0.750000 0.650393
#
# Coordination Sequence:
#
# PCOD9433229 Si02
#       5
#     8   8   8   8   8
#     4  12  24  42  73 104 139 185 243 300 353 420
#     4  12  23  43  77  98 141 185 232 299 350 412
#     4  12  28  48  66 105 147 184 234 291 361 434
#     4  11  23  42  68 102 137 175 234 289 348 423
#     4  11  20  39  66 105 131 169 243 292 336 412
#
# _framework density 21.631036000000002
#
# number of rings (size 3 to 8) (size 9 to 14) (size 15 to 20)
#    0.000    0.400    8.000    2.400    0.000    0.800 
#    7.200    0.000    0.000    0.000    0.000    0.000 
#    0.000    0.000    0.000    0.000    0.000    0.000 
#
# Total GULP energy -222971.523501 kJ/mol
# GULP energy per Si atom -5574.288088 kJ/mol
# Density = 2.158180 g / cm^3
# Si number density = 21.631036 Si / 1000 Ang^3
#
#
#
# Elastic Constant Matrix: (Units=GPa)
#
#
# Indices 1 2 3 4 5 6 
#
# 1 88.2059 21.9615 -3.6357 0.0000 0.0000 0.0000
# 2 21.9615 118.9004 25.4678 0.0000 0.0000 0.0000
# 3 -3.6357 25.4678 67.9767 0.0000 0.0000 0.0000
# 4 0.0000 0.0000 0.0000 10.3376 0.0000 0.0000
# 5 0.0000 0.0000 0.0000 0.0000 -1.7512 0.0000
# 6 0.0000 0.0000 0.0000 0.0000 0.0000 59.7338
#
#
#
# Elastic Compliance Matrix: (Units=1/GPa)
#
#
# Indices 1 2 3 4 5 6 
#
# 1 0.012043 -0.002568 0.001606 0.000000 0.000000 0.000000
# 2 -0.002568 0.009692 -0.003769 0.000000 0.000000 0.000000
# 3 0.001606 -0.003769 0.016209 0.000000 0.000000 0.000000
# 4 0.000000 0.000000 0.000000 0.096734 0.000000 0.000000
# 5 0.000000 0.000000 0.000000 0.000000 -0.571025 0.000000
# 6 0.000000 0.000000 0.000000 0.000000 0.000000 0.016741
#
#
# Mechanical properties :
#
#
# Convention : Reuss Voigt Hill
#
# Bulk Modulus (GPa) = 35.10944 40.29670 37.70307
# Shear Modulus (GPa) = -12.47968 29.08332 8.30182
#
# Velocity S-wave (km/s) = -2.40455 3.67075 1.96119
# Velocity P-wave (km/s) = 2.92526 6.05272 4.75355
#
# Compressibility (1/GPa) = 0.02848237
#
# Stress axis : x y z
#
# Youngs Moduli (GPa) = 83.03705 103.17786 61.69510
#
# Poissons Ratio (x) = 0.26501 -0.09911
# Poissons Ratio (y) = 0.21328 0.23250
# Poissons Ratio (z) = -0.13339 0.38883
#
# Static dielectric constant tensor:
#      x y z
#    x 1.828350 0.000000 0.000000 
#    y 0.000000 1.996230 0.000000 
#    z 0.000000 0.000000 1.757970 
# 
# From -- ./inp_files/15425.got.cif
#   From: 2010.05.17/outbox.cif.g08.bks.cpg/sg56_8_cif.got.tgz:15425.got - 2010.06.03 13:42:01.
