data_PCOD9433220
_publ_section_title
;
Structure prediction by ZEFSAII (Michael W. Deem and Ramdas Pophale) SiO2 
 PCOD9433220
Probable space group: P C C N
;
_chemical_formula_sum "Si O2"
_cell_formula_units_Z 40
_cell_length_a 13.358151
_cell_length_b 12.414837
_cell_length_c 9.724924
_cell_angle_alpha 90.000000
_cell_angle_beta 90.000000
_cell_angle_gamma 90.000000
_cell_volume 1612.774271
_symmetry_space_group_name_H-M "P C C N"
_symmetry_group_IT_number 56
_symmetry_cell_setting 'orthorhombic'
loop_
_space_group_symop_operation_xyz
x,y,z
1/2-x,1/2-y,z
1/2+x,-y,1/2-z
-x,1/2+y,1/2-z
-x,-y,-z
1/2+x,1/2+y,-z
1/2-x,y,1/2+z
x,1/2-y,1/2+z
loop_
_atom_site_type_symbol
_atom_site_label
_atom_site_fract_x
_atom_site_fract_y
_atom_site_fract_z
Si Si1 0.820215 0.529630 0.291789
Si Si2 0.650639 0.053937 0.589219
Si Si3 0.049263 0.594580 0.914038
Si Si4 0.349892 0.736651 0.594821
Si Si5 0.477118 0.309373 0.198728
O O1 0.827693 0.521045 0.456999
O O2 0.716966 0.494401 0.215116
O O3 0.899647 0.445966 0.224910
O O4 0.868528 0.646815 0.259388
O O5 0.662754 0.171393 0.518005
O O6 0.538141 0.084176 0.643055
O O7 0.980577 0.701148 0.894476
O O8 0.142212 0.628139 0.009051
O O9 0.000000 0.500000 0.000000
O O10 0.250000 0.750000 0.685008
O O11 0.451010 0.731639 0.679642
#
# Coordination Sequence:
#
# PCOD9433220 Si02
#       5
#     8   8   8   8   8
#     4  12  24  47  73 111 155 206 257 331 401 469
#     4  11  25  42  72 111 154 203 267 323 392 480
#     4  11  23  40  71 110 151 198 253 321 402 467
#     4  11  20  37  67 115 147 189 251 318 388 459
#     4  11  25  42  75 114 155 202 265 328 399 473
#
# _framework density 24.801983
#
# number of rings (size 3 to 8) (size 9 to 14) (size 15 to 20)
#    0.000    0.800    6.000    1.800    0.000    0.000 
#    0.000    0.000    0.000   12.000    0.000    0.000 
#    0.000    0.000    0.000    0.000    0.000    0.000 
#
# Total GULP energy -222746.779066 kJ/mol
# GULP energy per Si atom -5568.669477 kJ/mol
# Density = 2.474553 g / cm^3
# Si number density = 24.801983 Si / 1000 Ang^3
#
#
#
# Elastic Constant Matrix: (Units=GPa)
#
#
# Indices 1 2 3 4 5 6 
#
# 1 82.0106 57.9498 26.8444 0.0000 0.0000 0.0000
# 2 57.9498 98.5036 26.3991 0.0000 0.0000 0.0000
# 3 26.8444 26.3991 115.3504 0.0000 0.0000 0.0000
# 4 0.0000 0.0000 0.0000 41.2992 0.0000 0.0000
# 5 0.0000 0.0000 0.0000 0.0000 27.8484 0.0000
# 6 0.0000 0.0000 0.0000 0.0000 0.0000 46.0333
#
#
#
# Elastic Compliance Matrix: (Units=1/GPa)
#
#
# Indices 1 2 3 4 5 6 
#
# 1 0.021397 -0.011988 -0.002236 0.000000 0.000000 0.000000
# 2 -0.011988 0.017532 -0.001222 0.000000 0.000000 0.000000
# 3 -0.002236 -0.001222 0.009469 0.000000 0.000000 0.000000
# 4 0.000000 0.000000 0.000000 0.024214 0.000000 0.000000
# 5 0.000000 0.000000 0.000000 0.000000 0.035909 0.000000
# 6 0.000000 0.000000 0.000000 0.000000 0.000000 0.021723
#
#
# Mechanical properties :
#
#
# Convention : Reuss Voigt Hill
#
# Bulk Modulus (GPa) = 57.12697 57.58348 57.35522
# Shear Modulus (GPa) = 29.94508 35.34759 32.64634
#
# Velocity S-wave (km/s) = 3.47849 3.77927 3.63199
# Velocity P-wave (km/s) = 6.26230 6.50473 6.38467
#
# Compressibility (1/GPa) = 0.01750487
#
# Stress axis : x y z
#
# Youngs Moduli (GPa) = 46.73641 57.03734 105.60411
#
# Poissons Ratio (x) = 0.68379 0.23610
# Poissons Ratio (y) = 0.56030 0.12910
# Poissons Ratio (z) = 0.10449 0.06973
#
# Static dielectric constant tensor:
#      x y z
#    x 2.230580 0.000000 0.000000 
#    y 0.000000 1.770270 0.000000 
#    z 0.000000 0.000000 2.127380 
# 
# From -- ./inp_files/7682.got.cif
#   From: 2010.05.17/outbox.cif.g08.bks.cpg/sg56_4_cif.got.tgz:7682.got - 2010.06.03 13:42:01.
