data_PCOD9433434
_publ_section_title
;
Structure prediction by ZEFSAII (Michael W. Deem and Ramdas Pophale) SiO2 
 PCOD9433434
Probable space group: P C C N
;
_chemical_formula_sum "Si O2"
_cell_formula_units_Z 44
_cell_length_a 16.116850
_cell_length_b 7.262655
_cell_length_c 14.943840
_cell_angle_alpha 90.000000
_cell_angle_beta 90.000000
_cell_angle_gamma 90.000000
_cell_volume 1749.193228
_symmetry_space_group_name_H-M "P C C N"
_symmetry_group_IT_number 56
_symmetry_cell_setting 'orthorhombic'
loop_
_space_group_symop_operation_xyz
x,y,z
1/2-x,1/2-y,z
1/2+x,-y,1/2-z
-x,1/2+y,1/2-z
-x,-y,-z
1/2+x,1/2+y,-z
1/2-x,y,1/2+z
x,1/2-y,1/2+z
loop_
_atom_site_type_symbol
_atom_site_label
_atom_site_fract_x
_atom_site_fract_y
_atom_site_fract_z
Si Si1 0.039045 0.775760 0.615159
Si Si2 0.104944 0.388535 0.590131
Si Si3 0.174109 0.625413 0.259880
Si Si4 0.604108 0.548272 0.525420
Si Si5 0.750000 0.750000 0.784277
Si Si6 0.215984 0.923086 0.952076
O O1 0.041851 0.551880 0.616279
O O2 0.094237 0.838062 0.699734
O O3 0.949823 0.874115 0.608049
O O4 0.080102 0.855952 0.523122
O O5 0.081073 0.185728 0.557715
O O6 0.179945 0.358029 0.659097
O O7 0.147943 0.462412 0.501060
O O8 0.250000 0.750000 0.223517
O O9 0.200111 0.412065 0.262749
O O10 0.173354 0.668418 0.365058
O O11 0.699981 0.543752 0.554312
O O12 0.250000 0.750000 0.008781
#
# Coordination Sequence:
#
# PCOD9433434 Si02
#       6
#     8   8   8   8   4   8
#     4  11  23  42  64  94 132 164 219 272 322 381
#     4  12  21  39  67  96 122 171 222 267 317 400
#     4  11  24  41  63  94 128 172 214 268 317 395
#     4  11  23  40  66  95 128 172 211 271 329 384
#     4  12  22  34  70  94 120 162 228 266 314 370
#     4  11  23  41  66  92 130 169 216 261 331 390
#
# _framework density 25.154451999999999
#
# number of rings (size 3 to 8) (size 9 to 14) (size 15 to 20)
#    0.000    0.727    7.273    0.545    2.545    0.000 
#    0.000    3.636    0.000    0.000    0.000    0.000 
#    0.000    0.000    0.000    0.000    0.000    0.000 
#
# Total GULP energy -245584.508363 kJ/mol
# GULP energy per Si atom -5581.466099 kJ/mol
# Density = 2.509720 g / cm^3
# Si number density = 25.154452 Si / 1000 Ang^3
#
#
#
# Elastic Constant Matrix: (Units=GPa)
#
#
# Indices 1 2 3 4 5 6 
#
# 1 57.8212 -4.2133 -2.5497 0.0000 0.0000 0.0000
# 2 -4.2133 117.3334 -4.2566 0.0000 0.0000 0.0000
# 3 -2.5497 -4.2566 50.1800 0.0000 0.0000 0.0000
# 4 0.0000 0.0000 0.0000 40.8356 0.0000 0.0000
# 5 0.0000 0.0000 0.0000 0.0000 87.3864 0.0000
# 6 0.0000 0.0000 0.0000 0.0000 0.0000 27.8516
#
#
#
# Elastic Compliance Matrix: (Units=1/GPa)
#
#
# Indices 1 2 3 4 5 6 
#
# 1 0.017384 0.000658 0.000939 0.000000 0.000000 0.000000
# 2 0.000658 0.008574 0.000761 0.000000 0.000000 0.000000
# 3 0.000939 0.000761 0.020040 0.000000 0.000000 0.000000
# 4 0.000000 0.000000 0.000000 0.024488 0.000000 0.000000
# 5 0.000000 0.000000 0.000000 0.000000 0.011443 0.000000
# 6 0.000000 0.000000 0.000000 0.000000 0.000000 0.035905
#
#
# Mechanical properties :
#
#
# Convention : Reuss Voigt Hill
#
# Bulk Modulus (GPa) = 19.71805 22.58838 21.15321
# Shear Modulus (GPa) = 38.45458 46.97168 42.71313
#
# Velocity S-wave (km/s) = 3.91415 4.32595 4.12519
# Velocity P-wave (km/s) = 5.31820 5.82676 5.57828
#
# Compressibility (1/GPa) = 0.05071495
#
# Stress axis : x y z
#
# Youngs Moduli (GPa) = 57.52387 116.63222 49.89898
#
# Poissons Ratio (x) = -0.07678 -0.04686
# Poissons Ratio (y) = -0.03787 -0.03796
# Poissons Ratio (z) = -0.05402 -0.08873
#
# Static dielectric constant tensor:
#      x y z
#    x 2.035380 0.000000 0.000000 
#    y 0.000000 2.041890 0.000000 
#    z 0.000000 0.000000 1.999790 
# 
# From -- ./inp_files/12640.got.cif
#   From: 2010.05.17/outbox.cif.g08.bks.cpg/sg56_7_cif.got.tgz:12640.got - 2010.06.03 13:42:01.
