data_PCOD9433874
_publ_section_title
;
Structure prediction by ZEFSAII (Michael W. Deem and Ramdas Pophale) SiO2 
 PCOD9433874
Probable space group: P C C N
;
_chemical_formula_sum "Si O2"
_cell_formula_units_Z 32
_cell_length_a 14.473829
_cell_length_b 10.921488
_cell_length_c 7.838997
_cell_angle_alpha 90.000000
_cell_angle_beta 90.000000
_cell_angle_gamma 90.000000
_cell_volume 1239.155328
_symmetry_space_group_name_H-M "P C C N"
_symmetry_group_IT_number 56
_symmetry_cell_setting 'orthorhombic'
loop_
_space_group_symop_operation_xyz
x,y,z
1/2-x,1/2-y,z
1/2+x,-y,1/2-z
-x,1/2+y,1/2-z
-x,-y,-z
1/2+x,1/2+y,-z
1/2-x,y,1/2+z
x,1/2-y,1/2+z
loop_
_atom_site_type_symbol
_atom_site_label
_atom_site_fract_x
_atom_site_fract_y
_atom_site_fract_z
Si Si1 0.107303 0.459708 0.490441
Si Si2 0.845967 0.203286 0.183989
Si Si3 0.973544 0.362923 0.985789
Si Si4 0.857716 0.755112 0.310584
O O1 0.161477 0.584758 0.440491
O O2 0.130887 0.360356 0.337442
O O3 0.125934 0.393234 0.673176
O O4 0.000000 0.500000 0.500000
O O5 0.750000 0.250000 0.261713
O O6 0.886433 0.323098 0.095817
O O7 0.932256 0.169473 0.303665
O O8 0.065329 0.296824 0.052462
O O9 0.000000 0.500000 0.000000
O O10 0.750000 0.750000 0.359523
#
# Coordination Sequence:
#
# PCOD9433874 Si02
#       4
#     8   8   8   8
#     4  12  28  53  83 120 164 222 281 343 424 497
#     4  12  29  52  81 121 164 222 279 350 425 505
#     4  12  27  52  81 118 164 219 281 352 416 498
#     4  12  28  53  81 122 166 220 277 346 419 501
#
# _framework density 25.824045000000002
#
# number of rings (size 3 to 8) (size 9 to 14) (size 15 to 20)
#    0.000    0.000    5.000    3.000    3.500    2.000 
#    0.000    0.000    0.000    0.000    0.000    0.000 
#    0.000    0.000    0.000    0.000    0.000    0.000 
#
# Total GULP energy -178345.251579 kJ/mol
# GULP energy per Si atom -5573.289112 kJ/mol
# Density = 2.576527 g / cm^3
# Si number density = 25.824045 Si / 1000 Ang^3
#
#
#
# Elastic Constant Matrix: (Units=GPa)
#
#
# Indices 1 2 3 4 5 6 
#
# 1 183.1328 58.4884 41.0239 0.0000 0.0000 0.0000
# 2 58.4884 134.9793 53.1323 0.0000 0.0000 0.0000
# 3 41.0239 53.1323 66.6683 0.0000 0.0000 0.0000
# 4 0.0000 0.0000 0.0000 58.0045 0.0000 0.0000
# 5 0.0000 0.0000 0.0000 0.0000 34.1245 0.0000
# 6 0.0000 0.0000 0.0000 0.0000 0.0000 31.5288
#
#
#
# Elastic Compliance Matrix: (Units=1/GPa)
#
#
# Indices 1 2 3 4 5 6 
#
# 1 0.006635 -0.001848 -0.002611 0.000000 0.000000 0.000000
# 2 -0.001848 0.011310 -0.007876 0.000000 0.000000 0.000000
# 3 -0.002611 -0.007876 0.022883 0.000000 0.000000 0.000000
# 4 0.000000 0.000000 0.000000 0.017240 0.000000 0.000000
# 5 0.000000 0.000000 0.000000 0.000000 0.029304 0.000000
# 6 0.000000 0.000000 0.000000 0.000000 0.000000 0.031717
#
#
# Mechanical properties :
#
#
# Convention : Reuss Voigt Hill
#
# Bulk Modulus (GPa) = 61.88485 76.67439 69.27962
# Shear Modulus (GPa) = 33.52438 40.20729 36.86584
#
# Velocity S-wave (km/s) = 3.60694 3.95013 3.78243
# Velocity P-wave (km/s) = 6.43139 7.11057 6.77949
#
# Compressibility (1/GPa) = 0.01615904
#
# Stress axis : x y z
#
# Youngs Moduli (GPa) = 150.70674 88.42087 43.70006
#
# Poissons Ratio (x) = 0.16337 0.11408
# Poissons Ratio (y) = 0.27845 0.34420
# Poissons Ratio (z) = 0.39343 0.69644
#
# Static dielectric constant tensor:
#      x y z
#    x 1.980960 0.000000 0.000000 
#    y 0.000000 2.079880 0.000000 
#    z 0.000000 0.000000 2.325280 
# 
# From -- ./inp_files/3090.got.cif
#   From: 2010.05.17/outbox.cif.g08.bks.cpg/sg56_2_cif.got.tgz:3090.got - 2010.06.03 13:42:01.
