data_PCOD9433487
_publ_section_title
;
Structure prediction by ZEFSAII (Michael W. Deem and Ramdas Pophale) SiO2 
 PCOD9433487
Probable space group: P C C N
;
_chemical_formula_sum "Si O2"
_cell_formula_units_Z 56
_cell_length_a 28.423094
_cell_length_b 6.649133
_cell_length_c 13.786257
_cell_angle_alpha 90.000000
_cell_angle_beta 90.000000
_cell_angle_gamma 90.000000
_cell_volume 2605.449991
_symmetry_space_group_name_H-M "P C C N"
_symmetry_group_IT_number 56
_symmetry_cell_setting 'orthorhombic'
loop_
_space_group_symop_operation_xyz
x,y,z
1/2-x,1/2-y,z
1/2+x,-y,1/2-z
-x,1/2+y,1/2-z
-x,-y,-z
1/2+x,1/2+y,-z
1/2-x,y,1/2+z
x,1/2-y,1/2+z
loop_
_atom_site_type_symbol
_atom_site_label
_atom_site_fract_x
_atom_site_fract_y
_atom_site_fract_z
Si Si1 0.667555 0.854032 0.567591
Si Si2 0.696823 0.707234 0.363363
Si Si3 0.035582 0.630655 0.808965
Si Si4 0.199363 0.646655 0.268554
Si Si5 0.430499 0.552046 0.961373
Si Si6 0.864626 0.967277 0.721436
Si Si7 0.495919 0.764366 0.102856
O O1 0.693845 0.762847 0.475623
O O2 0.646907 0.668611 0.628557
O O3 0.697828 0.989241 0.641967
O O4 0.623508 0.990343 0.534270
O O5 0.750000 0.750000 0.328094
O O6 0.687579 0.480266 0.328340
O O7 0.658989 0.847433 0.309760
O O8 0.057103 0.820694 0.865152
O O9 0.079828 0.498195 0.773866
O O10 0.006749 0.691938 0.714564
O O11 0.005479 0.500288 0.885210
O O12 0.250000 0.750000 0.260245
O O13 0.161039 0.818823 0.284980
O O14 0.462294 0.351199 0.953052
O O15 0.448786 0.689389 0.049726
#
# Coordination Sequence:
#
# PCOD9433487 Si02
#       7
#     8   8   8   8   8   8   8
#     4  11  25  44  69 100 135 179 223 281 337 403
#     4  11  25  44  68 100 137 174 228 276 334 405
#     4  12  22  44  67  98 131 178 228 269 349 397
#     4  11  24  46  70  96 137 178 221 279 341 397
#     4  11  23  44  63 100 136 169 227 276 329 401
#     4  11  24  44  68  99 137 174 223 286 331 402
#     4  11  24  40  68  94 134 177 220 280 331 401
#
# _framework density 21.493407000000001
#
# number of rings (size 3 to 8) (size 9 to 14) (size 15 to 20)
#    0.000    0.857    5.714    1.286    2.000    1.143 
#    2.571    0.000    0.000    0.000    0.000    0.000 
#    0.000    0.000    0.000    0.000    0.000    0.000 
#
# Total GULP energy -313178.988266 kJ/mol
# GULP energy per Si atom -5592.481933 kJ/mol
# Density = 2.144449 g / cm^3
# Si number density = 21.493407 Si / 1000 Ang^3
#
#
#
# Elastic Constant Matrix: (Units=GPa)
#
#
# Indices 1 2 3 4 5 6 
#
# 1 56.5012 37.9156 29.4242 0.0000 0.0000 0.0000
# 2 37.9156 99.4171 22.0370 0.0000 0.0000 0.0000
# 3 29.4242 22.0370 69.1575 0.0000 0.0000 0.0000
# 4 0.0000 0.0000 0.0000 17.4842 0.0000 0.0000
# 5 0.0000 0.0000 0.0000 0.0000 23.4330 0.0000
# 6 0.0000 0.0000 0.0000 0.0000 0.0000 37.6177
#
#
#
# Elastic Compliance Matrix: (Units=1/GPa)
#
#
# Indices 1 2 3 4 5 6 
#
# 1 0.028436 -0.008784 -0.009300 0.000000 0.000000 0.000000
# 2 -0.008784 0.013536 -0.000576 0.000000 0.000000 0.000000
# 3 -0.009300 -0.000576 0.018600 0.000000 0.000000 0.000000
# 4 0.000000 0.000000 0.000000 0.057195 0.000000 0.000000
# 5 0.000000 0.000000 0.000000 0.000000 0.042675 0.000000
# 6 0.000000 0.000000 0.000000 0.000000 0.000000 0.026583
#
#
# Mechanical properties :
#
#
# Convention : Reuss Voigt Hill
#
# Bulk Modulus (GPa) = 43.00443 44.86993 43.93718
# Shear Modulus (GPa) = 21.54291 24.75358 23.14825
#
# Velocity S-wave (km/s) = 3.16935 3.39733 3.28532
# Velocity P-wave (km/s) = 5.78314 6.02582 5.90573
#
# Compressibility (1/GPa) = 0.02325342
#
# Stress axis : x y z
#
# Youngs Moduli (GPa) = 35.16670 73.87596 53.76322
#
# Poissons Ratio (x) = 0.64889 0.49998
# Poissons Ratio (y) = 0.30889 0.03098
# Poissons Ratio (z) = 0.32704 0.04257
#
# Static dielectric constant tensor:
#      x y z
#    x 1.746520 0.000000 0.000000 
#    y 0.000000 1.784830 0.000000 
#    z 0.000000 0.000000 1.791840 
# 
# From -- ./inp_files/13479.got.cif
#   From: 2010.05.17/outbox.cif.g08.bks.cpg/sg56_7_cif.got.tgz:13479.got - 2010.06.03 13:42:01.
