data_PCOD9433222
_publ_section_title
;
Structure prediction by ZEFSAII (Michael W. Deem and Ramdas Pophale) SiO2 
 PCOD9433222
Probable space group: P C C N
;
_chemical_formula_sum "Si O2"
_cell_formula_units_Z 60
_cell_length_a 12.659721
_cell_length_b 9.474811
_cell_length_c 22.404875
_cell_angle_alpha 90.000000
_cell_angle_beta 90.000000
_cell_angle_gamma 90.000000
_cell_volume 2687.430338
_symmetry_space_group_name_H-M "P C C N"
_symmetry_group_IT_number 56
_symmetry_cell_setting 'orthorhombic'
loop_
_space_group_symop_operation_xyz
x,y,z
1/2-x,1/2-y,z
1/2+x,-y,1/2-z
-x,1/2+y,1/2-z
-x,-y,-z
1/2+x,1/2+y,-z
1/2-x,y,1/2+z
x,1/2-y,1/2+z
loop_
_atom_site_type_symbol
_atom_site_label
_atom_site_fract_x
_atom_site_fract_y
_atom_site_fract_z
Si Si1 0.585975 0.374970 0.487909
Si Si2 0.114745 0.550308 0.352058
Si Si3 0.077129 0.252699 0.658336
Si Si4 0.250000 0.750000 0.422975
Si Si5 0.272635 0.110523 0.057351
Si Si6 0.917722 0.036817 0.288750
Si Si7 0.991435 0.273742 0.366316
Si Si8 0.816100 0.013153 0.835432
O O1 0.500000 0.500000 0.500000
O O2 0.644047 0.280388 0.537855
O O3 0.683382 0.475193 0.472639
O O4 0.544556 0.284163 0.431427
O O5 0.219167 0.615921 0.381458
O O6 0.107946 0.557529 0.280289
O O7 0.019756 0.659010 0.367182
O O8 0.084105 0.390324 0.370668
O O9 0.144238 0.174661 0.606065
O O10 0.146415 0.367881 0.695394
O O11 0.045021 0.123472 0.700299
O O12 0.250000 0.250000 0.019198
O O13 0.179595 0.045689 0.096736
O O14 0.999396 0.138782 0.322810
O O15 0.802247 0.054611 0.319898
O O16 0.897414 0.361447 0.333782
#
# Coordination Sequence:
#
# PCOD9433222 Si02
#       8
#     8   8   8   4   8   8   8   8
#     4  12  25  44  70  98 134 186 237 289 342 413
#     4  11  26  44  61  99 143 181 217 288 368 416
#     4   9  18  38  63  94 132 170 217 272 343 408
#     4  12  30  46  66  94 142 188 230 292 362 414
#     4   9  17  34  63  92 121 158 219 276 326 388
#     4  11  20  37  70 102 136 176 226 284 346 422
#     4  11  23  41  70 101 131 180 240 278 337 424
#     4   9  18  33  64 100 126 168 221 283 322 401
#
# _framework density 22.326159000000001
#
# number of rings (size 3 to 8) (size 9 to 14) (size 15 to 20)
#    0.000    1.600    2.667    4.000    1.867    1.600 
#    0.000    2.667    0.000    0.000    0.000    0.000 
#    0.000    0.000    0.000    0.000    0.000    0.000 
#
# Total GULP energy -334027.472849 kJ/mol
# GULP energy per Si atom -5567.124547 kJ/mol
# Density = 2.227534 g / cm^3
# Si number density = 22.326159 Si / 1000 Ang^3
#
#
#
# Elastic Constant Matrix: (Units=GPa)
#
#
# Indices 1 2 3 4 5 6 
#
# 1 34.3993 17.3237 13.6149 0.0000 0.0000 0.0000
# 2 17.3237 148.1963 49.4492 0.0000 0.0000 0.0000
# 3 13.6149 49.4492 84.3911 0.0000 0.0000 0.0000
# 4 0.0000 0.0000 0.0000 -0.8231 0.0000 0.0000
# 5 0.0000 0.0000 0.0000 0.0000 15.0027 0.0000
# 6 0.0000 0.0000 0.0000 0.0000 0.0000 43.2680
#
#
#
# Elastic Compliance Matrix: (Units=1/GPa)
#
#
# Indices 1 2 3 4 5 6 
#
# 1 0.031776 -0.002491 -0.003667 0.000000 0.000000 0.000000
# 2 -0.002491 0.008583 -0.004627 0.000000 0.000000 0.000000
# 3 -0.003667 -0.004627 0.015153 0.000000 0.000000 0.000000
# 4 0.000000 0.000000 0.000000 -1.214862 0.000000 0.000000
# 5 0.000000 0.000000 0.000000 0.000000 0.066655 0.000000
# 6 0.000000 0.000000 0.000000 0.000000 0.000000 0.023112
#
#
# Mechanical properties :
#
#
# Convention : Reuss Voigt Hill
#
# Bulk Modulus (GPa) = 29.46267 47.52915 38.49591
# Shear Modulus (GPa) = -4.82300 23.92944 9.55322
#
# Velocity S-wave (km/s) = -1.47137 3.27741 2.07080
# Velocity P-wave (km/s) = 3.21536 5.97132 4.79558
#
# Compressibility (1/GPa) = 0.03394126
#
# Stress axis : x y z
#
# Youngs Moduli (GPa) = 31.47018 116.50895 65.99531
#
# Poissons Ratio (x) = 0.29022 0.24200
# Poissons Ratio (y) = 0.07839 0.30538
# Poissons Ratio (z) = 0.11540 0.53913
#
# Static dielectric constant tensor:
#      x y z
#    x 0.985390 0.000000 0.000000 
#    y 0.000000 2.012330 0.000000 
#    z 0.000000 0.000000 2.112250 
# 
# From -- ./inp_files/21121.got.cif
#   From: 2010.05.17/outbox.cif.g08.bks.cpg/sg56_11_cif.got.tgz:21121.got - 2010.06.03 13:42:01.
