data_PCOD9433245
_publ_section_title
;
Structure prediction by ZEFSAII (Michael W. Deem and Ramdas Pophale) SiO2 
 PCOD9433245
Probable space group: P C C N
;
_chemical_formula_sum "Si O2"
_cell_formula_units_Z 36
_cell_length_a 6.653642
_cell_length_b 13.793996
_cell_length_c 17.878850
_cell_angle_alpha 90.000000
_cell_angle_beta 90.000000
_cell_angle_gamma 90.000000
_cell_volume 1640.926416
_symmetry_space_group_name_H-M "P C C N"
_symmetry_group_IT_number 56
_symmetry_cell_setting 'orthorhombic'
loop_
_space_group_symop_operation_xyz
x,y,z
1/2-x,1/2-y,z
1/2+x,-y,1/2-z
-x,1/2+y,1/2-z
-x,-y,-z
1/2+x,1/2+y,-z
1/2-x,y,1/2+z
x,1/2-y,1/2+z
loop_
_atom_site_type_symbol
_atom_site_label
_atom_site_fract_x
_atom_site_fract_y
_atom_site_fract_z
Si Si1 0.387179 0.842642 0.471298
Si Si2 0.661833 0.908999 0.345820
Si Si3 0.566081 0.486400 0.585444
Si Si4 0.928406 0.599916 0.628804
Si Si5 0.750000 0.750000 0.724747
O O1 0.250000 0.750000 0.488227
O O2 0.581472 0.846537 0.417367
O O3 0.235405 0.905413 0.421742
O O4 0.458360 0.888607 0.549519
O O5 0.667487 0.835846 0.277161
O O6 0.881519 0.950507 0.365760
O O7 0.528484 0.005947 0.332920
O O8 0.500000 0.500000 0.500000
O O9 0.692195 0.578204 0.613619
O O10 0.922823 0.698431 0.675507
#
# Coordination Sequence:
#
# PCOD9433245 Si02
#       5
#     8   8   8   8   4
#     4  11  23  42  73 108 134 178 245 299 353 415
#     4  11  24  50  70 102 145 188 238 295 357 423
#     4  11  20  43  77  99 131 177 236 310 345 398
#     4  11  26  45  69 108 140 182 244 292 355 421
#     4  12  30  44  70 104 150 200 226 274 366 452
#
# _framework density 21.938824
#
# number of rings (size 3 to 8) (size 9 to 14) (size 15 to 20)
#    0.000    0.889    4.444    2.667    6.222    0.889 
#    0.000    4.444    0.000    0.000    0.000    0.000 
#    0.000    0.000    0.000    0.000    0.000    0.000 
#
# Total GULP energy -200964.704646 kJ/mol
# GULP energy per Si atom -5582.352907 kJ/mol
# Density = 2.188889 g / cm^3
# Si number density = 21.938824 Si / 1000 Ang^3
#
#
#
# Elastic Constant Matrix: (Units=GPa)
#
#
# Indices 1 2 3 4 5 6 
#
# 1 111.9689 44.5906 27.3658 0.0000 0.0000 0.0000
# 2 44.5906 104.1702 42.0671 0.0000 0.0000 0.0000
# 3 27.3658 42.0671 72.1232 0.0000 0.0000 0.0000
# 4 0.0000 0.0000 0.0000 48.1181 0.0000 0.0000
# 5 0.0000 0.0000 0.0000 0.0000 -3.1259 0.0000
# 6 0.0000 0.0000 0.0000 0.0000 0.0000 37.4222
#
#
#
# Elastic Compliance Matrix: (Units=1/GPa)
#
#
# Indices 1 2 3 4 5 6 
#
# 1 0.010954 -0.003938 -0.001859 0.000000 0.000000 0.000000
# 2 -0.003938 0.013973 -0.006656 0.000000 0.000000 0.000000
# 3 -0.001859 -0.006656 0.018453 0.000000 0.000000 0.000000
# 4 0.000000 0.000000 0.000000 0.020782 0.000000 0.000000
# 5 0.000000 0.000000 0.000000 0.000000 -0.319905 0.000000
# 6 0.000000 0.000000 0.000000 0.000000 0.000000 0.026722
#
#
# Mechanical properties :
#
#
# Convention : Reuss Voigt Hill
#
# Bulk Modulus (GPa) = 54.13194 57.36769 55.74982
# Shear Modulus (GPa) = -25.25800 28.09880 1.42040
#
# Velocity S-wave (km/s) = -3.39675 3.58268 0.80551
# Velocity P-wave (km/s) = 3.05675 6.58178 5.13145
#
# Compressibility (1/GPa) = 0.01847338
#
# Stress axis : x y z
#
# Youngs Moduli (GPa) = 91.29308 71.56552 54.19223
#
# Poissons Ratio (x) = 0.28182 0.10076
# Poissons Ratio (y) = 0.35951 0.36070
# Poissons Ratio (z) = 0.16974 0.47634
#
# Static dielectric constant tensor:
#      x y z
#    x 1.820480 0.000000 0.000000 
#    y 0.000000 1.600890 0.000000 
#    z 0.000000 0.000000 1.817940 
# 
# From -- ./inp_files/17369.got.cif
#   From: 2010.05.17/outbox.cif.g08.bks.cpg/sg56_9_cif.got.tgz:17369.got - 2010.06.03 13:42:01.
