data_PCOD9433352
_publ_section_title
;
Structure prediction by ZEFSAII (Michael W. Deem and Ramdas Pophale) SiO2 
 PCOD9433352
Probable space group: P C C N
;
_chemical_formula_sum "Si O2"
_cell_formula_units_Z 56
_cell_length_a 8.552186
_cell_length_b 15.256081
_cell_length_c 20.518221
_cell_angle_alpha 90.000000
_cell_angle_beta 90.000000
_cell_angle_gamma 90.000000
_cell_volume 2677.070614
_symmetry_space_group_name_H-M "P C C N"
_symmetry_group_IT_number 56
_symmetry_cell_setting 'orthorhombic'
loop_
_space_group_symop_operation_xyz
x,y,z
1/2-x,1/2-y,z
1/2+x,-y,1/2-z
-x,1/2+y,1/2-z
-x,-y,-z
1/2+x,1/2+y,-z
1/2-x,y,1/2+z
x,1/2-y,1/2+z
loop_
_atom_site_type_symbol
_atom_site_label
_atom_site_fract_x
_atom_site_fract_y
_atom_site_fract_z
Si Si1 0.525742 0.924021 0.553063
Si Si2 0.128546 0.382940 0.976359
Si Si3 0.031021 0.674756 0.328428
Si Si4 0.613186 0.005160 0.317386
Si Si5 0.394460 0.867642 0.804668
Si Si6 0.924995 0.278350 0.527222
Si Si7 0.426122 0.006769 0.103001
O O1 0.693953 0.877601 0.547203
O O2 0.498136 0.964311 0.623534
O O3 0.407197 0.848292 0.530793
O O4 0.500000 0.000000 0.500000
O O5 0.039179 0.298664 0.003901
O O6 0.024893 0.422972 0.918398
O O7 0.137879 0.452401 0.035882
O O8 0.017780 0.773753 0.301141
O O9 0.210956 0.649170 0.315416
O O10 0.004479 0.680423 0.406589
O O11 0.924918 0.596261 0.301365
O O12 0.587866 0.070075 0.257554
O O13 0.787331 0.011436 0.346760
O O14 0.461273 0.920685 0.865817
O O15 0.750000 0.250000 0.545395
#
# Coordination Sequence:
#
# PCOD9433352 Si02
#       7
#     8   8   8   8   8   8   8
#     4  12  24  41  68 101 139 174 220 286 348 405
#     4  11  23  40  68 100 138 171 226 281 344 403
#     4  11  22  44  72  91 130 182 226 283 343 412
#     4  12  25  43  67  99 139 183 227 283 346 412
#     4  11  24  44  67  97 134 181 235 279 341 424
#     4  12  22  41  70 100 131 174 226 284 344 405
#     4  11  22  40  68 101 132 175 225 284 337 405
#
# _framework density 20.918386999999999
#
# number of rings (size 3 to 8) (size 9 to 14) (size 15 to 20)
#    0.000    0.571    5.714    3.000    2.000    0.571 
#   10.286    0.000    3.143    0.000    0.000    0.000 
#    0.000    0.000    0.000    0.000    0.000    0.000 
#
# Total GULP energy -313119.420764 kJ/mol
# GULP energy per Si atom -5591.418228 kJ/mol
# Density = 2.087078 g / cm^3
# Si number density = 20.918387 Si / 1000 Ang^3
#
#
#
# Elastic Constant Matrix: (Units=GPa)
#
#
# Indices 1 2 3 4 5 6 
#
# 1 54.4513 22.3829 17.0643 0.0000 0.0000 0.0000
# 2 22.3829 120.5115 54.2810 0.0000 0.0000 0.0000
# 3 17.0643 54.2810 63.8934 0.0000 0.0000 0.0000
# 4 0.0000 0.0000 0.0000 45.6194 0.0000 0.0000
# 5 0.0000 0.0000 0.0000 0.0000 23.9621 0.0000
# 6 0.0000 0.0000 0.0000 0.0000 0.0000 35.4068
#
#
#
# Elastic Compliance Matrix: (Units=1/GPa)
#
#
# Indices 1 2 3 4 5 6 
#
# 1 0.020384 -0.002161 -0.003609 0.000000 0.000000 0.000000
# 2 -0.002161 0.013670 -0.011037 0.000000 0.000000 0.000000
# 3 -0.003609 -0.011037 0.025991 0.000000 0.000000 0.000000
# 4 0.000000 0.000000 0.000000 0.021921 0.000000 0.000000
# 5 0.000000 0.000000 0.000000 0.000000 0.041733 0.000000
# 6 0.000000 0.000000 0.000000 0.000000 0.000000 0.028243
#
#
# Mechanical properties :
#
#
# Convention : Reuss Voigt Hill
#
# Bulk Modulus (GPa) = 37.83022 47.36805 42.59914
# Shear Modulus (GPa) = 25.72478 30.67284 28.19881
#
# Velocity S-wave (km/s) = 3.51061 3.83340 3.67555
# Velocity P-wave (km/s) = 5.87847 6.50282 6.19851
#
# Compressibility (1/GPa) = 0.02643389
#
# Stress axis : x y z
#
# Youngs Moduli (GPa) = 49.05793 73.15047 38.47461
#
# Poissons Ratio (x) = 0.15805 0.13884
# Poissons Ratio (y) = 0.10600 0.42464
# Poissons Ratio (z) = 0.17703 0.80734
#
# Static dielectric constant tensor:
#      x y z
#    x 1.766300 0.000000 0.000000 
#    y 0.000000 1.771990 0.000000 
#    z 0.000000 0.000000 1.730990 
# 
# From -- ./inp_files/18210.got.cif
#   From: 2010.05.17/outbox.cif.g08.bks.cpg/sg56_10_cif.got.tgz:18210.got - 2010.06.03 13:42:01.
