data_PCOD9433253
_publ_section_title
;
Structure prediction by ZEFSAII (Michael W. Deem and Ramdas Pophale) SiO2 
 PCOD9433253
Probable space group: P C C N
;
_chemical_formula_sum "Si O2"
_cell_formula_units_Z 40
_cell_length_a 18.288299
_cell_length_b 7.530744
_cell_length_c 13.623794
_cell_angle_alpha 90.000000
_cell_angle_beta 90.000000
_cell_angle_gamma 90.000000
_cell_volume 1876.330189
_symmetry_space_group_name_H-M "P C C N"
_symmetry_group_IT_number 56
_symmetry_cell_setting 'orthorhombic'
loop_
_space_group_symop_operation_xyz
x,y,z
1/2-x,1/2-y,z
1/2+x,-y,1/2-z
-x,1/2+y,1/2-z
-x,-y,-z
1/2+x,1/2+y,-z
1/2-x,y,1/2+z
x,1/2-y,1/2+z
loop_
_atom_site_type_symbol
_atom_site_label
_atom_site_fract_x
_atom_site_fract_y
_atom_site_fract_z
Si Si1 0.562332 0.867201 0.535296
Si Si2 0.543763 0.522633 0.646896
Si Si3 0.823051 0.504186 0.698983
Si Si4 0.810917 0.137532 0.625648
Si Si5 0.591209 0.745416 0.329835
O O1 0.524229 0.695244 0.583678
O O2 0.618286 0.943903 0.615421
O O3 0.605744 0.816837 0.437507
O O4 0.500000 0.000000 0.500000
O O5 0.612416 0.433045 0.590726
O O6 0.480095 0.382269 0.663157
O O7 0.572482 0.600080 0.751276
O O8 0.829765 0.289401 0.707035
O O9 0.738774 0.521698 0.666453
O O10 0.844528 0.621107 0.790364
O O11 0.750000 0.250000 0.563193
#
# Coordination Sequence:
#
# PCOD9433253 Si02
#       5
#     8   8   8   8   8
#     4  11  22  35  56  88 118 148 195 246 294 356
#     4  11  21  38  60  86 116 162 190 247 302 346
#     4   8  20  39  59  82 114 157 191 241 296 349
#     4   8  19  41  65  74 120 162 195 231 307 358
#     4  11  21  34  61  90 118 144 203 248 292 349
#
# _framework density 21.318207999999998
#
# number of rings (size 3 to 8) (size 9 to 14) (size 15 to 20)
#    1.200    0.800    0.000    5.400    0.000    3.200 
#    0.000    4.000    8.800    0.000    0.000    0.000 
#    0.000    0.000    0.000    0.000    0.000    0.000 
#
# Total GULP energy -222849.011496 kJ/mol
# GULP energy per Si atom -5571.225287 kJ/mol
# Density = 2.126969 g / cm^3
# Si number density = 21.318208 Si / 1000 Ang^3
#
#
#
# Elastic Constant Matrix: (Units=GPa)
#
#
# Indices 1 2 3 4 5 6 
#
# 1 81.4834 28.2775 -3.8943 0.0000 0.0000 0.0000
# 2 28.2775 67.9722 9.5817 0.0000 0.0000 0.0000
# 3 -3.8943 9.5817 73.0309 0.0000 0.0000 0.0000
# 4 0.0000 0.0000 0.0000 16.3315 0.0000 0.0000
# 5 0.0000 0.0000 0.0000 0.0000 0.6767 0.0000
# 6 0.0000 0.0000 0.0000 0.0000 0.0000 47.5474
#
#
#
# Elastic Compliance Matrix: (Units=1/GPa)
#
#
# Indices 1 2 3 4 5 6 
#
# 1 0.014524 -0.006267 0.001597 0.000000 0.000000 0.000000
# 2 -0.006267 0.017693 -0.002656 0.000000 0.000000 0.000000
# 3 0.001597 -0.002656 0.014126 0.000000 0.000000 0.000000
# 4 0.000000 0.000000 0.000000 0.061231 0.000000 0.000000
# 5 0.000000 0.000000 0.000000 0.000000 1.477804 0.000000
# 6 0.000000 0.000000 0.000000 0.000000 0.000000 0.021032
#
#
# Mechanical properties :
#
#
# Convention : Reuss Voigt Hill
#
# Bulk Modulus (GPa) = 31.55421 32.26847 31.91134
# Shear Modulus (GPa) = 3.06443 25.47924 14.27183
#
# Velocity S-wave (km/s) = 1.20025 3.46090 2.59021
# Velocity P-wave (km/s) = 4.09322 5.58031 4.89358
#
# Compressibility (1/GPa) = 0.03169149
#
# Stress axis : x y z
#
# Youngs Moduli (GPa) = 68.85319 56.51801 70.78950
#
# Poissons Ratio (x) = 0.35421 -0.11303
# Poissons Ratio (y) = 0.43151 0.18799
# Poissons Ratio (z) = -0.10994 0.15009
#
# Static dielectric constant tensor:
#      x y z
#    x 1.800630 0.000000 0.000000 
#    y 0.000000 1.834210 0.000000 
#    z 0.000000 0.000000 1.775870 
# 
# From -- ./inp_files/12574.got.cif
#   From: 2010.05.17/outbox.cif.g08.bks.cpg/sg56_7_cif.got.tgz:12574.got - 2010.06.03 13:42:01.
