data_PCOD9433621
_publ_section_title
;
Structure prediction by ZEFSAII (Michael W. Deem and Ramdas Pophale) SiO2 
 PCOD9433621
Probable space group: P C C N
;
_chemical_formula_sum "Si O2"
_cell_formula_units_Z 56
_cell_length_a 9.655060
_cell_length_b 14.580157
_cell_length_c 19.446962
_cell_angle_alpha 90.000000
_cell_angle_beta 90.000000
_cell_angle_gamma 90.000000
_cell_volume 2737.593387
_symmetry_space_group_name_H-M "P C C N"
_symmetry_group_IT_number 56
_symmetry_cell_setting 'orthorhombic'
loop_
_space_group_symop_operation_xyz
x,y,z
1/2-x,1/2-y,z
1/2+x,-y,1/2-z
-x,1/2+y,1/2-z
-x,-y,-z
1/2+x,1/2+y,-z
1/2-x,y,1/2+z
x,1/2-y,1/2+z
loop_
_atom_site_type_symbol
_atom_site_label
_atom_site_fract_x
_atom_site_fract_y
_atom_site_fract_z
Si Si1 0.562929 0.839761 0.350026
Si Si2 0.188499 0.437061 0.967142
Si Si3 0.071506 0.817960 0.270431
Si Si4 0.825428 0.954629 0.293781
Si Si5 0.750000 0.750000 0.459803
Si Si6 0.250000 0.750000 0.145684
Si Si7 0.282871 0.562683 0.845055
Si Si8 0.122762 0.575997 0.076092
O O1 0.496629 0.778508 0.290142
O O2 0.692801 0.898806 0.322395
O O3 0.621286 0.770139 0.408040
O O4 0.432810 0.902619 0.370529
O O5 0.234968 0.482838 0.896232
O O6 0.025456 0.417119 0.959616
O O7 0.246942 0.340849 0.993703
O O8 0.214780 0.515703 0.024120
O O9 0.148959 0.803783 0.198382
O O10 0.174882 0.853810 0.331053
O O11 0.945603 0.888277 0.267435
O O12 0.788293 0.019553 0.230808
O O13 0.886166 0.015005 0.355436
O O14 0.177737 0.674431 0.098331
#
# Coordination Sequence:
#
# PCOD9433621 Si02
#       8
#     8   8   8   8   4   4   8   8
#     4  12  24  44  71 103 142 189 234 296 360 430
#     4  11  27  48  72 102 146 197 238 297 365 438
#     4  12  22  43  71 107 143 184 235 301 365 426
#     4  12  23  45  74 100 144 188 234 300 367 424
#     4  12  26  50  72 102 150 198 246 290 366 442
#     4  12  26  42  76 112 144 186 258 302 356 444
#     4  12  26  42  74 107 143 179 245 300 363 427
#     4  11  24  48  71 102 146 196 235 296 367 432
#
# _framework density 20.455922999999999
#
# number of rings (size 3 to 8) (size 9 to 14) (size 15 to 20)
#    0.000    0.286    7.143    0.857    4.000    2.857 
#    0.000    0.000    0.000    0.000    0.000    0.000 
#    0.000    0.000    0.000    0.000    0.000    0.000 
#
# Total GULP energy -312883.605865 kJ/mol
# GULP energy per Si atom -5587.207248 kJ/mol
# Density = 2.040936 g / cm^3
# Si number density = 20.455923 Si / 1000 Ang^3
#
#
#
# Elastic Constant Matrix: (Units=GPa)
#
#
# Indices 1 2 3 4 5 6 
#
# 1 80.7139 43.2283 -4.9316 0.0000 0.0000 0.0000
# 2 43.2283 87.7926 15.5743 0.0000 0.0000 0.0000
# 3 -4.9316 15.5743 65.7721 0.0000 0.0000 0.0000
# 4 0.0000 0.0000 0.0000 43.7199 0.0000 0.0000
# 5 0.0000 0.0000 0.0000 0.0000 18.8036 0.0000
# 6 0.0000 0.0000 0.0000 0.0000 0.0000 35.4077
#
#
#
# Elastic Compliance Matrix: (Units=1/GPa)
#
#
# Indices 1 2 3 4 5 6 
#
# 1 0.017572 -0.009276 0.003514 0.000000 0.000000 0.000000
# 2 -0.009276 0.016786 -0.004670 0.000000 0.000000 0.000000
# 3 0.003514 -0.004670 0.016573 0.000000 0.000000 0.000000
# 4 0.000000 0.000000 0.000000 0.022873 0.000000 0.000000
# 5 0.000000 0.000000 0.000000 0.000000 0.053181 0.000000
# 6 0.000000 0.000000 0.000000 0.000000 0.000000 0.028242
#
#
# Mechanical properties :
#
#
# Convention : Reuss Voigt Hill
#
# Bulk Modulus (GPa) = 33.25847 38.00227 35.63037
# Shear Modulus (GPa) = 26.86512 31.61340 29.23926
#
# Velocity S-wave (km/s) = 3.62790 3.93547 3.78481
# Velocity P-wave (km/s) = 5.81746 6.26646 6.04613
#
# Compressibility (1/GPa) = 0.03006753
#
# Stress axis : x y z
#
# Youngs Moduli (GPa) = 56.90889 59.57258 60.33762
#
# Poissons Ratio (x) = 0.55257 -0.21202
# Poissons Ratio (y) = 0.52787 0.28180
# Poissons Ratio (z) = -0.19998 0.27822
#
# Static dielectric constant tensor:
#      x y z
#    x 1.753070 0.000000 0.000000 
#    y 0.000000 1.731110 0.000000 
#    z 0.000000 0.000000 1.698270 
# 
# From -- ./inp_files/18276.got.cif
#   From: 2010.05.17/outbox.cif.g08.bks.cpg/sg56_10_cif.got.tgz:18276.got - 2010.06.03 13:42:01.
