data_PCOD9433759
_publ_section_title
;
Structure prediction by ZEFSAII (Michael W. Deem and Ramdas Pophale) SiO2 
 PCOD9433759
Probable space group: P C C N
;
_chemical_formula_sum "Si O2"
_cell_formula_units_Z 48
_cell_length_a 5.045582
_cell_length_b 26.851730
_cell_length_c 17.335817
_cell_angle_alpha 90.000000
_cell_angle_beta 90.000000
_cell_angle_gamma 90.000000
_cell_volume 2348.701657
_symmetry_space_group_name_H-M "P C C N"
_symmetry_group_IT_number 56
_symmetry_cell_setting 'orthorhombic'
loop_
_space_group_symop_operation_xyz
x,y,z
1/2-x,1/2-y,z
1/2+x,-y,1/2-z
-x,1/2+y,1/2-z
-x,-y,-z
1/2+x,1/2+y,-z
1/2-x,y,1/2+z
x,1/2-y,1/2+z
loop_
_atom_site_type_symbol
_atom_site_label
_atom_site_fract_x
_atom_site_fract_y
_atom_site_fract_z
Si Si1 0.750000 0.250000 0.216475
Si Si2 0.647671 0.402145 0.636934
Si Si3 0.714960 0.351163 0.799894
Si Si4 0.277973 0.387296 0.381632
Si Si5 0.727110 0.994679 0.695493
Si Si6 0.250000 0.250000 0.106284
Si Si7 0.648825 0.640156 0.945162
O O1 0.699619 0.297535 0.269417
O O2 0.500507 0.239806 0.161414
O O3 0.708506 0.385585 0.724204
O O4 0.694123 0.461113 0.637176
O O5 0.353555 0.385271 0.614634
O O6 0.854244 0.374174 0.581458
O O7 0.423846 0.351276 0.836114
O O8 0.923212 0.372651 0.860669
O O9 0.222519 0.442313 0.348557
O O10 0.217531 0.381214 0.471313
O O11 0.448501 0.005881 0.737057
O O12 0.309833 0.300242 0.058947
#
# Coordination Sequence:
#
# PCOD9433759 Si02
#       7
#     4   8   8   8   8   4   8
#     4  12  24  38  72  96 120 170 232 264 308 390
#     4  12  23  43  69  96 127 175 220 260 318 398
#     4  12  23  43  68  96 127 168 223 268 312 384
#     4  12  26  44  65 101 136 166 213 277 330 376
#     4  12  23  40  70  96 127 174 218 267 326 379
#     4  12  22  42  64  94 126 176 208 260 336 384
#     4  12  26  42  66  96 136 168 212 274 328 390
#
# _framework density 20.436823
#
# number of rings (size 3 to 8) (size 9 to 14) (size 15 to 20)
#    0.000    0.000    6.667    4.000    0.000    2.667 
#    0.000    0.000    0.000    0.000    0.000    0.000 
#    0.000    0.000    0.000    0.000    0.000    0.000 
#
# Total GULP energy -268727.987279 kJ/mol
# GULP energy per Si atom -5598.499735 kJ/mol
# Density = 2.039031 g / cm^3
# Si number density = 20.436823 Si / 1000 Ang^3
#
#
#
# Elastic Constant Matrix: (Units=GPa)
#
#
# Indices 1 2 3 4 5 6 
#
# 1 53.1619 -22.0182 -3.9427 0.0000 0.0000 0.0000
# 2 -22.0182 78.8631 10.3927 0.0000 0.0000 0.0000
# 3 -3.9427 10.3927 44.7293 0.0000 0.0000 0.0000
# 4 0.0000 0.0000 0.0000 20.7410 0.0000 0.0000
# 5 0.0000 0.0000 0.0000 0.0000 15.6646 0.0000
# 6 0.0000 0.0000 0.0000 0.0000 0.0000 26.3932
#
#
#
# Elastic Compliance Matrix: (Units=1/GPa)
#
#
# Indices 1 2 3 4 5 6 
#
# 1 0.021281 0.005874 0.000511 0.000000 0.000000 0.000000
# 2 0.005874 0.014702 -0.002898 0.000000 0.000000 0.000000
# 3 0.000511 -0.002898 0.023075 0.000000 0.000000 0.000000
# 4 0.000000 0.000000 0.000000 0.048214 0.000000 0.000000
# 5 0.000000 0.000000 0.000000 0.000000 0.063838 0.000000
# 6 0.000000 0.000000 0.000000 0.000000 0.000000 0.037889
#
#
# Mechanical properties :
#
#
# Convention : Reuss Voigt Hill
#
# Bulk Modulus (GPa) = 15.14398 16.17977 15.66187
# Shear Modulus (GPa) = 22.31786 25.38126 23.84956
#
# Velocity S-wave (km/s) = 3.30819 3.52794 3.41983
# Velocity P-wave (km/s) = 4.69238 4.95270 4.82430
#
# Compressibility (1/GPa) = 0.06603285
#
# Stress axis : x y z
#
# Youngs Moduli (GPa) = 46.98957 68.01700 43.33670
#
# Poissons Ratio (x) = -0.39955 -0.02215
# Poissons Ratio (y) = -0.27603 0.12560
# Poissons Ratio (z) = -0.02401 0.19713
#
# Static dielectric constant tensor:
#      x y z
#    x 1.707530 0.000000 0.000000 
#    y 0.000000 1.750660 0.000000 
#    z 0.000000 0.000000 1.680720 
# 
# From -- ./inp_files/9735.got.cif
#   From: 2010.05.17/outbox.cif.g08.bks.cpg/sg56_5_cif.got.tgz:9735.got - 2010.06.03 13:42:01.
