data_PCOD9433820
_publ_section_title
;
Structure prediction by ZEFSAII (Michael W. Deem and Ramdas Pophale) SiO2 
 PCOD9433820
Probable space group: P C C N
;
_chemical_formula_sum "Si O2"
_cell_formula_units_Z 24
_cell_length_a 4.864096
_cell_length_b 7.852767
_cell_length_c 27.694657
_cell_angle_alpha 90.000000
_cell_angle_beta 90.000000
_cell_angle_gamma 90.000000
_cell_volume 1057.842083
_symmetry_space_group_name_H-M "P C C N"
_symmetry_group_IT_number 56
_symmetry_cell_setting 'orthorhombic'
loop_
_space_group_symop_operation_xyz
x,y,z
1/2-x,1/2-y,z
1/2+x,-y,1/2-z
-x,1/2+y,1/2-z
-x,-y,-z
1/2+x,1/2+y,-z
1/2-x,y,1/2+z
x,1/2-y,1/2+z
loop_
_atom_site_type_symbol
_atom_site_label
_atom_site_fract_x
_atom_site_fract_y
_atom_site_fract_z
Si Si1 0.754963 0.950489 0.465708
Si Si2 0.482633 0.631416 0.629612
Si Si3 0.901075 0.568136 0.778189
O O1 0.750000 0.750000 0.454982
O O2 0.500000 0.000000 0.500000
O O3 0.829317 0.051357 0.416921
O O4 0.000000 0.000000 0.500000
O O5 0.250000 0.750000 0.651674
O O6 0.527146 0.488230 0.670085
O O7 0.750000 0.750000 0.618915
O O8 0.750000 0.750000 0.780708
O O9 0.656551 0.447493 0.758217
#
# Coordination Sequence:
#
# PCOD9433820 Si02
#       3
#     8   8   8
#     4  12  25  44  69 100 136 179 228 283 343 409
#     4  12  25  44  69 100 137 180 228 284 344 409
#     4  12  25  44  69 100 135 177 226 281 342 410
#
# _framework density 22.687698999999999
#
# number of rings (size 3 to 8) (size 9 to 14) (size 15 to 20)
#    0.000    0.000    0.000   13.000    0.000    0.000 
#    0.000   10.000    0.000    0.000    0.000    0.000 
#    0.000    0.000    0.000    0.000    0.000    0.000 
#
# Total GULP energy -134077.572474 kJ/mol
# GULP energy per Si atom -5586.565520 kJ/mol
# Density = 2.263606 g / cm^3
# Si number density = 22.687699 Si / 1000 Ang^3
#
#
#
# Elastic Constant Matrix: (Units=GPa)
#
#
# Indices 1 2 3 4 5 6 
#
# 1 182.1327 48.6238 55.9864 0.0000 0.0000 0.0000
# 2 48.6238 154.0216 69.9066 0.0000 0.0000 0.0000
# 3 55.9864 69.9066 186.0576 0.0000 0.0000 0.0000
# 4 0.0000 0.0000 0.0000 42.7790 0.0000 0.0000
# 5 0.0000 0.0000 0.0000 0.0000 34.7483 0.0000
# 6 0.0000 0.0000 0.0000 0.0000 0.0000 42.0095
#
#
#
# Elastic Compliance Matrix: (Units=1/GPa)
#
#
# Indices 1 2 3 4 5 6 
#
# 1 0.006276 -0.001355 -0.001379 0.000000 0.000000 0.000000
# 2 -0.001355 0.008120 -0.002643 0.000000 0.000000 0.000000
# 3 -0.001379 -0.002643 0.006783 0.000000 0.000000 0.000000
# 4 0.000000 0.000000 0.000000 0.023376 0.000000 0.000000
# 5 0.000000 0.000000 0.000000 0.000000 0.028778 0.000000
# 6 0.000000 0.000000 0.000000 0.000000 0.000000 0.023804
#
#
# Mechanical properties :
#
#
# Convention : Reuss Voigt Hill
#
# Bulk Modulus (GPa) = 95.93565 96.80504 96.37035
# Shear Modulus (GPa) = 44.89625 47.08706 45.99166
#
# Velocity S-wave (km/s) = 4.45329 4.56065 4.50729
# Velocity P-wave (km/s) = 8.29575 8.39606 8.34606
#
# Compressibility (1/GPa) = 0.01042365
#
# Stress axis : x y z
#
# Youngs Moduli (GPa) = 159.32839 123.15107 147.43128
#
# Poissons Ratio (x) = 0.16691 0.20336
# Poissons Ratio (y) = 0.21595 0.38967
# Poissons Ratio (z) = 0.21977 0.32550
#
# Static dielectric constant tensor:
#      x y z
#    x 1.779000 0.000000 0.000000 
#    y 0.000000 2.013190 0.000000 
#    z 0.000000 0.000000 1.918060 
# 
# From -- ./inp_files/19747.got.cif
#   From: 2010.05.17/outbox.cif.g08.bks.cpg/sg56_10_cif.got.tgz:19747.got - 2010.06.03 13:42:01.
