data_PCOD9433137
_publ_section_title
;
Structure prediction by ZEFSAII (Michael W. Deem and Ramdas Pophale) SiO2 
 PCOD9433137
Probable space group: P C C N
;
_chemical_formula_sum "Si O2"
_cell_formula_units_Z 56
_cell_length_a 17.894700
_cell_length_b 16.370863
_cell_length_c 7.472229
_cell_angle_alpha 90.000000
_cell_angle_beta 90.000000
_cell_angle_gamma 90.000000
_cell_volume 2189.002055
_symmetry_space_group_name_H-M "P C C N"
_symmetry_group_IT_number 56
_symmetry_cell_setting 'orthorhombic'
loop_
_space_group_symop_operation_xyz
x,y,z
1/2-x,1/2-y,z
1/2+x,-y,1/2-z
-x,1/2+y,1/2-z
-x,-y,-z
1/2+x,1/2+y,-z
1/2-x,y,1/2+z
x,1/2-y,1/2+z
loop_
_atom_site_type_symbol
_atom_site_label
_atom_site_fract_x
_atom_site_fract_y
_atom_site_fract_z
Si Si1 0.862567 0.458483 0.595891
Si Si2 0.770851 0.509014 0.940225
Si Si3 0.936418 0.808039 0.920021
Si Si4 0.524404 0.569949 0.241041
Si Si5 0.898942 0.206800 0.230919
Si Si6 0.876575 0.861502 0.550856
Si Si7 0.128540 0.626286 0.887028
O O1 0.817257 0.493798 0.429998
O O2 0.945390 0.487290 0.649687
O O3 0.861933 0.361773 0.606836
O O4 0.812300 0.498781 0.752125
O O5 0.797180 0.595548 0.019144
O O6 0.806337 0.434020 0.054037
O O7 0.898885 0.856480 0.757371
O O8 0.016902 0.779582 0.841168
O O9 0.950796 0.861697 0.096705
O O10 0.887315 0.729746 0.974328
O O11 0.566307 0.584718 0.430011
O O12 0.437909 0.579386 0.285248
O O13 0.901068 0.165080 0.425089
O O14 0.855027 0.291799 0.224803
#
# Coordination Sequence:
#
# PCOD9433137 Si02
#       7
#     8   8   8   8   8   8   8
#     4  10  26  45  66  95 137 186 230 286 347 420
#     4  10  26  45  67  93 141 191 231 283 348 424
#     4  12  21  38  68 100 132 172 223 293 347 405
#     4  11  23  41  67 101 134 174 229 287 354 404
#     4  11  22  40  68 103 140 170 229 290 355 412
#     4  11  22  41  67  96 143 172 228 291 342 415
#     4  11  22  42  68 102 140 179 222 298 351 409
#
# _framework density 25.582432000000001
#
# number of rings (size 3 to 8) (size 9 to 14) (size 15 to 20)
#    0.000    1.143    4.286    0.857    4.000    5.143 
#    0.000    3.571    0.000    0.000    0.000    0.000 
#    0.000    0.000    0.000    0.000    0.000    0.000 
#
# Total GULP energy -313760.947005 kJ/mol
# GULP energy per Si atom -5602.874054 kJ/mol
# Density = 2.552421 g / cm^3
# Si number density = 25.582432 Si / 1000 Ang^3
#
#
#
# Elastic Constant Matrix: (Units=GPa)
#
#
# Indices 1 2 3 4 5 6 
#
# 1 77.8332 43.5081 31.5197 0.0000 0.0000 0.0000
# 2 43.5081 107.7072 41.3627 0.0000 0.0000 0.0000
# 3 31.5197 41.3627 113.4458 0.0000 0.0000 0.0000
# 4 0.0000 0.0000 0.0000 29.8104 0.0000 0.0000
# 5 0.0000 0.0000 0.0000 0.0000 35.5127 0.0000
# 6 0.0000 0.0000 0.0000 0.0000 0.0000 42.1517
#
#
#
# Elastic Compliance Matrix: (Units=1/GPa)
#
#
# Indices 1 2 3 4 5 6 
#
# 1 0.017239 -0.005958 -0.002617 0.000000 0.000000 0.000000
# 2 -0.005958 0.012856 -0.003032 0.000000 0.000000 0.000000
# 3 -0.002617 -0.003032 0.010647 0.000000 0.000000 0.000000
# 4 0.000000 0.000000 0.000000 0.033545 0.000000 0.000000
# 5 0.000000 0.000000 0.000000 0.000000 0.028159 0.000000
# 6 0.000000 0.000000 0.000000 0.000000 0.000000 0.023724
#
#
# Mechanical properties :
#
#
# Convention : Reuss Voigt Hill
#
# Bulk Modulus (GPa) = 57.05492 59.08523 58.07008
# Shear Modulus (GPa) = 32.21105 33.66801 32.93953
#
# Velocity S-wave (km/s) = 3.55224 3.63169 3.59218
# Velocity P-wave (km/s) = 6.25902 6.38214 6.32088
#
# Compressibility (1/GPa) = 0.01752697
#
# Stress axis : x y z
#
# Youngs Moduli (GPa) = 58.00967 77.78718 93.92074
#
# Poissons Ratio (x) = 0.46349 0.24580
# Poissons Ratio (y) = 0.34565 0.28474
# Poissons Ratio (z) = 0.15182 0.23583
#
# Static dielectric constant tensor:
#      x y z
#    x 2.017030 0.000000 0.000000 
#    y 0.000000 2.027470 0.000000 
#    z 0.000000 0.000000 2.098990 
# 
# From -- ./inp_files/4493.got.cif
#   From: 2010.05.17/outbox.cif.g08.bks.cpg/sg56_3_cif.got.tgz:4493.got - 2010.06.03 13:42:01.
