data_PCOD9433420
_publ_section_title
;
Structure prediction by ZEFSAII (Michael W. Deem and Ramdas Pophale) SiO2 
 PCOD9433420
Probable space group: P C C N
;
_chemical_formula_sum "Si O2"
_cell_formula_units_Z 64
_cell_length_a 22.996060
_cell_length_b 11.346200
_cell_length_c 12.386641
_cell_angle_alpha 90.000000
_cell_angle_beta 90.000000
_cell_angle_gamma 90.000000
_cell_volume 3231.896308
_symmetry_space_group_name_H-M "P C C N"
_symmetry_group_IT_number 56
_symmetry_cell_setting 'orthorhombic'
loop_
_space_group_symop_operation_xyz
x,y,z
1/2-x,1/2-y,z
1/2+x,-y,1/2-z
-x,1/2+y,1/2-z
-x,-y,-z
1/2+x,1/2+y,-z
1/2-x,y,1/2+z
x,1/2-y,1/2+z
loop_
_atom_site_type_symbol
_atom_site_label
_atom_site_fract_x
_atom_site_fract_y
_atom_site_fract_z
Si Si1 0.688703 0.109209 0.559687
Si Si2 0.055289 0.215688 0.494432
Si Si3 0.373425 0.613043 0.717108
Si Si4 0.457804 0.695954 0.135520
Si Si5 0.325279 0.878524 0.983720
Si Si6 0.527470 0.566408 0.302379
Si Si7 0.894906 0.959864 0.918140
Si Si8 0.400042 0.455256 0.331050
O O1 0.671589 0.108735 0.685416
O O2 0.757356 0.102791 0.540440
O O3 0.665848 0.237218 0.520133
O O4 0.657188 0.006737 0.492536
O O5 0.054386 0.123993 0.591919
O O6 0.075874 0.343444 0.533763
O O7 0.096401 0.163092 0.401476
O O8 0.988363 0.224434 0.454113
O O9 0.405359 0.738512 0.696114
O O10 0.343505 0.581820 0.603507
O O11 0.425947 0.524268 0.744160
O O12 0.508990 0.668266 0.220069
O O13 0.438556 0.571427 0.086962
O O14 0.362743 0.947964 0.895253
O O15 0.466846 0.500478 0.326086
O O16 0.879262 0.939202 0.792023
#
# Coordination Sequence:
#
# PCOD9433420 Si02
#       8
#     8   8   8   8   8   8   8   8
#     4  11  26  42  69  97 134 170 231 284 327 391
#     4  12  22  39  63  94 134 177 219 265 335 408
#     4  12  23  44  68 101 135 177 226 272 342 408
#     4  11  23  37  63  97 142 169 211 275 335 409
#     4  11  25  44  69  96 129 183 222 281 334 388
#     4  11  23  38  64  97 133 174 217 267 339 408
#     4  11  25  40  63  97 135 172 221 273 337 393
#     4  11  23  44  65  96 132 178 217 274 335 407
#
# _framework density 19.802617000000001
#
# number of rings (size 3 to 8) (size 9 to 14) (size 15 to 20)
#    0.000    0.750    3.750    4.500    5.250    1.000 
#    0.000    0.625    0.000    1.500    0.000    0.000 
#    0.000    0.000    0.000    0.000    0.000    0.000 
#
# Total GULP energy -357773.287930 kJ/mol
# GULP energy per Si atom -5590.207624 kJ/mol
# Density = 1.975754 g / cm^3
# Si number density = 19.802617 Si / 1000 Ang^3
#
#
#
# Elastic Constant Matrix: (Units=GPa)
#
#
# Indices 1 2 3 4 5 6 
#
# 1 75.8809 21.8469 40.1976 0.0000 0.0000 0.0000
# 2 21.8469 66.2953 24.8128 0.0000 0.0000 0.0000
# 3 40.1976 24.8128 73.1264 0.0000 0.0000 0.0000
# 4 0.0000 0.0000 0.0000 37.5270 0.0000 0.0000
# 5 0.0000 0.0000 0.0000 0.0000 30.5240 0.0000
# 6 0.0000 0.0000 0.0000 0.0000 0.0000 22.5447
#
#
#
# Elastic Compliance Matrix: (Units=1/GPa)
#
#
# Indices 1 2 3 4 5 6 
#
# 1 0.019004 -0.002695 -0.009532 0.000000 0.000000 0.000000
# 2 -0.002695 0.017660 -0.004511 0.000000 0.000000 0.000000
# 3 -0.009532 -0.004511 0.020445 0.000000 0.000000 0.000000
# 4 0.000000 0.000000 0.000000 0.026647 0.000000 0.000000
# 5 0.000000 0.000000 0.000000 0.000000 0.032761 0.000000
# 6 0.000000 0.000000 0.000000 0.000000 0.000000 0.044356
#
#
# Mechanical properties :
#
#
# Convention : Reuss Voigt Hill
#
# Bulk Modulus (GPa) = 42.31229 43.22413 42.76821
# Shear Modulus (GPa) = 24.72445 26.68216 25.70331
#
# Velocity S-wave (km/s) = 3.53731 3.67468 3.60665
# Velocity P-wave (km/s) = 6.17226 6.31500 6.24404
#
# Compressibility (1/GPa) = 0.02363379
#
# Stress axis : x y z
#
# Youngs Moduli (GPa) = 52.62036 56.62361 48.91067
#
# Poissons Ratio (x) = 0.15260 0.46622
# Poissons Ratio (y) = 0.14181 0.22064
# Poissons Ratio (z) = 0.50158 0.25543
#
# Static dielectric constant tensor:
#      x y z
#    x 1.670360 0.000000 0.000000 
#    y 0.000000 1.699210 0.000000 
#    z 0.000000 0.000000 1.741110 
# 
# From -- ./inp_files/8959.got.cif
#   From: 2010.05.17/outbox.cif.g08.bks.cpg/sg56_5_cif.got.tgz:8959.got - 2010.06.03 13:42:01.
