data_PCOD9433196
_publ_section_title
;
Structure prediction by ZEFSAII (Michael W. Deem and Ramdas Pophale) SiO2 
 PCOD9433196
Probable space group: P C C N
;
_chemical_formula_sum "Si O2"
_cell_formula_units_Z 64
_cell_length_a 11.875811
_cell_length_b 15.492580
_cell_length_c 16.122009
_cell_angle_alpha 90.000000
_cell_angle_beta 90.000000
_cell_angle_gamma 90.000000
_cell_volume 2966.239296
_symmetry_space_group_name_H-M "P C C N"
_symmetry_group_IT_number 56
_symmetry_cell_setting 'orthorhombic'
loop_
_space_group_symop_operation_xyz
x,y,z
1/2-x,1/2-y,z
1/2+x,-y,1/2-z
-x,1/2+y,1/2-z
-x,-y,-z
1/2+x,1/2+y,-z
1/2-x,y,1/2+z
x,1/2-y,1/2+z
loop_
_atom_site_type_symbol
_atom_site_label
_atom_site_fract_x
_atom_site_fract_y
_atom_site_fract_z
Si Si1 0.217847 0.658167 0.081800
Si Si2 0.648543 0.996275 0.188804
Si Si3 0.600069 0.491710 0.159973
Si Si4 0.804930 0.842474 0.431681
Si Si5 0.512213 0.859215 0.787303
Si Si6 0.643415 0.300979 0.231590
Si Si7 0.519420 0.912858 0.051797
Si Si8 0.861834 0.993447 0.889444
O O1 0.250000 0.750000 0.045595
O O2 0.192120 0.671598 0.179214
O O3 0.309838 0.583026 0.078034
O O4 0.099628 0.631405 0.045582
O O5 0.768942 0.987561 0.144337
O O6 0.594764 0.090180 0.174898
O O7 0.558063 0.933999 0.145356
O O8 0.658644 0.986198 0.288468
O O9 0.560004 0.570636 0.220959
O O10 0.606709 0.392118 0.191916
O O11 0.495558 0.490015 0.097109
O O12 0.750000 0.750000 0.432874
O O13 0.889152 0.848322 0.353425
O O14 0.882554 0.858592 0.510620
O O15 0.710108 0.915920 0.426791
O O16 0.459726 0.767546 0.759026
O O17 0.750000 0.250000 0.190720
O O18 0.500000 0.000000 0.000000
#
# Coordination Sequence:
#
# PCOD9433196 Si02
#       8
#     8   8   8   8   8   8   8   8
#     4  11  21  42  71  98 133 175 235 279 346 400
#     4  11  20  39  69 100 129 173 236 270 338 410
#     4  11  20  36  63 102 131 164 218 289 333 392
#     4  12  25  46  64  96 137 181 226 278 348 411
#     4  11  21  38  67  95 132 173 221 277 348 390
#     4  11  19  35  61 101 130 161 215 291 332 389
#     4  12  25  46  72  90 137 194 222 272 341 428
#     4  11  21  41  70 101 134 174 225 294 340 396
#
# _framework density 21.576142000000001
#
# number of rings (size 3 to 8) (size 9 to 14) (size 15 to 20)
#    0.000    0.750    6.250    4.500    0.000    0.000 
#    4.500    4.375    0.000    0.000    0.000    0.000 
#    0.000    0.000    0.000    0.000    0.000    0.000 
#
# Total GULP energy -357326.767370 kJ/mol
# GULP energy per Si atom -5583.230740 kJ/mol
# Density = 2.152703 g / cm^3
# Si number density = 21.576142 Si / 1000 Ang^3
#
#
#
# Elastic Constant Matrix: (Units=GPa)
#
#
# Indices 1 2 3 4 5 6 
#
# 1 128.1524 44.5888 8.7134 0.0000 0.0000 0.0000
# 2 44.5888 146.1312 18.1470 0.0000 0.0000 0.0000
# 3 8.7134 18.1470 30.0674 0.0000 0.0000 0.0000
# 4 0.0000 0.0000 0.0000 162.3727 0.0000 0.0000
# 5 0.0000 0.0000 0.0000 0.0000 33.2022 0.0000
# 6 0.0000 0.0000 0.0000 0.0000 0.0000 16.3108
#
#
#
# Elastic Compliance Matrix: (Units=1/GPa)
#
#
# Indices 1 2 3 4 5 6 
#
# 1 0.008758 -0.002548 -0.001000 0.000000 0.000000 0.000000
# 2 -0.002548 0.008139 -0.004174 0.000000 0.000000 0.000000
# 3 -0.001000 -0.004174 0.036068 0.000000 0.000000 0.000000
# 4 0.000000 0.000000 0.000000 0.006159 0.000000 0.000000
# 5 0.000000 0.000000 0.000000 0.000000 0.030118 0.000000
# 6 0.000000 0.000000 0.000000 0.000000 0.000000 0.061309
#
#
# Mechanical properties :
#
#
# Convention : Reuss Voigt Hill
#
# Bulk Modulus (GPa) = 26.65220 49.69437 38.17328
# Shear Modulus (GPa) = 28.01102 57.90393 42.95747
#
# Velocity S-wave (km/s) = 3.60702 5.18607 4.46687
# Velocity P-wave (km/s) = 5.45224 7.67740 6.65843
#
# Compressibility (1/GPa) = 0.03752036
#
# Stress axis : x y z
#
# Youngs Moduli (GPa) = 114.18439 122.86577 27.72576
#
# Poissons Ratio (x) = 0.31307 0.02773
# Poissons Ratio (y) = 0.29095 0.11572
# Poissons Ratio (z) = 0.11419 0.51282
#
# Static dielectric constant tensor:
#      x y z
#    x 1.752410 0.000000 0.000000 
#    y 0.000000 1.764710 0.000000 
#    z 0.000000 0.000000 1.671730 
# 
# From -- ./inp_files/15818.got.cif
#   From: 2010.05.17/outbox.cif.g08.bks.cpg/sg56_8_cif.got.tgz:15818.got - 2010.06.03 13:42:01.
