data_PCOD9433383
_publ_section_title
;
Structure prediction by ZEFSAII (Michael W. Deem and Ramdas Pophale) SiO2 
 PCOD9433383
Probable space group: P C C N
;
_chemical_formula_sum "Si O2"
_cell_formula_units_Z 48
_cell_length_a 8.479068
_cell_length_b 17.668314
_cell_length_c 12.932755
_cell_angle_alpha 90.000000
_cell_angle_beta 90.000000
_cell_angle_gamma 90.000000
_cell_volume 1937.466836
_symmetry_space_group_name_H-M "P C C N"
_symmetry_group_IT_number 56
_symmetry_cell_setting 'orthorhombic'
loop_
_space_group_symop_operation_xyz
x,y,z
1/2-x,1/2-y,z
1/2+x,-y,1/2-z
-x,1/2+y,1/2-z
-x,-y,-z
1/2+x,1/2+y,-z
1/2-x,y,1/2+z
x,1/2-y,1/2+z
loop_
_atom_site_type_symbol
_atom_site_label
_atom_site_fract_x
_atom_site_fract_y
_atom_site_fract_z
Si Si1 0.803402 0.875961 0.994233
Si Si2 0.450780 0.319498 0.202561
Si Si3 0.190885 0.526566 0.914711
Si Si4 0.750000 0.250000 0.258975
Si Si5 0.500729 0.491198 0.233041
Si Si6 0.655044 0.111490 0.412633
Si Si7 0.750000 0.750000 0.146190
O O1 0.714531 0.953868 0.011749
O O2 0.726095 0.820330 0.074619
O O3 0.987133 0.880137 0.029212
O O4 0.821583 0.835879 0.884560
O O5 0.625118 0.289988 0.181853
O O6 0.462446 0.403111 0.251236
O O7 0.396184 0.252803 0.278178
O O8 0.334766 0.513001 0.830912
O O9 0.034520 0.529308 0.844181
O O10 0.221570 0.594409 0.995180
O O11 0.700049 0.180959 0.337340
O O12 0.382315 0.536936 0.157092
#
# Coordination Sequence:
#
# PCOD9433383 Si02
#       7
#     8   8   8   4   8   8   4
#     4  11  22  44  71  97 137 192 234 296 373 432
#     4  12  24  46  70 102 142 183 247 300 368 439
#     4  11  22  44  75  97 142 189 246 300 366 438
#     4  12  28  46  72 110 150 192 244 316 374 440
#     4  11  22  43  72 103 136 194 239 296 364 437
#     4  11  23  45  68 100 145 192 234 300 372 433
#     4  12  24  44  70 102 142 182 238 308 364 444
#
# _framework density 24.774618
#
# number of rings (size 3 to 8) (size 9 to 14) (size 15 to 20)
#    0.000    0.667    6.667    2.500    0.000    0.667 
#    0.000    5.000    0.000    0.000    0.000    0.000 
#    0.000    0.000    0.000    0.000    0.000    0.000 
#
# Total GULP energy -267715.630657 kJ/mol
# GULP energy per Si atom -5577.408972 kJ/mol
# Density = 2.471823 g / cm^3
# Si number density = 24.774618 Si / 1000 Ang^3
#
#
#
# Elastic Constant Matrix: (Units=GPa)
#
#
# Indices 1 2 3 4 5 6 
#
# 1 30.5202 8.5024 45.8978 0.0000 0.0000 0.0000
# 2 8.5024 50.7996 19.8783 0.0000 0.0000 0.0000
# 3 45.8978 19.8783 104.4448 0.0000 0.0000 0.0000
# 4 0.0000 0.0000 0.0000 42.2313 0.0000 0.0000
# 5 0.0000 0.0000 0.0000 0.0000 39.1254 0.0000
# 6 0.0000 0.0000 0.0000 0.0000 0.0000 24.8559
#
#
#
# Elastic Compliance Matrix: (Units=1/GPa)
#
#
# Indices 1 2 3 4 5 6 
#
# 1 0.096623 0.000479 -0.042552 0.000000 0.000000 0.000000
# 2 0.000479 0.021272 -0.004259 0.000000 0.000000 0.000000
# 3 -0.042552 -0.004259 0.029084 0.000000 0.000000 0.000000
# 4 0.000000 0.000000 0.000000 0.023679 0.000000 0.000000
# 5 0.000000 0.000000 0.000000 0.000000 0.025559 0.000000
# 6 0.000000 0.000000 0.000000 0.000000 0.000000 0.040232
#
#
# Mechanical properties :
#
#
# Convention : Reuss Voigt Hill
#
# Bulk Modulus (GPa) = 18.41100 37.14683 27.77891
# Shear Modulus (GPa) = 14.40022 28.67495 21.53758
#
# Velocity S-wave (km/s) = 2.41353 3.40580 2.95166
# Velocity P-wave (km/s) = 3.90056 5.52199 4.78052
#
# Compressibility (1/GPa) = 0.05431537
#
# Stress axis : x y z
#
# Youngs Moduli (GPa) = 10.34950 47.01110 34.38302
#
# Poissons Ratio (x) = -0.02251 1.46305
# Poissons Ratio (y) = -0.00496 0.14643
# Poissons Ratio (z) = 0.44039 0.20022
#
# Static dielectric constant tensor:
#      x y z
#    x 2.111740 0.000000 0.000000 
#    y 0.000000 1.833190 0.000000 
#    z 0.000000 0.000000 2.044640 
# 
# From -- ./inp_files/7185.got.cif
#   From: 2010.05.17/outbox.cif.g08.bks.cpg/sg56_4_cif.got.tgz:7185.got - 2010.06.03 13:42:01.
