data_PCOD9433607
_publ_section_title
;
Structure prediction by ZEFSAII (Michael W. Deem and Ramdas Pophale) SiO2 
 PCOD9433607
Probable space group: P C C N
;
_chemical_formula_sum "Si O2"
_cell_formula_units_Z 32
_cell_length_a 21.626316
_cell_length_b 5.958939
_cell_length_c 9.372974
_cell_angle_alpha 90.000000
_cell_angle_beta 90.000000
_cell_angle_gamma 90.000000
_cell_volume 1207.894202
_symmetry_space_group_name_H-M "P C C N"
_symmetry_group_IT_number 56
_symmetry_cell_setting 'orthorhombic'
loop_
_space_group_symop_operation_xyz
x,y,z
1/2-x,1/2-y,z
1/2+x,-y,1/2-z
-x,1/2+y,1/2-z
-x,-y,-z
1/2+x,1/2+y,-z
1/2-x,y,1/2+z
x,1/2-y,1/2+z
loop_
_atom_site_type_symbol
_atom_site_label
_atom_site_fract_x
_atom_site_fract_y
_atom_site_fract_z
Si Si1 0.907836 0.399353 0.891333
Si Si2 0.167360 0.230713 0.961686
Si Si3 0.801898 0.064462 0.795007
Si Si4 0.448439 0.580410 0.890509
O O1 0.865770 0.612940 0.920638
O O2 0.789575 0.935448 0.944585
O O3 0.962309 0.425798 0.776644
O O4 0.931009 0.320263 0.044413
O O5 0.191789 0.388846 0.834515
O O6 0.112602 0.074041 0.901080
O O7 0.750000 0.250000 0.764574
O O8 0.864702 0.202526 0.826147
O O9 0.500000 0.500000 0.000000
#
# Coordination Sequence:
#
# PCOD9433607 Si02
#       4
#     8   8   8   8
#     4  11  24  47  68 111 149 188 256 310 364 466
#     4  11  24  50  73 108 154 192 255 317 374 459
#     4  11  26  50  77 106 147 199 251 315 385 451
#     4  11  26  43  75 109 151 201 245 309 384 449
#
# _framework density 26.492384999999999
#
# number of rings (size 3 to 8) (size 9 to 14) (size 15 to 20)
#    0.000    1.000    5.000    0.000    3.500    3.000 
#    4.500    1.250    0.000    0.000    0.000    0.000 
#    0.000    0.000    0.000    0.000    0.000    0.000 
#
# Total GULP energy -179354.813856 kJ/mol
# GULP energy per Si atom -5604.837933 kJ/mol
# Density = 2.643209 g / cm^3
# Si number density = 26.492385 Si / 1000 Ang^3
#
#
#
# Elastic Constant Matrix: (Units=GPa)
#
#
# Indices 1 2 3 4 5 6 
#
# 1 61.3282 25.7268 36.0010 0.0000 0.0000 0.0000
# 2 25.7268 108.0737 62.6114 0.0000 0.0000 0.0000
# 3 36.0010 62.6114 186.9788 0.0000 0.0000 0.0000
# 4 0.0000 0.0000 0.0000 61.5673 0.0000 0.0000
# 5 0.0000 0.0000 0.0000 0.0000 43.7349 0.0000
# 6 0.0000 0.0000 0.0000 0.0000 0.0000 52.2848
#
#
#
# Elastic Compliance Matrix: (Units=1/GPa)
#
#
# Indices 1 2 3 4 5 6 
#
# 1 0.019138 -0.003004 -0.002679 0.000000 0.000000 0.000000
# 2 -0.003004 0.011951 -0.003424 0.000000 0.000000 0.000000
# 3 -0.002679 -0.003424 0.007010 0.000000 0.000000 0.000000
# 4 0.000000 0.000000 0.000000 0.016242 0.000000 0.000000
# 5 0.000000 0.000000 0.000000 0.000000 0.022865 0.000000
# 6 0.000000 0.000000 0.000000 0.000000 0.000000 0.019126
#
#
# Mechanical properties :
#
#
# Convention : Reuss Voigt Hill
#
# Bulk Modulus (GPa) = 50.28339 67.22877 58.75608
# Shear Modulus (GPa) = 41.26228 46.98684 44.12456
#
# Velocity S-wave (km/s) = 3.95082 4.21598 4.08555
# Velocity P-wave (km/s) = 6.31138 7.00935 6.66950
#
# Compressibility (1/GPa) = 0.01988728
#
# Stress axis : x y z
#
# Youngs Moduli (GPa) = 52.25086 83.67175 142.64352
#
# Poissons Ratio (x) = 0.25133 0.38215
# Poissons Ratio (y) = 0.15695 0.48837
# Poissons Ratio (z) = 0.13998 0.28647
#
# Static dielectric constant tensor:
#      x y z
#    x 2.206470 0.000000 0.000000 
#    y 0.000000 2.087240 0.000000 
#    z 0.000000 0.000000 2.083560 
# 
# From -- ./inp_files/12505.got.cif
#   From: 2010.05.17/outbox.cif.g08.bks.cpg/sg56_7_cif.got.tgz:12505.got - 2010.06.03 13:42:01.
