data_PCOD9433394
_publ_section_title
;
Structure prediction by ZEFSAII (Michael W. Deem and Ramdas Pophale) SiO2 
 PCOD9433394
Probable space group: P C C N
;
_chemical_formula_sum "Si O2"
_cell_formula_units_Z 32
_cell_length_a 26.526186
_cell_length_b 4.991571
_cell_length_c 10.267299
_cell_angle_alpha 90.000000
_cell_angle_beta 90.000000
_cell_angle_gamma 90.000000
_cell_volume 1359.465758
_symmetry_space_group_name_H-M "P C C N"
_symmetry_group_IT_number 56
_symmetry_cell_setting 'orthorhombic'
loop_
_space_group_symop_operation_xyz
x,y,z
1/2-x,1/2-y,z
1/2+x,-y,1/2-z
-x,1/2+y,1/2-z
-x,-y,-z
1/2+x,1/2+y,-z
1/2-x,y,1/2+z
x,1/2-y,1/2+z
loop_
_atom_site_type_symbol
_atom_site_label
_atom_site_fract_x
_atom_site_fract_y
_atom_site_fract_z
Si Si1 0.395003 0.131387 0.249550
Si Si2 0.443626 0.399965 0.014834
Si Si3 0.857965 0.252424 0.058534
Si Si4 0.808369 0.732426 0.430391
O O1 0.433868 0.202915 0.134851
O O2 0.332128 0.475664 0.485383
O O3 0.317374 0.528998 0.983535
O O4 0.343586 0.265597 0.197589
O O5 0.577604 0.733309 0.118567
O O6 0.500000 0.500000 0.000000
O O7 0.407180 0.660502 0.024689
O O8 0.877147 0.165889 0.202732
O O9 0.750000 0.750000 0.398124
#
# Coordination Sequence:
#
# PCOD9433394 Si02
#       4
#     8   8   8   8
#     4   9  22  44  69 110 154 194 265 325 387 473
#     4   9  20  44  71 113 155 210 256 324 400 471
#     4   9  23  42  68 107 145 188 253 313 378 470
#     4  11  22  44  71 104 142 196 251 321 392 458
#
# _framework density 23.538657000000001
#
# number of rings (size 3 to 8) (size 9 to 14) (size 15 to 20)
#    1.500    1.000    0.000    0.750    0.000    7.000 
#    4.500    6.250    0.000    0.000    0.000    0.000 
#    0.000    0.000    0.000    0.000    0.000    0.000 
#
# Total GULP energy -178261.177432 kJ/mol
# GULP energy per Si atom -5570.661795 kJ/mol
# Density = 2.348508 g / cm^3
# Si number density = 23.538657 Si / 1000 Ang^3
#
#
#
# Elastic Constant Matrix: (Units=GPa)
#
#
# Indices 1 2 3 4 5 6 
#
# 1 182.8495 12.5538 55.9117 0.0000 0.0000 0.0000
# 2 12.5538 99.1100 47.4670 0.0000 0.0000 0.0000
# 3 55.9117 47.4670 203.0786 0.0000 0.0000 0.0000
# 4 0.0000 0.0000 0.0000 31.7177 0.0000 0.0000
# 5 0.0000 0.0000 0.0000 0.0000 22.2743 0.0000
# 6 0.0000 0.0000 0.0000 0.0000 0.0000 24.3621
#
#
#
# Elastic Compliance Matrix: (Units=1/GPa)
#
#
# Indices 1 2 3 4 5 6 
#
# 1 0.005972 0.000035 -0.001652 0.000000 0.000000 0.000000
# 2 0.000035 0.011362 -0.002665 0.000000 0.000000 0.000000
# 3 -0.001652 -0.002665 0.006002 0.000000 0.000000 0.000000
# 4 0.000000 0.000000 0.000000 0.031528 0.000000 0.000000
# 5 0.000000 0.000000 0.000000 0.000000 0.044895 0.000000
# 6 0.000000 0.000000 0.000000 0.000000 0.000000 0.041047
#
#
# Mechanical properties :
#
#
# Convention : Reuss Voigt Hill
#
# Bulk Modulus (GPa) = 67.70300 79.65589 73.67945
# Shear Modulus (GPa) = 32.40546 40.27787 36.34166
#
# Velocity S-wave (km/s) = 3.71440 4.14108 3.93353
# Velocity P-wave (km/s) = 6.87173 7.53516 7.21108
#
# Compressibility (1/GPa) = 0.01477039
#
# Stress axis : x y z
#
# Youngs Moduli (GPa) = 167.45284 88.01365 166.60825
#
# Poissons Ratio (x) = -0.00307 0.27529
# Poissons Ratio (y) = -0.00585 0.44406
# Poissons Ratio (z) = 0.27669 0.23458
#
# Static dielectric constant tensor:
#      x y z
#    x 1.833670 0.000000 0.000000 
#    y 0.000000 2.021730 0.000000 
#    z 0.000000 0.000000 2.007020 
# 
# From -- ./inp_files/3923.got.cif
#   From: 2010.05.17/outbox.cif.g08.bks.cpg/sg56_2_cif.got.tgz:3923.got - 2010.06.03 13:42:01.
