data_PCOD9433763
_publ_section_title
;
Structure prediction by ZEFSAII (Michael W. Deem and Ramdas Pophale) SiO2 
 PCOD9433763
Probable space group: P C C N
;
_chemical_formula_sum "Si O2"
_cell_formula_units_Z 32
_cell_length_a 19.947828
_cell_length_b 6.442714
_cell_length_c 10.206383
_cell_angle_alpha 90.000000
_cell_angle_beta 90.000000
_cell_angle_gamma 90.000000
_cell_volume 1311.705469
_symmetry_space_group_name_H-M "P C C N"
_symmetry_group_IT_number 56
_symmetry_cell_setting 'orthorhombic'
loop_
_space_group_symop_operation_xyz
x,y,z
1/2-x,1/2-y,z
1/2+x,-y,1/2-z
-x,1/2+y,1/2-z
-x,-y,-z
1/2+x,1/2+y,-z
1/2-x,y,1/2+z
x,1/2-y,1/2+z
loop_
_atom_site_type_symbol
_atom_site_label
_atom_site_fract_x
_atom_site_fract_y
_atom_site_fract_z
Si Si1 0.028716 0.388149 0.874999
Si Si2 0.622168 0.622058 0.981388
Si Si3 0.317005 0.124339 0.248815
Si Si4 0.604934 0.279607 0.781598
O O1 0.088207 0.531689 0.817675
O O2 0.966068 0.341381 0.782270
O O3 0.057052 0.175312 0.933468
O O4 0.000000 0.500000 0.000000
O O5 0.631621 0.779510 0.859575
O O6 0.618222 0.395304 0.919229
O O7 0.676232 0.657492 0.094999
O O8 0.250000 0.250000 0.210594
O O9 0.333920 0.878073 0.240629
#
# Coordination Sequence:
#
# PCOD9433763 Si02
#       4
#     8   8   8   8
#     4  12  22  43  75 117 161 201 255 321 412 492
#     4  12  25  50  74 115 159 203 267 326 404 478
#     4  12  28  50  76 110 155 209 278 327 386 477
#     4  12  25  46  78 116 162 211 253 335 405 476
#
# _framework density 24.395719
#
# number of rings (size 3 to 8) (size 9 to 14) (size 15 to 20)
#    0.000    0.000    5.000    6.000    0.000    1.000 
#    0.000    2.500    0.000    0.000    0.000    0.000 
#    0.000    0.000    0.000    0.000    0.000    0.000 
#
# Total GULP energy -178509.336367 kJ/mol
# GULP energy per Si atom -5578.416761 kJ/mol
# Density = 2.434019 g / cm^3
# Si number density = 24.395719 Si / 1000 Ang^3
#
#
#
# Elastic Constant Matrix: (Units=GPa)
#
#
# Indices 1 2 3 4 5 6 
#
# 1 86.4349 50.6874 21.1852 0.0000 0.0000 0.0000
# 2 50.6874 130.0761 69.7518 0.0000 0.0000 0.0000
# 3 21.1852 69.7518 137.5828 0.0000 0.0000 0.0000
# 4 0.0000 0.0000 0.0000 60.3256 0.0000 0.0000
# 5 0.0000 0.0000 0.0000 0.0000 38.8113 0.0000
# 6 0.0000 0.0000 0.0000 0.0000 0.0000 36.8527
#
#
#
# Elastic Compliance Matrix: (Units=1/GPa)
#
#
# Indices 1 2 3 4 5 6 
#
# 1 0.015077 -0.006359 0.000902 0.000000 0.000000 0.000000
# 2 -0.006359 0.013240 -0.005733 0.000000 0.000000 0.000000
# 3 0.000902 -0.005733 0.010036 0.000000 0.000000 0.000000
# 4 0.000000 0.000000 0.000000 0.016577 0.000000 0.000000
# 5 0.000000 0.000000 0.000000 0.000000 0.025766 0.000000
# 6 0.000000 0.000000 0.000000 0.000000 0.000000 0.027135
#
#
# Mechanical properties :
#
#
# Convention : Reuss Voigt Hill
#
# Bulk Modulus (GPa) = 62.60412 70.81584 66.70998
# Shear Modulus (GPa) = 36.89057 41.36255 39.12656
#
# Velocity S-wave (km/s) = 3.89289 4.12209 4.00913
# Velocity P-wave (km/s) = 6.77670 7.19351 6.98821
#
# Compressibility (1/GPa) = 0.01597339
#
# Stress axis : x y z
#
# Youngs Moduli (GPa) = 66.32450 75.52722 99.64023
#
# Poissons Ratio (x) = 0.48029 -0.08991
# Poissons Ratio (y) = 0.42177 0.57127
# Poissons Ratio (z) = -0.05985 0.43302
#
# Static dielectric constant tensor:
#      x y z
#    x 2.145050 0.000000 0.000000 
#    y 0.000000 2.000340 0.000000 
#    z 0.000000 0.000000 1.912700 
# 
# From -- ./inp_files/5428.got.cif
#   From: 2010.05.17/outbox.cif.g08.bks.cpg/sg56_3_cif.got.tgz:5428.got - 2010.06.03 13:42:01.
