data_PCOD9433108
_publ_section_title
;
Structure prediction by ZEFSAII (Michael W. Deem and Ramdas Pophale) SiO2 
 PCOD9433108
Probable space group: P C C N
;
_chemical_formula_sum "Si O2"
_cell_formula_units_Z 36
_cell_length_a 19.602843
_cell_length_b 7.492403
_cell_length_c 9.639215
_cell_angle_alpha 90.000000
_cell_angle_beta 90.000000
_cell_angle_gamma 90.000000
_cell_volume 1415.734638
_symmetry_space_group_name_H-M "P C C N"
_symmetry_group_IT_number 56
_symmetry_cell_setting 'orthorhombic'
loop_
_space_group_symop_operation_xyz
x,y,z
1/2-x,1/2-y,z
1/2+x,-y,1/2-z
-x,1/2+y,1/2-z
-x,-y,-z
1/2+x,1/2+y,-z
1/2-x,y,1/2+z
x,1/2-y,1/2+z
loop_
_atom_site_type_symbol
_atom_site_label
_atom_site_fract_x
_atom_site_fract_y
_atom_site_fract_z
Si Si1 0.482807 0.169765 0.596888
Si Si2 0.289368 0.423139 0.559863
Si Si3 0.876230 0.116099 0.214537
Si Si4 0.750000 0.250000 0.071296
Si Si5 0.897800 0.787798 0.635312
O O1 0.550869 0.208871 0.687218
O O2 0.424584 0.149812 0.715003
O O3 0.454967 0.312113 0.485034
O O4 0.500000 0.000000 0.500000
O O5 0.250000 0.250000 0.619676
O O6 0.346798 0.534429 0.643151
O O7 0.237344 0.577106 0.521307
O O8 0.327206 0.363786 0.420017
O O9 0.817844 0.249263 0.162733
O O10 0.884482 0.924978 0.138618
#
# Coordination Sequence:
#
# PCOD9433108 Si02
#       5
#     8   8   8   4   8
#     4  10  25  46  78 115 153 207 274 337 409 489
#     4  12  27  49  82 114 161 222 268 336 418 492
#     4  11  26  48  74 114 158 208 268 343 400 491
#     4  12  28  46  72 122 156 208 280 336 392 504
#     4  11  23  50  80 110 157 215 269 336 419 482
#
# _framework density 25.428495999999999
#
# number of rings (size 3 to 8) (size 9 to 14) (size 15 to 20)
#    0.000    0.889    4.444    0.667    6.222    4.444 
#    4.000    0.000    0.000    0.000    0.000    0.000 
#    0.000    0.000    0.000    0.000    0.000    0.000 
#
# Total GULP energy -200751.553712 kJ/mol
# GULP energy per Si atom -5576.432048 kJ/mol
# Density = 2.537062 g / cm^3
# Si number density = 25.428496 Si / 1000 Ang^3
#
#
#
# Elastic Constant Matrix: (Units=GPa)
#
#
# Indices 1 2 3 4 5 6 
#
# 1 70.5983 -5.1340 32.7823 0.0000 0.0000 0.0000
# 2 -5.1340 79.7088 14.5000 0.0000 0.0000 0.0000
# 3 32.7823 14.5000 130.7512 0.0000 0.0000 0.0000
# 4 0.0000 0.0000 0.0000 23.1269 0.0000 0.0000
# 5 0.0000 0.0000 0.0000 0.0000 -7.9931 0.0000
# 6 0.0000 0.0000 0.0000 0.0000 0.0000 26.7361
#
#
#
# Elastic Compliance Matrix: (Units=1/GPa)
#
#
# Indices 1 2 3 4 5 6 
#
# 1 0.016288 0.001829 -0.004287 0.000000 0.000000 0.000000
# 2 0.001829 0.013009 -0.001901 0.000000 0.000000 0.000000
# 3 -0.004287 -0.001901 0.008934 0.000000 0.000000 0.000000
# 4 0.000000 0.000000 0.000000 0.043240 0.000000 0.000000
# 5 0.000000 0.000000 0.000000 0.000000 -0.125107 0.000000
# 6 0.000000 0.000000 0.000000 0.000000 0.000000 0.037403
#
#
# Mechanical properties :
#
#
# Convention : Reuss Voigt Hill
#
# Bulk Modulus (GPa) = 33.88311 40.59497 37.23904
# Shear Modulus (GPa) = 405.78448 24.30131 215.04289
#
# Velocity S-wave (km/s) = 12.64615 3.09475 9.20605
# Velocity P-wave (km/s) = 15.05281 5.36367 11.29947
#
# Compressibility (1/GPa) = 0.02951323
#
# Stress axis : x y z
#
# Youngs Moduli (GPa) = 61.39435 76.86796 111.93560
#
# Poissons Ratio (x) = -0.14058 0.47983
# Poissons Ratio (y) = -0.11228 0.21282
# Poissons Ratio (z) = 0.26317 0.14614
#
# Static dielectric constant tensor:
#      x y z
#    x 3.154400 0.000000 0.000000 
#    y 0.000000 -2.455210 0.000000 
#    z 0.000000 0.000000 2.177090 
# 
# From -- ./inp_files/1988.got.cif
#   From: 2010.05.17/outbox.cif.g08.bks.cpg/sg56_1_cif.got.tgz:1988.got - 2010.06.03 13:42:01.
