data_PCOD9433037
_publ_section_title
;
Structure prediction by ZEFSAII (Michael W. Deem and Ramdas Pophale) SiO2 
 PCOD9433037
Probable space group: P C C N
;
_chemical_formula_sum "Si O2"
_cell_formula_units_Z 32
_cell_length_a 9.752143
_cell_length_b 12.882763
_cell_length_c 9.605605
_cell_angle_alpha 90.000000
_cell_angle_beta 90.000000
_cell_angle_gamma 90.000000
_cell_volume 1206.795833
_symmetry_space_group_name_H-M "P C C N"
_symmetry_group_IT_number 56
_symmetry_cell_setting 'orthorhombic'
loop_
_space_group_symop_operation_xyz
x,y,z
1/2-x,1/2-y,z
1/2+x,-y,1/2-z
-x,1/2+y,1/2-z
-x,-y,-z
1/2+x,1/2+y,-z
1/2-x,y,1/2+z
x,1/2-y,1/2+z
loop_
_atom_site_type_symbol
_atom_site_label
_atom_site_fract_x
_atom_site_fract_y
_atom_site_fract_z
Si Si1 0.485905 0.116421 0.554636
Si Si2 0.192005 0.585946 0.220400
Si Si3 0.903512 0.168988 0.563805
Si Si4 0.790158 0.643147 0.827353
O O1 0.545868 0.111875 0.710753
O O2 0.573799 0.214565 0.500524
O O3 0.326767 0.142423 0.554440
O O4 0.500000 0.000000 0.500000
O O5 0.227160 0.465982 0.249211
O O6 0.308433 0.650991 0.300583
O O7 0.167465 0.602735 0.057445
O O8 0.056304 0.141388 0.613756
O O9 0.750000 0.750000 0.249746
#
# Coordination Sequence:
#
# PCOD9433037 Si02
#       4
#     8   8   8   8
#     4  11  26  46  74 108 150 200 256 317 388 464
#     4  12  25  47  78 114 152 200 258 320 386 463
#     4  11  27  50  77 113 155 202 257 322 390 467
#     4  10  24  47  72 105 150 200 253 317 390 464
#
# _framework density 26.516497999999999
#
# number of rings (size 3 to 8) (size 9 to 14) (size 15 to 20)
#    0.000    1.000    0.000    4.500    0.000   14.000 
#    0.000   11.250    0.000    0.000    0.000    8.750 
#    0.000    0.000    0.000    0.000    0.000    0.000 
#
# Total GULP energy -178995.294812 kJ/mol
# GULP energy per Si atom -5593.602963 kJ/mol
# Density = 2.645615 g / cm^3
# Si number density = 26.516498 Si / 1000 Ang^3
#
#
#
# Elastic Constant Matrix: (Units=GPa)
#
#
# Indices 1 2 3 4 5 6 
#
# 1 221.2054 64.8432 54.0336 0.0000 0.0000 0.0000
# 2 64.8432 213.6052 31.1963 0.0000 0.0000 0.0000
# 3 54.0336 31.1963 104.1664 0.0000 0.0000 0.0000
# 4 0.0000 0.0000 0.0000 38.5426 0.0000 0.0000
# 5 0.0000 0.0000 0.0000 0.0000 9.7456 0.0000
# 6 0.0000 0.0000 0.0000 0.0000 0.0000 46.0764
#
#
#
# Elastic Compliance Matrix: (Units=1/GPa)
#
#
# Indices 1 2 3 4 5 6 
#
# 1 0.005507 -0.001312 -0.002464 0.000000 0.000000 0.000000
# 2 -0.001312 0.005208 -0.000879 0.000000 0.000000 0.000000
# 3 -0.002464 -0.000879 0.011141 0.000000 0.000000 0.000000
# 4 0.000000 0.000000 0.000000 0.025945 0.000000 0.000000
# 5 0.000000 0.000000 0.000000 0.000000 0.102610 0.000000
# 6 0.000000 0.000000 0.000000 0.000000 0.000000 0.021703
#
#
# Mechanical properties :
#
#
# Convention : Reuss Voigt Hill
#
# Bulk Modulus (GPa) = 79.70177 93.23589 86.46883
# Shear Modulus (GPa) = 26.93862 44.79987 35.86925
#
# Velocity S-wave (km/s) = 3.19081 4.11482 3.68192
# Velocity P-wave (km/s) = 6.61042 7.60352 7.12430
#
# Compressibility (1/GPa) = 0.01254677
#
# Stress axis : x y z
#
# Youngs Moduli (GPa) = 181.58454 192.00477 89.75573
#
# Poissons Ratio (x) = 0.25190 0.22114
# Poissons Ratio (y) = 0.23823 0.07892
# Poissons Ratio (z) = 0.44738 0.16882
#
# Static dielectric constant tensor:
#      x y z
#    x 2.035900 0.000000 0.000000 
#    y 0.000000 2.175680 0.000000 
#    z 0.000000 0.000000 2.034260 
# 
# From -- ./inp_files/3068.got.cif
#   From: 2010.05.17/outbox.cif.g08.bks.cpg/sg56_2_cif.got.tgz:3068.got - 2010.06.03 13:42:01.
