data_PCOD9433092
_publ_section_title
;
Structure prediction by ZEFSAII (Michael W. Deem and Ramdas Pophale) SiO2 
 PCOD9433092
Probable space group: P C C N
;
_chemical_formula_sum "Si O2"
_cell_formula_units_Z 40
_cell_length_a 17.980172
_cell_length_b 4.869937
_cell_length_c 19.181308
_cell_angle_alpha 90.000000
_cell_angle_beta 90.000000
_cell_angle_gamma 90.000000
_cell_volume 1679.559539
_symmetry_space_group_name_H-M "P C C N"
_symmetry_group_IT_number 56
_symmetry_cell_setting 'orthorhombic'
loop_
_space_group_symop_operation_xyz
x,y,z
1/2-x,1/2-y,z
1/2+x,-y,1/2-z
-x,1/2+y,1/2-z
-x,-y,-z
1/2+x,1/2+y,-z
1/2-x,y,1/2+z
x,1/2-y,1/2+z
loop_
_atom_site_type_symbol
_atom_site_label
_atom_site_fract_x
_atom_site_fract_y
_atom_site_fract_z
Si Si1 0.136835 0.777109 0.414601
Si Si2 0.976293 0.597687 0.923463
Si Si3 0.539287 0.366936 0.281655
Si Si4 0.332908 0.210026 0.508651
Si Si5 0.800344 0.477216 0.726885
O O1 0.159386 0.594652 0.480038
O O2 0.178387 0.661207 0.347527
O O3 0.049090 0.733517 0.401146
O O4 0.153864 0.086552 0.441094
O O5 0.968416 0.367528 0.864894
O O6 0.897390 0.737696 0.935736
O O7 0.000000 0.500000 0.000000
O O8 0.476434 0.570156 0.250341
O O9 0.619383 0.496280 0.263066
O O10 0.250000 0.250000 0.535523
O O11 0.750000 0.250000 0.765196
O O12 0.750000 0.750000 0.720062
#
# Coordination Sequence:
#
# PCOD9433092 Si02
#       5
#     8   8   8   8   8
#     4  11  22  42  67 100 137 183 238 285 351 431
#     4  10  25  45  73 102 139 188 239 287 354 431
#     4  12  27  48  72 104 146 191 239 294 361 432
#     4  11  23  40  66 100 141 181 229 298 359 416
#     4  12  25  43  72 105 142 186 239 299 360 422
#
# _framework density 23.815767999999998
#
# number of rings (size 3 to 8) (size 9 to 14) (size 15 to 20)
#    0.000    0.800    2.000    5.400    5.600    4.000 
#    0.000    4.000    0.000    0.000    0.000    0.000 
#    0.000    0.000    0.000    0.000    0.000    0.000 
#
# Total GULP energy -223733.116439 kJ/mol
# GULP energy per Si atom -5593.327911 kJ/mol
# Density = 2.376156 g / cm^3
# Si number density = 23.815768 Si / 1000 Ang^3
#
#
#
# Elastic Constant Matrix: (Units=GPa)
#
#
# Indices 1 2 3 4 5 6 
#
# 1 208.7239 27.9233 10.2101 0.0000 0.0000 0.0000
# 2 27.9233 70.0753 10.8685 0.0000 0.0000 0.0000
# 3 10.2101 10.8685 86.0647 0.0000 0.0000 0.0000
# 4 0.0000 0.0000 0.0000 -3.9365 0.0000 0.0000
# 5 0.0000 0.0000 0.0000 0.0000 25.9730 0.0000
# 6 0.0000 0.0000 0.0000 0.0000 0.0000 37.8972
#
#
#
# Elastic Compliance Matrix: (Units=1/GPa)
#
#
# Indices 1 2 3 4 5 6 
#
# 1 0.005071 -0.001966 -0.000353 0.000000 0.000000 0.000000
# 2 -0.001966 0.015318 -0.001701 0.000000 0.000000 0.000000
# 3 -0.000353 -0.001701 0.011876 0.000000 0.000000 0.000000
# 4 0.000000 0.000000 0.000000 -0.254035 0.000000 0.000000
# 5 0.000000 0.000000 0.000000 0.000000 0.038502 0.000000
# 6 0.000000 0.000000 0.000000 0.000000 0.000000 0.026387
#
#
# Mechanical properties :
#
#
# Convention : Reuss Voigt Hill
#
# Bulk Modulus (GPa) = 41.28154 51.42973 46.35563
# Shear Modulus (GPa) = -35.51984 33.04423 -1.23780
#
# Velocity S-wave (km/s) = -3.86611 3.72895 -0.72171
# Velocity P-wave (km/s) = 1.59929 6.33891 4.33728
#
# Compressibility (1/GPa) = 0.02422390
#
# Stress axis : x y z
#
# Youngs Moduli (GPa) = 197.18751 65.28440 84.20407
#
# Poissons Ratio (x) = 0.12835 0.02975
# Poissons Ratio (y) = 0.38767 0.14324
# Poissons Ratio (z) = 0.06968 0.11106
#
# Static dielectric constant tensor:
#      x y z
#    x 1.964010 0.000000 0.000000 
#    y 0.000000 1.895820 0.000000 
#    z 0.000000 0.000000 1.938410 
# 
# From -- ./inp_files/16461.got.cif
#   From: 2010.05.17/outbox.cif.g08.bks.cpg/sg56_9_cif.got.tgz:16461.got - 2010.06.03 13:42:01.
