data_PCOD9433048
_publ_section_title
;
Structure prediction by ZEFSAII (Michael W. Deem and Ramdas Pophale) SiO2 
 PCOD9433048
Probable space group: P C C N
;
_chemical_formula_sum "Si O2"
_cell_formula_units_Z 56
_cell_length_a 14.347152
_cell_length_b 11.128958
_cell_length_c 13.902674
_cell_angle_alpha 90.000000
_cell_angle_beta 90.000000
_cell_angle_gamma 90.000000
_cell_volume 2219.823998
_symmetry_space_group_name_H-M "P C C N"
_symmetry_group_IT_number 56
_symmetry_cell_setting 'orthorhombic'
loop_
_space_group_symop_operation_xyz
x,y,z
1/2-x,1/2-y,z
1/2+x,-y,1/2-z
-x,1/2+y,1/2-z
-x,-y,-z
1/2+x,1/2+y,-z
1/2-x,y,1/2+z
x,1/2-y,1/2+z
loop_
_atom_site_type_symbol
_atom_site_label
_atom_site_fract_x
_atom_site_fract_y
_atom_site_fract_z
Si Si1 0.250000 0.750000 0.726236
Si Si2 0.482334 0.405965 0.330060
Si Si3 0.295072 0.473368 0.270163
Si Si4 0.424596 0.792422 0.355725
Si Si5 0.823390 0.510057 0.544328
Si Si6 0.916604 0.758304 0.490697
Si Si7 0.820440 0.093925 0.391317
Si Si8 0.250000 0.250000 0.637644
O O1 0.166751 0.735297 0.810049
O O2 0.169026 0.766051 0.631048
O O3 0.401328 0.496078 0.297527
O O4 0.513609 0.338678 0.233465
O O5 0.433121 0.318984 0.406996
O O6 0.576707 0.458102 0.377688
O O7 0.233523 0.445312 0.362706
O O8 0.240866 0.578663 0.210292
O O9 0.290264 0.356669 0.202241
O O10 0.390090 0.906764 0.416858
O O11 0.490813 0.722035 0.428432
O O12 0.884845 0.618798 0.502322
O O13 0.744896 0.453942 0.473987
O O14 0.828783 0.806281 0.430228
#
# Coordination Sequence:
#
# PCOD9433048 Si02
#       8
#     4   8   8   8   8   8   8   4
#     4  10  24  48  70 100 146 194 238 316 374 438
#     4  11  25  48  73 110 142 196 244 301 372 446
#     4  12  24  49  70 103 156 185 248 306 369 447
#     4  11  25  47  69 107 140 191 246 302 377 435
#     4  12  25  46  76 106 146 199 237 318 373 440
#     4  12  26  45  75 108 146 191 252 303 374 455
#     4  11  26  49  72 106 147 189 258 302 374 447
#     4  12  24  48  72 106 150 200 238 310 378 446
#
# _framework density 25.227225000000001
#
# number of rings (size 3 to 8) (size 9 to 14) (size 15 to 20)
#    0.000    0.571    5.714    2.143    6.000    0.571 
#    2.571    0.000    0.000    0.000    0.000    0.000 
#    0.000    0.000    0.000    0.000    0.000    0.000 
#
# Total GULP energy -312979.628383 kJ/mol
# GULP energy per Si atom -5588.921935 kJ/mol
# Density = 2.516981 g / cm^3
# Si number density = 25.227225 Si / 1000 Ang^3
#
#
#
# Elastic Constant Matrix: (Units=GPa)
#
#
# Indices 1 2 3 4 5 6 
#
# 1 179.6459 43.7738 59.8675 0.0000 0.0000 0.0000
# 2 43.7738 91.5730 42.5550 0.0000 0.0000 0.0000
# 3 59.8675 42.5550 147.1892 0.0000 0.0000 0.0000
# 4 0.0000 0.0000 0.0000 21.6637 0.0000 0.0000
# 5 0.0000 0.0000 0.0000 0.0000 29.2200 0.0000
# 6 0.0000 0.0000 0.0000 0.0000 0.0000 40.3915
#
#
#
# Elastic Compliance Matrix: (Units=1/GPa)
#
#
# Indices 1 2 3 4 5 6 
#
# 1 0.006828 -0.002280 -0.002118 0.000000 0.000000 0.000000
# 2 -0.002280 0.013376 -0.002940 0.000000 0.000000 0.000000
# 3 -0.002118 -0.002940 0.008506 0.000000 0.000000 0.000000
# 4 0.000000 0.000000 0.000000 0.046160 0.000000 0.000000
# 5 0.000000 0.000000 0.000000 0.000000 0.034223 0.000000
# 6 0.000000 0.000000 0.000000 0.000000 0.000000 0.024758
#
#
# Mechanical properties :
#
#
# Convention : Reuss Voigt Hill
#
# Bulk Modulus (GPa) = 71.25514 78.97783 75.11648
# Shear Modulus (GPa) = 32.63618 36.40249 34.51933
#
# Velocity S-wave (km/s) = 3.60069 3.80278 3.70312
# Velocity P-wave (km/s) = 6.75228 7.11731 6.93720
#
# Compressibility (1/GPa) = 0.01403408
#
# Stress axis : x y z
#
# Youngs Moduli (GPa) = 146.45987 74.75947 117.57073
#
# Poissons Ratio (x) = 0.17042 0.24902
# Poissons Ratio (y) = 0.33386 0.34567
# Poissons Ratio (z) = 0.31021 0.21980
#
# Static dielectric constant tensor:
#      x y z
#    x 2.019720 0.000000 0.000000 
#    y 0.000000 2.225590 0.000000 
#    z 0.000000 0.000000 1.971680 
# 
# From -- ./inp_files/12325.got.cif
#   From: 2010.05.17/outbox.cif.g08.bks.cpg/sg56_7_cif.got.tgz:12325.got - 2010.06.03 13:42:01.
