data_PCOD9433655
_publ_section_title
;
Structure prediction by ZEFSAII (Michael W. Deem and Ramdas Pophale) SiO2 
 PCOD9433655
Probable space group: P C C N
;
_chemical_formula_sum "Si O2"
_cell_formula_units_Z 48
_cell_length_a 8.502615
_cell_length_b 18.381369
_cell_length_c 14.394772
_cell_angle_alpha 90.000000
_cell_angle_beta 90.000000
_cell_angle_gamma 90.000000
_cell_volume 2249.754652
_symmetry_space_group_name_H-M "P C C N"
_symmetry_group_IT_number 56
_symmetry_cell_setting 'orthorhombic'
loop_
_space_group_symop_operation_xyz
x,y,z
1/2-x,1/2-y,z
1/2+x,-y,1/2-z
-x,1/2+y,1/2-z
-x,-y,-z
1/2+x,1/2+y,-z
1/2-x,y,1/2+z
x,1/2-y,1/2+z
loop_
_atom_site_type_symbol
_atom_site_label
_atom_site_fract_x
_atom_site_fract_y
_atom_site_fract_z
Si Si1 0.128607 0.183416 0.513729
Si Si2 0.081445 0.212012 0.718834
Si Si3 0.321784 0.475961 0.474491
Si Si4 0.360696 0.053498 0.292281
Si Si5 0.874583 0.193420 0.352673
Si Si6 0.207989 0.957840 0.143503
O O1 0.250000 0.250000 0.500559
O O2 0.041420 0.192611 0.612428
O O3 0.211865 0.105053 0.513283
O O4 0.008606 0.179041 0.428291
O O5 0.250000 0.250000 0.713889
O O6 0.114274 0.139582 0.778519
O O7 0.956789 0.265477 0.766547
O O8 0.500000 0.500000 0.500000
O O9 0.271080 0.470175 0.367330
O O10 0.219528 0.532753 0.533021
O O11 0.530737 0.028455 0.326286
O O12 0.314609 0.017219 0.195348
O O13 0.750000 0.250000 0.393760
O O14 0.780722 0.120078 0.328680
#
# Coordination Sequence:
#
# PCOD9433655 Si02
#       6
#     8   8   8   8   8   8
#     4  11  25  45  73 101 138 187 238 291 363 433
#     4  11  25  46  72 102 136 187 237 289 357 430
#     4  12  24  45  73 102 141 184 234 296 359 429
#     4  12  26  46  73 103 143 185 237 296 358 426
#     4  12  25  45  69 103 146 183 235 294 356 420
#     4  12  27  45  69 106 140 187 238 292 357 432
#
# _framework density 21.335661000000002
#
# number of rings (size 3 to 8) (size 9 to 14) (size 15 to 20)
#    0.000    0.333    5.000    4.000    2.333    0.667 
#    3.000    0.000    0.000    0.000    0.000    0.000 
#    0.000    0.000    0.000    0.000    0.000    0.000 
#
# Total GULP energy -268338.209345 kJ/mol
# GULP energy per Si atom -5590.379361 kJ/mol
# Density = 2.128710 g / cm^3
# Si number density = 21.335661 Si / 1000 Ang^3
#
#
#
# Elastic Constant Matrix: (Units=GPa)
#
#
# Indices 1 2 3 4 5 6 
#
# 1 75.7132 4.9377 4.6584 0.0000 0.0000 0.0000
# 2 4.9377 84.9295 -4.7349 0.0000 0.0000 0.0000
# 3 4.6584 -4.7349 80.5999 0.0000 0.0000 0.0000
# 4 0.0000 0.0000 0.0000 26.5727 0.0000 0.0000
# 5 0.0000 0.0000 0.0000 0.0000 -7.0909 0.0000
# 6 0.0000 0.0000 0.0000 0.0000 0.0000 37.0216
#
#
#
# Elastic Compliance Matrix: (Units=1/GPa)
#
#
# Indices 1 2 3 4 5 6 
#
# 1 0.013311 -0.000819 -0.000817 0.000000 0.000000 0.000000
# 2 -0.000819 0.011864 0.000744 0.000000 0.000000 0.000000
# 3 -0.000817 0.000744 0.012498 0.000000 0.000000 0.000000
# 4 0.000000 0.000000 0.000000 0.037633 0.000000 0.000000
# 5 0.000000 0.000000 0.000000 0.000000 -0.141027 0.000000
# 6 0.000000 0.000000 0.000000 0.000000 0.000000 0.027011
#
#
# Mechanical properties :
#
#
# Convention : Reuss Voigt Hill
#
# Bulk Modulus (GPa) = 27.86473 27.88499 27.87486
# Shear Modulus (GPa) = -200.30432 27.05946 -86.62243
#
# Velocity S-wave (km/s) = -9.69981 3.56515 -6.37871
# Velocity P-wave (km/s) = 10.59999 5.48134 6.41540
#
# Compressibility (1/GPa) = 0.03588767
#
# Stress axis : x y z
#
# Youngs Moduli (GPa) = 75.12311 84.29137 80.01321
#
# Poissons Ratio (x) = 0.06908 0.06541
# Poissons Ratio (y) = 0.06156 -0.05955
# Poissons Ratio (z) = 0.06141 -0.06274
#
# Static dielectric constant tensor:
#      x y z
#    x 1.763820 0.000000 0.000000 
#    y 0.000000 1.786970 0.000000 
#    z 0.000000 0.000000 1.777820 
# 
# From -- ./inp_files/10626.got.cif
#   From: 2010.05.17/outbox.cif.g08.bks.cpg/sg56_6_cif.got.tgz:10626.got - 2010.06.03 13:42:01.
