data_PCOD9433271
_publ_section_title
;
Structure prediction by ZEFSAII (Michael W. Deem and Ramdas Pophale) SiO2 
 PCOD9433271
Probable space group: P C C N
;
_chemical_formula_sum "Si O2"
_cell_formula_units_Z 52
_cell_length_a 12.555953
_cell_length_b 7.969710
_cell_length_c 21.055081
_cell_angle_alpha 90.000000
_cell_angle_beta 90.000000
_cell_angle_gamma 90.000000
_cell_volume 2106.925195
_symmetry_space_group_name_H-M "P C C N"
_symmetry_group_IT_number 56
_symmetry_cell_setting 'orthorhombic'
loop_
_space_group_symop_operation_xyz
x,y,z
1/2-x,1/2-y,z
1/2+x,-y,1/2-z
-x,1/2+y,1/2-z
-x,-y,-z
1/2+x,1/2+y,-z
1/2-x,y,1/2+z
x,1/2-y,1/2+z
loop_
_atom_site_type_symbol
_atom_site_label
_atom_site_fract_x
_atom_site_fract_y
_atom_site_fract_z
Si Si1 0.175892 0.411632 0.541297
Si Si2 0.008501 0.695661 0.768601
Si Si3 0.750000 0.250000 0.530909
Si Si4 0.635821 0.047115 0.128832
Si Si5 0.861306 0.521466 0.687562
Si Si6 0.140857 0.847365 0.141963
Si Si7 0.055228 0.281245 0.431379
O O1 0.250000 0.250000 0.538849
O O2 0.223013 0.581322 0.508392
O O3 0.154597 0.468370 0.612816
O O4 0.074319 0.350364 0.501074
O O5 0.033148 0.572869 0.827192
O O6 0.080784 0.650357 0.707936
O O7 0.890705 0.667139 0.739251
O O8 0.063000 0.868542 0.791081
O O9 0.843284 0.198022 0.580116
O O10 0.738374 0.027091 0.175588
O O11 0.620660 0.884807 0.085287
O O12 0.898600 0.585828 0.618911
O O13 0.250000 0.750000 0.149059
O O14 0.065874 0.755769 0.089689
#
# Coordination Sequence:
#
# PCOD9433271 Si02
#       7
#     8   8   4   8   8   8   8
#     4  12  23  46  73 100 138 182 240 290 353 417
#     4  11  23  40  63  99 142 181 227 285 359 427
#     4  12  22  42  78 106 134 178 234 302 348 400
#     4  12  21  42  74 103 136 177 236 302 348 414
#     4  11  21  38  63  97 133 178 224 285 345 407
#     4  11  25  44  64  96 146 192 223 288 357 424
#     4  11  23  42  72 105 131 180 245 293 345 413
#
# _framework density 24.680513999999999
#
# number of rings (size 3 to 8) (size 9 to 14) (size 15 to 20)
#    0.000    0.615    5.385    3.692    0.000    0.000 
#    0.000   16.923    0.000    0.000    0.000    0.000 
#    0.000    0.000    0.000    0.000    0.000    0.000 
#
# Total GULP energy -290899.985055 kJ/mol
# GULP energy per Si atom -5594.230482 kJ/mol
# Density = 2.462434 g / cm^3
# Si number density = 24.680514 Si / 1000 Ang^3
#
#
#
# Elastic Constant Matrix: (Units=GPa)
#
#
# Indices 1 2 3 4 5 6 
#
# 1 60.7343 22.4376 -8.6619 0.0000 0.0000 0.0000
# 2 22.4376 139.0007 35.1943 0.0000 0.0000 0.0000
# 3 -8.6619 35.1943 60.7187 0.0000 0.0000 0.0000
# 4 0.0000 0.0000 0.0000 93.4627 0.0000 0.0000
# 5 0.0000 0.0000 0.0000 0.0000 291.2947 0.0000
# 6 0.0000 0.0000 0.0000 0.0000 0.0000 34.8612
#
#
#
# Elastic Compliance Matrix: (Units=1/GPa)
#
#
# Indices 1 2 3 4 5 6 
#
# 1 0.018818 -0.004357 0.005210 0.000000 0.000000 0.000000
# 2 -0.004357 0.009440 -0.006093 0.000000 0.000000 0.000000
# 3 0.005210 -0.006093 0.020744 0.000000 0.000000 0.000000
# 4 0.000000 0.000000 0.000000 0.010699 0.000000 0.000000
# 5 0.000000 0.000000 0.000000 0.000000 0.003433 0.000000
# 6 0.000000 0.000000 0.000000 0.000000 0.000000 0.028685
#
#
# Mechanical properties :
#
#
# Convention : Reuss Voigt Hill
#
# Bulk Modulus (GPa) = 25.95931 39.82153 32.89042
# Shear Modulus (GPa) = 43.42492 98.02263 70.72377
#
# Velocity S-wave (km/s) = 4.19917 6.30895 5.35891
# Velocity P-wave (km/s) = 5.83538 8.32107 7.18651
#
# Compressibility (1/GPa) = 0.03852183
#
# Stress axis : x y z
#
# Youngs Moduli (GPa) = 53.14152 105.92913 48.20557
#
# Poissons Ratio (x) = 0.46149 -0.25114
# Poissons Ratio (y) = 0.23152 0.29373
# Poissons Ratio (z) = -0.27685 0.64546
#
# Static dielectric constant tensor:
#      x y z
#    x 2.011020 0.000000 0.000000 
#    y 0.000000 2.048090 0.000000 
#    z 0.000000 0.000000 1.948640 
# 
# From -- ./inp_files/19065.got.cif
#   From: 2010.05.17/outbox.cif.g08.bks.cpg/sg56_10_cif.got.tgz:19065.got - 2010.06.03 13:42:01.
