data_PCOD9433609
_publ_section_title
;
Structure prediction by ZEFSAII (Michael W. Deem and Ramdas Pophale) SiO2 
 PCOD9433609
Probable space group: P C C N
;
_chemical_formula_sum "Si O2"
_cell_formula_units_Z 60
_cell_length_a 25.170394
_cell_length_b 5.160503
_cell_length_c 18.273212
_cell_angle_alpha 90.000000
_cell_angle_beta 90.000000
_cell_angle_gamma 90.000000
_cell_volume 2373.542112
_symmetry_space_group_name_H-M "P C C N"
_symmetry_group_IT_number 56
_symmetry_cell_setting 'orthorhombic'
loop_
_space_group_symop_operation_xyz
x,y,z
1/2-x,1/2-y,z
1/2+x,-y,1/2-z
-x,1/2+y,1/2-z
-x,-y,-z
1/2+x,1/2+y,-z
1/2-x,y,1/2+z
x,1/2-y,1/2+z
loop_
_atom_site_type_symbol
_atom_site_label
_atom_site_fract_x
_atom_site_fract_y
_atom_site_fract_z
Si Si1 0.154022 0.649717 0.026967
Si Si2 0.288078 0.057399 0.742998
Si Si3 0.885590 0.801044 0.344680
Si Si4 0.403859 0.239866 0.383082
Si Si5 0.059405 0.048104 0.028245
Si Si6 0.750000 0.250000 0.382224
Si Si7 0.158522 0.773474 0.366226
Si Si8 0.032327 0.530110 0.261423
O O1 0.145110 0.426542 0.086741
O O2 0.098829 0.804458 0.019315
O O3 0.199575 0.809862 0.068392
O O4 0.176605 0.615470 0.945270
O O5 0.250000 0.250000 0.787425
O O6 0.343282 0.157342 0.706956
O O7 0.249404 0.979820 0.676277
O O8 0.305175 0.829040 0.797298
O O9 0.930458 0.634909 0.388282
O O10 0.917481 0.003567 0.293866
O O11 0.390521 0.524568 0.354329
O O12 0.449596 0.097525 0.337745
O O13 0.418771 0.252837 0.468236
O O14 0.356835 0.026740 0.374283
O O15 0.000000 0.000000 0.000000
O O16 0.010986 0.819974 0.265707
#
# Coordination Sequence:
#
# PCOD9433609 Si02
#       8
#     8   8   8   8   8   4   8   8
#     4  11  26  48  74 110 151 200 251 318 384 460
#     4  12  27  48  77 113 145 198 256 318 385 463
#     4  12  25  46  76 104 152 197 249 320 380 456
#     4  11  24  47  70 102 149 191 238 307 370 451
#     4  11  25  45  73 105 145 198 253 307 378 455
#     4  12  26  46  80 108 148 196 258 310 390 454
#     4  11  26  49  74 104 152 193 244 307 384 451
#     4  12  28  45  71 107 146 197 253 307 376 449
#
# _framework density 25.278673000000001
#
# number of rings (size 3 to 8) (size 9 to 14) (size 15 to 20)
#    0.000    0.533    5.333    1.600    7.467    2.133 
#    4.800    0.000    0.000    0.000    0.000    0.000 
#    0.000    0.000    0.000    0.000    0.000    0.000 
#
# Total GULP energy -335228.955639 kJ/mol
# GULP energy per Si atom -5587.149261 kJ/mol
# Density = 2.522114 g / cm^3
# Si number density = 25.278673 Si / 1000 Ang^3
#
#
#
# Elastic Constant Matrix: (Units=GPa)
#
#
# Indices 1 2 3 4 5 6 
#
# 1 104.4654 22.8759 43.3271 0.0000 0.0000 0.0000
# 2 22.8759 61.8116 -2.7699 0.0000 0.0000 0.0000
# 3 43.3271 -2.7699 133.3021 0.0000 0.0000 0.0000
# 4 0.0000 0.0000 0.0000 35.9947 0.0000 0.0000
# 5 0.0000 0.0000 0.0000 0.0000 34.4352 0.0000
# 6 0.0000 0.0000 0.0000 0.0000 0.0000 33.4747
#
#
#
# Elastic Compliance Matrix: (Units=1/GPa)
#
#
# Indices 1 2 3 4 5 6 
#
# 1 0.012311 -0.004740 -0.004100 0.000000 0.000000 0.000000
# 2 -0.004740 0.018018 0.001915 0.000000 0.000000 0.000000
# 3 -0.004100 0.001915 0.008874 0.000000 0.000000 0.000000
# 4 0.000000 0.000000 0.000000 0.027782 0.000000 0.000000
# 5 0.000000 0.000000 0.000000 0.000000 0.029040 0.000000
# 6 0.000000 0.000000 0.000000 0.000000 0.000000 0.029873
#
#
# Mechanical properties :
#
#
# Convention : Reuss Voigt Hill
#
# Bulk Modulus (GPa) = 39.44198 47.38280 43.41239
# Shear Modulus (GPa) = 33.73835 36.52399 35.13117
#
# Velocity S-wave (km/s) = 3.65726 3.80525 3.73199
# Velocity P-wave (km/s) = 5.78540 6.17182 5.98173
#
# Compressibility (1/GPa) = 0.02535370
#
# Stress axis : x y z
#
# Youngs Moduli (GPa) = 81.22861 55.49947 112.68696
#
# Poissons Ratio (x) = 0.26306 0.46201
# Poissons Ratio (y) = 0.38501 -0.21580
# Poissons Ratio (z) = 0.33303 -0.10628
#
# Static dielectric constant tensor:
#      x y z
#    x 2.302020 0.000000 0.000000 
#    y 0.000000 2.115770 0.000000 
#    z 0.000000 0.000000 1.987370 
# 
# From -- ./inp_files/17055.got.cif
#   From: 2010.05.17/outbox.cif.g08.bks.cpg/sg56_9_cif.got.tgz:17055.got - 2010.06.03 13:42:01.
