data_PCOD9433189
_publ_section_title
;
Structure prediction by ZEFSAII (Michael W. Deem and Ramdas Pophale) SiO2 
 PCOD9433189
Probable space group: P C C N
;
_chemical_formula_sum "Si O2"
_cell_formula_units_Z 36
_cell_length_a 12.743060
_cell_length_b 5.182660
_cell_length_c 23.147683
_cell_angle_alpha 90.000000
_cell_angle_beta 90.000000
_cell_angle_gamma 90.000000
_cell_volume 1528.741209
_symmetry_space_group_name_H-M "P C C N"
_symmetry_group_IT_number 56
_symmetry_cell_setting 'orthorhombic'
loop_
_space_group_symop_operation_xyz
x,y,z
1/2-x,1/2-y,z
1/2+x,-y,1/2-z
-x,1/2+y,1/2-z
-x,-y,-z
1/2+x,1/2+y,-z
1/2-x,y,1/2+z
x,1/2-y,1/2+z
loop_
_atom_site_type_symbol
_atom_site_label
_atom_site_fract_x
_atom_site_fract_y
_atom_site_fract_z
Si Si1 0.750000 0.750000 0.851811
Si Si2 0.033899 0.885404 0.724825
Si Si3 0.034246 0.089609 0.410002
Si Si4 0.412171 0.095466 0.552339
Si Si5 0.750000 0.750000 0.043264
Si Si6 0.250000 0.750000 0.222165
O O1 0.842261 0.853741 0.891500
O O2 0.775910 0.500464 0.815325
O O3 0.136884 0.724591 0.749469
O O4 0.953466 0.672950 0.750329
O O5 0.004505 0.902275 0.656705
O O6 0.160513 0.108972 0.418566
O O7 0.977761 0.336654 0.439320
O O8 0.990425 0.838666 0.442851
O O9 0.325965 0.090248 0.500794
#
# Coordination Sequence:
#
# PCOD9433189 Si02
#       6
#     4   8   8   8   4   4
#     4  11  18  38  69 100 118 179 226 274 321 402
#     4  12  26  45  71 104 138 183 237 289 344 408
#     4  12  25  47  68 104 145 183 231 297 342 418
#     4  11  23  43  70 103 138 180 237 276 343 430
#     4  11  28  42  75 102 148 181 224 292 371 412
#     4  12  22  42  72  94 132 182 232 278 336 400
#
# _framework density 23.548788999999999
#
# number of rings (size 3 to 8) (size 9 to 14) (size 15 to 20)
#    0.000    0.444    4.444    4.000    0.000    7.111 
#    0.000    0.000    0.000    0.000    0.000    0.000 
#    0.000    0.000    0.000    0.000    0.000    0.000 
#
# Total GULP energy -200716.006042 kJ/mol
# GULP energy per Si atom -5575.444612 kJ/mol
# Density = 2.349519 g / cm^3
# Si number density = 23.548789 Si / 1000 Ang^3
#
#
#
# Elastic Constant Matrix: (Units=GPa)
#
#
# Indices 1 2 3 4 5 6 
#
# 1 108.4045 28.8681 14.6975 0.0000 0.0000 0.0000
# 2 28.8681 161.1070 51.5000 0.0000 0.0000 0.0000
# 3 14.6975 51.5000 77.4272 0.0000 0.0000 0.0000
# 4 0.0000 0.0000 0.0000 5.5746 0.0000 0.0000
# 5 0.0000 0.0000 0.0000 0.0000 20.6854 0.0000
# 6 0.0000 0.0000 0.0000 0.0000 0.0000 35.0619
#
#
#
# Elastic Compliance Matrix: (Units=1/GPa)
#
#
# Indices 1 2 3 4 5 6 
#
# 1 0.009733 -0.001465 -0.000873 0.000000 0.000000 0.000000
# 2 -0.001465 0.008104 -0.005112 0.000000 0.000000 0.000000
# 3 -0.000873 -0.005112 0.016481 0.000000 0.000000 0.000000
# 4 0.000000 0.000000 0.000000 0.179383 0.000000 0.000000
# 5 0.000000 0.000000 0.000000 0.000000 0.048343 0.000000
# 6 0.000000 0.000000 0.000000 0.000000 0.000000 0.028521
#
#
# Mechanical properties :
#
#
# Convention : Reuss Voigt Hill
#
# Bulk Modulus (GPa) = 51.49884 59.67443 55.58664
# Shear Modulus (GPa) = 16.02878 29.05593 22.54236
#
# Velocity S-wave (km/s) = 2.61178 3.51645 3.09732
# Velocity P-wave (km/s) = 5.56881 6.47171 6.03716
#
# Compressibility (1/GPa) = 0.01941791
#
# Stress axis : x y z
#
# Youngs Moduli (GPa) = 102.74107 123.40099 60.67481
#
# Poissons Ratio (x) = 0.18077 0.05298
# Poissons Ratio (y) = 0.15051 0.31017
# Poissons Ratio (z) = 0.08972 0.63083
#
# Static dielectric constant tensor:
#      x y z
#    x 2.454600 0.000000 0.000000 
#    y 0.000000 1.903220 0.000000 
#    z 0.000000 0.000000 2.051400 
# 
# From -- ./inp_files/19920.got.cif
#   From: 2010.05.17/outbox.cif.g08.bks.cpg/sg56_10_cif.got.tgz:19920.got - 2010.06.03 13:42:01.
