data_PCOD9433098
_publ_section_title
;
Structure prediction by ZEFSAII (Michael W. Deem and Ramdas Pophale) SiO2 
 PCOD9433098
Probable space group: P C C N
;
_chemical_formula_sum "Si O2"
_cell_formula_units_Z 40
_cell_length_a 10.642706
_cell_length_b 6.863921
_cell_length_c 22.130596
_cell_angle_alpha 90.000000
_cell_angle_beta 90.000000
_cell_angle_gamma 90.000000
_cell_volume 1616.655379
_symmetry_space_group_name_H-M "P C C N"
_symmetry_group_IT_number 56
_symmetry_cell_setting 'orthorhombic'
loop_
_space_group_symop_operation_xyz
x,y,z
1/2-x,1/2-y,z
1/2+x,-y,1/2-z
-x,1/2+y,1/2-z
-x,-y,-z
1/2+x,1/2+y,-z
1/2-x,y,1/2+z
x,1/2-y,1/2+z
loop_
_atom_site_type_symbol
_atom_site_label
_atom_site_fract_x
_atom_site_fract_y
_atom_site_fract_z
Si Si1 0.376975 0.026033 0.335511
Si Si2 0.456518 0.193149 0.141676
Si Si3 0.873232 0.968740 0.961885
Si Si4 0.888297 0.251560 0.349055
Si Si5 0.750000 0.750000 0.557059
Si Si6 0.750000 0.750000 0.259306
O O1 0.507541 0.124865 0.313652
O O2 0.347008 0.157596 0.394609
O O3 0.272717 0.069723 0.285912
O O4 0.410720 0.803917 0.350818
O O5 0.398482 0.281018 0.080439
O O6 0.367264 0.259497 0.196341
O O7 0.445306 0.962091 0.141473
O O8 0.864345 0.139322 0.912941
O O9 0.758628 0.928367 0.008188
O O10 0.000000 0.000000 0.000000
O O11 0.750000 0.250000 0.320046
#
# Coordination Sequence:
#
# PCOD9433098 Si02
#       6
#     8   8   8   8   4   4
#     4  10  25  46  68 105 149 192 245 319 382 444
#     4  11  23  45  71 107 144 194 253 306 380 460
#     4  11  22  44  70 100 150 191 237 314 380 457
#     4  11  23  44  70 105 143 189 249 298 381 467
#     4  11  19  46  70  96 153 193 232 314 384 449
#     4  11  25  46  76 102 149 195 254 324 376 457
#
# _framework density 24.742439999999998
#
# number of rings (size 3 to 8) (size 9 to 14) (size 15 to 20)
#    0.000    1.200    4.000    4.200    2.800    0.800 
#    3.600    4.000    0.000    0.000    0.000    0.000 
#    0.000    0.000    0.000    0.000    0.000    0.000 
#
# Total GULP energy -223102.990211 kJ/mol
# GULP energy per Si atom -5577.574755 kJ/mol
# Density = 2.468612 g / cm^3
# Si number density = 24.742440 Si / 1000 Ang^3
#
#
#
# Elastic Constant Matrix: (Units=GPa)
#
#
# Indices 1 2 3 4 5 6 
#
# 1 20.4852 21.6022 26.4330 0.0000 0.0000 0.0000
# 2 21.6022 160.2818 12.7993 0.0000 0.0000 0.0000
# 3 26.4330 12.7993 107.4033 0.0000 0.0000 0.0000
# 4 0.0000 0.0000 0.0000 33.8006 0.0000 0.0000
# 5 0.0000 0.0000 0.0000 0.0000 13.0046 0.0000
# 6 0.0000 0.0000 0.0000 0.0000 0.0000 40.6396
#
#
#
# Elastic Compliance Matrix: (Units=1/GPa)
#
#
# Indices 1 2 3 4 5 6 
#
# 1 0.084495 -0.009821 -0.019625 0.000000 0.000000 0.000000
# 2 -0.009821 0.007440 0.001530 0.000000 0.000000 0.000000
# 3 -0.019625 0.001530 0.013958 0.000000 0.000000 0.000000
# 4 0.000000 0.000000 0.000000 0.029585 0.000000 0.000000
# 5 0.000000 0.000000 0.000000 0.000000 0.076896 0.000000
# 6 0.000000 0.000000 0.000000 0.000000 0.000000 0.024607
#
#
# Mechanical properties :
#
#
# Convention : Reuss Voigt Hill
#
# Bulk Modulus (GPa) = 19.97478 45.53771 32.75624
# Shear Modulus (GPa) = 16.15515 32.64466 24.39990
#
# Velocity S-wave (km/s) = 2.55803 3.63627 3.14372
# Velocity P-wave (km/s) = 4.10064 6.00621 5.14246
#
# Compressibility (1/GPa) = 0.05006314
#
# Stress axis : x y z
#
# Youngs Moduli (GPa) = 11.83504 134.40104 71.64270
#
# Poissons Ratio (x) = 1.31992 1.40596
# Poissons Ratio (y) = 0.11623 -0.10964
# Poissons Ratio (z) = 0.23226 -0.20568
#
# Static dielectric constant tensor:
#      x y z
#    x 2.041540 0.000000 0.000000 
#    y 0.000000 1.939970 0.000000 
#    z 0.000000 0.000000 1.943330 
# 
# From -- ./inp_files/18621.got.cif
#   From: 2010.05.17/outbox.cif.g08.bks.cpg/sg56_10_cif.got.tgz:18621.got - 2010.06.03 13:42:01.
