data_PCOD9433957
_publ_section_title
;
Structure prediction by ZEFSAII (Michael W. Deem and Ramdas Pophale) SiO2 
 PCOD9433957
Probable space group: P C C N
;
_chemical_formula_sum "Si O2"
_cell_formula_units_Z 60
_cell_length_a 9.000000
_cell_length_b 12.000000
_cell_length_c 27.000000
_cell_angle_alpha 90.000000
_cell_angle_beta 90.000000
_cell_angle_gamma 90.000000
_cell_volume 2916.000000
_symmetry_space_group_name_H-M "P C C N"
_symmetry_group_IT_number 56
_symmetry_cell_setting 'orthorhombic'
loop_
_space_group_symop_operation_xyz
x,y,z
1/2-x,1/2-y,z
1/2+x,-y,1/2-z
-x,1/2+y,1/2-z
-x,-y,-z
1/2+x,1/2+y,-z
1/2-x,y,1/2+z
x,1/2-y,1/2+z
loop_
_atom_site_type_symbol
_atom_site_label
_atom_site_fract_x
_atom_site_fract_y
_atom_site_fract_z
Si Si1 0.569056 0.737020 0.945014
Si Si2 0.519687 0.404241 0.638994
Si Si3 0.837314 0.634066 0.112119
Si Si4 0.250000 0.750000 0.800835
Si Si5 0.442700 0.541450 0.788715
Si Si6 0.075708 0.775890 0.053241
Si Si7 0.275320 0.119182 0.218527
Si Si8 0.446942 0.003041 0.405636
O O1 0.750000 0.750000 0.944516
O O2 0.505326 0.842838 0.913825
O O3 0.505541 0.618247 0.923556
O O4 0.502618 0.734316 0.999956
O O5 0.588176 0.529360 0.641842
O O6 0.632664 0.321168 0.667162
O O7 0.361393 0.400111 0.666892
O O8 0.750000 0.750000 0.130592
O O9 0.713205 0.562448 0.080770
O O10 0.979118 0.689216 0.085560
O O11 0.348309 0.653148 0.774987
O O12 0.615019 0.562861 0.778778
O O13 0.380017 0.437160 0.759012
O O14 0.430903 0.513789 0.846802
O O15 0.250000 0.750000 0.050469
O O16 0.057432 0.900181 0.076041
O O17 0.250000 0.250000 0.225425
#
# Coordination Sequence:
#
# PCOD9433957 Si02
#       8
#     8   8   8   4   8   8   8   8
#     4  12  25  44  75 105 141 193 238 308 367 432
#     4  12  23  45  78 103 145 188 246 296 365 436
#     4  10  24  46  70 100 145 186 235 292 366 431
#     4  12  22  46  72 110 132 194 234 292 356 442
#     4  12  26  46  76 102 147 187 236 298 362 423
#     4  11  28  44  67 106 144 188 250 300 367 440
#     4  12  27  48  71 110 143 185 247 297 358 437
#     4  11  23  48  72  99 146 188 239 300 367 435
#
# _framework density 20.576132000000001
#
# number of rings (size 3 to 8) (size 9 to 14) (size 15 to 20)
#    0.000    0.533    4.000    3.600    6.533    2.133 
#    0.000    0.000    0.000    0.000    0.000    0.000 
#    0.000    0.000    0.000    0.000    0.000    0.000 
#
# Total GULP energy -334870.656642 kJ/mol
# GULP energy per Si atom -5581.177611 kJ/mol
# Density = 2.052930 g / cm^3
# Si number density = 20.576132 Si / 1000 Ang^3
#
#
#
# Elastic Constant Matrix: (Units=GPa)
#
#
# Indices 1 2 3 4 5 6 
#
# 1 149.1712 48.9164 15.8549 0.0000 0.0000 0.0000
# 2 48.9164 168.5987 42.4798 0.0000 0.0000 0.0000
# 3 15.8549 42.4798 53.5040 0.0000 0.0000 0.0000
# 4 0.0000 0.0000 0.0000 17.2864 0.0000 0.0000
# 5 0.0000 0.0000 0.0000 0.0000 25.7716 0.0000
# 6 0.0000 0.0000 0.0000 0.0000 0.0000 44.8121
#
#
#
# Elastic Compliance Matrix: (Units=1/GPa)
#
#
# Indices 1 2 3 4 5 6 
#
# 1 0.007425 -0.002000 -0.000612 0.000000 0.000000 0.000000
# 2 -0.002000 0.007953 -0.005722 0.000000 0.000000 0.000000
# 3 -0.000612 -0.005722 0.023414 0.000000 0.000000 0.000000
# 4 0.000000 0.000000 0.000000 0.057849 0.000000 0.000000
# 5 0.000000 0.000000 0.000000 0.000000 0.038802 0.000000
# 6 0.000000 0.000000 0.000000 0.000000 0.000000 0.022315
#
#
# Mechanical properties :
#
#
# Convention : Reuss Voigt Hill
#
# Bulk Modulus (GPa) = 45.19936 65.08622 55.14279
# Shear Modulus (GPa) = 27.50249 35.17555 31.33902
#
# Velocity S-wave (km/s) = 3.65995 4.13913 3.90689
# Velocity P-wave (km/s) = 6.31466 7.38538 6.87091
#
# Compressibility (1/GPa) = 0.02212421
#
# Stress axis : x y z
#
# Youngs Moduli (GPa) = 134.68776 125.73668 42.70859
#
# Poissons Ratio (x) = 0.25145 0.02615
# Poissons Ratio (y) = 0.26935 0.24437
# Poissons Ratio (z) = 0.08247 0.71944
#
# Static dielectric constant tensor:
#      x y z
#    x 1.759000 0.000000 0.000000 
#    y 0.000000 1.739810 0.000000 
#    z 0.000000 0.000000 1.771730 
# 
# From -- ./inp_files/22098.got.cif
#   From: 2010.05.17/outbox.ucp.g08.bks.cvg/sg56_12_cif.got.tgz:22098.got - 2010.06.11 16:37:52.
