data_PCOD9433965
_publ_section_title
;
Structure prediction by ZEFSAII (Michael W. Deem and Ramdas Pophale) SiO2 
 PCOD9433965
Probable space group: P C C N
;
_chemical_formula_sum "Si O2"
_cell_formula_units_Z 56
_cell_length_a 21.000000
_cell_length_b 9.000000
_cell_length_c 15.000000
_cell_angle_alpha 90.000000
_cell_angle_beta 90.000000
_cell_angle_gamma 90.000000
_cell_volume 2835.000000
_symmetry_space_group_name_H-M "P C C N"
_symmetry_group_IT_number 56
_symmetry_cell_setting 'orthorhombic'
loop_
_space_group_symop_operation_xyz
x,y,z
1/2-x,1/2-y,z
1/2+x,-y,1/2-z
-x,1/2+y,1/2-z
-x,-y,-z
1/2+x,1/2+y,-z
1/2-x,y,1/2+z
x,1/2-y,1/2+z
loop_
_atom_site_type_symbol
_atom_site_label
_atom_site_fract_x
_atom_site_fract_y
_atom_site_fract_z
Si Si1 0.548645 0.072419 0.430857
Si Si2 0.250000 0.750000 0.168373
Si Si3 0.146804 0.893538 0.809376
Si Si4 0.003535 0.127671 0.219819
Si Si5 0.688638 0.460481 0.986864
Si Si6 0.464057 0.920518 0.081689
Si Si7 0.750000 0.750000 0.924037
Si Si8 0.378075 0.148223 0.177583
O O1 0.617422 0.006401 0.452856
O O2 0.552495 0.250059 0.441414
O O3 0.500000 0.000000 0.500000
O O4 0.523300 0.020582 0.334630
O O5 0.305561 0.812411 0.236793
O O6 0.281505 0.636749 0.095525
O O7 0.071698 0.835697 0.805926
O O8 0.138904 0.060315 0.768946
O O9 0.176590 0.896444 0.910944
O O10 0.059952 0.244711 0.193720
O O11 0.003294 0.094390 0.325427
O O12 0.731461 0.608532 0.984827
O O13 0.403583 0.021061 0.109289
O O14 0.500000 0.000000 0.000000
O O15 0.686827 0.782463 0.863289
#
# Coordination Sequence:
#
# PCOD9433965 Si02
#       8
#     8   4   8   8   8   8   4   8
#     4  12  24  44  72 105 137 191 243 299 372 433
#     4  12  26  50  72 108 150 192 254 302 372 448
#     4  11  25  46  76 107 147 196 247 302 376 447
#     4  11  23  45  76 102 147 188 245 306 368 433
#     4  12  26  47  76 102 149 196 248 307 367 453
#     4  11  25  41  69 107 146 183 236 305 363 439
#     4  12  26  46  72 104 148 200 240 314 366 436
#     4  11  24  48  69 108 149 188 249 303 363 440
#
# _framework density 19.753086
#
# number of rings (size 3 to 8) (size 9 to 14) (size 15 to 20)
#    0.000    0.571    4.286    4.714    0.000    0.571 
#    0.000    0.000    0.000    0.000    0.000    0.000 
#    0.000    0.000    0.000    0.000    0.000    0.000 
#
# Total GULP energy -312551.637282 kJ/mol
# GULP energy per Si atom -5581.279237 kJ/mol
# Density = 1.970813 g / cm^3
# Si number density = 19.753086 Si / 1000 Ang^3
#
#
#
# Elastic Constant Matrix: (Units=GPa)
#
#
# Indices 1 2 3 4 5 6 
#
# 1 159.4961 58.1933 52.9324 0.0000 0.0000 0.0000
# 2 58.1933 105.3837 40.3688 0.0000 0.0000 0.0000
# 3 52.9324 40.3688 153.1249 0.0000 0.0000 0.0000
# 4 0.0000 0.0000 0.0000 38.7225 0.0000 0.0000
# 5 0.0000 0.0000 0.0000 0.0000 45.1148 0.0000
# 6 0.0000 0.0000 0.0000 0.0000 0.0000 46.2766
#
#
#
# Elastic Compliance Matrix: (Units=1/GPa)
#
#
# Indices 1 2 3 4 5 6 
#
# 1 0.008296 -0.003874 -0.001847 0.000000 0.000000 0.000000
# 2 -0.003874 0.012364 -0.001920 0.000000 0.000000 0.000000
# 3 -0.001847 -0.001920 0.007675 0.000000 0.000000 0.000000
# 4 0.000000 0.000000 0.000000 0.025825 0.000000 0.000000
# 5 0.000000 0.000000 0.000000 0.000000 0.022166 0.000000
# 6 0.000000 0.000000 0.000000 0.000000 0.000000 0.021609
#
#
# Mechanical properties :
#
#
# Convention : Reuss Voigt Hill
#
# Bulk Modulus (GPa) = 76.60689 80.11042 78.35865
# Shear Modulus (GPa) = 42.52890 43.79015 43.15953
#
# Velocity S-wave (km/s) = 4.64510 4.71348 4.67942
# Velocity P-wave (km/s) = 8.22410 8.38251 8.30368
#
# Compressibility (1/GPa) = 0.01305366
#
# Stress axis : x y z
#
# Youngs Moduli (GPa) = 120.54158 80.88091 130.28956
#
# Poissons Ratio (x) = 0.31331 0.24058
# Poissons Ratio (y) = 0.46694 0.25022
# Poissons Ratio (z) = 0.22258 0.15533
#
# Static dielectric constant tensor:
#      x y z
#    x 1.702750 0.000000 0.000000 
#    y 0.000000 1.761480 0.000000 
#    z 0.000000 0.000000 1.706780 
# 
# From -- ./inp_files/13095.got.cif
#   From: 2010.05.17/outbox.ucp.g08.bks.cvg/sg56_7_cif.got.tgz:13095.got - 2010.06.11 16:37:52.
