data_PCOD9433725
_publ_section_title
;
Structure prediction by ZEFSAII (Michael W. Deem and Ramdas Pophale) SiO2 
 PCOD9433725
Probable space group: P C C N
;
_chemical_formula_sum "Si O2"
_cell_formula_units_Z 40
_cell_length_a 8.048108
_cell_length_b 21.819636
_cell_length_c 9.370210
_cell_angle_alpha 90.000000
_cell_angle_beta 90.000000
_cell_angle_gamma 90.000000
_cell_volume 1645.472472
_symmetry_space_group_name_H-M "P C C N"
_symmetry_group_IT_number 56
_symmetry_cell_setting 'orthorhombic'
loop_
_space_group_symop_operation_xyz
x,y,z
1/2-x,1/2-y,z
1/2+x,-y,1/2-z
-x,1/2+y,1/2-z
-x,-y,-z
1/2+x,1/2+y,-z
1/2-x,y,1/2+z
x,1/2-y,1/2+z
loop_
_atom_site_type_symbol
_atom_site_label
_atom_site_fract_x
_atom_site_fract_y
_atom_site_fract_z
Si Si1 0.557231 0.258998 0.328095
Si Si2 0.043078 0.603008 0.244021
Si Si3 0.882531 0.800587 0.392683
Si Si4 0.291719 0.434404 0.607512
Si Si5 0.660569 0.052391 0.064455
O O1 0.750000 0.250000 0.330861
O O2 0.519315 0.323689 0.249942
O O3 0.484954 0.198175 0.253350
O O4 0.490818 0.270625 0.484668
O O5 0.192741 0.584400 0.349552
O O6 0.106071 0.585691 0.084067
O O7 0.869398 0.570084 0.289956
O O8 0.750000 0.750000 0.355987
O O9 0.808456 0.864278 0.443570
O O10 0.270440 0.486724 0.488928
O O11 0.485163 0.449338 0.653044
#
# Coordination Sequence:
#
# PCOD9433725 Si02
#       5
#     8   8   8   8   8
#     4  12  27  45  72 107 147 192 245 311 370 450
#     4  12  27  50  77 111 153 201 250 321 385 458
#     4  12  25  48  73 104 144 196 247 303 376 452
#     4  11  26  50  74 108 153 198 252 310 388 457
#     4  11  28  48  78 115 148 200 258 320 382 464
#
# _framework density 24.309128999999999
#
# number of rings (size 3 to 8) (size 9 to 14) (size 15 to 20)
#    0.000    0.400    4.000    3.000    8.400    1.600 
#    0.000    0.000    0.000    0.000    0.000    0.000 
#    0.000    0.000    0.000    0.000    0.000    0.000 
#
# Total GULP energy -223513.711463 kJ/mol
# GULP energy per Si atom -5587.842787 kJ/mol
# Density = 2.425380 g / cm^3
# Si number density = 24.309129 Si / 1000 Ang^3
#
#
#
# Elastic Constant Matrix: (Units=GPa)
#
#
# Indices 1 2 3 4 5 6 
#
# 1 154.6737 23.5787 65.0053 0.0000 0.0000 0.0000
# 2 23.5787 110.5676 23.1397 0.0000 0.0000 0.0000
# 3 65.0053 23.1397 105.7228 0.0000 0.0000 0.0000
# 4 0.0000 0.0000 0.0000 34.3987 0.0000 0.0000
# 5 0.0000 0.0000 0.0000 0.0000 40.6051 0.0000
# 6 0.0000 0.0000 0.0000 0.0000 0.0000 55.1016
#
#
#
# Elastic Compliance Matrix: (Units=1/GPa)
#
#
# Indices 1 2 3 4 5 6 
#
# 1 0.008782 -0.000778 -0.005229 0.000000 0.000000 0.000000
# 2 -0.000778 0.009547 -0.001611 0.000000 0.000000 0.000000
# 3 -0.005229 -0.001611 0.013027 0.000000 0.000000 0.000000
# 4 0.000000 0.000000 0.000000 0.029071 0.000000 0.000000
# 5 0.000000 0.000000 0.000000 0.000000 0.024627 0.000000
# 6 0.000000 0.000000 0.000000 0.000000 0.000000 0.018148
#
#
# Mechanical properties :
#
#
# Convention : Reuss Voigt Hill
#
# Bulk Modulus (GPa) = 62.04088 66.04571 64.04330
# Shear Modulus (GPa) = 40.38384 43.30376 41.84380
#
# Velocity S-wave (km/s) = 4.08028 4.22522 4.15338
# Velocity P-wave (km/s) = 6.91197 7.14362 7.02875
#
# Compressibility (1/GPa) = 0.01611840
#
# Stress axis : x y z
#
# Youngs Moduli (GPa) = 113.87543 104.74064 76.76649
#
# Poissons Ratio (x) = 0.08152 0.40142
# Poissons Ratio (y) = 0.08863 0.12368
# Poissons Ratio (z) = 0.59547 0.16875
#
# Static dielectric constant tensor:
#      x y z
#    x 1.931550 0.000000 0.000000 
#    y 0.000000 2.007140 0.000000 
#    z 0.000000 0.000000 1.921110 
# 
# From -- ./inp_files/2059.got.cif
#   From: 2010.05.17/outbox.cif.g08.bks.cpg/sg56_2_cif.got.tgz:2059.got - 2010.06.03 13:42:01.
