data_PCOD9433588
_publ_section_title
;
Structure prediction by ZEFSAII (Michael W. Deem and Ramdas Pophale) SiO2 
 PCOD9433588
Probable space group: P C C N
;
_chemical_formula_sum "Si O2"
_cell_formula_units_Z 64
_cell_length_a 15.340832
_cell_length_b 11.628369
_cell_length_c 17.354154
_cell_angle_alpha 90.000000
_cell_angle_beta 90.000000
_cell_angle_gamma 90.000000
_cell_volume 3095.787666
_symmetry_space_group_name_H-M "P C C N"
_symmetry_group_IT_number 56
_symmetry_cell_setting 'orthorhombic'
loop_
_space_group_symop_operation_xyz
x,y,z
1/2-x,1/2-y,z
1/2+x,-y,1/2-z
-x,1/2+y,1/2-z
-x,-y,-z
1/2+x,1/2+y,-z
1/2-x,y,1/2+z
x,1/2-y,1/2+z
loop_
_atom_site_type_symbol
_atom_site_label
_atom_site_fract_x
_atom_site_fract_y
_atom_site_fract_z
Si Si1 0.648171 0.775273 0.304952
Si Si2 0.912977 0.517261 0.212601
Si Si3 0.032430 0.328747 0.552595
Si Si4 0.564978 0.083677 0.042933
Si Si5 0.110122 0.027540 0.924045
Si Si6 0.890925 0.970790 0.254395
Si Si7 0.773567 0.120809 0.807743
Si Si8 0.250727 0.880267 0.513266
O O1 0.750000 0.750000 0.313730
O O2 0.605822 0.828639 0.381400
O O3 0.602651 0.653059 0.293588
O O4 0.630938 0.860843 0.233632
O O5 0.909668 0.470009 0.125753
O O6 0.858761 0.427659 0.265359
O O7 0.014749 0.528291 0.235043
O O8 0.077182 0.362304 0.471690
O O9 0.979616 0.209109 0.550887
O O10 0.965232 0.430928 0.570963
O O11 0.650161 0.087618 0.989809
O O12 0.500000 0.000000 0.000000
O O13 0.127762 0.050286 0.835276
O O14 0.192839 0.968488 0.964211
O O15 0.810243 0.042080 0.288588
O O16 0.750000 0.250000 0.782728
O O17 0.786717 0.121854 0.899840
O O18 0.250000 0.750000 0.481012
#
# Coordination Sequence:
#
# PCOD9433588 Si02
#       8
#     8   8   8   8   8   8   8   8
#     4  12  26  48  70 103 150 191 244 297 368 437
#     4  12  26  46  73 100 142 191 237 298 361 436
#     4  11  25  46  71 103 139 189 233 298 358 438
#     4  12  27  45  69 105 143 185 235 294 366 429
#     4  11  25  43  72 104 139 183 242 292 369 425
#     4  12  26  44  72 105 141 188 243 305 363 434
#     4  11  27  45  70 106 139 188 242 297 363 432
#     4  11  24  45  70  99 144 184 238 298 355 435
#
# _framework density 20.673252000000002
#
# number of rings (size 3 to 8) (size 9 to 14) (size 15 to 20)
#    0.000    0.500    5.000    2.250    7.000    1.000 
#    0.000    0.625    0.000    0.000    0.000    0.000 
#    0.000    0.000    0.000    0.000    0.000    0.000 
#
# Total GULP energy -358038.251685 kJ/mol
# GULP energy per Si atom -5594.347683 kJ/mol
# Density = 2.062620 g / cm^3
# Si number density = 20.673252 Si / 1000 Ang^3
#
#
#
# Elastic Constant Matrix: (Units=GPa)
#
#
# Indices 1 2 3 4 5 6 
#
# 1 84.6271 8.8836 -10.6598 0.0000 0.0000 0.0000
# 2 8.8836 81.4324 12.3087 0.0000 0.0000 0.0000
# 3 -10.6598 12.3087 52.3414 0.0000 0.0000 0.0000
# 4 0.0000 0.0000 0.0000 19.2207 0.0000 0.0000
# 5 0.0000 0.0000 0.0000 0.0000 33.1676 0.0000
# 6 0.0000 0.0000 0.0000 0.0000 0.0000 31.4868
#
#
#
# Elastic Compliance Matrix: (Units=1/GPa)
#
#
# Indices 1 2 3 4 5 6 
#
# 1 0.012376 -0.001795 0.002942 0.000000 0.000000 0.000000
# 2 -0.001795 0.012993 -0.003421 0.000000 0.000000 0.000000
# 3 0.002942 -0.003421 0.020509 0.000000 0.000000 0.000000
# 4 0.000000 0.000000 0.000000 0.052027 0.000000 0.000000
# 5 0.000000 0.000000 0.000000 0.000000 0.030150 0.000000
# 6 0.000000 0.000000 0.000000 0.000000 0.000000 0.031759
#
#
# Mechanical properties :
#
#
# Convention : Reuss Voigt Hill
#
# Bulk Modulus (GPa) = 24.19490 26.60730 25.40110
# Shear Modulus (GPa) = 28.06817 30.63294 29.35055
#
# Velocity S-wave (km/s) = 3.68870 3.85355 3.77203
# Velocity P-wave (km/s) = 5.46543 5.71823 5.59326
#
# Compressibility (1/GPa) = 0.04133102
#
# Stress axis : x y z
#
# Youngs Moduli (GPa) = 80.80418 76.96440 48.75890
#
# Poissons Ratio (x) = 0.13814 -0.14347
# Poissons Ratio (y) = 0.14503 0.16680
# Poissons Ratio (z) = -0.23776 0.26329
#
# Static dielectric constant tensor:
#      x y z
#    x 1.704970 0.000000 0.000000 
#    y 0.000000 1.742360 0.000000 
#    z 0.000000 0.000000 1.726290 
# 
# From -- ./inp_files/16365.got.cif
#   From: 2010.05.17/outbox.cif.g08.bks.cpg/sg56_9_cif.got.tgz:16365.got - 2010.06.03 13:42:01.
