data_PCOD9433318
_publ_section_title
;
Structure prediction by ZEFSAII (Michael W. Deem and Ramdas Pophale) SiO2 
 PCOD9433318
Probable space group: P C C N
;
_chemical_formula_sum "Si O2"
_cell_formula_units_Z 48
_cell_length_a 15.037005
_cell_length_b 9.042209
_cell_length_c 16.375959
_cell_angle_alpha 90.000000
_cell_angle_beta 90.000000
_cell_angle_gamma 90.000000
_cell_volume 2226.602167
_symmetry_space_group_name_H-M "P C C N"
_symmetry_group_IT_number 56
_symmetry_cell_setting 'orthorhombic'
loop_
_space_group_symop_operation_xyz
x,y,z
1/2-x,1/2-y,z
1/2+x,-y,1/2-z
-x,1/2+y,1/2-z
-x,-y,-z
1/2+x,1/2+y,-z
1/2-x,y,1/2+z
x,1/2-y,1/2+z
loop_
_atom_site_type_symbol
_atom_site_label
_atom_site_fract_x
_atom_site_fract_y
_atom_site_fract_z
Si Si1 0.776615 0.917215 0.636028
Si Si2 0.600822 0.540798 0.475624
Si Si3 0.338003 0.650043 0.932534
Si Si4 0.348166 0.762998 0.611663
Si Si5 0.924805 0.473205 0.258128
Si Si6 0.520257 0.763657 0.855689
O O1 0.750000 0.750000 0.654767
O O2 0.837098 0.932601 0.553924
O O3 0.685621 0.002803 0.615773
O O4 0.835284 0.991194 0.707178
O O5 0.500000 0.500000 0.500000
O O6 0.630652 0.399225 0.423025
O O7 0.593431 0.688188 0.421521
O O8 0.250000 0.750000 0.919440
O O9 0.427243 0.723457 0.899614
O O10 0.346232 0.635257 0.030071
O O11 0.250000 0.750000 0.648086
O O12 0.409688 0.841248 0.677224
O O13 0.999129 0.409229 0.197503
O O14 0.952090 0.623526 0.302666
#
# Coordination Sequence:
#
# PCOD9433318 Si02
#       6
#     8   8   8   8   8   8
#     4  12  28  47  74 103 147 185 238 296 356 417
#     4  12  22  47  73 100 139 187 235 291 344 427
#     4  11  21  49  71  97 129 199 232 269 350 435
#     4  11  24  43  73 101 138 182 239 282 354 420
#     4  12  28  45  66 111 140 184 227 302 359 406
#     4  12  27  43  74 101 144 183 239 286 357 417
#
# _framework density 21.557510000000001
#
# number of rings (size 3 to 8) (size 9 to 14) (size 15 to 20)
#    0.000    0.333    8.333    1.000    7.000    2.000 
#    0.000    0.000    0.000    0.000    0.000    0.000 
#    0.000    0.000    0.000    0.000    0.000    0.000 
#
# Total GULP energy -268464.602133 kJ/mol
# GULP energy per Si atom -5593.012544 kJ/mol
# Density = 2.150844 g / cm^3
# Si number density = 21.557510 Si / 1000 Ang^3
#
#
#
# Elastic Constant Matrix: (Units=GPa)
#
#
# Indices 1 2 3 4 5 6 
#
# 1 50.5207 4.9051 18.5732 0.0000 0.0000 0.0000
# 2 4.9051 40.7724 19.4573 0.0000 0.0000 0.0000
# 3 18.5732 19.4573 77.8087 0.0000 0.0000 0.0000
# 4 0.0000 0.0000 0.0000 44.8617 0.0000 0.0000
# 5 0.0000 0.0000 0.0000 0.0000 19.0936 0.0000
# 6 0.0000 0.0000 0.0000 0.0000 0.0000 39.6155
#
#
#
# Elastic Compliance Matrix: (Units=1/GPa)
#
#
# Indices 1 2 3 4 5 6 
#
# 1 0.021699 -0.000157 -0.005140 0.000000 0.000000 0.000000
# 2 -0.000157 0.027851 -0.006927 0.000000 0.000000 0.000000
# 3 -0.005140 -0.006927 0.015811 0.000000 0.000000 0.000000
# 4 0.000000 0.000000 0.000000 0.022291 0.000000 0.000000
# 5 0.000000 0.000000 0.000000 0.000000 0.052374 0.000000
# 6 0.000000 0.000000 0.000000 0.000000 0.000000 0.025243
#
#
# Mechanical properties :
#
#
# Convention : Reuss Voigt Hill
#
# Bulk Modulus (GPa) = 24.44283 28.33031 26.38657
# Shear Modulus (GPa) = 24.58758 29.12525 26.85641
#
# Velocity S-wave (km/s) = 3.38088 3.67965 3.53342
# Velocity P-wave (km/s) = 5.15786 5.58779 5.37712
#
# Compressibility (1/GPa) = 0.04091180
#
# Stress axis : x y z
#
# Youngs Moduli (GPa) = 46.08536 35.90530 63.24619
#
# Poissons Ratio (x) = 0.00565 0.32510
# Poissons Ratio (y) = 0.00726 0.43811
# Poissons Ratio (z) = 0.23689 0.24872
#
# Static dielectric constant tensor:
#      x y z
#    x 1.751170 0.000000 0.000000 
#    y 0.000000 1.814470 0.000000 
#    z 0.000000 0.000000 1.805780 
# 
# From -- ./inp_files/16177.got.cif
#   From: 2010.05.17/outbox.cif.g08.bks.cpg/sg56_9_cif.got.tgz:16177.got - 2010.06.03 13:42:01.
