data_PCOD9433757
_publ_section_title
;
Structure prediction by ZEFSAII (Michael W. Deem and Ramdas Pophale) SiO2 
 PCOD9433757
Probable space group: P C C N
;
_chemical_formula_sum "Si O2"
_cell_formula_units_Z 40
_cell_length_a 14.229922
_cell_length_b 11.758608
_cell_length_c 8.699642
_cell_angle_alpha 90.000000
_cell_angle_beta 90.000000
_cell_angle_gamma 90.000000
_cell_volume 1455.659548
_symmetry_space_group_name_H-M "P C C N"
_symmetry_group_IT_number 56
_symmetry_cell_setting 'orthorhombic'
loop_
_space_group_symop_operation_xyz
x,y,z
1/2-x,1/2-y,z
1/2+x,-y,1/2-z
-x,1/2+y,1/2-z
-x,-y,-z
1/2+x,1/2+y,-z
1/2-x,y,1/2+z
x,1/2-y,1/2+z
loop_
_atom_site_type_symbol
_atom_site_label
_atom_site_fract_x
_atom_site_fract_y
_atom_site_fract_z
Si Si1 0.405651 0.263541 0.005832
Si Si2 0.113811 0.690065 0.883183
Si Si3 0.746919 0.631521 0.327024
Si Si4 0.001398 0.055790 0.831674
Si Si5 0.152603 0.908820 0.700851
O O1 0.250000 0.250000 0.768903
O O2 0.430914 0.332145 0.850348
O O3 0.350405 0.361745 0.101271
O O4 0.332728 0.160104 0.041044
O O5 0.158022 0.804246 0.816067
O O6 0.092574 0.605427 0.741964
O O7 0.164542 0.634700 0.028184
O O8 0.009183 0.724736 0.943521
O O9 0.720510 0.512478 0.257564
O O10 0.049196 0.964479 0.720105
O O11 0.000000 0.000000 0.000000
#
# Coordination Sequence:
#
# PCOD9433757 Si02
#       5
#     8   8   8   8   8
#     4   9  20  42  61 106 141 188 251 300 371 447
#     4  12  23  40  71 111 148 196 253 311 386 444
#     4   8  21  43  66 102 145 196 242 304 382 442
#     4  12  22  38  66 103 143 190 253 308 368 445
#     4  12  23  42  71 112 153 196 252 325 371 462
#
# _framework density 27.478952
#
# number of rings (size 3 to 8) (size 9 to 14) (size 15 to 20)
#    1.200    0.000    6.000    0.600    0.000    0.000 
#   10.800    0.000    0.000    9.600    0.000    1.400 
#    0.000    0.000    0.000    0.000    0.000    0.000 
#
# Total GULP energy -223685.963462 kJ/mol
# GULP energy per Si atom -5592.149087 kJ/mol
# Density = 2.741641 g / cm^3
# Si number density = 27.478952 Si / 1000 Ang^3
#
#
#
# Elastic Constant Matrix: (Units=GPa)
#
#
# Indices 1 2 3 4 5 6 
#
# 1 94.1649 51.5134 11.6077 0.0000 0.0000 0.0000
# 2 51.5134 177.2436 71.8224 0.0000 0.0000 0.0000
# 3 11.6077 71.8224 127.8291 0.0000 0.0000 0.0000
# 4 0.0000 0.0000 0.0000 54.7053 0.0000 0.0000
# 5 0.0000 0.0000 0.0000 0.0000 28.5089 0.0000
# 6 0.0000 0.0000 0.0000 0.0000 0.0000 71.1223
#
#
#
# Elastic Compliance Matrix: (Units=1/GPa)
#
#
# Indices 1 2 3 4 5 6 
#
# 1 0.012768 -0.004196 0.001198 0.000000 0.000000 0.000000
# 2 -0.004196 0.008684 -0.004498 0.000000 0.000000 0.000000
# 3 0.001198 -0.004498 0.010242 0.000000 0.000000 0.000000
# 4 0.000000 0.000000 0.000000 0.018280 0.000000 0.000000
# 5 0.000000 0.000000 0.000000 0.000000 0.035077 0.000000
# 6 0.000000 0.000000 0.000000 0.000000 0.000000 0.014060
#
#
# Mechanical properties :
#
#
# Convention : Reuss Voigt Hill
#
# Bulk Modulus (GPa) = 59.87699 74.34717 67.11208
# Shear Modulus (GPa) = 41.78156 48.48691 45.13423
#
# Velocity S-wave (km/s) = 3.90358 4.20517 4.05718
# Velocity P-wave (km/s) = 6.49266 7.11988 6.81349
#
# Compressibility (1/GPa) = 0.01670091
#
# Stress axis : x y z
#
# Youngs Moduli (GPa) = 78.32348 115.14920 97.64100
#
# Poissons Ratio (x) = 0.48320 -0.11701
# Poissons Ratio (y) = 0.32867 0.43923
# Poissons Ratio (z) = -0.09386 0.51799
#
# Static dielectric constant tensor:
#      x y z
#    x 2.250120 0.000000 0.000000 
#    y 0.000000 2.122100 0.000000 
#    z 0.000000 0.000000 2.108520 
# 
# From -- ./inp_files/4377.got.cif
#   From: 2010.05.17/outbox.cif.g08.bks.cpg/sg56_3_cif.got.tgz:4377.got - 2010.06.03 13:42:01.
