data_PCOD9433218
_publ_section_title
;
Structure prediction by ZEFSAII (Michael W. Deem and Ramdas Pophale) SiO2 
 PCOD9433218
Probable space group: P C C N
;
_chemical_formula_sum "Si O2"
_cell_formula_units_Z 64
_cell_length_a 24.268477
_cell_length_b 8.652770
_cell_length_c 15.811016
_cell_angle_alpha 90.000000
_cell_angle_beta 90.000000
_cell_angle_gamma 90.000000
_cell_volume 3320.148131
_symmetry_space_group_name_H-M "P C C N"
_symmetry_group_IT_number 56
_symmetry_cell_setting 'orthorhombic'
loop_
_space_group_symop_operation_xyz
x,y,z
1/2-x,1/2-y,z
1/2+x,-y,1/2-z
-x,1/2+y,1/2-z
-x,-y,-z
1/2+x,1/2+y,-z
1/2-x,y,1/2+z
x,1/2-y,1/2+z
loop_
_atom_site_type_symbol
_atom_site_label
_atom_site_fract_x
_atom_site_fract_y
_atom_site_fract_z
Si Si1 0.865919 0.935027 0.156750
Si Si2 0.250000 0.564269 0.902972
Si Si3 0.250000 0.562622 0.100659
Si Si4 0.365919 0.435028 0.343250
Si Si5 0.561455 0.935619 0.493665
Si Si6 0.561455 0.564381 0.493665
Si Si7 0.130335 0.564210 0.663260
Si Si8 0.369665 0.564210 0.663260
O O1 0.863930 0.750000 0.160907
O O2 0.904080 0.980120 0.077465
O O3 0.805008 0.000506 0.139636
O O4 0.886777 0.001564 0.245466
O O5 0.250000 0.750000 0.897776
O O6 0.194992 0.500506 0.860364
O O7 0.250000 0.517717 0.001988
O O8 0.250000 0.750000 0.103005
O O9 0.306624 0.511633 0.144246
O O10 0.193376 0.511633 0.144245
O O11 0.404080 0.480121 0.422535
O O12 0.386777 0.501564 0.254534
O O13 0.560461 0.750000 0.488642
O O14 0.500000 0.000000 0.500000
O O15 0.592299 0.002535 0.411873
O O16 0.500000 0.500000 0.500000
O O17 0.592299 0.497466 0.411873
O O18 0.129345 0.750000 0.663338
#
# Coordination Sequence:
#
# PCOD9433218 Si02
#       8
#     8   8   8   8   8   8   8   8
#     4  11  24  41  62  94 129 162 202 253 311 370
#     4  11  20  37  64  93 127 164 203 248 302 369
#     4   9  19  35  60  93 125 158 199 244 298 361
#     4  11  24  41  62  94 129 162 202 253 311 370
#     4  11  25  44  65  89 122 163 211 262 312 367
#     4  11  25  44  65  89 122 163 211 262 312 367
#     4  11  22  40  66  95 126 164 207 253 307 370
#     4  11  22  40  66  95 126 164 207 253 307 370
#
# _framework density 19.276247999999999
#
# number of rings (size 3 to 8) (size 9 to 14) (size 15 to 20)
#    0.000    1.250    2.500    3.375    0.000    5.000 
#    0.000    1.875    0.000    0.000    0.000    0.000 
#    0.000    0.000    0.000    0.000    0.000    0.000 
#
# Total GULP energy -357966.682554 kJ/mol
# GULP energy per Si atom -5593.229415 kJ/mol
# Density = 1.923237 g / cm^3
# Si number density = 19.276248 Si / 1000 Ang^3
#
#
#
# Elastic Constant Matrix: (Units=GPa)
#
#
# Indices 1 2 3 4 5 6 
#
# 1 150.7727 49.5679 86.1924 0.0000 0.0000 0.0000
# 2 49.5679 64.1744 62.7860 0.0000 0.0000 0.0000
# 3 86.1924 62.7860 201.1232 0.0000 0.0000 0.0000
# 4 0.0000 0.0000 0.0000 35.6273 0.0000 0.0000
# 5 0.0000 0.0000 0.0000 0.0000 -4.9684 0.0000
# 6 0.0000 0.0000 0.0000 0.0000 0.0000 31.3015
#
#
#
# Elastic Compliance Matrix: (Units=1/GPa)
#
#
# Indices 1 2 3 4 5 6 
#
# 1 0.009774 -0.004969 -0.002637 0.000000 0.000000 0.000000
# 2 -0.004969 0.024961 -0.005663 0.000000 0.000000 0.000000
# 3 -0.002637 -0.005663 0.007870 0.000000 0.000000 0.000000
# 4 0.000000 0.000000 0.000000 0.028068 0.000000 0.000000
# 5 0.000000 0.000000 0.000000 0.000000 -0.201270 0.000000
# 6 0.000000 0.000000 0.000000 0.000000 0.000000 0.031947
#
#
# Mechanical properties :
#
#
# Convention : Reuss Voigt Hill
#
# Bulk Modulus (GPa) = 62.24104 90.35144 76.29624
# Shear Modulus (GPa) = -74.89921 26.89366 -24.00277
#
# Velocity S-wave (km/s) = -6.24020 3.73925 -3.53257
# Velocity P-wave (km/s) = 4.42278 8.10039 4.79872
#
# Compressibility (1/GPa) = 0.01606657
#
# Stress axis : x y z
#
# Youngs Moduli (GPa) = 102.31424 40.06312 127.06249
#
# Poissons Ratio (x) = 0.19907 0.33512
# Poissons Ratio (y) = 0.50838 0.71952
# Poissons Ratio (z) = 0.26985 0.22687
#
# Static dielectric constant tensor:
#      x y z
#    x 1.655140 0.000000 0.000000 
#    y 0.000000 1.649350 0.000000 
#    z 0.000000 0.000000 1.665280 
# 
# From -- ./inp_files/13263.got.cif
#   From: 2010.05.17/outbox.cif.g08.bks.cpg/sg56_7_cif.got.tgz:13263.got - 2010.06.03 13:42:01.
