data_PCOD9433005
_publ_section_title
;
Structure prediction by ZEFSAII (Michael W. Deem and Ramdas Pophale) SiO2 
 PCOD9433005
Probable space group: P C C N
;
_chemical_formula_sum "Si O2"
_cell_formula_units_Z 32
_cell_length_a 10.994187
_cell_length_b 14.744335
_cell_length_c 7.593487
_cell_angle_alpha 90.000000
_cell_angle_beta 90.000000
_cell_angle_gamma 90.000000
_cell_volume 1230.919249
_symmetry_space_group_name_H-M "P C C N"
_symmetry_group_IT_number 56
_symmetry_cell_setting 'orthorhombic'
loop_
_space_group_symop_operation_xyz
x,y,z
1/2-x,1/2-y,z
1/2+x,-y,1/2-z
-x,1/2+y,1/2-z
-x,-y,-z
1/2+x,1/2+y,-z
1/2-x,y,1/2+z
x,1/2-y,1/2+z
loop_
_atom_site_type_symbol
_atom_site_label
_atom_site_fract_x
_atom_site_fract_y
_atom_site_fract_z
Si Si1 0.609801 0.852763 0.201463
Si Si2 0.626961 0.128587 0.605984
Si Si3 0.000000 0.500000 0.500000
Si Si4 0.250000 0.750000 0.130403
Si Si5 0.891156 0.860692 0.289041
O O1 0.510806 0.900601 0.331880
O O2 0.747315 0.873318 0.252853
O O3 0.588854 0.745923 0.241028
O O4 0.585428 0.873018 0.997570
O O5 0.648141 0.035631 0.510527
O O6 0.639033 0.217457 0.488502
O O7 0.707272 0.161978 0.765737
O O8 0.027508 0.422982 0.334553
#
# Coordination Sequence:
#
# PCOD9433005 Si02
#       5
#     8   8   4   4   8
#     4  11  22  44  71  99 138 190 234 275 344 433
#     4  11  24  43  69  99 138 187 237 287 348 419
#     4  12  26  42  66 102 140 174 230 298 352 400
#     4  10  24  46  70  98 142 194 238 278 348 442
#     4  11  23  40  70 104 141 182 231 287 346 416
#
# _framework density 25.996829000000002
#
# number of rings (size 3 to 8) (size 9 to 14) (size 15 to 20)
#    0.000    1.000    0.000    9.000    0.000    7.000 
#    0.000    0.000    0.000    0.000    0.000    0.000 
#    0.000    0.000    0.000    0.000    0.000    0.000 
#
# Total GULP energy -178221.517977 kJ/mol
# GULP energy per Si atom -5569.422437 kJ/mol
# Density = 2.593766 g / cm^3
# Si number density = 25.996829 Si / 1000 Ang^3
#
#
#
# Elastic Constant Matrix: (Units=GPa)
#
#
# Indices 1 2 3 4 5 6 
#
# 1 100.1342 48.4547 53.1712 0.0000 0.0000 0.0000
# 2 48.4547 157.3571 51.4865 0.0000 0.0000 0.0000
# 3 53.1712 51.4865 208.2918 0.0000 0.0000 0.0000
# 4 0.0000 0.0000 0.0000 28.6922 0.0000 0.0000
# 5 0.0000 0.0000 0.0000 0.0000 27.7101 0.0000
# 6 0.0000 0.0000 0.0000 0.0000 0.0000 58.6608
#
#
#
# Elastic Compliance Matrix: (Units=1/GPa)
#
#
# Indices 1 2 3 4 5 6 
#
# 1 0.012830 -0.003133 -0.002501 0.000000 0.000000 0.000000
# 2 -0.003133 0.007679 -0.001098 0.000000 0.000000 0.000000
# 3 -0.002501 -0.001098 0.005711 0.000000 0.000000 0.000000
# 4 0.000000 0.000000 0.000000 0.034853 0.000000 0.000000
# 5 0.000000 0.000000 0.000000 0.000000 0.036088 0.000000
# 6 0.000000 0.000000 0.000000 0.000000 0.000000 0.017047
#
#
# Mechanical properties :
#
#
# Convention : Reuss Voigt Hill
#
# Bulk Modulus (GPa) = 78.39206 85.77865 82.08535
# Shear Modulus (GPa) = 37.90057 43.85733 40.87895
#
# Velocity S-wave (km/s) = 3.82238 4.11180 3.96973
# Velocity P-wave (km/s) = 7.04987 7.45721 7.25640
#
# Compressibility (1/GPa) = 0.01275639
#
# Stress axis : x y z
#
# Youngs Moduli (GPa) = 77.93966 130.22545 175.10355
#
# Poissons Ratio (x) = 0.40794 0.43792
# Poissons Ratio (y) = 0.24415 0.19235
# Poissons Ratio (z) = 0.19492 0.14305
#
# Static dielectric constant tensor:
#      x y z
#    x 2.060660 0.000000 0.000000 
#    y 0.000000 2.280490 0.000000 
#    z 0.000000 0.000000 2.226690 
# 
# From -- ./inp_files/2450.got.cif
#   From: 2010.05.17/outbox.cif.g08.bks.cpg/sg56_2_cif.got.tgz:2450.got - 2010.06.03 13:42:01.
