data_PCOD9433214
_publ_section_title
;
Structure prediction by ZEFSAII (Michael W. Deem and Ramdas Pophale) SiO2 
 PCOD9433214
Probable space group: P C C N
;
_chemical_formula_sum "Si O2"
_cell_formula_units_Z 64
_cell_length_a 28.850174
_cell_length_b 13.801882
_cell_length_c 8.478283
_cell_angle_alpha 90.000000
_cell_angle_beta 90.000000
_cell_angle_gamma 90.000000
_cell_volume 3375.939506
_symmetry_space_group_name_H-M "P C C N"
_symmetry_group_IT_number 56
_symmetry_cell_setting 'orthorhombic'
loop_
_space_group_symop_operation_xyz
x,y,z
1/2-x,1/2-y,z
1/2+x,-y,1/2-z
-x,1/2+y,1/2-z
-x,-y,-z
1/2+x,1/2+y,-z
1/2-x,y,1/2+z
x,1/2-y,1/2+z
loop_
_atom_site_type_symbol
_atom_site_label
_atom_site_fract_x
_atom_site_fract_y
_atom_site_fract_z
Si Si1 0.932332 0.342382 0.487561
Si Si2 0.469035 0.162899 0.344800
Si Si3 0.434808 0.139876 0.700945
Si Si4 0.190978 0.831117 0.723327
Si Si5 0.026769 0.953658 0.709302
Si Si6 0.285718 0.875926 0.585288
Si Si7 0.894647 0.366863 0.981027
Si Si8 0.865578 0.480511 0.284024
O O1 0.953229 0.395464 0.639279
O O2 0.905326 0.243989 0.528154
O O3 0.899319 0.417546 0.398166
O O4 0.976521 0.315237 0.377554
O O5 0.447211 0.140376 0.515612
O O6 0.443219 0.252855 0.266175
O O7 0.466831 0.066932 0.239678
O O8 0.472928 0.073865 0.790742
O O9 0.385736 0.088360 0.723885
O O10 0.231086 0.880327 0.616995
O O11 0.196551 0.716889 0.686581
O O12 0.140523 0.863624 0.666642
O O13 0.202322 0.853572 0.904160
O O14 0.056795 0.915646 0.564761
O O15 0.314461 0.967165 0.646813
O O16 0.870491 0.427634 0.117128
#
# Coordination Sequence:
#
# PCOD9433214 Si02
#       8
#     8   8   8   8   8   8   8   8
#     4  11  20  37  54  81 118 165 199 246 294 346
#     4  11  23  39  57  79 117 159 204 253 298 342
#     4  11  24  39  60  81 118 159 206 254 306 347
#     4  11  22  37  59  88 119 165 187 241 293 368
#     4  11  22  39  55  84 119 162 204 252 295 354
#     4  11  22  38  58  84 126 151 199 235 300 359
#     4  12  24  33  59  87 121 159 206 235 299 358
#     4  12  23  37  56  86 120 158 199 246 294 361
#
# _framework density 18.957685999999999
#
# number of rings (size 3 to 8) (size 9 to 14) (size 15 to 20)
#    0.000    0.750    5.000    5.250    3.500    0.500 
#    0.000    0.000    0.000    0.000    0.000    0.875 
#    0.000    0.000    0.000    0.000    0.000    0.000 
#
# Total GULP energy -358134.913313 kJ/mol
# GULP energy per Si atom -5595.858021 kJ/mol
# Density = 1.891454 g / cm^3
# Si number density = 18.957686 Si / 1000 Ang^3
#
#
#
# Elastic Constant Matrix: (Units=GPa)
#
#
# Indices 1 2 3 4 5 6 
#
# 1 64.6062 23.4616 -2.1064 0.0000 0.0000 0.0000
# 2 23.4616 108.7910 14.5384 0.0000 0.0000 0.0000
# 3 -2.1064 14.5384 55.2018 0.0000 0.0000 0.0000
# 4 0.0000 0.0000 0.0000 21.1089 0.0000 0.0000
# 5 0.0000 0.0000 0.0000 0.0000 28.9938 0.0000
# 6 0.0000 0.0000 0.0000 0.0000 0.0000 32.2542
#
#
#
# Elastic Compliance Matrix: (Units=1/GPa)
#
#
# Indices 1 2 3 4 5 6 
#
# 1 0.016940 -0.003876 0.001667 0.000000 0.000000 0.000000
# 2 -0.003876 0.010414 -0.002891 0.000000 0.000000 0.000000
# 3 0.001667 -0.002891 0.018940 0.000000 0.000000 0.000000
# 4 0.000000 0.000000 0.000000 0.047373 0.000000 0.000000
# 5 0.000000 0.000000 0.000000 0.000000 0.034490 0.000000
# 6 0.000000 0.000000 0.000000 0.000000 0.000000 0.031004
#
#
# Mechanical properties :
#
#
# Convention : Reuss Voigt Hill
#
# Bulk Modulus (GPa) = 27.70410 33.37625 30.54018
# Shear Modulus (GPa) = 27.56448 29.31842 28.44145
#
# Velocity S-wave (km/s) = 3.81727 3.93685 3.87752
# Velocity P-wave (km/s) = 5.83731 6.18942 6.01594
#
# Compressibility (1/GPa) = 0.03609574
#
# Stress axis : x y z
#
# Youngs Moduli (GPa) = 59.03066 96.02322 52.79755
#
# Poissons Ratio (x) = 0.37220 -0.08803
# Poissons Ratio (y) = 0.22881 0.15262
# Poissons Ratio (z) = -0.09842 0.27757
#
# Static dielectric constant tensor:
#      x y z
#    x 1.677390 0.000000 0.000000 
#    y 0.000000 1.638280 0.000000 
#    z 0.000000 0.000000 1.690350 
# 
# From -- ./inp_files/5237.got.cif
#   From: 2010.05.17/outbox.cif.g08.bks.cpg/sg56_3_cif.got.tgz:5237.got - 2010.06.03 13:42:01.
