data_PCOD9433364
_publ_section_title
;
Structure prediction by ZEFSAII (Michael W. Deem and Ramdas Pophale) SiO2 
 PCOD9433364
Probable space group: P C C N
;
_chemical_formula_sum "Si O2"
_cell_formula_units_Z 48
_cell_length_a 16.434856
_cell_length_b 9.027016
_cell_length_c 13.779284
_cell_angle_alpha 90.000000
_cell_angle_beta 90.000000
_cell_angle_gamma 90.000000
_cell_volume 2044.262993
_symmetry_space_group_name_H-M "P C C N"
_symmetry_group_IT_number 56
_symmetry_cell_setting 'orthorhombic'
loop_
_space_group_symop_operation_xyz
x,y,z
1/2-x,1/2-y,z
1/2+x,-y,1/2-z
-x,1/2+y,1/2-z
-x,-y,-z
1/2+x,1/2+y,-z
1/2-x,y,1/2+z
x,1/2-y,1/2+z
loop_
_atom_site_type_symbol
_atom_site_label
_atom_site_fract_x
_atom_site_fract_y
_atom_site_fract_z
Si Si1 0.950445 0.930195 0.243492
Si Si2 0.666898 0.167042 0.531530
Si Si3 0.837128 0.182484 0.263362
Si Si4 0.438443 0.568993 0.426616
Si Si5 0.104949 0.980897 0.146280
Si Si6 0.836522 0.828792 0.682548
O O1 0.906312 0.795600 0.190178
O O2 0.009927 0.017794 0.167703
O O3 0.880356 0.031246 0.293068
O O4 0.008872 0.889641 0.332536
O O5 0.750000 0.250000 0.502316
O O6 0.670849 0.147910 0.647663
O O7 0.597934 0.289331 0.522266
O O8 0.640503 0.032593 0.462065
O O9 0.750000 0.250000 0.289590
O O10 0.889881 0.315360 0.308240
O O11 0.500000 0.500000 0.500000
O O12 0.366699 0.456378 0.391918
O O13 0.160089 0.087322 0.213210
O O14 0.750000 0.750000 0.663810
#
# Coordination Sequence:
#
# PCOD9433364 Si02
#       6
#     8   8   8   8   8   8
#     4  11  23  41  69  96 138 185 228 289 364 411
#     4  11  24  41  71 101 131 185 244 277 343 429
#     4  11  22  41  68  94 134 185 235 283 342 437
#     4  11  24  45  69 102 141 181 237 292 353 427
#     4  11  22  43  68  99 139 183 236 288 351 422
#     4  11  24  43  68 103 141 184 227 297 369 410
#
# _framework density 23.480345
#
# number of rings (size 3 to 8) (size 9 to 14) (size 15 to 20)
#    0.000    1.000    3.333    5.500    2.333    2.000 
#    3.000    0.833    0.000    0.000    0.000    0.000 
#    0.000    0.000    0.000    0.000    0.000    0.000 
#
# Total GULP energy -267880.190356 kJ/mol
# GULP energy per Si atom -5580.837299 kJ/mol
# Density = 2.342690 g / cm^3
# Si number density = 23.480345 Si / 1000 Ang^3
#
#
#
# Elastic Constant Matrix: (Units=GPa)
#
#
# Indices 1 2 3 4 5 6 
#
# 1 106.7679 7.6909 31.6539 0.0000 0.0000 0.0000
# 2 7.6909 50.5183 -4.2540 0.0000 0.0000 0.0000
# 3 31.6539 -4.2540 92.4076 0.0000 0.0000 0.0000
# 4 0.0000 0.0000 0.0000 24.0328 0.0000 0.0000
# 5 0.0000 0.0000 0.0000 0.0000 -1.8207 0.0000
# 6 0.0000 0.0000 0.0000 0.0000 0.0000 45.6138
#
#
#
# Elastic Compliance Matrix: (Units=1/GPa)
#
#
# Indices 1 2 3 4 5 6 
#
# 1 0.010609 -0.001929 -0.003723 0.000000 0.000000 0.000000
# 2 -0.001929 0.020222 0.001592 0.000000 0.000000 0.000000
# 3 -0.003723 0.001592 0.012170 0.000000 0.000000 0.000000
# 4 0.000000 0.000000 0.000000 0.041610 0.000000 0.000000
# 5 0.000000 0.000000 0.000000 0.000000 -0.549240 0.000000
# 6 0.000000 0.000000 0.000000 0.000000 0.000000 0.021923
#
#
# Mechanical properties :
#
#
# Convention : Reuss Voigt Hill
#
# Bulk Modulus (GPa) = 28.66827 35.54171 32.10499
# Shear Modulus (GPa) = -11.82148 27.87206 8.02529
#
# Velocity S-wave (km/s) = -2.24623 3.44908 1.85076
# Velocity P-wave (km/s) = 2.34703 5.57056 4.27433
#
# Compressibility (1/GPa) = 0.03488177
#
# Stress axis : x y z
#
# Youngs Moduli (GPa) = 94.26189 49.45002 82.16851
#
# Poissons Ratio (x) = 0.09537 0.30589
# Poissons Ratio (y) = 0.18179 -0.13078
# Poissons Ratio (z) = 0.35092 -0.07870
#
# Static dielectric constant tensor:
#      x y z
#    x 2.307590 0.000000 0.000000 
#    y 0.000000 1.907410 0.000000 
#    z 0.000000 0.000000 1.954400 
# 
# From -- ./inp_files/12690.got.cif
#   From: 2010.05.17/outbox.cif.g08.bks.cpg/sg56_7_cif.got.tgz:12690.got - 2010.06.03 13:42:01.
