data_PCOD9433014
_publ_section_title
;
Structure prediction by ZEFSAII (Michael W. Deem and Ramdas Pophale) SiO2 
 PCOD9433014
Probable space group: P C C N
;
_chemical_formula_sum "Si O2"
_cell_formula_units_Z 48
_cell_length_a 19.750841
_cell_length_b 8.254898
_cell_length_c 13.399239
_cell_angle_alpha 90.000000
_cell_angle_beta 90.000000
_cell_angle_gamma 90.000000
_cell_volume 2184.627709
_symmetry_space_group_name_H-M "P C C N"
_symmetry_group_IT_number 56
_symmetry_cell_setting 'orthorhombic'
loop_
_space_group_symop_operation_xyz
x,y,z
1/2-x,1/2-y,z
1/2+x,-y,1/2-z
-x,1/2+y,1/2-z
-x,-y,-z
1/2+x,1/2+y,-z
1/2-x,y,1/2+z
x,1/2-y,1/2+z
loop_
_atom_site_type_symbol
_atom_site_label
_atom_site_fract_x
_atom_site_fract_y
_atom_site_fract_z
Si Si1 0.494793 0.177372 0.399044
Si Si2 0.130911 0.165867 0.492650
Si Si3 0.312383 0.031325 0.177849
Si Si4 0.250000 0.750000 0.542941
Si Si5 0.750000 0.750000 0.158880
Si Si6 0.108371 0.711314 0.956636
Si Si7 0.947583 0.377921 0.727671
O O1 0.432211 0.220132 0.470404
O O2 0.561833 0.193265 0.464744
O O3 0.502423 0.309778 0.311145
O O4 0.482401 0.010591 0.342446
O O5 0.164155 0.173091 0.601874
O O6 0.187567 0.202351 0.410809
O O7 0.107238 0.979140 0.481530
O O8 0.271295 0.102933 0.269693
O O9 0.269679 0.901430 0.113529
O O10 0.381465 0.952205 0.218953
O O11 0.315507 0.774808 0.473593
O O12 0.079882 0.740153 0.846695
#
# Coordination Sequence:
#
# PCOD9433014 Si02
#       7
#     8   8   8   4   4   8   8
#     4  12  25  47  71 103 142 184 236 296 351 423
#     4  11  25  46  71 101 146 181 230 294 349 413
#     4  11  26  45  69 105 138 181 238 282 357 420
#     4  10  24  46  72  98 144 182 226 302 340 426
#     4  12  26  44  72 106 136 192 224 294 348 424
#     4  11  26  44  70 102 140 189 233 292 351 417
#     4  12  26  44  70 107 135 188 241 286 361 421
#
# _framework density 21.971709000000001
#
# number of rings (size 3 to 8) (size 9 to 14) (size 15 to 20)
#    0.000    0.667    5.000    2.500    9.333    2.667 
#    0.000    0.000    0.000    0.000    0.000    0.000 
#    0.000    0.000    0.000    0.000    0.000    0.000 
#
# Total GULP energy -268783.445146 kJ/mol
# GULP energy per Si atom -5599.655107 kJ/mol
# Density = 2.192170 g / cm^3
# Si number density = 21.971709 Si / 1000 Ang^3
#
#
#
# Elastic Constant Matrix: (Units=GPa)
#
#
# Indices 1 2 3 4 5 6 
#
# 1 89.8411 7.0348 16.2931 0.0000 0.0000 0.0000
# 2 7.0348 36.8615 0.8396 0.0000 0.0000 0.0000
# 3 16.2931 0.8396 70.0316 0.0000 0.0000 0.0000
# 4 0.0000 0.0000 0.0000 51.7667 0.0000 0.0000
# 5 0.0000 0.0000 0.0000 0.0000 -15.8196 0.0000
# 6 0.0000 0.0000 0.0000 0.0000 0.0000 19.1782
#
#
#
# Elastic Compliance Matrix: (Units=1/GPa)
#
#
# Indices 1 2 3 4 5 6 
#
# 1 0.011795 -0.002189 -0.002718 0.000000 0.000000 0.000000
# 2 -0.002189 0.027542 0.000179 0.000000 0.000000 0.000000
# 3 -0.002718 0.000179 0.014909 0.000000 0.000000 0.000000
# 4 0.000000 0.000000 0.000000 0.019317 0.000000 0.000000
# 5 0.000000 0.000000 0.000000 0.000000 -0.063213 0.000000
# 6 0.000000 0.000000 0.000000 0.000000 0.000000 0.052143
#
#
# Mechanical properties :
#
#
# Convention : Reuss Voigt Hill
#
# Bulk Modulus (GPa) = 22.32591 27.22990 24.77790
# Shear Modulus (GPa) = 57.55035 22.52949 40.03992
#
# Velocity S-wave (km/s) = 5.12346 3.20564 4.27352
# Velocity P-wave (km/s) = 6.72183 5.11093 5.97095
#
# Compressibility (1/GPa) = 0.04479100
#
# Stress axis : x y z
#
# Youngs Moduli (GPa) = 84.78112 36.30779 67.07154
#
# Poissons Ratio (x) = 0.07948 0.18230
# Poissons Ratio (y) = 0.18560 -0.01201
# Poissons Ratio (z) = 0.23043 -0.00650
#
# Static dielectric constant tensor:
#      x y z
#    x 1.768660 0.000000 0.000000 
#    y 0.000000 1.811040 0.000000 
#    z 0.000000 0.000000 1.787130 
# 
# From -- ./inp_files/8887.got.cif
#   From: 2010.05.17/outbox.cif.g08.bks.cpg/sg56_5_cif.got.tgz:8887.got - 2010.06.03 13:42:01.
