data_PCOD9433941
_publ_section_title
;
Structure prediction by ZEFSAII (Michael W. Deem and Ramdas Pophale) SiO2 
 PCOD9433941
Probable space group: P C C N
;
_chemical_formula_sum "Si O2"
_cell_formula_units_Z 56
_cell_length_a 12.000000
_cell_length_b 15.000000
_cell_length_c 15.000000
_cell_angle_alpha 90.000000
_cell_angle_beta 90.000000
_cell_angle_gamma 90.000000
_cell_volume 2700.000000
_symmetry_space_group_name_H-M "P C C N"
_symmetry_group_IT_number 56
_symmetry_cell_setting 'orthorhombic'
loop_
_space_group_symop_operation_xyz
x,y,z
1/2-x,1/2-y,z
1/2+x,-y,1/2-z
-x,1/2+y,1/2-z
-x,-y,-z
1/2+x,1/2+y,-z
1/2-x,y,1/2+z
x,1/2-y,1/2+z
loop_
_atom_site_type_symbol
_atom_site_label
_atom_site_fract_x
_atom_site_fract_y
_atom_site_fract_z
Si Si1 0.731227 0.883431 0.042980
Si Si2 0.561466 0.126549 0.813466
Si Si3 0.067470 0.236631 0.936490
Si Si4 0.769285 0.151046 0.154454
Si Si5 0.861435 0.505636 0.205765
Si Si6 0.749228 0.483103 0.383504
Si Si7 0.920779 0.413092 0.500042
O O1 0.836963 0.835286 0.088940
O O2 0.640320 0.810716 0.013715
O O3 0.673731 0.943049 0.117178
O O4 0.759757 0.941113 0.957335
O O5 0.496843 0.209127 0.859119
O O6 0.650664 0.158085 0.740516
O O7 0.477604 0.053220 0.770613
O O8 0.633856 0.070380 0.885223
O O9 0.987491 0.179003 0.998208
O O10 0.750000 0.250000 0.118827
O O11 0.835913 0.091981 0.082307
O O12 0.656684 0.098483 0.182125
O O13 0.774764 0.520485 0.286037
O O14 0.849167 0.416629 0.409408
O O15 0.000000 0.500000 0.500000
#
# Coordination Sequence:
#
# PCOD9433941 Si02
#       7
#     8   8   8   8   8   8   8
#     4  10  21  45  63  97 127 170 222 274 313 399
#     4  10  25  42  66  95 131 173 218 268 334 385
#     4  10  23  39  66  93 132 164 214 271 325 381
#     4  11  25  42  62  99 131 162 221 274 320 399
#     4  10  22  45  66  90 134 175 217 271 330 388
#     4  11  23  40  71  93 128 174 223 261 334 398
#     4  12  23  41  68  91 128 175 212 267 333 393
#
# _framework density 20.740741
#
# number of rings (size 3 to 8) (size 9 to 14) (size 15 to 20)
#    0.000    1.429    2.857    0.857    6.000    4.571 
#    2.571    1.429    0.000    0.000    0.000    0.000 
#    0.000    0.000    0.000    0.000    0.000    0.000 
#
# Total GULP energy -312133.454306 kJ/mol
# GULP energy per Si atom -5573.811684 kJ/mol
# Density = 2.069353 g / cm^3
# Si number density = 20.740741 Si / 1000 Ang^3
#
#
#
# Elastic Constant Matrix: (Units=GPa)
#
#
# Indices 1 2 3 4 5 6 
#
# 1 49.7951 31.4347 -12.1573 0.0000 0.0000 0.0000
# 2 31.4347 94.2428 20.7627 0.0000 0.0000 0.0000
# 3 -12.1573 20.7627 38.7052 0.0000 0.0000 0.0000
# 4 0.0000 0.0000 0.0000 22.1200 0.0000 0.0000
# 5 0.0000 0.0000 0.0000 0.0000 32.5043 0.0000
# 6 0.0000 0.0000 0.0000 0.0000 0.0000 32.6151
#
#
#
# Elastic Compliance Matrix: (Units=1/GPa)
#
#
# Indices 1 2 3 4 5 6 
#
# 1 0.034915 -0.015947 0.019521 0.000000 0.000000 0.000000
# 2 -0.015947 0.019316 -0.015371 0.000000 0.000000 0.000000
# 3 0.019521 -0.015371 0.040213 0.000000 0.000000 0.000000
# 4 0.000000 0.000000 0.000000 0.045208 0.000000 0.000000
# 5 0.000000 0.000000 0.000000 0.000000 0.030765 0.000000
# 6 0.000000 0.000000 0.000000 0.000000 0.000000 0.030661
#
#
# Mechanical properties :
#
#
# Convention : Reuss Voigt Hill
#
# Bulk Modulus (GPa) = 14.11386 29.20259 21.65822
# Shear Modulus (GPa) = 20.13786 26.96141 23.54963
#
# Velocity S-wave (km/s) = 3.11936 3.60936 3.37327
# Velocity P-wave (km/s) = 4.44899 5.61073 5.06329
#
# Compressibility (1/GPa) = 0.07085232
#
# Stress axis : x y z
#
# Youngs Moduli (GPa) = 28.64079 51.76984 24.86740
#
# Poissons Ratio (x) = 0.82556 -0.48544
# Poissons Ratio (y) = 0.45673 0.38223
# Poissons Ratio (z) = -0.55910 0.79574
#
# Static dielectric constant tensor:
#      x y z
#    x 1.802930 0.000000 0.000000 
#    y 0.000000 1.772470 0.000000 
#    z 0.000000 0.000000 1.706350 
# 
# From -- ./inp_files/11697.got.cif
#   From: 2010.05.17/outbox.ucp.g08.bks.cvg/sg56_6_cif.got.tgz:11697.got - 2010.06.11 16:37:52.
