data_PCOD9433603
_publ_section_title
;
Structure prediction by ZEFSAII (Michael W. Deem and Ramdas Pophale) SiO2 
 PCOD9433603
Probable space group: P C C N
;
_chemical_formula_sum "Si O2"
_cell_formula_units_Z 36
_cell_length_a 9.904064
_cell_length_b 7.057916
_cell_length_c 18.429861
_cell_angle_alpha 90.000000
_cell_angle_beta 90.000000
_cell_angle_gamma 90.000000
_cell_volume 1288.285098
_symmetry_space_group_name_H-M "P C C N"
_symmetry_group_IT_number 56
_symmetry_cell_setting 'orthorhombic'
loop_
_space_group_symop_operation_xyz
x,y,z
1/2-x,1/2-y,z
1/2+x,-y,1/2-z
-x,1/2+y,1/2-z
-x,-y,-z
1/2+x,1/2+y,-z
1/2-x,y,1/2+z
x,1/2-y,1/2+z
loop_
_atom_site_type_symbol
_atom_site_label
_atom_site_fract_x
_atom_site_fract_y
_atom_site_fract_z
Si Si1 0.444875 0.932912 0.339690
Si Si2 0.213189 0.968589 0.524735
Si Si3 0.192494 0.437277 0.749472
Si Si4 0.000000 0.500000 0.500000
Si Si5 0.962601 0.990746 0.616696
O O1 0.579204 0.018576 0.303018
O O2 0.428812 0.018074 0.419848
O O3 0.452831 0.707323 0.355951
O O4 0.318859 0.956020 0.284816
O O5 0.250000 0.750000 0.506433
O O6 0.355901 0.066156 0.537555
O O7 0.123131 0.035961 0.457120
O O8 0.115604 0.954396 0.593783
O O9 0.250000 0.250000 0.712613
O O10 0.103856 0.372188 0.819472
#
# Coordination Sequence:
#
# PCOD9433603 Si02
#       5
#     8   8   8   4   8
#     4  12  28  52  76 117 154 201 258 322 389 464
#     4  11  24  46  77 115 148 204 256 325 380 453
#     4  12  28  49  76 113 153 206 254 314 388 464
#     4  12  26  46  82 110 152 202 260 314 382 460
#     4  11  25  51  77 108 162 200 255 320 389 454
#
# _framework density 27.944123999999999
#
# number of rings (size 3 to 8) (size 9 to 14) (size 15 to 20)
#    0.000    0.444    4.444    2.000    9.333    0.000 
#    0.000    0.000    0.000    0.000    0.000    0.000 
#    0.000    0.000    0.000    0.000    0.000    0.000 
#
# Total GULP energy -200974.269565 kJ/mol
# GULP energy per Si atom -5582.618599 kJ/mol
# Density = 2.788052 g / cm^3
# Si number density = 27.944124 Si / 1000 Ang^3
#
#
#
# Elastic Constant Matrix: (Units=GPa)
#
#
# Indices 1 2 3 4 5 6 
#
# 1 240.3487 18.9593 40.5349 0.0000 0.0000 0.0000
# 2 18.9593 71.2035 8.0865 0.0000 0.0000 0.0000
# 3 40.5349 8.0865 124.8814 0.0000 0.0000 0.0000
# 4 0.0000 0.0000 0.0000 28.8325 0.0000 0.0000
# 5 0.0000 0.0000 0.0000 0.0000 54.3487 0.0000
# 6 0.0000 0.0000 0.0000 0.0000 0.0000 24.8658
#
#
#
# Elastic Compliance Matrix: (Units=1/GPa)
#
#
# Indices 1 2 3 4 5 6 
#
# 1 0.004476 -0.001034 -0.001386 0.000000 0.000000 0.000000
# 2 -0.001034 0.014387 -0.000596 0.000000 0.000000 0.000000
# 3 -0.001386 -0.000596 0.008496 0.000000 0.000000 0.000000
# 4 0.000000 0.000000 0.000000 0.034683 0.000000 0.000000
# 5 0.000000 0.000000 0.000000 0.000000 0.018400 0.000000
# 6 0.000000 0.000000 0.000000 0.000000 0.000000 0.040216
#
#
# Mechanical properties :
#
#
# Convention : Reuss Voigt Hill
#
# Bulk Modulus (GPa) = 46.88883 63.51054 55.19969
# Shear Modulus (GPa) = 37.36939 46.19958 41.78448
#
# Velocity S-wave (km/s) = 3.66086 4.07047 3.87109
# Velocity P-wave (km/s) = 5.88941 6.69841 6.30689
#
# Compressibility (1/GPa) = 0.02132704
#
# Stress axis : x y z
#
# Youngs Moduli (GPa) = 223.41652 69.50546 117.70224
#
# Poissons Ratio (x) = 0.07190 0.16312
# Poissons Ratio (y) = 0.23111 0.07014
# Poissons Ratio (z) = 0.30962 0.04142
#
# Static dielectric constant tensor:
#      x y z
#    x 2.213210 0.000000 0.000000 
#    y 0.000000 2.297230 0.000000 
#    z 0.000000 0.000000 2.103380 
# 
# From -- ./inp_files/17892.got.cif
#   From: 2010.05.17/outbox.cif.g08.bks.cpg/sg56_9_cif.got.tgz:17892.got - 2010.06.03 13:42:01.
