data_PCOD9433839
_publ_section_title
;
Structure prediction by ZEFSAII (Michael W. Deem and Ramdas Pophale) SiO2 
 PCOD9433839
Probable space group: P C C N
;
_chemical_formula_sum "Si O2"
_cell_formula_units_Z 32
_cell_length_a 26.926642
_cell_length_b 4.682140
_cell_length_c 9.929379
_cell_angle_alpha 90.000000
_cell_angle_beta 90.000000
_cell_angle_gamma 90.000000
_cell_volume 1251.839582
_symmetry_space_group_name_H-M "P C C N"
_symmetry_group_IT_number 56
_symmetry_cell_setting 'orthorhombic'
loop_
_space_group_symop_operation_xyz
x,y,z
1/2-x,1/2-y,z
1/2+x,-y,1/2-z
-x,1/2+y,1/2-z
-x,-y,-z
1/2+x,1/2+y,-z
1/2-x,y,1/2+z
x,1/2-y,1/2+z
loop_
_atom_site_type_symbol
_atom_site_label
_atom_site_fract_x
_atom_site_fract_y
_atom_site_fract_z
Si Si1 0.750000 0.250000 0.657122
Si Si2 0.833935 0.639719 0.014978
Si Si3 0.096791 0.858364 0.968133
Si Si4 0.534677 0.435358 0.769113
Si Si5 0.750000 0.750000 0.337390
O O1 0.707401 0.437470 0.586544
O O2 0.772127 0.491880 0.752754
O O3 0.871231 0.397583 0.962904
O O4 0.797722 0.835925 0.923603
O O5 0.869025 0.878362 0.081655
O O6 0.061304 0.968649 0.087386
O O7 0.069487 0.709295 0.843186
O O8 0.513012 0.730744 0.715033
#
# Coordination Sequence:
#
# PCOD9433839 Si02
#       5
#     4   8   8   8   4
#     4  12  26  46  76 102 160 204 250 326 382 460
#     4  12  27  47  69 118 146 203 262 312 389 449
#     4  12  27  45  81 109 156 198 263 324 379 488
#     4  12  26  50  75 112 152 203 254 327 409 464
#     4  12  26  46  74 102 160 202 252 320 384 458
#
# _framework density 25.562380999999998
#
# number of rings (size 3 to 8) (size 9 to 14) (size 15 to 20)
#    0.000    0.000    0.000   10.500   10.500    0.000 
#    0.000    0.000    0.000    0.000    0.000    0.000 
#    0.000    0.000    0.000    0.000    0.000    0.000 
#
# Total GULP energy -178938.276196 kJ/mol
# GULP energy per Si atom -5591.821131 kJ/mol
# Density = 2.550420 g / cm^3
# Si number density = 25.562381 Si / 1000 Ang^3
#
#
#
# Elastic Constant Matrix: (Units=GPa)
#
#
# Indices 1 2 3 4 5 6 
#
# 1 89.6305 22.1460 45.1239 0.0000 0.0000 0.0000
# 2 22.1460 128.7466 18.2512 0.0000 0.0000 0.0000
# 3 45.1239 18.2512 93.8816 0.0000 0.0000 0.0000
# 4 0.0000 0.0000 0.0000 29.2696 0.0000 0.0000
# 5 0.0000 0.0000 0.0000 0.0000 29.1051 0.0000
# 6 0.0000 0.0000 0.0000 0.0000 0.0000 66.2594
#
#
#
# Elastic Compliance Matrix: (Units=1/GPa)
#
#
# Indices 1 2 3 4 5 6 
#
# 1 0.015035 -0.001606 -0.006914 0.000000 0.000000 0.000000
# 2 -0.001606 0.008159 -0.000814 0.000000 0.000000 0.000000
# 3 -0.006914 -0.000814 0.014133 0.000000 0.000000 0.000000
# 4 0.000000 0.000000 0.000000 0.034165 0.000000 0.000000
# 5 0.000000 0.000000 0.000000 0.000000 0.034358 0.000000
# 6 0.000000 0.000000 0.000000 0.000000 0.000000 0.015092
#
#
# Mechanical properties :
#
#
# Convention : Reuss Voigt Hill
#
# Bulk Modulus (GPa) = 53.59617 53.70013 53.64815
# Shear Modulus (GPa) = 34.28643 40.04266 37.16455
#
# Velocity S-wave (km/s) = 3.66633 3.96216 3.81711
# Velocity P-wave (km/s) = 6.23979 6.47956 6.36080
#
# Compressibility (1/GPa) = 0.01865805
#
# Stress axis : x y z
#
# Youngs Moduli (GPa) = 66.51328 122.56599 70.75513
#
# Poissons Ratio (x) = 0.19684 0.48921
# Poissons Ratio (y) = 0.10682 0.05761
# Poissons Ratio (z) = 0.45988 0.09980
#
# Static dielectric constant tensor:
#      x y z
#    x 2.073190 0.000000 0.000000 
#    y 0.000000 1.986720 0.000000 
#    z 0.000000 0.000000 2.111900 
# 
# From -- ./inp_files/5070.got.cif
#   From: 2010.05.17/outbox.cif.g08.bks.cpg/sg56_3_cif.got.tgz:5070.got - 2010.06.03 13:42:01.
