data_PCOD9433972
_publ_section_title
;
Structure prediction by ZEFSAII (Michael W. Deem and Ramdas Pophale) SiO2 
 PCOD9433972
Probable space group: P B C M
;
_chemical_formula_sum "Si O2"
_cell_formula_units_Z 32
_cell_length_a 20.005619
_cell_length_b 12.066964
_cell_length_c 5.469606
_cell_angle_alpha 90.000000
_cell_angle_beta 90.000000
_cell_angle_gamma 90.000000
_cell_volume 1320.401637
_symmetry_space_group_name_H-M "P B C M"
_symmetry_group_IT_number 57
_symmetry_cell_setting 'orthorhombic'
loop_
_space_group_symop_operation_xyz
x,y,z
-x,-y,1/2+z
x,1/2-y,-z
-x,1/2+y,1/2-z
-x,-y,-z
x,y,1/2-z
-x,1/2+y,z
x,1/2-y,1/2+z
loop_
_atom_site_type_symbol
_atom_site_label
_atom_site_fract_x
_atom_site_fract_y
_atom_site_fract_z
Si Si1 0.938876 0.177598 0.750000
Si Si2 0.208018 0.678774 0.750000
Si Si3 0.857792 0.621731 0.250000
Si Si4 0.640373 0.865484 0.250000
Si Si5 0.302488 0.384691 0.750000
Si Si6 0.494556 0.931180 0.250000
Si Si7 0.649337 0.178970 0.750000
Si Si8 0.913841 0.877671 0.250000
O O1 0.943486 0.250000 0.500000
O O2 0.865029 0.125836 0.750000
O O3 0.006765 0.108328 0.750000
O O4 0.208769 0.750000 0.500000
O O5 0.278687 0.614943 0.750000
O O6 0.777640 0.620969 0.250000
O O7 0.889703 0.747750 0.250000
O O8 0.883599 0.573814 0.504466
O O9 0.673699 0.744888 0.250000
O O10 0.665555 0.926203 0.495251
O O11 0.560433 0.853931 0.250000
O O12 0.422089 0.877873 0.250000
O O13 0.500000 0.000000 0.500000
O O14 0.650563 0.250000 0.500000
#
# Coordination Sequence:
#
# PCOD9433972 Si02
#       8
#     4   4   4   4   4   4   4   4
#     4  10  14  22  33  55  88 130 174 195 242 311
#     4   8  16  27  44  68  95 126 178 218 252 300
#     4  10  16  23  36  59  94 125 173 199 257 295
#     4  10  20  33  52  70 101 130 178 211 272 310
#     4  10  19  32  50  76  94 139 178 230 242 323
#     4  12  26  41  58  85 116 143 176 237 292 333
#     4  10  21  38  62  84 106 147 190 226 273 338
#     4  10  14  20  31  53  86 136 159 188 244 316
#
# _framework density 24.235050999999999
#
# number of rings (size 3 to 8) (size 9 to 14) (size 15 to 20)
#    0.000    2.000    2.500    5.250    3.500    0.000 
#    0.000    0.000    0.000    0.000    0.000    0.000 
#    0.000    0.000    0.000   38.250   13.000    0.000 
#
# Total GULP energy -178785.720632 kJ/mol
# GULP energy per Si atom -5587.053770 kJ/mol
# Density = 2.417989 g / cm^3
# Si number density = 24.235051 Si / 1000 Ang^3
#
#
#
# Elastic Constant Matrix: (Units=GPa)
#
#
# Indices 1 2 3 4 5 6 
#
# 1 317.4480 45.0247 70.8560 0.0000 0.0000 0.0000
# 2 45.0247 37.0659 39.1598 0.0000 0.0000 0.0000
# 3 70.8560 39.1598 258.3403 0.0000 0.0000 0.0000
# 4 0.0000 0.0000 0.0000 30.6293 0.0000 0.0000
# 5 0.0000 0.0000 0.0000 0.0000 56.6588 0.0000
# 6 0.0000 0.0000 0.0000 0.0000 0.0000 -24.0991
#
#
#
# Elastic Compliance Matrix: (Units=1/GPa)
#
#
# Indices 1 2 3 4 5 6 
#
# 1 0.003842 -0.004232 -0.000412 0.000000 0.000000 0.000000
# 2 -0.004232 0.036784 -0.004415 0.000000 0.000000 0.000000
# 3 -0.000412 -0.004415 0.004653 0.000000 0.000000 0.000000
# 4 0.000000 0.000000 0.000000 0.032648 0.000000 0.000000
# 5 0.000000 0.000000 0.000000 0.000000 0.017650 0.000000
# 6 0.000000 0.000000 0.000000 0.000000 0.000000 -0.041495
#
#
# Mechanical properties :
#
#
# Convention : Reuss Voigt Hill
#
# Bulk Modulus (GPa) = 36.81751 102.54834 69.68292
# Shear Modulus (GPa) = 61.53518 43.15871 52.34694
#
# Velocity S-wave (km/s) = 5.04441 4.22458 4.65259
# Velocity P-wave (km/s) = 7.01092 8.13646 7.59457
#
# Compressibility (1/GPa) = 0.02716099
#
# Stress axis : x y z
#
# Youngs Moduli (GPa) = 260.25609 27.18582 214.90432
#
# Poissons Ratio (x) = 0.11504 0.08863
# Poissons Ratio (y) = 1.10132 0.94883
# Poissons Ratio (z) = 0.10733 0.12003
#
# Static dielectric constant tensor:
#      x y z
#    x 1.878680 0.000000 0.000000 
#    y 0.000000 1.972760 0.000000 
#    z 0.000000 0.000000 2.034120 
# 
# From -- ./inp_files/534.got.cif
#   From: 2010.05.17/outbox.cif.g08.bks.cpg/sg57_1_cif.got.tgz:534.got - 2010.06.03 13:58:18.
