data_PCOD9433498
_publ_section_title
;
Structure prediction by ZEFSAII (Michael W. Deem and Ramdas Pophale) SiO2 
 PCOD9433498
Probable space group: P C C N
;
_chemical_formula_sum "Si O2"
_cell_formula_units_Z 36
_cell_length_a 11.587223
_cell_length_b 4.996511
_cell_length_c 22.953363
_cell_angle_alpha 90.000000
_cell_angle_beta 90.000000
_cell_angle_gamma 90.000000
_cell_volume 1328.900724
_symmetry_space_group_name_H-M "P C C N"
_symmetry_group_IT_number 56
_symmetry_cell_setting 'orthorhombic'
loop_
_space_group_symop_operation_xyz
x,y,z
1/2-x,1/2-y,z
1/2+x,-y,1/2-z
-x,1/2+y,1/2-z
-x,-y,-z
1/2+x,1/2+y,-z
1/2-x,y,1/2+z
x,1/2-y,1/2+z
loop_
_atom_site_type_symbol
_atom_site_label
_atom_site_fract_x
_atom_site_fract_y
_atom_site_fract_z
Si Si1 0.379044 0.684397 0.973957
Si Si2 0.960699 0.130435 0.409588
Si Si3 0.575687 0.286115 0.744997
Si Si4 0.250000 0.750000 0.160787
Si Si5 0.350687 0.439142 0.853398
O O1 0.250000 0.750000 0.996863
O O2 0.335788 0.493222 0.921928
O O3 0.461337 0.897815 0.938809
O O4 0.442578 0.659746 0.036772
O O5 0.835760 0.076869 0.380418
O O6 0.031883 0.272840 0.358673
O O7 0.528598 0.990856 0.760867
O O8 0.630863 0.208824 0.682579
O O9 0.666766 0.395739 0.792231
O O10 0.250000 0.250000 0.830324
#
# Coordination Sequence:
#
# PCOD9433498 Si02
#       5
#     8   8   8   4   8
#     4  11  23  44  77 108 153 201 257 335 404 497
#     4  11  24  48  71 113 153 202 265 327 413 477
#     4  12  30  52  77 112 160 210 270 328 401 484
#     4  12  26  48  80 110 160 208 270 338 404 482
#     4  12  26  43  74 108 152 203 260 329 401 485
#
# _framework density 27.090059
#
# number of rings (size 3 to 8) (size 9 to 14) (size 15 to 20)
#    0.000    0.444    5.556    2.000    4.667    0.000 
#    4.000    0.000    0.000    0.000    0.000    0.000 
#    0.000    0.000    0.000    0.000    0.000    0.000 
#
# Total GULP energy -200837.633656 kJ/mol
# GULP energy per Si atom -5578.823157 kJ/mol
# Density = 2.702840 g / cm^3
# Si number density = 27.090059 Si / 1000 Ang^3
#
#
#
# Elastic Constant Matrix: (Units=GPa)
#
#
# Indices 1 2 3 4 5 6 
#
# 1 133.1814 28.6024 47.8318 0.0000 0.0000 0.0000
# 2 28.6024 91.2108 27.3828 0.0000 0.0000 0.0000
# 3 47.8318 27.3828 150.8033 0.0000 0.0000 0.0000
# 4 0.0000 0.0000 0.0000 37.9476 0.0000 0.0000
# 5 0.0000 0.0000 0.0000 0.0000 122.1007 0.0000
# 6 0.0000 0.0000 0.0000 0.0000 0.0000 36.9849
#
#
#
# Elastic Compliance Matrix: (Units=1/GPa)
#
#
# Indices 1 2 3 4 5 6 
#
# 1 0.008818 -0.002036 -0.002427 0.000000 0.000000 0.000000
# 2 -0.002036 0.012066 -0.001545 0.000000 0.000000 0.000000
# 3 -0.002427 -0.001545 0.007681 0.000000 0.000000 0.000000
# 4 0.000000 0.000000 0.000000 0.026352 0.000000 0.000000
# 5 0.000000 0.000000 0.000000 0.000000 0.008190 0.000000
# 6 0.000000 0.000000 0.000000 0.000000 0.000000 0.027038
#
#
# Mechanical properties :
#
#
# Convention : Reuss Voigt Hill
#
# Bulk Modulus (GPa) = 60.42955 64.75883 62.59419
# Shear Modulus (GPa) = 46.43466 57.49854 51.96660
#
# Velocity S-wave (km/s) = 4.14464 4.61205 4.38458
# Velocity P-wave (km/s) = 6.72751 7.23314 6.98490
#
# Compressibility (1/GPa) = 0.01654820
#
# Stress axis : x y z
#
# Youngs Moduli (GPa) = 113.41020 82.87709 130.18310
#
# Poissons Ratio (x) = 0.16877 0.31595
# Poissons Ratio (y) = 0.23095 0.20114
# Poissons Ratio (z) = 0.27524 0.12805
#
# Static dielectric constant tensor:
#      x y z
#    x 2.350360 0.000000 0.000000 
#    y 0.000000 2.162100 0.000000 
#    z 0.000000 0.000000 2.156280 
# 
# From -- ./inp_files/20776.got.cif
#   From: 2010.05.17/outbox.cif.g08.bks.cpg/sg56_11_cif.got.tgz:20776.got - 2010.06.03 13:42:01.
