data_PCOD9433632
_publ_section_title
;
Structure prediction by ZEFSAII (Michael W. Deem and Ramdas Pophale) SiO2 
 PCOD9433632
Probable space group: P C C N
;
_chemical_formula_sum "Si O2"
_cell_formula_units_Z 32
_cell_length_a 8.989442
_cell_length_b 13.329825
_cell_length_c 11.591926
_cell_angle_alpha 90.000000
_cell_angle_beta 90.000000
_cell_angle_gamma 90.000000
_cell_volume 1389.033700
_symmetry_space_group_name_H-M "P C C N"
_symmetry_group_IT_number 56
_symmetry_cell_setting 'orthorhombic'
loop_
_space_group_symop_operation_xyz
x,y,z
1/2-x,1/2-y,z
1/2+x,-y,1/2-z
-x,1/2+y,1/2-z
-x,-y,-z
1/2+x,1/2+y,-z
1/2-x,y,1/2+z
x,1/2-y,1/2+z
loop_
_atom_site_type_symbol
_atom_site_label
_atom_site_fract_x
_atom_site_fract_y
_atom_site_fract_z
Si Si1 0.400438 0.483424 0.116728
Si Si2 0.645014 0.851075 0.963211
Si Si3 0.102092 0.317292 0.790186
Si Si4 0.613982 0.324161 0.722552
O O1 0.237721 0.442889 0.086269
O O2 0.372410 0.571186 0.209972
O O3 0.500000 0.500000 0.000000
O O4 0.522517 0.262597 0.818983
O O5 0.750000 0.750000 0.968324
O O6 0.958632 0.887294 0.811204
O O7 0.623900 0.879858 0.095746
O O8 0.250000 0.250000 0.765075
O O9 0.998009 0.165446 0.613247
O O10 0.750000 0.250000 0.693183
#
# Coordination Sequence:
#
# PCOD9433632 Si02
#       4
#     8   8   8   8
#     4  12  26  46  80 110 151 202 258 314 388 464
#     4  11  24  49  79 102 151 208 253 311 383 457
#     4  11  24  50  75 105 146 204 253 305 382 454
#     4  12  28  45  75 116 153 192 261 321 380 457
#
# _framework density 23.037597999999999
#
# number of rings (size 3 to 8) (size 9 to 14) (size 15 to 20)
#    0.000    0.500    5.000    3.000    3.500    2.000 
#    0.000    0.000    0.000    0.000    0.000    0.000 
#    0.000    0.000    0.000    0.000    0.000    0.000 
#
# Total GULP energy -178289.743531 kJ/mol
# GULP energy per Si atom -5571.554485 kJ/mol
# Density = 2.298516 g / cm^3
# Si number density = 23.037598 Si / 1000 Ang^3
#
#
#
# Elastic Constant Matrix: (Units=GPa)
#
#
# Indices 1 2 3 4 5 6 
#
# 1 129.4131 55.2999 43.3097 0.0000 0.0000 0.0000
# 2 55.2999 133.7346 62.5926 0.0000 0.0000 0.0000
# 3 43.3097 62.5926 142.8892 0.0000 0.0000 0.0000
# 4 0.0000 0.0000 0.0000 37.3179 0.0000 0.0000
# 5 0.0000 0.0000 0.0000 0.0000 13.8462 0.0000
# 6 0.0000 0.0000 0.0000 0.0000 0.0000 44.7134
#
#
#
# Elastic Compliance Matrix: (Units=1/GPa)
#
#
# Indices 1 2 3 4 5 6 
#
# 1 0.009627 -0.003290 -0.001477 0.000000 0.000000 0.000000
# 2 -0.003290 0.010530 -0.003616 0.000000 0.000000 0.000000
# 3 -0.001477 -0.003616 0.009030 0.000000 0.000000 0.000000
# 4 0.000000 0.000000 0.000000 0.026797 0.000000 0.000000
# 5 0.000000 0.000000 0.000000 0.000000 0.072222 0.000000
# 6 0.000000 0.000000 0.000000 0.000000 0.000000 0.022365
#
#
# Mechanical properties :
#
#
# Convention : Reuss Voigt Hill
#
# Bulk Modulus (GPa) = 80.49759 80.93793 80.71776
# Shear Modulus (GPa) = 29.15868 35.49781 32.32824
#
# Velocity S-wave (km/s) = 3.56153 3.92964 3.75010
# Velocity P-wave (km/s) = 7.20627 7.46985 7.33924
#
# Compressibility (1/GPa) = 0.01242273
#
# Stress axis : x y z
#
# Youngs Moduli (GPa) = 103.87265 94.96698 110.74313
#
# Poissons Ratio (x) = 0.31240 0.16357
# Poissons Ratio (y) = 0.34170 0.40040
# Poissons Ratio (z) = 0.15342 0.34336
#
# Static dielectric constant tensor:
#      x y z
#    x 1.950480 0.000000 0.000000 
#    y 0.000000 2.115960 0.000000 
#    z 0.000000 0.000000 1.917860 
# 
# From -- ./inp_files/6082.got.cif
#   From: 2010.05.17/outbox.cif.g08.bks.cpg/sg56_4_cif.got.tgz:6082.got - 2010.06.03 13:42:01.
