data_PCOD9433764
_publ_section_title
;
Structure prediction by ZEFSAII (Michael W. Deem and Ramdas Pophale) SiO2 
 PCOD9433764
Probable space group: P C C N
;
_chemical_formula_sum "Si O2"
_cell_formula_units_Z 28
_cell_length_a 9.395585
_cell_length_b 9.112822
_cell_length_c 12.672622
_cell_angle_alpha 90.000000
_cell_angle_beta 90.000000
_cell_angle_gamma 90.000000
_cell_volume 1085.033617
_symmetry_space_group_name_H-M "P C C N"
_symmetry_group_IT_number 56
_symmetry_cell_setting 'orthorhombic'
loop_
_space_group_symop_operation_xyz
x,y,z
1/2-x,1/2-y,z
1/2+x,-y,1/2-z
-x,1/2+y,1/2-z
-x,-y,-z
1/2+x,1/2+y,-z
1/2-x,y,1/2+z
x,1/2-y,1/2+z
loop_
_atom_site_type_symbol
_atom_site_label
_atom_site_fract_x
_atom_site_fract_y
_atom_site_fract_z
Si Si1 0.240218 0.903935 0.310342
Si Si2 0.384811 0.116694 0.466834
Si Si3 0.519346 0.637991 0.686319
Si Si4 0.750000 0.750000 0.847063
O O1 0.250000 0.750000 0.372100
O O2 0.352643 0.869480 0.216128
O O3 0.306533 0.040202 0.371004
O O4 0.083407 0.972711 0.299435
O O5 0.450351 0.269615 0.421323
O O6 0.276292 0.124775 0.565266
O O7 0.500000 0.000000 0.500000
O O8 0.612353 0.725232 0.774762
#
# Coordination Sequence:
#
# PCOD9433764 Si02
#       4
#     8   8   8   4
#     4  12  26  46  73 111 148 196 256 307 384 459
#     4  12  25  48  74 111 151 200 258 312 390 464
#     4  12  26  49  77 106 155 202 250 319 382 454
#     4  12  22  44  82 100 152 204 250 314 380 446
#
# _framework density 25.805653
#
# number of rings (size 3 to 8) (size 9 to 14) (size 15 to 20)
#    0.000    0.000    8.571    1.714    0.000    0.000 
#    5.143    4.286    0.000    0.000    0.000    0.000 
#    0.000    0.000    0.000    0.000    0.000    0.000 
#
# Total GULP energy -155992.877273 kJ/mol
# GULP energy per Si atom -5571.174188 kJ/mol
# Density = 2.574692 g / cm^3
# Si number density = 25.805653 Si / 1000 Ang^3
#
#
#
# Elastic Constant Matrix: (Units=GPa)
#
#
# Indices 1 2 3 4 5 6 
#
# 1 81.6601 55.1522 6.1316 0.0000 0.0000 0.0000
# 2 55.1522 161.9677 24.6931 0.0000 0.0000 0.0000
# 3 6.1316 24.6931 73.2793 0.0000 0.0000 0.0000
# 4 0.0000 0.0000 0.0000 28.0198 0.0000 0.0000
# 5 0.0000 0.0000 0.0000 0.0000 -3.9843 0.0000
# 6 0.0000 0.0000 0.0000 0.0000 0.0000 70.2701
#
#
#
# Elastic Compliance Matrix: (Units=1/GPa)
#
#
# Indices 1 2 3 4 5 6 
#
# 1 0.015922 -0.005501 0.000521 0.000000 0.000000 0.000000
# 2 -0.005501 0.008409 -0.002373 0.000000 0.000000 0.000000
# 3 0.000521 -0.002373 0.014403 0.000000 0.000000 0.000000
# 4 0.000000 0.000000 0.000000 0.035689 0.000000 0.000000
# 5 0.000000 0.000000 0.000000 0.000000 -0.250983 0.000000
# 6 0.000000 0.000000 0.000000 0.000000 0.000000 0.014231
#
#
# Mechanical properties :
#
#
# Convention : Reuss Voigt Hill
#
# Bulk Modulus (GPa) = 41.61863 54.31788 47.96825
# Shear Modulus (GPa) = -35.81313 34.25645 -0.77834
#
# Velocity S-wave (km/s) = -3.72936 3.64741 -0.54979
# Velocity P-wave (km/s) = 1.54320 6.23159 4.26914
#
# Compressibility (1/GPa) = 0.02402770
#
# Stress axis : x y z
#
# Youngs Moduli (GPa) = 62.80545 118.91816 69.43220
#
# Poissons Ratio (x) = 0.65420 -0.03621
# Poissons Ratio (y) = 0.34551 0.16479
# Poissons Ratio (z) = -0.03275 0.28223
#
# Static dielectric constant tensor:
#      x y z
#    x 1.376140 0.000000 0.000000 
#    y 0.000000 2.238660 0.000000 
#    z 0.000000 0.000000 2.134470 
# 
# From -- ./inp_files/11186.got.cif
#   From: 2010.05.17/outbox.cif.g08.bks.cpg/sg56_6_cif.got.tgz:11186.got - 2010.06.03 13:42:01.
