data_PCOD9433538
_publ_section_title
;
Structure prediction by ZEFSAII (Michael W. Deem and Ramdas Pophale) SiO2 
 PCOD9433538
Probable space group: P C C N
;
_chemical_formula_sum "Si O2"
_cell_formula_units_Z 40
_cell_length_a 14.885867
_cell_length_b 5.161370
_cell_length_c 18.655439
_cell_angle_alpha 90.000000
_cell_angle_beta 90.000000
_cell_angle_gamma 90.000000
_cell_volume 1433.324753
_symmetry_space_group_name_H-M "P C C N"
_symmetry_group_IT_number 56
_symmetry_cell_setting 'orthorhombic'
loop_
_space_group_symop_operation_xyz
x,y,z
1/2-x,1/2-y,z
1/2+x,-y,1/2-z
-x,1/2+y,1/2-z
-x,-y,-z
1/2+x,1/2+y,-z
1/2-x,y,1/2+z
x,1/2-y,1/2+z
loop_
_atom_site_type_symbol
_atom_site_label
_atom_site_fract_x
_atom_site_fract_y
_atom_site_fract_z
Si Si1 0.250000 0.750000 0.826033
Si Si2 0.250000 0.250000 0.671789
Si Si3 0.000000 0.500000 0.500000
Si Si4 0.099002 0.465045 0.239710
Si Si5 0.250000 0.750000 0.570820
Si Si6 0.486472 0.807498 0.627306
Si Si7 0.626255 0.458346 0.554811
O O1 0.327136 0.643120 0.776177
O O2 0.195235 0.556446 0.878888
O O3 0.339585 0.223053 0.720583
O O4 0.247625 0.511108 0.627187
O O5 0.071101 0.540574 0.569642
O O6 0.944329 0.276659 0.549740
O O7 0.027319 0.438187 0.302915
O O8 0.057603 0.563565 0.165497
O O9 0.312109 0.586928 0.513238
O O10 0.562227 0.716023 0.565509
#
# Coordination Sequence:
#
# PCOD9433538 Si02
#       7
#     4   4   4   8   4   8   8
#     4  11  23  52  74 120 148 222 264 354 408 520
#     4  12  28  50  78 120 168 226 274 358 418 526
#     4  12  26  48  74 112 164 206 276 338 424 512
#     4  12  27  50  83 115 172 207 298 342 450 497
#     4  11  29  48  80 122 168 222 286 344 430 504
#     4  12  28  50  79 122 153 223 268 365 413 526
#     4  11  26  47  80 110 161 211 278 337 428 497
#
# _framework density 27.907143000000001
#
# number of rings (size 3 to 8) (size 9 to 14) (size 15 to 20)
#    0.000    0.400    2.000    4.800    5.600    1.600 
#    0.000    0.000    0.000    0.000    0.000    0.000 
#    0.000    0.000    0.000    0.000    0.000    0.000 
#
# Total GULP energy -222778.349956 kJ/mol
# GULP energy per Si atom -5569.458749 kJ/mol
# Density = 2.784363 g / cm^3
# Si number density = 27.907143 Si / 1000 Ang^3
#
#
#
# Elastic Constant Matrix: (Units=GPa)
#
#
# Indices 1 2 3 4 5 6 
#
# 1 61.3644 -0.0332 39.2923 0.0000 0.0000 0.0000
# 2 -0.0332 116.0070 39.1728 0.0000 0.0000 0.0000
# 3 39.2923 39.1728 231.0217 0.0000 0.0000 0.0000
# 4 0.0000 0.0000 0.0000 32.5709 0.0000 0.0000
# 5 0.0000 0.0000 0.0000 0.0000 67.3310 0.0000
# 6 0.0000 0.0000 0.0000 0.0000 0.0000 32.3196
#
#
#
# Elastic Compliance Matrix: (Units=1/GPa)
#
#
# Indices 1 2 3 4 5 6 
#
# 1 0.018426 0.001128 -0.003325 0.000000 0.000000 0.000000
# 2 0.001128 0.009213 -0.001754 0.000000 0.000000 0.000000
# 3 -0.003325 -0.001754 0.005192 0.000000 0.000000 0.000000
# 4 0.000000 0.000000 0.000000 0.030702 0.000000 0.000000
# 5 0.000000 0.000000 0.000000 0.000000 0.014852 0.000000
# 6 0.000000 0.000000 0.000000 0.000000 0.000000 0.030941
#
#
# Mechanical properties :
#
#
# Convention : Reuss Voigt Hill
#
# Bulk Modulus (GPa) = 40.11551 62.80634 51.46093
# Shear Modulus (GPa) = 39.82892 48.44170 44.13531
#
# Velocity S-wave (km/s) = 3.78192 4.17083 3.98113
# Velocity P-wave (km/s) = 5.78588 6.76379 6.29385
#
# Compressibility (1/GPa) = 0.02492801
#
# Stress axis : x y z
#
# Youngs Moduli (GPa) = 54.27161 108.54489 192.62029
#
# Poissons Ratio (x) = -0.12245 0.64049
# Poissons Ratio (y) = -0.06122 0.33786
# Poissons Ratio (z) = 0.18046 0.19039
#
# Static dielectric constant tensor:
#      x y z
#    x 1.940350 0.000000 0.000000 
#    y 0.000000 1.996780 0.000000 
#    z 0.000000 0.000000 1.205530 
# 
# From -- ./inp_files/16502.got.cif
#   From: 2010.05.17/outbox.cif.g08.bks.cpg/sg56_9_cif.got.tgz:16502.got - 2010.06.03 13:42:01.
