data_PCOD9433647
_publ_section_title
;
Structure prediction by ZEFSAII (Michael W. Deem and Ramdas Pophale) SiO2 
 PCOD9433647
Probable space group: P C C N
;
_chemical_formula_sum "Si O2"
_cell_formula_units_Z 60
_cell_length_a 6.075448
_cell_length_b 18.313268
_cell_length_c 23.498587
_cell_angle_alpha 90.000000
_cell_angle_beta 90.000000
_cell_angle_gamma 90.000000
_cell_volume 2614.483513
_symmetry_space_group_name_H-M "P C C N"
_symmetry_group_IT_number 56
_symmetry_cell_setting 'orthorhombic'
loop_
_space_group_symop_operation_xyz
x,y,z
1/2-x,1/2-y,z
1/2+x,-y,1/2-z
-x,1/2+y,1/2-z
-x,-y,-z
1/2+x,1/2+y,-z
1/2-x,y,1/2+z
x,1/2-y,1/2+z
loop_
_atom_site_type_symbol
_atom_site_label
_atom_site_fract_x
_atom_site_fract_y
_atom_site_fract_z
Si Si1 0.250000 0.250000 0.714325
Si Si2 0.944726 0.194435 0.116124
Si Si3 0.427483 0.520727 0.888539
Si Si4 0.100494 0.188018 0.992732
Si Si5 0.760285 0.023246 0.729335
Si Si6 0.624085 0.174876 0.277324
Si Si7 0.875464 0.563307 0.031129
Si Si8 0.718301 0.109113 0.400874
O O1 0.391674 0.203776 0.669026
O O2 0.380889 0.305915 0.754931
O O3 0.750000 0.250000 0.131076
O O4 0.915358 0.107534 0.108567
O O5 0.012096 0.218764 0.052122
O O6 0.276240 0.499825 0.835214
O O7 0.655208 0.475811 0.885902
O O8 0.321529 0.481080 0.941411
O O9 0.250000 0.250000 0.963400
O O10 0.269393 0.123529 0.008976
O O11 0.920807 0.151628 0.950557
O O12 0.780517 0.109709 0.739366
O O13 0.510386 0.003545 0.753499
O O14 0.750000 0.250000 0.269063
O O15 0.659661 0.150539 0.342547
O O16 0.033636 0.604135 0.076022
O O17 0.000000 0.500000 0.000000
#
# Coordination Sequence:
#
# PCOD9433647 Si02
#       8
#     4   8   8   8   8   8   8   8
#     4  12  28  48  70 108 156 194 268 324 414 470
#     4  12  27  47  75 110 147 201 254 328 404 480
#     4  11  25  44  72 105 147 191 254 314 388 470
#     4  11  27  44  71 109 141 191 249 312 391 484
#     4  12  27  49  77 112 153 211 271 328 401 493
#     4  12  29  46  76 111 154 212 264 343 402 496
#     4  11  25  45  73 107 145 193 245 321 390 474
#     4  11  26  47  74 108 151 199 253 323 402 485
#
# _framework density 22.949083000000002
#
# number of rings (size 3 to 8) (size 9 to 14) (size 15 to 20)
#    0.000    0.533    2.000    4.400   10.267    5.333 
#    0.000    0.000    0.000    0.000    0.000    0.000 
#    0.000    0.000    0.000    0.000    0.000    0.000 
#
# Total GULP energy -334684.044721 kJ/mol
# GULP energy per Si atom -5578.067412 kJ/mol
# Density = 2.289685 g / cm^3
# Si number density = 22.949083 Si / 1000 Ang^3
#
#
#
# Elastic Constant Matrix: (Units=GPa)
#
#
# Indices 1 2 3 4 5 6 
#
# 1 90.2817 45.8309 16.7162 0.0000 0.0000 0.0000
# 2 45.8309 116.3756 3.6178 0.0000 0.0000 0.0000
# 3 16.7162 3.6178 78.4096 0.0000 0.0000 0.0000
# 4 0.0000 0.0000 0.0000 65.2966 0.0000 0.0000
# 5 0.0000 0.0000 0.0000 0.0000 33.2782 0.0000
# 6 0.0000 0.0000 0.0000 0.0000 0.0000 46.3509
#
#
#
# Elastic Compliance Matrix: (Units=1/GPa)
#
#
# Indices 1 2 3 4 5 6 
#
# 1 0.014441 -0.005600 -0.002820 0.000000 0.000000 0.000000
# 2 -0.005600 0.010776 0.000697 0.000000 0.000000 0.000000
# 3 -0.002820 0.000697 0.013323 0.000000 0.000000 0.000000
# 4 0.000000 0.000000 0.000000 0.015315 0.000000 0.000000
# 5 0.000000 0.000000 0.000000 0.000000 0.030050 0.000000
# 6 0.000000 0.000000 0.000000 0.000000 0.000000 0.021575
#
#
# Mechanical properties :
#
#
# Convention : Reuss Voigt Hill
#
# Bulk Modulus (GPa) = 43.30210 46.37743 44.83977
# Shear Modulus (GPa) = 38.87301 43.57860 41.22580
#
# Velocity S-wave (km/s) = 4.12014 4.36239 4.24300
# Velocity P-wave (km/s) = 6.44545 6.75475 6.60191
#
# Compressibility (1/GPa) = 0.02309357
#
# Stress axis : x y z
#
# Youngs Moduli (GPa) = 69.24620 92.79511 75.06001
#
# Poissons Ratio (x) = 0.51961 0.21170
# Poissons Ratio (y) = 0.38775 -0.05228
# Poissons Ratio (z) = 0.19530 -0.06464
#
# Static dielectric constant tensor:
#      x y z
#    x -0.579440 0.000000 0.000000 
#    y 0.000000 1.904740 0.000000 
#    z 0.000000 0.000000 1.890200 
# 
# From -- ./inp_files/21795.got.cif
#   From: 2010.05.17/outbox.cif.g08.bks.cpg/sg56_11_cif.got.tgz:21795.got - 2010.06.03 13:42:01.
