data_PCOD9433292
_publ_section_title
;
Structure prediction by ZEFSAII (Michael W. Deem and Ramdas Pophale) SiO2 
 PCOD9433292
Probable space group: P C C N
;
_chemical_formula_sum "Si O2"
_cell_formula_units_Z 40
_cell_length_a 8.337226
_cell_length_b 8.934636
_cell_length_c 21.945758
_cell_angle_alpha 90.000000
_cell_angle_beta 90.000000
_cell_angle_gamma 90.000000
_cell_volume 1634.741259
_symmetry_space_group_name_H-M "P C C N"
_symmetry_group_IT_number 56
_symmetry_cell_setting 'orthorhombic'
loop_
_space_group_symop_operation_xyz
x,y,z
1/2-x,1/2-y,z
1/2+x,-y,1/2-z
-x,1/2+y,1/2-z
-x,-y,-z
1/2+x,1/2+y,-z
1/2-x,y,1/2+z
x,1/2-y,1/2+z
loop_
_atom_site_type_symbol
_atom_site_label
_atom_site_fract_x
_atom_site_fract_y
_atom_site_fract_z
Si Si1 0.405586 0.343129 0.881354
Si Si2 0.885183 0.138450 0.474095
Si Si3 0.186218 0.913912 0.357523
Si Si4 0.321378 0.408465 0.615956
Si Si5 0.332100 0.586260 0.218730
O O1 0.250000 0.250000 0.861640
O O2 0.497869 0.246022 0.932782
O O3 0.314680 0.496629 0.898208
O O4 0.511460 0.385983 0.822750
O O5 0.750000 0.250000 0.505150
O O6 0.772877 0.042406 0.428332
O O7 0.000000 0.000000 0.500000
O O8 0.250000 0.750000 0.349032
O O9 0.155414 0.968540 0.287999
O O10 0.011736 0.902434 0.385404
O O11 0.250000 0.250000 0.598392
O O12 0.265613 0.460553 0.682234
O O13 0.250000 0.750000 0.217574
#
# Coordination Sequence:
#
# PCOD9433292 Si02
#       5
#     8   8   8   8   8
#     4  12  22  45  77 105 161 206 258 337 389 477
#     4  12  28  56  85 114 149 209 275 348 423 480
#     4  11  25  38  71 118 156 210 256 308 394 494
#     4  12  24  46  71 107 159 198 255 328 388 479
#     4  11  21  42  69 107 161 209 255 307 400 484
#
# _framework density 24.468706999999998
#
# number of rings (size 3 to 8) (size 9 to 14) (size 15 to 20)
#    0.000    0.400    6.000    2.400    0.000    8.000 
#    3.600    2.000    0.000    0.000    0.000    0.000 
#    0.000    0.000    0.000    0.000    0.000    0.000 
#
# Total GULP energy -223131.723753 kJ/mol
# GULP energy per Si atom -5578.293094 kJ/mol
# Density = 2.441301 g / cm^3
# Si number density = 24.468707 Si / 1000 Ang^3
#
#
#
# Elastic Constant Matrix: (Units=GPa)
#
#
# Indices 1 2 3 4 5 6 
#
# 1 141.8671 73.8531 47.0919 0.0000 0.0000 0.0000
# 2 73.8531 138.4557 33.4042 0.0000 0.0000 0.0000
# 3 47.0919 33.4042 91.7696 0.0000 0.0000 0.0000
# 4 0.0000 0.0000 0.0000 40.9976 0.0000 0.0000
# 5 0.0000 0.0000 0.0000 0.0000 103.9563 0.0000
# 6 0.0000 0.0000 0.0000 0.0000 0.0000 62.2285
#
#
#
# Elastic Compliance Matrix: (Units=1/GPa)
#
#
# Indices 1 2 3 4 5 6 
#
# 1 0.010842 -0.004868 -0.003791 0.000000 0.000000 0.000000
# 2 -0.004868 0.010104 -0.001180 0.000000 0.000000 0.000000
# 3 -0.003791 -0.001180 0.013272 0.000000 0.000000 0.000000
# 4 0.000000 0.000000 0.000000 0.024392 0.000000 0.000000
# 5 0.000000 0.000000 0.000000 0.000000 0.009619 0.000000
# 6 0.000000 0.000000 0.000000 0.000000 0.000000 0.016070
#
#
# Mechanical properties :
#
#
# Convention : Reuss Voigt Hill
#
# Bulk Modulus (GPa) = 68.78172 75.64342 72.21257
# Shear Modulus (GPa) = 45.94604 55.95271 50.94937
#
# Velocity S-wave (km/s) = 4.33800 4.78714 4.56809
# Velocity P-wave (km/s) = 7.29809 7.84456 7.57625
#
# Compressibility (1/GPa) = 0.01453875
#
# Stress axis : x y z
#
# Youngs Moduli (GPa) = 92.23619 98.97146 75.34767
#
# Poissons Ratio (x) = 0.48182 0.28567
# Poissons Ratio (y) = 0.44904 0.08888
# Poissons Ratio (z) = 0.34970 0.11675
#
# Static dielectric constant tensor:
#      x y z
#    x 1.983650 0.000000 0.000000 
#    y 0.000000 2.020680 0.000000 
#    z 0.000000 0.000000 2.107590 
# 
# From -- ./inp_files/20296.got.cif
#   From: 2010.05.17/outbox.cif.g08.bks.cpg/sg56_11_cif.got.tgz:20296.got - 2010.06.03 13:42:01.
