data_PCOD9433945
_publ_section_title
;
Structure prediction by ZEFSAII (Michael W. Deem and Ramdas Pophale) SiO2 
 PCOD9433945
Probable space group: P C C N
;
_chemical_formula_sum "Si O2"
_cell_formula_units_Z 48
_cell_length_a 18.000000
_cell_length_b 9.000000
_cell_length_c 15.000000
_cell_angle_alpha 90.000000
_cell_angle_beta 90.000000
_cell_angle_gamma 90.000000
_cell_volume 2430.000000
_symmetry_space_group_name_H-M "P C C N"
_symmetry_group_IT_number 56
_symmetry_cell_setting 'orthorhombic'
loop_
_space_group_symop_operation_xyz
x,y,z
1/2-x,1/2-y,z
1/2+x,-y,1/2-z
-x,1/2+y,1/2-z
-x,-y,-z
1/2+x,1/2+y,-z
1/2-x,y,1/2+z
x,1/2-y,1/2+z
loop_
_atom_site_type_symbol
_atom_site_label
_atom_site_fract_x
_atom_site_fract_y
_atom_site_fract_z
Si Si1 0.525454 0.672121 0.608098
Si Si2 0.322717 0.158561 0.629591
Si Si3 0.825118 0.344445 0.027683
Si Si4 0.427776 0.588290 0.037452
Si Si5 0.581778 0.572385 0.413935
Si Si6 0.189176 0.121169 0.333794
O O1 0.467879 0.808512 0.612627
O O2 0.545311 0.642884 0.503373
O O3 0.480921 0.523486 0.635755
O O4 0.605863 0.685946 0.652155
O O5 0.250000 0.250000 0.592185
O O6 0.382029 0.292591 0.638560
O O7 0.301131 0.096789 0.727406
O O8 0.364563 0.028755 0.572430
O O9 0.750000 0.250000 0.011519
O O10 0.811054 0.465366 0.108662
O O11 0.887864 0.211022 0.028183
O O12 0.855985 0.454688 0.949820
O O13 0.500000 0.500000 0.000000
O O14 0.250000 0.250000 0.360086
#
# Coordination Sequence:
#
# PCOD9433945 Si02
#       6
#     8   8   8   8   8   8
#     4   9  19  37  58  91 121 158 206 259 310 370
#     4  11  23  40  62  92 130 166 207 259 320 384
#     4  10  22  39  64  91 122 166 211 262 314 379
#     4  11  22  38  65  98 123 160 219 267 313 378
#     4   9  18  36  62  86 123 156 207 263 309 364
#     4  10  24  41  60  88 129 172 209 254 324 385
#
# _framework density 19.753086
#
# number of rings (size 3 to 8) (size 9 to 14) (size 15 to 20)
#    0.000    2.000    1.667    2.000    2.333    4.000 
#    0.000    7.500    0.000    0.000    0.000    0.000 
#    0.000    0.000    0.000    0.000    0.000    0.000 
#
# Total GULP energy -267348.805612 kJ/mol
# GULP energy per Si atom -5569.766784 kJ/mol
# Density = 1.970813 g / cm^3
# Si number density = 19.753086 Si / 1000 Ang^3
#
#
#
# Elastic Constant Matrix: (Units=GPa)
#
#
# Indices 1 2 3 4 5 6 
#
# 1 130.8481 57.0758 16.8598 0.0000 0.0000 0.0000
# 2 57.0758 148.4621 31.1466 0.0000 0.0000 0.0000
# 3 16.8598 31.1466 45.2074 0.0000 0.0000 0.0000
# 4 0.0000 0.0000 0.0000 26.5304 0.0000 0.0000
# 5 0.0000 0.0000 0.0000 0.0000 19.5432 0.0000
# 6 0.0000 0.0000 0.0000 0.0000 0.0000 68.1574
#
#
#
# Elastic Compliance Matrix: (Units=1/GPa)
#
#
# Indices 1 2 3 4 5 6 
#
# 1 0.009235 -0.003305 -0.001167 0.000000 0.000000 0.000000
# 2 -0.003305 0.009057 -0.005007 0.000000 0.000000 0.000000
# 3 -0.001167 -0.005007 0.026005 0.000000 0.000000 0.000000
# 4 0.000000 0.000000 0.000000 0.037693 0.000000 0.000000
# 5 0.000000 0.000000 0.000000 0.000000 0.051169 0.000000
# 6 0.000000 0.000000 0.000000 0.000000 0.000000 0.014672
#
#
# Mechanical properties :
#
#
# Convention : Reuss Voigt Hill
#
# Bulk Modulus (GPa) = 39.46617 59.40909 49.43763
# Shear Modulus (GPa) = 28.53314 37.47522 33.00418
#
# Velocity S-wave (km/s) = 3.80477 4.36039 4.09202
# Velocity P-wave (km/s) = 6.27095 7.44928 6.88537
#
# Compressibility (1/GPa) = 0.02533816
#
# Stress axis : x y z
#
# Youngs Moduli (GPa) = 108.28833 110.41182 38.45380
#
# Poissons Ratio (x) = 0.36496 0.04486
# Poissons Ratio (y) = 0.35794 0.19255
# Poissons Ratio (z) = 0.12633 0.55286
#
# Static dielectric constant tensor:
#      x y z
#    x 1.755860 0.000000 0.000000 
#    y 0.000000 1.729830 0.000000 
#    z 0.000000 0.000000 1.710630 
# 
# From -- ./inp_files/12694.got.cif
#   From: 2010.05.17/outbox.ucp.g08.bks.cvg/sg56_7_cif.got.tgz:12694.got - 2010.06.11 16:37:52.
