data_PCOD9433989
_publ_section_title
;
Structure prediction by ZEFSAII (Michael W. Deem and Ramdas Pophale) SiO2 
 PCOD9433989
Probable space group: P B C M
;
_chemical_formula_sum "Si O2"
_cell_formula_units_Z 52
_cell_length_a 7.112153
_cell_length_b 32.629692
_cell_length_c 9.634668
_cell_angle_alpha 90.000000
_cell_angle_beta 90.000000
_cell_angle_gamma 90.000000
_cell_volume 2235.891985
_symmetry_space_group_name_H-M "P B C M"
_symmetry_group_IT_number 57
_symmetry_cell_setting 'orthorhombic'
loop_
_space_group_symop_operation_xyz
x,y,z
-x,-y,1/2+z
x,1/2-y,-z
-x,1/2+y,1/2-z
-x,-y,-z
x,y,1/2-z
-x,1/2+y,z
x,1/2-y,1/2+z
loop_
_atom_site_type_symbol
_atom_site_label
_atom_site_fract_x
_atom_site_fract_y
_atom_site_fract_z
Si Si1 0.787432 0.619542 0.083277
Si Si2 0.405310 0.609096 0.586143
Si Si3 0.719656 0.710201 0.084693
Si Si4 0.141341 0.046015 0.595455
Si Si5 0.279558 0.693454 0.001557
Si Si6 0.181863 0.754824 0.750000
Si Si7 0.275792 0.516114 0.900415
O O1 0.789675 0.614670 0.250000
O O2 0.820449 0.667406 0.050645
O O3 0.583460 0.612032 0.014790
O O4 0.901890 0.584465 0.004114
O O5 0.445648 0.617597 0.750000
O O6 0.269881 0.645503 0.534337
O O7 0.336233 0.562683 0.576451
O O8 0.730979 0.718690 0.250000
O O9 0.498776 0.702958 0.046019
O O10 0.783690 0.750000 0.000000
O O11 0.201278 0.059365 0.750000
O O12 0.950177 0.020812 0.612358
O O13 0.295911 0.016847 0.522611
O O14 0.162636 0.709722 0.130148
O O15 0.227881 0.720523 0.869969
O O16 0.348023 0.501392 0.750000
#
# Coordination Sequence:
#
# PCOD9433989 Si02
#       7
#     8   8   8   8   8   4   8
#     4  10  22  34  52  79 112 140 172 216 262 309
#     4  10  20  33  50  80 109 138 170 213 265 312
#     4  10  17  27  43  69  99 136 171 208 248 295
#     4  10  20  38  59  81  99 134 178 215 261 317
#     4  10  16  26  42  68 102 137 171 208 253 302
#     4  10  16  24  42  66  98 142 172 210 248 300
#     4   9  20  38  60  78 103 134 173 217 261 317
#
# _framework density 23.256938000000002
#
# number of rings (size 3 to 8) (size 9 to 14) (size 15 to 20)
#    0.000    2.154    3.077    0.923    1.077    3.077 
#    0.000    0.000    0.000    0.000    4.000    0.000 
#    0.000    0.000    0.000    0.000    0.000    0.000 
#
# Total GULP energy -289481.321393 kJ/mol
# GULP energy per Si atom -5566.948488 kJ/mol
# Density = 2.320400 g / cm^3
# Si number density = 23.256938 Si / 1000 Ang^3
#
#
#
# Elastic Constant Matrix: (Units=GPa)
#
#
# Indices 1 2 3 4 5 6 
#
# 1 30.2611 7.5305 9.8236 0.0000 0.0000 0.0000
# 2 7.5305 128.9115 85.2178 0.0000 0.0000 0.0000
# 3 9.8236 85.2178 201.3534 0.0000 0.0000 0.0000
# 4 0.0000 0.0000 0.0000 40.1043 0.0000 0.0000
# 5 0.0000 0.0000 0.0000 0.0000 2.0535 0.0000
# 6 0.0000 0.0000 0.0000 0.0000 0.0000 23.6379
#
#
#
# Elastic Compliance Matrix: (Units=1/GPa)
#
#
# Indices 1 2 3 4 5 6 
#
# 1 0.033716 -0.001225 -0.001127 0.000000 0.000000 0.000000
# 2 -0.001225 0.010815 -0.004517 0.000000 0.000000 0.000000
# 3 -0.001127 -0.004517 0.006933 0.000000 0.000000 0.000000
# 4 0.000000 0.000000 0.000000 0.024935 0.000000 0.000000
# 5 0.000000 0.000000 0.000000 0.000000 0.486976 0.000000
# 6 0.000000 0.000000 0.000000 0.000000 0.000000 0.042305
#
#
# Mechanical properties :
#
#
# Convention : Reuss Voigt Hill
#
# Bulk Modulus (GPa) = 26.50631 62.85220 44.67925
# Shear Modulus (GPa) = 7.91147 30.35606 19.13376
#
# Velocity S-wave (km/s) = 1.84639 3.61674 2.87141
# Velocity P-wave (km/s) = 3.99593 6.67270 5.49965
#
# Compressibility (1/GPa) = 0.03772687
#
# Stress axis : x y z
#
# Youngs Moduli (GPa) = 29.65928 92.46315 144.23220
#
# Poissons Ratio (x) = 0.11325 0.16249
# Poissons Ratio (y) = 0.03633 0.65157
# Poissons Ratio (z) = 0.03341 0.41770
#
# Static dielectric constant tensor:
#      x y z
#    x 2.003050 0.000000 0.000000 
#    y 0.000000 1.875600 0.000000 
#    z 0.000000 0.000000 1.853920 
# 
# From -- ./inp_files/3413.got.cif
#   From: 2010.05.17/outbox.cif.g08.bks.cpg/sg57_2_cif.got.tgz:3413.got - 2010.06.03 13:58:18.
