data_PCOD9433170
_publ_section_title
;
Structure prediction by ZEFSAII (Michael W. Deem and Ramdas Pophale) SiO2 
 PCOD9433170
Probable space group: P C C N
;
_chemical_formula_sum "Si O2"
_cell_formula_units_Z 36
_cell_length_a 18.691642
_cell_length_b 8.869349
_cell_length_c 8.211771
_cell_angle_alpha 90.000000
_cell_angle_beta 90.000000
_cell_angle_gamma 90.000000
_cell_volume 1361.369538
_symmetry_space_group_name_H-M "P C C N"
_symmetry_group_IT_number 56
_symmetry_cell_setting 'orthorhombic'
loop_
_space_group_symop_operation_xyz
x,y,z
1/2-x,1/2-y,z
1/2+x,-y,1/2-z
-x,1/2+y,1/2-z
-x,-y,-z
1/2+x,1/2+y,-z
1/2-x,y,1/2+z
x,1/2-y,1/2+z
loop_
_atom_site_type_symbol
_atom_site_label
_atom_site_fract_x
_atom_site_fract_y
_atom_site_fract_z
Si Si1 0.847730 0.018860 0.831686
Si Si2 0.378028 0.803588 0.991325
Si Si3 0.750000 0.750000 0.273195
Si Si4 0.612551 0.575959 0.281980
Si Si5 0.460525 0.188756 0.525254
O O1 0.847073 0.099488 0.656705
O O2 0.788839 0.891145 0.855960
O O3 0.923754 0.932529 0.853876
O O4 0.838236 0.149336 0.964484
O O5 0.459144 0.747331 0.955701
O O6 0.378225 0.907446 0.154283
O O7 0.681635 0.658854 0.205467
O O8 0.588461 0.664820 0.444397
O O9 0.552284 0.613020 0.149579
#
# Coordination Sequence:
#
# PCOD9433170 Si02
#       5
#     8   8   4   8   8
#     4  11  26  47  75 105 149 193 240 306 363 444
#     4  12  25  45  74 112 142 185 247 309 368 429
#     4  10  26  50  70 100 142 200 250 286 374 436
#     4  11  24  43  72 101 145 193 239 304 360 446
#     4  11  24  44  69 107 147 187 233 300 384 441
#
# _framework density 26.443961000000002
#
# number of rings (size 3 to 8) (size 9 to 14) (size 15 to 20)
#    0.000    0.889    0.000    6.667    0.000   14.222 
#    0.000    2.222    0.000    1.333    0.000    0.000 
#    0.000    0.000    0.000    0.000    0.000    0.000 
#
# Total GULP energy -201408.209036 kJ/mol
# GULP energy per Si atom -5594.672473 kJ/mol
# Density = 2.638377 g / cm^3
# Si number density = 26.443961 Si / 1000 Ang^3
#
#
#
# Elastic Constant Matrix: (Units=GPa)
#
#
# Indices 1 2 3 4 5 6 
#
# 1 104.1129 56.0234 27.8045 0.0000 0.0000 0.0000
# 2 56.0234 195.5381 53.6589 0.0000 0.0000 0.0000
# 3 27.8045 53.6589 136.7686 0.0000 0.0000 0.0000
# 4 0.0000 0.0000 0.0000 41.7907 0.0000 0.0000
# 5 0.0000 0.0000 0.0000 0.0000 63.9971 0.0000
# 6 0.0000 0.0000 0.0000 0.0000 0.0000 62.9412
#
#
#
# Elastic Compliance Matrix: (Units=1/GPa)
#
#
# Indices 1 2 3 4 5 6 
#
# 1 0.011521 -0.002979 -0.001174 0.000000 0.000000 0.000000
# 2 -0.002979 0.006501 -0.001945 0.000000 0.000000 0.000000
# 3 -0.001174 -0.001945 0.008313 0.000000 0.000000 0.000000
# 4 0.000000 0.000000 0.000000 0.023929 0.000000 0.000000
# 5 0.000000 0.000000 0.000000 0.000000 0.015626 0.000000
# 6 0.000000 0.000000 0.000000 0.000000 0.000000 0.015888
#
#
# Mechanical properties :
#
#
# Convention : Reuss Voigt Hill
#
# Bulk Modulus (GPa) = 70.71670 79.04369 74.88020
# Shear Modulus (GPa) = 50.66523 53.67465 52.16994
#
# Velocity S-wave (km/s) = 4.38190 4.51016 4.44649
# Velocity P-wave (km/s) = 7.23889 7.55500 7.39863
#
# Compressibility (1/GPa) = 0.01414093
#
# Stress axis : x y z
#
# Youngs Moduli (GPa) = 86.79553 153.81418 120.28899
#
# Poissons Ratio (x) = 0.45820 0.14116
# Poissons Ratio (y) = 0.25856 0.23397
# Poissons Ratio (z) = 0.10185 0.29918
#
# Static dielectric constant tensor:
#      x y z
#    x 1.989040 0.000000 0.000000 
#    y 0.000000 2.045150 0.000000 
#    z 0.000000 0.000000 2.120030 
# 
# From -- ./inp_files/4330.got.cif
#   From: 2010.05.17/outbox.cif.g08.bks.cpg/sg56_3_cif.got.tgz:4330.got - 2010.06.03 13:42:01.
