data_PCOD9433052
_publ_section_title
;
Structure prediction by ZEFSAII (Michael W. Deem and Ramdas Pophale) SiO2 
 PCOD9433052
Probable space group: P C C N
;
_chemical_formula_sum "Si O2"
_cell_formula_units_Z 48
_cell_length_a 9.274368
_cell_length_b 12.383462
_cell_length_c 18.350980
_cell_angle_alpha 90.000000
_cell_angle_beta 90.000000
_cell_angle_gamma 90.000000
_cell_volume 2107.587733
_symmetry_space_group_name_H-M "P C C N"
_symmetry_group_IT_number 56
_symmetry_cell_setting 'orthorhombic'
loop_
_space_group_symop_operation_xyz
x,y,z
1/2-x,1/2-y,z
1/2+x,-y,1/2-z
-x,1/2+y,1/2-z
-x,-y,-z
1/2+x,1/2+y,-z
1/2-x,y,1/2+z
x,1/2-y,1/2+z
loop_
_atom_site_type_symbol
_atom_site_label
_atom_site_fract_x
_atom_site_fract_y
_atom_site_fract_z
Si Si1 0.584465 0.759324 0.662527
Si Si2 0.230209 0.945102 0.015248
Si Si3 0.524397 0.133458 0.092819
Si Si4 0.346292 0.649661 0.255132
Si Si5 0.568492 0.833867 0.494551
Si Si6 0.636494 0.065564 0.838301
O O1 0.750000 0.750000 0.685600
O O2 0.494749 0.844777 0.710827
O O3 0.581798 0.793420 0.577733
O O4 0.498329 0.646167 0.671534
O O5 0.371082 0.920064 0.967482
O O6 0.089775 0.886012 0.983945
O O7 0.261233 0.896783 0.095053
O O8 0.184312 0.070977 0.017631
O O9 0.623959 0.166568 0.160623
O O10 0.434890 0.231382 0.058470
O O11 0.424361 0.044491 0.129693
O O12 0.250000 0.750000 0.228335
O O13 0.240304 0.553416 0.231543
#
# Coordination Sequence:
#
# PCOD9433052 Si02
#       6
#     8   8   8   8   8   8
#     4  11  23  43  71 100 137 191 242 291 362 440
#     4  11  23  43  68 107 136 190 240 298 363 425
#     4  12  25  43  73 108 144 190 249 307 364 444
#     4  10  24  48  70  98 142 197 237 292 372 441
#     4  11  24  40  73 102 144 183 246 301 355 437
#     4  11  24  44  69  97 145 186 232 295 367 434
#
# _framework density 22.774851000000002
#
# number of rings (size 3 to 8) (size 9 to 14) (size 15 to 20)
#    0.000    1.000    3.333    3.000    2.333    2.667 
#    9.000    0.000    0.000    0.000    0.000    0.000 
#    0.000    0.000    0.000    0.000    0.000    0.000 
#
# Total GULP energy -268365.407473 kJ/mol
# GULP energy per Si atom -5590.945989 kJ/mol
# Density = 2.272301 g / cm^3
# Si number density = 22.774851 Si / 1000 Ang^3
#
#
#
# Elastic Constant Matrix: (Units=GPa)
#
#
# Indices 1 2 3 4 5 6 
#
# 1 116.9464 51.0329 23.6027 0.0000 0.0000 0.0000
# 2 51.0329 99.0960 6.7333 0.0000 0.0000 0.0000
# 3 23.6027 6.7333 82.3069 0.0000 0.0000 0.0000
# 4 0.0000 0.0000 0.0000 12.1725 0.0000 0.0000
# 5 0.0000 0.0000 0.0000 0.0000 10.4470 0.0000
# 6 0.0000 0.0000 0.0000 0.0000 0.0000 37.2668
#
#
#
# Elastic Compliance Matrix: (Units=1/GPa)
#
#
# Indices 1 2 3 4 5 6 
#
# 1 0.011667 -0.005813 -0.002870 0.000000 0.000000 0.000000
# 2 -0.005813 0.013044 0.000600 0.000000 0.000000 0.000000
# 3 -0.002870 0.000600 0.012924 0.000000 0.000000 0.000000
# 4 0.000000 0.000000 0.000000 0.082153 0.000000 0.000000
# 5 0.000000 0.000000 0.000000 0.000000 0.095721 0.000000
# 6 0.000000 0.000000 0.000000 0.000000 0.000000 0.026834
#
#
# Mechanical properties :
#
#
# Convention : Reuss Voigt Hill
#
# Bulk Modulus (GPa) = 46.58122 51.23190 48.90656
# Shear Modulus (GPa) = 18.82069 26.44262 22.63165
#
# Velocity S-wave (km/s) = 2.87780 3.41111 3.15574
# Velocity P-wave (km/s) = 5.61602 6.16911 5.89905
#
# Compressibility (1/GPa) = 0.02146788
#
# Stress axis : x y z
#
# Youngs Moduli (GPa) = 85.71199 76.66233 77.37776
#
# Poissons Ratio (x) = 0.44566 0.22208
# Poissons Ratio (y) = 0.49827 -0.04642
# Poissons Ratio (z) = 0.24600 -0.04599
#
# Static dielectric constant tensor:
#      x y z
#    x 1.907630 0.000000 0.000000 
#    y 0.000000 1.918410 0.000000 
#    z 0.000000 0.000000 1.849060 
# 
# From -- ./inp_files/14842.got.cif
#   From: 2010.05.17/outbox.cif.g08.bks.cpg/sg56_8_cif.got.tgz:14842.got - 2010.06.03 13:42:01.
