data_PCOD9433633
_publ_section_title
;
Structure prediction by ZEFSAII (Michael W. Deem and Ramdas Pophale) SiO2 
 PCOD9433633
Probable space group: P C C N
;
_chemical_formula_sum "Si O2"
_cell_formula_units_Z 32
_cell_length_a 5.070055
_cell_length_b 12.556646
_cell_length_c 18.521944
_cell_angle_alpha 90.000000
_cell_angle_beta 90.000000
_cell_angle_gamma 90.000000
_cell_volume 1179.160406
_symmetry_space_group_name_H-M "P C C N"
_symmetry_group_IT_number 56
_symmetry_cell_setting 'orthorhombic'
loop_
_space_group_symop_operation_xyz
x,y,z
1/2-x,1/2-y,z
1/2+x,-y,1/2-z
-x,1/2+y,1/2-z
-x,-y,-z
1/2+x,1/2+y,-z
1/2-x,y,1/2+z
x,1/2-y,1/2+z
loop_
_atom_site_type_symbol
_atom_site_label
_atom_site_fract_x
_atom_site_fract_y
_atom_site_fract_z
Si Si1 0.373575 0.634970 0.736262
Si Si2 0.999440 0.828643 0.447133
Si Si3 0.300611 0.123682 0.906125
Si Si4 0.626983 0.530839 0.858201
O O1 0.250000 0.750000 0.725380
O O2 0.591003 0.616413 0.674772
O O3 0.469365 0.624349 0.817859
O O4 0.167731 0.547125 0.710102
O O5 0.750000 0.750000 0.445040
O O6 0.999758 0.884498 0.526100
O O7 0.895819 0.919192 0.390735
O O8 0.250000 0.750000 0.440562
O O9 0.250000 0.250000 0.909841
O O10 0.058122 0.039678 0.911253
#
# Coordination Sequence:
#
# PCOD9433633 Si02
#       4
#     8   8   8   8
#     4  12  26  47  80 118 166 217 284 357 438 522
#     4  11  29  51  79 120 169 226 288 360 432 514
#     4  11  24  49  79 118 160 227 284 359 430 527
#     4  12  27  47  80 119 166 228 287 355 447 521
#
# _framework density 27.137954000000001
#
# number of rings (size 3 to 8) (size 9 to 14) (size 15 to 20)
#    0.000    0.500    5.000    1.500    7.000    5.000 
#    0.000    0.000    0.000    0.000    0.000    0.000 
#    0.000    0.000    0.000    0.000    0.000    0.000 
#
# Total GULP energy -178864.989744 kJ/mol
# GULP energy per Si atom -5589.530930 kJ/mol
# Density = 2.707619 g / cm^3
# Si number density = 27.137954 Si / 1000 Ang^3
#
#
#
# Elastic Constant Matrix: (Units=GPa)
#
#
# Indices 1 2 3 4 5 6 
#
# 1 189.2797 77.0843 76.9481 0.0000 0.0000 0.0000
# 2 77.0843 154.4517 85.3349 0.0000 0.0000 0.0000
# 3 76.9481 85.3349 153.0608 0.0000 0.0000 0.0000
# 4 0.0000 0.0000 0.0000 4.1063 0.0000 0.0000
# 5 0.0000 0.0000 0.0000 0.0000 132.7621 0.0000
# 6 0.0000 0.0000 0.0000 0.0000 0.0000 62.1082
#
#
#
# Elastic Compliance Matrix: (Units=1/GPa)
#
#
# Indices 1 2 3 4 5 6 
#
# 1 0.007160 -0.002290 -0.002323 0.000000 0.000000 0.000000
# 2 -0.002290 0.010089 -0.004474 0.000000 0.000000 0.000000
# 3 -0.002323 -0.004474 0.010195 0.000000 0.000000 0.000000
# 4 0.000000 0.000000 0.000000 0.243530 0.000000 0.000000
# 5 0.000000 0.000000 0.000000 0.000000 0.007532 0.000000
# 6 0.000000 0.000000 0.000000 0.000000 0.000000 0.016101
#
#
# Mechanical properties :
#
#
# Convention : Reuss Voigt Hill
#
# Bulk Modulus (GPa) = 107.85848 108.39187 108.12517
# Shear Modulus (GPa) = 15.82922 56.95696 36.39309
#
# Velocity S-wave (km/s) = 2.41775 4.58623 3.66599
# Velocity P-wave (km/s) = 6.90108 8.25060 7.60583
#
# Compressibility (1/GPa) = 0.00927141
#
# Stress axis : x y z
#
# Youngs Moduli (GPa) = 139.66196 99.11603 98.08496
#
# Poissons Ratio (x) = 0.22699 0.22783
# Poissons Ratio (y) = 0.31985 0.43880
# Poissons Ratio (z) = 0.32441 0.44341
#
# Static dielectric constant tensor:
#      x y z
#    x 2.379430 0.000000 0.000000 
#    y 0.000000 2.773430 0.000000 
#    z 0.000000 0.000000 2.062060 
# 
# From -- ./inp_files/17249.got.cif
#   From: 2010.05.17/outbox.cif.g08.bks.cpg/sg56_9_cif.got.tgz:17249.got - 2010.06.03 13:42:01.
