data_PCOD9433115
_publ_section_title
;
Structure prediction by ZEFSAII (Michael W. Deem and Ramdas Pophale) SiO2 
 PCOD9433115
Probable space group: P C C N
;
_chemical_formula_sum "Si O2"
_cell_formula_units_Z 32
_cell_length_a 28.519502
_cell_length_b 4.758439
_cell_length_c 8.047513
_cell_angle_alpha 90.000000
_cell_angle_beta 90.000000
_cell_angle_gamma 90.000000
_cell_volume 1092.114394
_symmetry_space_group_name_H-M "P C C N"
_symmetry_group_IT_number 56
_symmetry_cell_setting 'orthorhombic'
loop_
_space_group_symop_operation_xyz
x,y,z
1/2-x,1/2-y,z
1/2+x,-y,1/2-z
-x,1/2+y,1/2-z
-x,-y,-z
1/2+x,1/2+y,-z
1/2-x,y,1/2+z
x,1/2-y,1/2+z
loop_
_atom_site_type_symbol
_atom_site_label
_atom_site_fract_x
_atom_site_fract_y
_atom_site_fract_z
Si Si1 0.714654 0.003431 0.987257
Si Si2 0.846100 0.932148 0.794703
Si Si3 0.532888 0.950371 0.732359
Si Si4 0.905048 0.324116 0.015804
O O1 0.750000 0.750000 0.013084
O O2 0.750000 0.250000 0.937548
O O3 0.692764 0.053034 0.169125
O O4 0.675123 0.858605 0.865692
O O5 0.944162 0.399413 0.573771
O O6 0.862251 0.127821 0.947875
O O7 0.889602 0.973007 0.666751
O O8 0.489221 0.146830 0.787616
O O9 0.572646 0.988459 0.871839
#
# Coordination Sequence:
#
# PCOD9433115 Si02
#       4
#     8   8   8   8
#     4  12  29  53  82 117 158 209 266 338 414 490
#     4  11  27  50  82 120 163 212 274 339 409 490
#     4  11  24  46  75 116 166 218 271 332 401 480
#     4  10  25  47  80 121 164 217 274 337 407 482
#
# _framework density 29.300957
#
# number of rings (size 3 to 8) (size 9 to 14) (size 15 to 20)
#    0.000    1.000    0.000    3.750    0.000   22.000 
#    0.000    0.000    0.000    3.000    0.000    0.000 
#    0.000    0.000    0.000    0.000    0.000    0.000 
#
# Total GULP energy -179575.335226 kJ/mol
# GULP energy per Si atom -5611.729226 kJ/mol
# Density = 2.923427 g / cm^3
# Si number density = 29.300957 Si / 1000 Ang^3
#
#
#
# Elastic Constant Matrix: (Units=GPa)
#
#
# Indices 1 2 3 4 5 6 
#
# 1 192.9949 82.6803 59.3703 0.0000 0.0000 0.0000
# 2 82.6803 173.0143 67.1197 0.0000 0.0000 0.0000
# 3 59.3703 67.1197 144.1404 0.0000 0.0000 0.0000
# 4 0.0000 0.0000 0.0000 93.0768 0.0000 0.0000
# 5 0.0000 0.0000 0.0000 0.0000 71.8939 0.0000
# 6 0.0000 0.0000 0.0000 0.0000 0.0000 57.8276
#
#
#
# Elastic Compliance Matrix: (Units=1/GPa)
#
#
# Indices 1 2 3 4 5 6 
#
# 1 0.006795 -0.002638 -0.001570 0.000000 0.000000 0.000000
# 2 -0.002638 0.008078 -0.002675 0.000000 0.000000 0.000000
# 3 -0.001570 -0.002675 0.008830 0.000000 0.000000 0.000000
# 4 0.000000 0.000000 0.000000 0.010744 0.000000 0.000000
# 5 0.000000 0.000000 0.000000 0.000000 0.013909 0.000000
# 6 0.000000 0.000000 0.000000 0.000000 0.000000 0.017293
#
#
# Mechanical properties :
#
#
# Convention : Reuss Voigt Hill
#
# Bulk Modulus (GPa) = 100.64009 103.16557 101.90283
# Shear Modulus (GPa) = 60.43914 64.62496 62.53205
#
# Velocity S-wave (km/s) = 4.54663 4.70143 4.62468
# Velocity P-wave (km/s) = 7.87299 8.04715 7.96055
#
# Compressibility (1/GPa) = 0.00993640
#
# Stress axis : x y z
#
# Youngs Moduli (GPa) = 147.17528 123.78913 113.24778
#
# Poissons Ratio (x) = 0.32653 0.17784
# Poissons Ratio (y) = 0.38822 0.30296
# Poissons Ratio (z) = 0.23111 0.33116
#
# Static dielectric constant tensor:
#      x y z
#    x 2.457950 0.000000 0.000000 
#    y 0.000000 2.203950 0.000000 
#    z 0.000000 0.000000 2.220390 
# 
# From -- ./inp_files/8777.got.cif
#   From: 2010.05.17/outbox.cif.g08.bks.cpg/sg56_5_cif.got.tgz:8777.got - 2010.06.03 13:42:01.
