data_PCOD9433209
_publ_section_title
;
Structure prediction by ZEFSAII (Michael W. Deem and Ramdas Pophale) SiO2 
 PCOD9433209
Probable space group: P C C N
;
_chemical_formula_sum "Si O2"
_cell_formula_units_Z 64
_cell_length_a 11.569626
_cell_length_b 23.121550
_cell_length_c 8.462675
_cell_angle_alpha 90.000000
_cell_angle_beta 90.000000
_cell_angle_gamma 90.000000
_cell_volume 2263.830607
_symmetry_space_group_name_H-M "P C C N"
_symmetry_group_IT_number 56
_symmetry_cell_setting 'orthorhombic'
loop_
_space_group_symop_operation_xyz
x,y,z
1/2-x,1/2-y,z
1/2+x,-y,1/2-z
-x,1/2+y,1/2-z
-x,-y,-z
1/2+x,1/2+y,-z
1/2-x,y,1/2+z
x,1/2-y,1/2+z
loop_
_atom_site_type_symbol
_atom_site_label
_atom_site_fract_x
_atom_site_fract_y
_atom_site_fract_z
Si Si1 0.121646 0.166064 0.314598
Si Si2 0.351358 0.864766 0.213472
Si Si3 0.312539 0.800005 0.929930
Si Si4 0.427226 0.213952 0.159677
Si Si5 0.992551 0.485754 0.182500
Si Si6 0.672017 0.459433 0.068003
Si Si7 0.480278 0.113228 0.377878
Si Si8 0.312135 0.061413 0.637377
O O1 0.991039 0.140498 0.278165
O O2 0.127821 0.225051 0.212766
O O3 0.127850 0.183407 0.501629
O O4 0.212183 0.117037 0.252134
O O5 0.327872 0.857930 0.030550
O O6 0.281967 0.814260 0.299154
O O7 0.287648 0.919399 0.288677
O O8 0.250000 0.750000 0.026546
O O9 0.439343 0.778268 0.890796
O O10 0.448046 0.177434 0.322462
O O11 0.081628 0.504240 0.322857
O O12 0.007002 0.417624 0.206932
O O13 0.883094 0.520069 0.246220
O O14 0.000000 0.500000 0.000000
O O15 0.596304 0.412896 0.963923
O O16 0.742099 0.507700 0.967847
O O17 0.385465 0.093524 0.503154
#
# Coordination Sequence:
#
# PCOD9433209 Si02
#       8
#     8   8   8   8   8   8   8   8
#     4  11  20  31  47  63  90 117 162 201 243 298
#     4  11  22  33  47  59  87 119 170 208 252 278
#     4  11  24  35  45  62  89 129 172 216 242 278
#     4  11  23  31  46  68  91 129 166 202 246 282
#     4   9  15  25  45  65  86 104 142 194 240 291
#     4   9  19  32  48  65  86 116 152 209 255 300
#     4   9  17  28  45  61  86 113 146 190 241 285
#     4   9  17  32  47  67  86 113 148 203 254 301
#
# _framework density 28.270667
#
# number of rings (size 3 to 8) (size 9 to 14) (size 15 to 20)
#    0.000    2.000    3.750    3.375    5.250    0.000 
#    0.000    0.000    0.000    0.000    0.000    0.000 
#    0.000    0.000    0.000    0.000    0.000   33.750 
#
# Total GULP energy -356662.468494 kJ/mol
# GULP energy per Si atom -5572.851070 kJ/mol
# Density = 2.820632 g / cm^3
# Si number density = 28.270667 Si / 1000 Ang^3
#
#
#
# Elastic Constant Matrix: (Units=GPa)
#
#
# Indices 1 2 3 4 5 6 
#
# 1 82.8721 18.6945 45.7130 0.0000 0.0000 0.0000
# 2 18.6945 138.5253 51.0609 0.0000 0.0000 0.0000
# 3 45.7130 51.0609 166.7563 0.0000 0.0000 0.0000
# 4 0.0000 0.0000 0.0000 60.6571 0.0000 0.0000
# 5 0.0000 0.0000 0.0000 0.0000 9.2786 0.0000
# 6 0.0000 0.0000 0.0000 0.0000 0.0000 13.2772
#
#
#
# Elastic Compliance Matrix: (Units=1/GPa)
#
#
# Indices 1 2 3 4 5 6 
#
# 1 0.014253 -0.000545 -0.003740 0.000000 0.000000 0.000000
# 2 -0.000545 0.008158 -0.002349 0.000000 0.000000 0.000000
# 3 -0.003740 -0.002349 0.007741 0.000000 0.000000 0.000000
# 4 0.000000 0.000000 0.000000 0.016486 0.000000 0.000000
# 5 0.000000 0.000000 0.000000 0.000000 0.107775 0.000000
# 6 0.000000 0.000000 0.000000 0.000000 0.000000 0.075317
#
#
# Mechanical properties :
#
#
# Convention : Reuss Voigt Hill
#
# Bulk Modulus (GPa) = 59.22522 68.78786 64.00654
# Shear Modulus (GPa) = 20.11050 34.82160 27.46605
#
# Velocity S-wave (km/s) = 2.67002 3.51340 3.12033
# Velocity P-wave (km/s) = 5.52270 6.39088 5.97258
#
# Compressibility (1/GPa) = 0.01688470
#
# Stress axis : x y z
#
# Youngs Moduli (GPa) = 70.16122 122.57676 129.17738
#
# Poissons Ratio (x) = 0.06678 0.48317
# Poissons Ratio (y) = 0.03822 0.30340
# Poissons Ratio (z) = 0.26243 0.28790
#
# Static dielectric constant tensor:
#      x y z
#    x 2.364440 0.000000 0.000000 
#    y 0.000000 2.533990 0.000000 
#    z 0.000000 0.000000 2.270220 
# 
# From -- ./inp_files/4605.got.cif
#   From: 2010.05.17/outbox.cif.g08.bks.cpg/sg56_3_cif.got.tgz:4605.got - 2010.06.03 13:42:01.
