data_PCOD9433832
_publ_section_title
;
Structure prediction by ZEFSAII (Michael W. Deem and Ramdas Pophale) SiO2 
 PCOD9433832
Probable space group: P C C N
;
_chemical_formula_sum "Si O2"
_cell_formula_units_Z 48
_cell_length_a 17.631234
_cell_length_b 8.771481
_cell_length_c 14.264289
_cell_angle_alpha 90.000000
_cell_angle_beta 90.000000
_cell_angle_gamma 90.000000
_cell_volume 2206.001308
_symmetry_space_group_name_H-M "P C C N"
_symmetry_group_IT_number 56
_symmetry_cell_setting 'orthorhombic'
loop_
_space_group_symop_operation_xyz
x,y,z
1/2-x,1/2-y,z
1/2+x,-y,1/2-z
-x,1/2+y,1/2-z
-x,-y,-z
1/2+x,1/2+y,-z
1/2-x,y,1/2+z
x,1/2-y,1/2+z
loop_
_atom_site_type_symbol
_atom_site_label
_atom_site_fract_x
_atom_site_fract_y
_atom_site_fract_z
Si Si1 0.156320 0.580716 0.199704
Si Si2 0.767345 0.423083 0.473202
Si Si3 0.404592 0.907941 0.756099
Si Si4 0.566553 0.554612 0.932897
Si Si5 0.471520 0.399113 0.588267
Si Si6 0.261223 0.073295 0.840357
O O1 0.224575 0.566270 0.125363
O O2 0.130825 0.753396 0.215207
O O3 0.087565 0.491974 0.151781
O O4 0.188903 0.513791 0.296206
O O5 0.750000 0.250000 0.506513
O O6 0.854403 0.473721 0.461500
O O7 0.732615 0.534414 0.550490
O O8 0.457243 0.867771 0.843968
O O9 0.447749 0.997669 0.673423
O O10 0.336680 0.014188 0.790922
O O11 0.566666 0.738072 0.938811
O O12 0.500000 0.500000 0.000000
O O13 0.500000 0.500000 0.500000
O O14 0.250000 0.250000 0.823485
#
# Coordination Sequence:
#
# PCOD9433832 Si02
#       6
#     8   8   8   8   8   8
#     4  12  25  50  76 108 149 204 256 324 391 475
#     4  12  26  48  78 107 150 200 265 319 388 473
#     4  12  25  52  74 110 153 205 258 312 404 473
#     4  12  28  47  75 111 152 203 261 323 398 477
#     4  12  29  46  77 112 160 200 258 326 399 481
#     4  12  28  43  75 110 147 193 257 323 389 465
#
# _framework density 21.758825999999999
#
# number of rings (size 3 to 8) (size 9 to 14) (size 15 to 20)
#    0.000    0.000    3.333    5.500   11.667    0.000 
#    0.000    0.000    0.000    0.000    0.000    0.000 
#    0.000    0.000    0.000    0.000    0.000    0.000 
#
# Total GULP energy -268882.767411 kJ/mol
# GULP energy per Si atom -5601.724321 kJ/mol
# Density = 2.170930 g / cm^3
# Si number density = 21.758826 Si / 1000 Ang^3
#
#
#
# Elastic Constant Matrix: (Units=GPa)
#
#
# Indices 1 2 3 4 5 6 
#
# 1 128.7558 61.6117 47.3539 0.0000 0.0000 0.0000
# 2 61.6117 166.4985 31.7700 0.0000 0.0000 0.0000
# 3 47.3539 31.7700 105.3687 0.0000 0.0000 0.0000
# 4 0.0000 0.0000 0.0000 31.3862 0.0000 0.0000
# 5 0.0000 0.0000 0.0000 0.0000 44.5197 0.0000
# 6 0.0000 0.0000 0.0000 0.0000 0.0000 42.6458
#
#
#
# Elastic Compliance Matrix: (Units=1/GPa)
#
#
# Indices 1 2 3 4 5 6 
#
# 1 0.010730 -0.003237 -0.003846 0.000000 0.000000 0.000000
# 2 -0.003237 0.007349 -0.000761 0.000000 0.000000 0.000000
# 3 -0.003846 -0.000761 0.011449 0.000000 0.000000 0.000000
# 4 0.000000 0.000000 0.000000 0.031861 0.000000 0.000000
# 5 0.000000 0.000000 0.000000 0.000000 0.022462 0.000000
# 6 0.000000 0.000000 0.000000 0.000000 0.000000 0.023449
#
#
# Mechanical properties :
#
#
# Convention : Reuss Voigt Hill
#
# Bulk Modulus (GPa) = 72.25830 75.78824 74.02327
# Shear Modulus (GPa) = 39.18462 41.03619 40.11041
#
# Velocity S-wave (km/s) = 4.24826 4.34747 4.29815
# Velocity P-wave (km/s) = 7.57261 7.75289 7.66328
#
# Compressibility (1/GPa) = 0.01383924
#
# Stress axis : x y z
#
# Youngs Moduli (GPa) = 93.19645 136.07265 87.34712
#
# Poissons Ratio (x) = 0.44042 0.33596
# Poissons Ratio (y) = 0.30164 0.06649
# Poissons Ratio (z) = 0.35846 0.10358
#
# Static dielectric constant tensor:
#      x y z
#    x 1.789930 0.000000 0.000000 
#    y 0.000000 1.813700 0.000000 
#    z 0.000000 0.000000 1.797050 
# 
# From -- ./inp_files/12707.got.cif
#   From: 2010.05.17/outbox.cif.g08.bks.cpg/sg56_7_cif.got.tgz:12707.got - 2010.06.03 13:42:01.
