data_PCOD9433974
_publ_section_title
;
Structure prediction by ZEFSAII (Michael W. Deem and Ramdas Pophale) SiO2 
 PCOD9433974
Probable space group: P B C M
;
_chemical_formula_sum "Si O2"
_cell_formula_units_Z 48
_cell_length_a 28.639339
_cell_length_b 5.389159
_cell_length_c 14.516111
_cell_angle_alpha 90.000000
_cell_angle_beta 90.000000
_cell_angle_gamma 90.000000
_cell_volume 2240.444900
_symmetry_space_group_name_H-M "P B C M"
_symmetry_group_IT_number 57
_symmetry_cell_setting 'orthorhombic'
loop_
_space_group_symop_operation_xyz
x,y,z
-x,-y,1/2+z
x,1/2-y,-z
-x,1/2+y,1/2-z
-x,-y,-z
x,y,1/2-z
-x,1/2+y,z
x,1/2-y,1/2+z
loop_
_atom_site_type_symbol
_atom_site_label
_atom_site_fract_x
_atom_site_fract_y
_atom_site_fract_z
Si Si1 0.482394 0.190680 0.605219
Si Si2 0.226567 0.500903 0.938665
Si Si3 0.673325 0.087839 0.859510
Si Si4 0.376231 0.089543 0.637792
Si Si5 0.980049 0.000689 0.892976
Si Si6 0.875352 0.500368 0.061313
O O1 0.496639 0.250000 0.500000
O O2 0.486519 0.468173 0.646485
O O3 0.430013 0.087584 0.608874
O O4 0.272392 0.536654 0.878129
O O5 0.175477 0.490431 0.890797
O O6 0.225389 0.750000 0.000000
O O7 0.231115 0.250000 0.000000
O O8 0.666360 0.095195 0.750000
O O9 0.653475 0.351112 0.894612
O O10 0.645365 0.849284 0.895182
O O11 0.375257 0.089657 0.750000
O O12 0.924283 0.002787 0.886700
O O13 0.000346 0.249904 0.852461
O O14 0.000000 0.000000 0.000000
O O15 0.876247 0.250000 0.000000
O O16 0.877120 0.750000 0.000000
#
# Coordination Sequence:
#
# PCOD9433974 Si02
#       6
#     8   8   8   8   8   8
#     4  10  21  36  53  78 110 138 164 199 249 303
#     4  10  21  33  50  74 103 131 165 214 260 303
#     4  10  21  38  55  75 103 135 175 215 258 308
#     4  10  21  36  57  79 100 133 175 216 250 295
#     4  10  14  20  34  53  81 121 154 181 235 300
#     4  10  16  25  37  59  90 123 152 197 243 295
#
# _framework density 21.424318
#
# number of rings (size 3 to 8) (size 9 to 14) (size 15 to 20)
#    0.000    2.000    3.333    2.000    0.000    2.667 
#    0.000    0.000    0.000    0.000    0.000    0.000 
#    0.000    1.333    0.000    0.000    0.000    6.667 
#
# Total GULP energy -267707.853742 kJ/mol
# GULP energy per Si atom -5577.246953 kJ/mol
# Density = 2.137555 g / cm^3
# Si number density = 21.424318 Si / 1000 Ang^3
#
#
#
# Elastic Constant Matrix: (Units=GPa)
#
#
# Indices 1 2 3 4 5 6 
#
# 1 159.1476 58.1563 -10.1050 0.0000 0.0000 0.0000
# 2 58.1563 213.7988 15.4056 0.0000 0.0000 0.0000
# 3 -10.1050 15.4056 42.5100 0.0000 0.0000 0.0000
# 4 0.0000 0.0000 0.0000 -5.9077 0.0000 0.0000
# 5 0.0000 0.0000 0.0000 0.0000 28.1261 0.0000
# 6 0.0000 0.0000 0.0000 0.0000 0.0000 44.8623
#
#
#
# Elastic Compliance Matrix: (Units=1/GPa)
#
#
# Indices 1 2 3 4 5 6 
#
# 1 0.007226 -0.002145 0.002495 0.000000 0.000000 0.000000
# 2 -0.002145 0.005440 -0.002481 0.000000 0.000000 0.000000
# 3 0.002495 -0.002481 0.025016 0.000000 0.000000 0.000000
# 4 0.000000 0.000000 0.000000 -0.169271 0.000000 0.000000
# 5 0.000000 0.000000 0.000000 0.000000 0.035554 0.000000
# 6 0.000000 0.000000 0.000000 0.000000 0.000000 0.022290
#
#
# Mechanical properties :
#
#
# Convention : Reuss Voigt Hill
#
# Bulk Modulus (GPa) = 29.92336 60.26334 45.09335
# Shear Modulus (GPa) = -85.70135 36.88276 -24.40930
#
# Velocity S-wave (km/s) = -6.33157 4.15364 -3.37905
# Velocity P-wave (km/s) = 6.28127 7.15494 2.42269
#
# Compressibility (1/GPa) = 0.03341871
#
# Stress axis : x y z
#
# Youngs Moduli (GPa) = 138.39194 183.83549 39.97410
#
# Poissons Ratio (x) = 0.39439 -0.09974
# Poissons Ratio (y) = 0.29690 0.09919
# Poissons Ratio (z) = -0.34530 0.45615
#
# Static dielectric constant tensor:
#      x y z
#    x 1.777980 0.000000 0.000000 
#    y 0.000000 1.804570 0.000000 
#    z 0.000000 0.000000 1.784200 
# 
# From -- ./inp_files/19576.got.cif
#   From: 2010.05.17/outbox.cif.g08.bks.cpg/sg57_10_cif.got.tgz:19576.got - 2010.06.03 13:58:18.
