data_PCOD9433608
_publ_section_title
;
Structure prediction by ZEFSAII (Michael W. Deem and Ramdas Pophale) SiO2 
 PCOD9433608
Probable space group: P C C N
;
_chemical_formula_sum "Si O2"
_cell_formula_units_Z 36
_cell_length_a 6.441246
_cell_length_b 20.557188
_cell_length_c 13.130135
_cell_angle_alpha 90.000000
_cell_angle_beta 90.000000
_cell_angle_gamma 90.000000
_cell_volume 1738.612448
_symmetry_space_group_name_H-M "P C C N"
_symmetry_group_IT_number 56
_symmetry_cell_setting 'orthorhombic'
loop_
_space_group_symop_operation_xyz
x,y,z
1/2-x,1/2-y,z
1/2+x,-y,1/2-z
-x,1/2+y,1/2-z
-x,-y,-z
1/2+x,1/2+y,-z
1/2-x,y,1/2+z
x,1/2-y,1/2+z
loop_
_atom_site_type_symbol
_atom_site_label
_atom_site_fract_x
_atom_site_fract_y
_atom_site_fract_z
Si Si1 0.345496 0.906844 0.742360
Si Si2 0.761159 0.648617 0.639031
Si Si3 0.250000 0.250000 0.539388
Si Si4 0.496288 0.978753 0.116540
Si Si5 0.066285 0.795882 0.795905
O O1 0.512597 0.860274 0.687847
O O2 0.184547 0.864776 0.810644
O O3 0.213870 0.944562 0.656204
O O4 0.458817 0.959426 0.812474
O O5 0.746644 0.686962 0.533106
O O6 0.671591 0.576144 0.629558
O O7 0.611224 0.687968 0.714849
O O8 0.451927 0.238760 0.609937
O O9 0.500000 0.000000 0.000000
O O10 0.250000 0.750000 0.757371
#
# Coordination Sequence:
#
# PCOD9433608 Si02
#       5
#     8   8   4   8   8
#     4  11  24  47  69 103 146 180 233 297 352 424
#     4  11  26  47  68 105 142 183 232 293 353 425
#     4  12  26  42  72 102 132 182 240 284 356 426
#     4  11  26  42  72 105 142 187 236 288 361 422
#     4  11  26  45  70  97 139 180 229 292 349 414
#
# _framework density 20.706167000000001
#
# number of rings (size 3 to 8) (size 9 to 14) (size 15 to 20)
#    0.000    0.889    2.222    3.333    9.333    3.556 
#    0.000    0.000    0.000    0.000    0.000    0.000 
#    0.000    0.000    0.000    0.000    0.000    0.000 
#
# Total GULP energy -201209.002953 kJ/mol
# GULP energy per Si atom -5589.138971 kJ/mol
# Density = 2.065904 g / cm^3
# Si number density = 20.706167 Si / 1000 Ang^3
#
#
#
# Elastic Constant Matrix: (Units=GPa)
#
#
# Indices 1 2 3 4 5 6 
#
# 1 146.0458 62.2651 64.6611 0.0000 0.0000 0.0000
# 2 62.2651 109.1768 52.3802 0.0000 0.0000 0.0000
# 3 64.6611 52.3802 112.6461 0.0000 0.0000 0.0000
# 4 0.0000 0.0000 0.0000 38.5721 0.0000 0.0000
# 5 0.0000 0.0000 0.0000 0.0000 2.7243 0.0000
# 6 0.0000 0.0000 0.0000 0.0000 0.0000 55.2124
#
#
#
# Elastic Compliance Matrix: (Units=1/GPa)
#
#
# Indices 1 2 3 4 5 6 
#
# 1 0.010341 -0.003925 -0.004110 0.000000 0.000000 0.000000
# 2 -0.003925 0.013280 -0.003922 0.000000 0.000000 0.000000
# 3 -0.004110 -0.003922 0.013060 0.000000 0.000000 0.000000
# 4 0.000000 0.000000 0.000000 0.025925 0.000000 0.000000
# 5 0.000000 0.000000 0.000000 0.000000 0.367072 0.000000
# 6 0.000000 0.000000 0.000000 0.000000 0.000000 0.018112
#
#
# Mechanical properties :
#
#
# Convention : Reuss Voigt Hill
#
# Bulk Modulus (GPa) = 78.33545 80.72016 79.52781
# Shear Modulus (GPa) = 10.50507 31.87256 21.18882
#
# Velocity S-wave (km/s) = 2.25486 3.92762 3.20239
# Velocity P-wave (km/s) = 6.68530 7.72247 7.22253
#
# Compressibility (1/GPa) = 0.01276561
#
# Stress axis : x y z
#
# Youngs Moduli (GPa) = 96.70666 75.30293 76.56687
#
# Poissons Ratio (x) = 0.29559 0.31472
# Poissons Ratio (y) = 0.37960 0.30028
# Poissons Ratio (z) = 0.39751 0.29533
#
# Static dielectric constant tensor:
#      x y z
#    x 1.744020 0.000000 0.000000 
#    y 0.000000 1.779240 0.000000 
#    z 0.000000 0.000000 1.709510 
# 
# From -- ./inp_files/5537.got.cif
#   From: 2010.05.17/outbox.cif.g08.bks.cpg/sg56_3_cif.got.tgz:5537.got - 2010.06.03 13:42:01.
