data_PCOD9433106
_publ_section_title
;
Structure prediction by ZEFSAII (Michael W. Deem and Ramdas Pophale) SiO2 
 PCOD9433106
Probable space group: P C C N
;
_chemical_formula_sum "Si O2"
_cell_formula_units_Z 40
_cell_length_a 17.880582
_cell_length_b 5.140094
_cell_length_c 17.658472
_cell_angle_alpha 90.000000
_cell_angle_beta 90.000000
_cell_angle_gamma 90.000000
_cell_volume 1622.952589
_symmetry_space_group_name_H-M "P C C N"
_symmetry_group_IT_number 56
_symmetry_cell_setting 'orthorhombic'
loop_
_space_group_symop_operation_xyz
x,y,z
1/2-x,1/2-y,z
1/2+x,-y,1/2-z
-x,1/2+y,1/2-z
-x,-y,-z
1/2+x,1/2+y,-z
1/2-x,y,1/2+z
x,1/2-y,1/2+z
loop_
_atom_site_type_symbol
_atom_site_label
_atom_site_fract_x
_atom_site_fract_y
_atom_site_fract_z
Si Si1 0.250000 0.750000 0.573250
Si Si2 0.475634 0.201985 0.561572
Si Si3 0.371742 0.518200 0.472353
Si Si4 0.023838 0.695025 0.285732
Si Si5 0.680586 0.446738 0.688283
Si Si6 0.750000 0.750000 0.316765
O O1 0.321481 0.730409 0.516298
O O2 0.255746 0.500061 0.628346
O O3 0.396506 0.315910 0.536976
O O4 0.546182 0.400072 0.558815
O O5 0.481168 0.071206 0.642703
O O6 0.500000 0.000000 0.500000
O O7 0.328781 0.432803 0.396155
O O8 0.109503 0.763755 0.297840
O O9 0.015101 0.473901 0.223973
O O10 0.750000 0.250000 0.689969
O O11 0.687094 0.659462 0.754967
#
# Coordination Sequence:
#
# PCOD9433106 Si02
#       6
#     4   8   8   8   8   4
#     4  12  28  48  74 116 144 204 250 332 380 464
#     4  10  25  46  76 108 147 197 262 314 379 465
#     4  10  25  48  76 107 149 202 254 319 384 470
#     4  11  29  47  78 111 154 204 254 319 390 458
#     4  11  26  51  74 109 156 204 256 314 394 472
#     4  12  30  46  76 108 156 192 258 312 396 454
#
# _framework density 24.646438
#
# number of rings (size 3 to 8) (size 9 to 14) (size 15 to 20)
#    0.000    1.200    2.000    0.000   19.600    2.400 
#    0.000    0.000    0.000    0.000    0.000    0.000 
#    0.000    0.000    0.000    0.000    0.000    0.000 
#
# Total GULP energy -223397.806417 kJ/mol
# GULP energy per Si atom -5584.945160 kJ/mol
# Density = 2.459034 g / cm^3
# Si number density = 24.646438 Si / 1000 Ang^3
#
#
#
# Elastic Constant Matrix: (Units=GPa)
#
#
# Indices 1 2 3 4 5 6 
#
# 1 125.6657 41.2691 50.1514 0.0000 0.0000 0.0000
# 2 41.2691 95.9299 34.1325 0.0000 0.0000 0.0000
# 3 50.1514 34.1325 132.5781 0.0000 0.0000 0.0000
# 4 0.0000 0.0000 0.0000 195.1884 0.0000 0.0000
# 5 0.0000 0.0000 0.0000 0.0000 39.3293 0.0000
# 6 0.0000 0.0000 0.0000 0.0000 0.0000 35.0061
#
#
#
# Elastic Compliance Matrix: (Units=1/GPa)
#
#
# Indices 1 2 3 4 5 6 
#
# 1 0.010260 -0.003339 -0.003022 0.000000 0.000000 0.000000
# 2 -0.003339 0.012562 -0.001971 0.000000 0.000000 0.000000
# 3 -0.003022 -0.001971 0.009193 0.000000 0.000000 0.000000
# 4 0.000000 0.000000 0.000000 0.005123 0.000000 0.000000
# 5 0.000000 0.000000 0.000000 0.000000 0.025426 0.000000
# 6 0.000000 0.000000 0.000000 0.000000 0.000000 0.028566
#
#
# Mechanical properties :
#
#
# Convention : Reuss Voigt Hill
#
# Bulk Modulus (GPa) = 65.13709 67.25328 66.19518
# Shear Modulus (GPa) = 44.28254 69.14614 56.71434
#
# Velocity S-wave (km/s) = 4.24336 5.30246 4.80220
# Velocity P-wave (km/s) = 7.10592 8.05200 7.59371
#
# Compressibility (1/GPa) = 0.01535224
#
# Stress axis : x y z
#
# Youngs Moduli (GPa) = 97.46659 79.60553 108.77629
#
# Poissons Ratio (x) = 0.26578 0.32867
# Poissons Ratio (y) = 0.32542 0.21441
# Poissons Ratio (z) = 0.29450 0.15691
#
# Static dielectric constant tensor:
#      x y z
#    x 2.077080 0.000000 0.000000 
#    y 0.000000 2.033180 0.000000 
#    z 0.000000 0.000000 2.066030 
# 
# From -- ./inp_files/16498.got.cif
#   From: 2010.05.17/outbox.cif.g08.bks.cpg/sg56_9_cif.got.tgz:16498.got - 2010.06.03 13:42:01.
