data_PCOD9433954
_publ_section_title
;
Structure prediction by ZEFSAII (Michael W. Deem and Ramdas Pophale) SiO2 
 PCOD9433954
Probable space group: P C C N
;
_chemical_formula_sum "Si O2"
_cell_formula_units_Z 48
_cell_length_a 6.000000
_cell_length_b 15.000000
_cell_length_c 27.000000
_cell_angle_alpha 90.000000
_cell_angle_beta 90.000000
_cell_angle_gamma 90.000000
_cell_volume 2430.000000
_symmetry_space_group_name_H-M "P C C N"
_symmetry_group_IT_number 56
_symmetry_cell_setting 'orthorhombic'
loop_
_space_group_symop_operation_xyz
x,y,z
1/2-x,1/2-y,z
1/2+x,-y,1/2-z
-x,1/2+y,1/2-z
-x,-y,-z
1/2+x,1/2+y,-z
1/2-x,y,1/2+z
x,1/2-y,1/2+z
loop_
_atom_site_type_symbol
_atom_site_label
_atom_site_fract_x
_atom_site_fract_y
_atom_site_fract_z
Si Si1 0.417377 0.400424 0.514060
Si Si2 0.750000 0.250000 0.474750
Si Si3 0.930793 0.607777 0.282285
Si Si4 0.624668 0.843047 0.579970
Si Si5 0.250000 0.750000 0.826134
Si Si6 0.937502 0.601455 0.868441
Si Si7 0.246548 0.452375 0.322609
O O1 0.500000 0.500000 0.500000
O O2 0.588785 0.316476 0.505978
O O3 0.234845 0.383266 0.470541
O O4 0.361287 0.401665 0.573556
O O5 0.619345 0.183136 0.438380
O O6 0.748629 0.615754 0.326159
O O7 0.843573 0.600382 0.225549
O O8 0.091628 0.691429 0.291081
O O9 0.069844 0.519149 0.296825
O O10 0.750000 0.750000 0.589680
O O11 0.640853 0.898384 0.630981
O O12 0.390017 0.817344 0.860409
O O13 0.065269 0.512075 0.850316
#
# Coordination Sequence:
#
# PCOD9433954 Si02
#       7
#     8   4   8   8   4   8   8
#     4  11  23  42  70  99 134 176 221 270 336 400
#     4  10  25  44  65 100 140 172 220 278 332 406
#     4  11  24  43  68  97 131 170 223 277 329 390
#     4  10  24  43  65 100 133 174 221 269 333 403
#     4  10  25  42  67  96 128 180 212 274 342 390
#     4  11  23  43  67  98 132 169 225 272 331 397
#     4  11  23  43  66  96 132 173 225 272 331 396
#
# _framework density 19.753086
#
# number of rings (size 3 to 8) (size 9 to 14) (size 15 to 20)
#    0.000    1.333    3.333    1.000    2.333    8.667 
#    0.000    1.667    0.000    0.000    0.000    0.000 
#    0.000    0.000    0.000    0.000    0.000    0.000 
#
# Total GULP energy -267766.168264 kJ/mol
# GULP energy per Si atom -5578.461839 kJ/mol
# Density = 1.970813 g / cm^3
# Si number density = 19.753086 Si / 1000 Ang^3
#
#
#
# Elastic Constant Matrix: (Units=GPa)
#
#
# Indices 1 2 3 4 5 6 
#
# 1 68.4293 27.0781 52.5679 0.0000 0.0000 0.0000
# 2 27.0781 88.9663 51.9691 0.0000 0.0000 0.0000
# 3 52.5679 51.9691 217.0743 0.0000 0.0000 0.0000
# 4 0.0000 0.0000 0.0000 23.2522 0.0000 0.0000
# 5 0.0000 0.0000 0.0000 0.0000 18.0207 0.0000
# 6 0.0000 0.0000 0.0000 0.0000 0.0000 28.4830
#
#
#
# Elastic Compliance Matrix: (Units=1/GPa)
#
#
# Indices 1 2 3 4 5 6 
#
# 1 0.018884 -0.003576 -0.003717 0.000000 0.000000 0.000000
# 2 -0.003576 0.013745 -0.002425 0.000000 0.000000 0.000000
# 3 -0.003717 -0.002425 0.006087 0.000000 0.000000 0.000000
# 4 0.000000 0.000000 0.000000 0.043007 0.000000 0.000000
# 5 0.000000 0.000000 0.000000 0.000000 0.055492 0.000000
# 6 0.000000 0.000000 0.000000 0.000000 0.000000 0.035109
#
#
# Mechanical properties :
#
#
# Convention : Reuss Voigt Hill
#
# Bulk Modulus (GPa) = 51.86533 70.85556 61.36044
# Shear Modulus (GPa) = 25.22878 30.14150 27.68514
#
# Velocity S-wave (km/s) = 3.57768 3.91053 3.74780
# Velocity P-wave (km/s) = 6.58637 7.50588 7.06110
#
# Compressibility (1/GPa) = 0.01928070
#
# Stress axis : x y z
#
# Youngs Moduli (GPa) = 52.95441 72.75343 164.27727
#
# Poissons Ratio (x) = 0.26020 0.61060
# Poissons Ratio (y) = 0.18939 0.39830
# Poissons Ratio (z) = 0.19682 0.17640
#
# Static dielectric constant tensor:
#      x y z
#    x 1.783450 0.000000 0.000000 
#    y 0.000000 1.714260 0.000000 
#    z 0.000000 0.000000 1.648950 
# 
# From -- ./inp_files/21713.got.cif
#   From: 2010.05.17/outbox.ucp.g08.bks.cvg/sg56_11_cif.got.tgz:21713.got - 2010.06.11 16:37:52.
