data_PCOD9433921
_publ_section_title
;
Structure prediction by ZEFSAII (Michael W. Deem and Ramdas Pophale) SiO2 
 PCOD9433921
Probable space group: P C C N
;
_chemical_formula_sum "Si O2"
_cell_formula_units_Z 52
_cell_length_a 9.000000
_cell_length_b 15.000000
_cell_length_c 21.000000
_cell_angle_alpha 90.000000
_cell_angle_beta 90.000000
_cell_angle_gamma 90.000000
_cell_volume 2835.000000
_symmetry_space_group_name_H-M "P C C N"
_symmetry_group_IT_number 56
_symmetry_cell_setting 'orthorhombic'
loop_
_space_group_symop_operation_xyz
x,y,z
1/2-x,1/2-y,z
1/2+x,-y,1/2-z
-x,1/2+y,1/2-z
-x,-y,-z
1/2+x,1/2+y,-z
1/2-x,y,1/2+z
x,1/2-y,1/2+z
loop_
_atom_site_type_symbol
_atom_site_label
_atom_site_fract_x
_atom_site_fract_y
_atom_site_fract_z
Si Si1 0.143637 0.972728 0.069584
Si Si2 0.311650 0.059404 0.811620
Si Si3 0.250000 0.250000 0.366688
Si Si4 0.171594 0.944764 0.699218
Si Si5 0.455600 0.729400 0.071724
Si Si6 0.250000 0.750000 0.690124
Si Si7 0.171840 0.946006 0.926243
Si Si8 0.750000 0.250000 0.539794
O O1 0.257464 0.965212 0.128919
O O2 0.065658 0.875821 0.064212
O O3 0.207526 0.983138 0.997915
O O4 0.006428 0.039496 0.082053
O O5 0.253909 0.160246 0.824581
O O6 0.491655 0.057073 0.804168
O O7 0.233327 0.016550 0.749562
O O8 0.258356 0.000863 0.872334
O O9 0.381822 0.258415 0.416373
O O10 0.233465 0.846735 0.721962
O O11 0.383863 0.750640 0.139871
O O12 0.379627 0.773628 0.011099
O O13 0.209768 0.840500 0.923837
#
# Coordination Sequence:
#
# PCOD9433921 Si02
#       8
#     8   8   4   8   8   4   8   4
#     4   9  19  39  65  87 123 159 209 251 310 364
#     4  12  26  39  63  93 127 161 210 258 306 370
#     4  12  22  38  60  92 120 162 214 260 290 364
#     4  11  24  41  62  92 123 167 205 256 311 369
#     4   9  17  35  60  87 115 159 207 250 293 368
#     4   9  18  37  64  80 110 162 204 242 302 366
#     4  10  20  38  62  93 122 161 203 258 304 376
#     4   9  20  37  60  90 128 162 202 246 326 372
#
# _framework density 18.342151999999999
#
# number of rings (size 3 to 8) (size 9 to 14) (size 15 to 20)
#    0.000    1.846    3.077    1.846    2.154    1.231 
#    0.000    1.538    0.000    0.923    0.000    0.000 
#    0.000    0.000    0.000    0.000    0.000    0.000 
#
# Total GULP energy -289640.042727 kJ/mol
# GULP energy per Si atom -5570.000822 kJ/mol
# Density = 1.830040 g / cm^3
# Si number density = 18.342152 Si / 1000 Ang^3
#
#
#
# Elastic Constant Matrix: (Units=GPa)
#
#
# Indices 1 2 3 4 5 6 
#
# 1 35.5818 25.5068 -7.6065 0.0000 0.0000 0.0000
# 2 25.5068 118.9629 37.4174 0.0000 0.0000 0.0000
# 3 -7.6065 37.4174 69.2350 0.0000 0.0000 0.0000
# 4 0.0000 0.0000 0.0000 15.0203 0.0000 0.0000
# 5 0.0000 0.0000 0.0000 0.0000 33.6099 0.0000
# 6 0.0000 0.0000 0.0000 0.0000 0.0000 26.0787
#
#
#
# Elastic Compliance Matrix: (Units=1/GPa)
#
#
# Indices 1 2 3 4 5 6 
#
# 1 0.038667 -0.011598 0.010516 0.000000 0.000000 0.000000
# 2 -0.011598 0.013606 -0.008628 0.000000 0.000000 0.000000
# 3 0.010516 -0.008628 0.020262 0.000000 0.000000 0.000000
# 4 0.000000 0.000000 0.000000 0.066576 0.000000 0.000000
# 5 0.000000 0.000000 0.000000 0.000000 0.029753 0.000000
# 6 0.000000 0.000000 0.000000 0.000000 0.000000 0.038346
#
#
# Mechanical properties :
#
#
# Convention : Reuss Voigt Hill
#
# Bulk Modulus (GPa) = 18.82695 37.15724 27.99210
# Shear Modulus (GPa) = 20.46379 26.17258 23.31818
#
# Velocity S-wave (km/s) = 3.34379 3.78154 3.56938
# Velocity P-wave (km/s) = 5.01941 6.27444 5.68168
#
# Compressibility (1/GPa) = 0.05311535
#
# Stress axis : x y z
#
# Youngs Moduli (GPa) = 25.86217 73.49486 49.35430
#
# Poissons Ratio (x) = 0.85240 -0.51902
# Poissons Ratio (y) = 0.29995 0.42581
# Poissons Ratio (z) = -0.27197 0.63409
#
# Static dielectric constant tensor:
#      x y z
#    x 1.634110 0.000000 0.000000 
#    y 0.000000 1.670920 0.000000 
#    z 0.000000 0.000000 1.650490 
# 
# From -- ./inp_files/18180.got.cif
#   From: 2010.05.17/outbox.ucp.g08.bks.cvg/sg56_10_cif.got.tgz:18180.got - 2010.06.11 16:37:52.
