data_PCOD9433393
_publ_section_title
;
Structure prediction by ZEFSAII (Michael W. Deem and Ramdas Pophale) SiO2 
 PCOD9433393
Probable space group: P C C N
;
_chemical_formula_sum "Si O2"
_cell_formula_units_Z 32
_cell_length_a 22.143305
_cell_length_b 5.127049
_cell_length_c 9.692334
_cell_angle_alpha 90.000000
_cell_angle_beta 90.000000
_cell_angle_gamma 90.000000
_cell_volume 1100.368835
_symmetry_space_group_name_H-M "P C C N"
_symmetry_group_IT_number 56
_symmetry_cell_setting 'orthorhombic'
loop_
_space_group_symop_operation_xyz
x,y,z
1/2-x,1/2-y,z
1/2+x,-y,1/2-z
-x,1/2+y,1/2-z
-x,-y,-z
1/2+x,1/2+y,-z
1/2-x,y,1/2+z
x,1/2-y,1/2+z
loop_
_atom_site_type_symbol
_atom_site_label
_atom_site_fract_x
_atom_site_fract_y
_atom_site_fract_z
Si Si1 0.593014 0.433564 0.321236
Si Si2 0.831634 0.238258 0.991766
Si Si3 0.314892 0.249020 0.826376
Si Si4 0.528114 0.271750 0.552518
O O1 0.595011 0.246867 0.473546
O O2 0.621750 0.702601 0.254369
O O3 0.532525 0.548708 0.414851
O O4 0.557362 0.270823 0.205356
O O5 0.818017 0.484368 0.084366
O O6 0.812499 0.971022 0.053493
O O7 0.831792 0.317518 0.832571
O O8 0.250000 0.250000 0.751318
O O9 0.500000 0.000000 0.500000
#
# Coordination Sequence:
#
# PCOD9433393 Si02
#       4
#     8   8   8   8
#     4   9  22  44  71 108 154 190 256 312 373 466
#     4   9  23  42  67 105 146 184 246 302 362 447
#     4  11  22  44  71 104 141 197 243 311 375 441
#     4   9  20  44  70 109 148 199 237 311 377 450
#
# _framework density 29.081161000000002
#
# number of rings (size 3 to 8) (size 9 to 14) (size 15 to 20)
#    1.500    1.000    0.000    0.750    0.000    7.000 
#    4.500    8.750    0.000    1.500    0.000    0.000 
#    0.000    0.000    0.000    0.000    0.000    0.000 
#
# Total GULP energy -178249.281858 kJ/mol
# GULP energy per Si atom -5570.290058 kJ/mol
# Density = 2.901497 g / cm^3
# Si number density = 29.081161 Si / 1000 Ang^3
#
#
#
# Elastic Constant Matrix: (Units=GPa)
#
#
# Indices 1 2 3 4 5 6 
#
# 1 229.7721 55.4158 47.8638 0.0000 0.0000 0.0000
# 2 55.4158 160.8899 33.0859 0.0000 0.0000 0.0000
# 3 47.8638 33.0859 121.4607 0.0000 0.0000 0.0000
# 4 0.0000 0.0000 0.0000 35.1461 0.0000 0.0000
# 5 0.0000 0.0000 0.0000 0.0000 27.6867 0.0000
# 6 0.0000 0.0000 0.0000 0.0000 0.0000 47.0614
#
#
#
# Elastic Compliance Matrix: (Units=1/GPa)
#
#
# Indices 1 2 3 4 5 6 
#
# 1 0.005023 -0.001402 -0.001598 0.000000 0.000000 0.000000
# 2 -0.001402 0.006975 -0.001348 0.000000 0.000000 0.000000
# 3 -0.001598 -0.001348 0.009230 0.000000 0.000000 0.000000
# 4 0.000000 0.000000 0.000000 0.028453 0.000000 0.000000
# 5 0.000000 0.000000 0.000000 0.000000 0.036118 0.000000
# 6 0.000000 0.000000 0.000000 0.000000 0.000000 0.021249
#
#
# Mechanical properties :
#
#
# Convention : Reuss Voigt Hill
#
# Bulk Modulus (GPa) = 79.78139 87.20599 83.49369
# Shear Modulus (GPa) = 41.69447 47.02932 44.36189
#
# Velocity S-wave (km/s) = 3.79057 4.02577 3.90994
# Velocity P-wave (km/s) = 6.83019 7.18758 7.01116
#
# Compressibility (1/GPa) = 0.01253425
#
# Stress axis : x y z
#
# Youngs Moduli (GPa) = 199.08603 143.36251 108.34451
#
# Poissons Ratio (x) = 0.20093 0.17309
# Poissons Ratio (y) = 0.27903 0.14602
# Poissons Ratio (z) = 0.31806 0.19322
#
# Static dielectric constant tensor:
#      x y z
#    x 2.427570 0.000000 0.000000 
#    y 0.000000 3.040570 0.000000 
#    z 0.000000 0.000000 2.362730 
# 
# From -- ./inp_files/8781.got.cif
#   From: 2010.05.17/outbox.cif.g08.bks.cpg/sg56_5_cif.got.tgz:8781.got - 2010.06.03 13:42:01.
