data_PCOD9433456
_publ_section_title
;
Structure prediction by ZEFSAII (Michael W. Deem and Ramdas Pophale) SiO2 
 PCOD9433456
Probable space group: P C C N
;
_chemical_formula_sum "Si O2"
_cell_formula_units_Z 24
_cell_length_a 12.895331
_cell_length_b 4.827321
_cell_length_c 17.472470
_cell_angle_alpha 90.000000
_cell_angle_beta 90.000000
_cell_angle_gamma 90.000000
_cell_volume 1087.659548
_symmetry_space_group_name_H-M "P C C N"
_symmetry_group_IT_number 56
_symmetry_cell_setting 'orthorhombic'
loop_
_space_group_symop_operation_xyz
x,y,z
1/2-x,1/2-y,z
1/2+x,-y,1/2-z
-x,1/2+y,1/2-z
-x,-y,-z
1/2+x,1/2+y,-z
1/2-x,y,1/2+z
x,1/2-y,1/2+z
loop_
_atom_site_type_symbol
_atom_site_label
_atom_site_fract_x
_atom_site_fract_y
_atom_site_fract_z
Si Si1 0.978782 0.074895 0.412552
Si Si2 0.676438 0.003026 0.182819
Si Si3 0.143793 0.071779 0.147271
O O1 0.893619 0.319979 0.407032
O O2 0.089139 0.121485 0.372272
O O3 0.000000 0.000000 0.500000
O O4 0.939973 0.809234 0.365427
O O5 0.750000 0.250000 0.152598
O O6 0.750000 0.750000 0.199850
O O7 0.637326 0.069408 0.268787
O O8 0.250000 0.250000 0.133363
#
# Coordination Sequence:
#
# PCOD9433456 Si02
#       3
#     8   8   8
#     4  12  25  41  64  97 132 168 208 267 332 389
#     4  11  23  42  66  93 124 168 218 266 316 379
#     4  11  23  43  67  92 125 170 220 265 317 386
#
# _framework density 22.065729000000001
#
# number of rings (size 3 to 8) (size 9 to 14) (size 15 to 20)
#    0.000    0.667    0.000   10.000    0.000    4.000 
#    0.000    0.000    0.000    0.000    0.000    0.000 
#    0.000    0.000    0.000    0.000    0.000    0.000 
#
# Total GULP energy -133824.538307 kJ/mol
# GULP energy per Si atom -5576.022429 kJ/mol
# Density = 2.201551 g / cm^3
# Si number density = 22.065729 Si / 1000 Ang^3
#
#
#
# Elastic Constant Matrix: (Units=GPa)
#
#
# Indices 1 2 3 4 5 6 
#
# 1 61.8014 5.2368 62.6034 0.0000 0.0000 0.0000
# 2 5.2368 92.5787 7.4789 0.0000 0.0000 0.0000
# 3 62.6034 7.4789 88.8510 0.0000 0.0000 0.0000
# 4 0.0000 0.0000 0.0000 11.2542 0.0000 0.0000
# 5 0.0000 0.0000 0.0000 0.0000 -40.9246 0.0000
# 6 0.0000 0.0000 0.0000 0.0000 0.0000 38.9146
#
#
#
# Elastic Compliance Matrix: (Units=1/GPa)
#
#
# Indices 1 2 3 4 5 6 
#
# 1 0.056524 0.000020 -0.039828 0.000000 0.000000 0.000000
# 2 0.000020 0.010876 -0.000930 0.000000 0.000000 0.000000
# 3 -0.039828 -0.000930 0.039395 0.000000 0.000000 0.000000
# 4 0.000000 0.000000 0.000000 0.088856 0.000000 0.000000
# 5 0.000000 0.000000 0.000000 0.000000 -0.024435 0.000000
# 6 0.000000 0.000000 0.000000 0.000000 0.000000 0.025697
#
#
# Mechanical properties :
#
#
# Convention : Reuss Voigt Hill
#
# Bulk Modulus (GPa) = 39.49424 43.76325 41.62875
# Shear Modulus (GPa) = 17.43215 13.04297 15.23756
#
# Velocity S-wave (km/s) = 2.81376 2.43389 2.63069
# Velocity P-wave (km/s) = 5.33794 5.27016 5.30416
#
# Compressibility (1/GPa) = 0.02532015
#
# Stress axis : x y z
#
# Youngs Moduli (GPa) = 17.69176 91.94908 25.38389
#
# Poissons Ratio (x) = -0.00185 1.01098
# Poissons Ratio (y) = -0.00036 0.02360
# Poissons Ratio (z) = 0.70462 0.08548
#
# Static dielectric constant tensor:
#      x y z
#    x 1.854400 0.000000 0.000000 
#    y 0.000000 1.795380 0.000000 
#    z 0.000000 0.000000 1.797660 
# 
# From -- ./inp_files/13590.got.cif
#   From: 2010.05.17/outbox.cif.g08.bks.cpg/sg56_7_cif.got.tgz:13590.got - 2010.06.03 13:42:01.
