data_PCOD9433552
_publ_section_title
;
Structure prediction by ZEFSAII (Michael W. Deem and Ramdas Pophale) SiO2 
 PCOD9433552
Probable space group: P C C N
;
_chemical_formula_sum "Si O2"
_cell_formula_units_Z 32
_cell_length_a 5.178835
_cell_length_b 11.360901
_cell_length_c 22.293143
_cell_angle_alpha 90.000000
_cell_angle_beta 90.000000
_cell_angle_gamma 90.000000
_cell_volume 1311.644528
_symmetry_space_group_name_H-M "P C C N"
_symmetry_group_IT_number 56
_symmetry_cell_setting 'orthorhombic'
loop_
_space_group_symop_operation_xyz
x,y,z
1/2-x,1/2-y,z
1/2+x,-y,1/2-z
-x,1/2+y,1/2-z
-x,-y,-z
1/2+x,1/2+y,-z
1/2-x,y,1/2+z
x,1/2-y,1/2+z
loop_
_atom_site_type_symbol
_atom_site_label
_atom_site_fract_x
_atom_site_fract_y
_atom_site_fract_z
Si Si1 0.547778 0.356991 0.431919
Si Si2 0.978323 0.581404 0.760820
Si Si3 0.318841 0.082442 0.540401
Si Si4 0.250000 0.250000 0.829005
Si Si5 0.750000 0.750000 0.362411
O O1 0.750000 0.250000 0.436088
O O2 0.380502 0.361677 0.492686
O O3 0.674401 0.482212 0.423016
O O4 0.373674 0.341039 0.374320
O O5 0.747070 0.488620 0.745148
O O6 0.958241 0.683192 0.710672
O O7 0.906345 0.657975 0.820467
O O8 0.420539 0.173600 0.589926
O O9 0.500000 0.000000 0.500000
#
# Coordination Sequence:
#
# PCOD9433552 Si02
#       5
#     8   8   8   4   4
#     4  11  24  42  71 106 150 192 243 303 380 453
#     4  11  28  51  73 109 145 199 258 312 380 449
#     4  11  24  45  69 112 149 194 248 304 381 463
#     4  11  25  42  74 100 141 189 246 304 370 449
#     4  11  25  46  74 106 155 195 254 324 380 463
#
# _framework density 24.396851999999999
#
# number of rings (size 3 to 8) (size 9 to 14) (size 15 to 20)
#    0.000    1.000    0.000    5.250   10.500    3.000 
#   13.500    0.000    0.000    0.000    0.000    0.000 
#    0.000    0.000    0.000    0.000    0.000    0.000 
#
# Total GULP energy -178926.483563 kJ/mol
# GULP energy per Si atom -5591.452611 kJ/mol
# Density = 2.434132 g / cm^3
# Si number density = 24.396852 Si / 1000 Ang^3
#
#
#
# Elastic Constant Matrix: (Units=GPa)
#
#
# Indices 1 2 3 4 5 6 
#
# 1 59.2042 12.0619 14.0150 0.0000 0.0000 0.0000
# 2 12.0619 105.6690 60.5077 0.0000 0.0000 0.0000
# 3 14.0150 60.5077 143.3279 0.0000 0.0000 0.0000
# 4 0.0000 0.0000 0.0000 81.1198 0.0000 0.0000
# 5 0.0000 0.0000 0.0000 0.0000 6.5086 0.0000
# 6 0.0000 0.0000 0.0000 0.0000 0.0000 49.4927
#
#
#
# Elastic Compliance Matrix: (Units=1/GPa)
#
#
# Indices 1 2 3 4 5 6 
#
# 1 0.017433 -0.001337 -0.001140 0.000000 0.000000 0.000000
# 2 -0.001337 0.012583 -0.005181 0.000000 0.000000 0.000000
# 3 -0.001140 -0.005181 0.009276 0.000000 0.000000 0.000000
# 4 0.000000 0.000000 0.000000 0.012327 0.000000 0.000000
# 5 0.000000 0.000000 0.000000 0.000000 0.153644 0.000000
# 6 0.000000 0.000000 0.000000 0.000000 0.000000 0.020205
#
#
# Mechanical properties :
#
#
# Convention : Reuss Voigt Hill
#
# Bulk Modulus (GPa) = 41.71055 53.48556 47.59806
# Shear Modulus (GPa) = 20.09834 42.19865 31.14850
#
# Velocity S-wave (km/s) = 2.87332 4.16345 3.57703
# Velocity P-wave (km/s) = 5.30488 6.71440 6.05082
#
# Compressibility (1/GPa) = 0.02397475
#
# Stress axis : x y z
#
# Youngs Moduli (GPa) = 57.36245 79.47190 107.80653
#
# Poissons Ratio (x) = 0.10626 0.12292
# Poissons Ratio (y) = 0.07670 0.55858
# Poissons Ratio (z) = 0.06540 0.41177
#
# Static dielectric constant tensor:
#      x y z
#    x 1.962910 0.000000 0.000000 
#    y 0.000000 2.180620 0.000000 
#    z 0.000000 0.000000 2.018460 
# 
# From -- ./inp_files/17275.got.cif
#   From: 2010.05.17/outbox.cif.g08.bks.cpg/sg56_9_cif.got.tgz:17275.got - 2010.06.03 13:42:01.
