data_PCOD9433780
_publ_section_title
;
Structure prediction by ZEFSAII (Michael W. Deem and Ramdas Pophale) SiO2 
 PCOD9433780
Probable space group: P C C N
;
_chemical_formula_sum "Si O2"
_cell_formula_units_Z 64
_cell_length_a 29.642049
_cell_length_b 11.784202
_cell_length_c 8.551804
_cell_angle_alpha 90.000000
_cell_angle_beta 90.000000
_cell_angle_gamma 90.000000
_cell_volume 2987.212638
_symmetry_space_group_name_H-M "P C C N"
_symmetry_group_IT_number 56
_symmetry_cell_setting 'orthorhombic'
loop_
_space_group_symop_operation_xyz
x,y,z
1/2-x,1/2-y,z
1/2+x,-y,1/2-z
-x,1/2+y,1/2-z
-x,-y,-z
1/2+x,1/2+y,-z
1/2-x,y,1/2+z
x,1/2-y,1/2+z
loop_
_atom_site_type_symbol
_atom_site_label
_atom_site_fract_x
_atom_site_fract_y
_atom_site_fract_z
Si Si1 0.809943 0.013163 0.160666
Si Si2 0.588927 0.218066 0.385252
Si Si3 0.621204 0.844659 0.479488
Si Si4 0.845629 0.266026 0.119508
Si Si5 0.452342 0.547346 0.563541
Si Si6 0.874932 0.901029 0.613459
Si Si7 0.549574 0.002835 0.568588
Si Si8 0.788583 0.032687 0.529678
O O1 0.832654 0.136049 0.141462
O O2 0.798298 0.011315 0.345503
O O3 0.762925 0.008329 0.068058
O O4 0.842990 0.919377 0.081871
O O5 0.608277 0.197519 0.211691
O O6 0.635904 0.271094 0.444302
O O7 0.552411 0.314945 0.424366
O O8 0.575599 0.103068 0.473970
O O9 0.627187 0.713061 0.512192
O O10 0.618526 0.872902 0.295788
O O11 0.572780 0.883239 0.540445
O O12 0.802422 0.346926 0.111129
O O13 0.500000 0.500000 0.500000
O O14 0.412557 0.483985 0.465168
O O15 0.448354 0.519807 0.746861
O O16 0.825430 0.953846 0.609869
O O17 0.500000 0.000000 0.500000
#
# Coordination Sequence:
#
# PCOD9433780 Si02
#       8
#     8   8   8   8   8   8   8   8
#     4  12  26  44  69 106 141 184 234 290 350 426
#     4  12  24  45  74 102 144 187 233 297 360 418
#     4  12  26  48  73  99 138 183 234 291 353 419
#     4  12  23  43  73 102 143 183 231 288 359 418
#     4  12  27  46  71 105 142 187 239 293 354 426
#     4  12  26  48  73  99 138 185 234 293 351 421
#     4  12  27  45  72 105 143 187 240 291 357 424
#     4  12  26  43  70 104 143 182 235 287 351 422
#
# _framework density 21.424655000000001
#
# number of rings (size 3 to 8) (size 9 to 14) (size 15 to 20)
#    0.000    0.000    5.000    4.875    5.250    1.500 
#    0.000    2.500    0.000    0.000    0.000    0.000 
#    0.000    0.000    0.000    0.000    0.000    0.000 
#
# Total GULP energy -357041.835733 kJ/mol
# GULP energy per Si atom -5578.778683 kJ/mol
# Density = 2.137589 g / cm^3
# Si number density = 21.424655 Si / 1000 Ang^3
#
#
#
# Elastic Constant Matrix: (Units=GPa)
#
#
# Indices 1 2 3 4 5 6 
#
# 1 95.8586 16.9666 -6.8795 0.0000 0.0000 0.0000
# 2 16.9666 79.4169 11.6623 0.0000 0.0000 0.0000
# 3 -6.8795 11.6623 106.8314 0.0000 0.0000 0.0000
# 4 0.0000 0.0000 0.0000 25.8210 0.0000 0.0000
# 5 0.0000 0.0000 0.0000 0.0000 25.5734 0.0000
# 6 0.0000 0.0000 0.0000 0.0000 0.0000 50.3231
#
#
#
# Elastic Compliance Matrix: (Units=1/GPa)
#
#
# Indices 1 2 3 4 5 6 
#
# 1 0.010941 -0.002481 0.000975 0.000000 0.000000 0.000000
# 2 -0.002481 0.013359 -0.001618 0.000000 0.000000 0.000000
# 3 0.000975 -0.001618 0.009600 0.000000 0.000000 0.000000
# 4 0.000000 0.000000 0.000000 0.038728 0.000000 0.000000
# 5 0.000000 0.000000 0.000000 0.000000 0.039103 0.000000
# 6 0.000000 0.000000 0.000000 0.000000 0.000000 0.019872
#
#
# Mechanical properties :
#
#
# Convention : Reuss Voigt Hill
#
# Bulk Modulus (GPa) = 36.16168 36.17840 36.17004
# Shear Modulus (GPa) = 33.99783 37.70066 35.84924
#
# Velocity S-wave (km/s) = 3.98786 4.19941 4.09500
# Velocity P-wave (km/s) = 6.17407 6.35896 6.26720
#
# Compressibility (1/GPa) = 0.02765358
#
# Stress axis : x y z
#
# Youngs Moduli (GPa) = 91.39841 74.85382 104.16669
#
# Poissons Ratio (x) = 0.18569 -0.10160
# Poissons Ratio (y) = 0.22673 0.16856
# Poissons Ratio (z) = -0.08915 0.12112
#
# Static dielectric constant tensor:
#      x y z
#    x 1.742620 0.000000 0.000000 
#    y 0.000000 1.993010 0.000000 
#    z 0.000000 0.000000 1.739030 
# 
# From -- ./inp_files/5201.got.cif
#   From: 2010.05.17/outbox.cif.g08.bks.cpg/sg56_3_cif.got.tgz:5201.got - 2010.06.03 13:42:01.
