data_PCOD9433473
_publ_section_title
;
Structure prediction by ZEFSAII (Michael W. Deem and Ramdas Pophale) SiO2 
 PCOD9433473
Probable space group: P C C N
;
_chemical_formula_sum "Si O2"
_cell_formula_units_Z 64
_cell_length_a 12.777830
_cell_length_b 26.184518
_cell_length_c 8.353735
_cell_angle_alpha 90.000000
_cell_angle_beta 90.000000
_cell_angle_gamma 90.000000
_cell_volume 2795.003680
_symmetry_space_group_name_H-M "P C C N"
_symmetry_group_IT_number 56
_symmetry_cell_setting 'orthorhombic'
loop_
_space_group_symop_operation_xyz
x,y,z
1/2-x,1/2-y,z
1/2+x,-y,1/2-z
-x,1/2+y,1/2-z
-x,-y,-z
1/2+x,1/2+y,-z
1/2-x,y,1/2+z
x,1/2-y,1/2+z
loop_
_atom_site_type_symbol
_atom_site_label
_atom_site_fract_x
_atom_site_fract_y
_atom_site_fract_z
Si Si1 0.166645 0.629833 0.507132
Si Si2 0.044233 0.323760 0.366237
Si Si3 0.816297 0.595052 0.481990
Si Si4 0.638935 0.734236 0.428489
Si Si5 0.885990 0.135589 0.368928
Si Si6 0.814617 0.013348 0.867824
Si Si7 0.630789 0.643068 0.639021
Si Si8 0.389565 0.975525 0.991610
O O1 0.143734 0.630533 0.318018
O O2 0.278752 0.655827 0.549193
O O3 0.167345 0.569498 0.557163
O O4 0.073764 0.657896 0.602311
O O5 0.117191 0.373639 0.387703
O O6 0.069540 0.297065 0.198078
O O7 0.076475 0.281994 0.500045
O O8 0.855954 0.536909 0.459033
O O9 0.694030 0.601912 0.529326
O O10 0.840658 0.624092 0.315674
O O11 0.750000 0.750000 0.356093
O O12 0.672775 0.696202 0.571374
O O13 0.898856 0.083332 0.466325
O O14 0.006060 0.153813 0.370739
O O15 0.846942 0.015511 0.685209
O O16 0.690652 0.003970 0.877246
O O17 0.500000 0.000000 0.000000
#
# Coordination Sequence:
#
# PCOD9433473 Si02
#       8
#     8   8   8   8   8   8   8   8
#     4  11  26  48  77 103 153 209 253 309 372 456
#     4  12  27  47  76 109 143 191 248 304 390 449
#     4  12  24  45  69 114 150 194 246 316 375 466
#     4  12  27  49  78 112 148 191 242 319 392 456
#     4  11  24  47  71 105 149 196 255 308 367 443
#     4  11  24  44  67 106 150 200 254 300 372 447
#     4  12  26  46  78 107 152 190 250 320 380 458
#     4  11  23  43  67  98 145 203 248 304 362 435
#
# _framework density 22.898001000000001
#
# number of rings (size 3 to 8) (size 9 to 14) (size 15 to 20)
#    0.000    0.500    2.500    7.125    3.500    0.500 
#    4.500    0.625    0.000    0.000    0.000    0.000 
#    0.000    0.000    0.000    0.000    0.000    0.000 
#
# Total GULP energy -357685.292482 kJ/mol
# GULP energy per Si atom -5588.832695 kJ/mol
# Density = 2.284588 g / cm^3
# Si number density = 22.898001 Si / 1000 Ang^3
#
#
#
# Elastic Constant Matrix: (Units=GPa)
#
#
# Indices 1 2 3 4 5 6 
#
# 1 136.1425 0.0984 53.6389 0.0000 0.0000 0.0000
# 2 0.0984 42.0624 27.0553 0.0000 0.0000 0.0000
# 3 53.6389 27.0553 108.4131 0.0000 0.0000 0.0000
# 4 0.0000 0.0000 0.0000 27.2662 0.0000 0.0000
# 5 0.0000 0.0000 0.0000 0.0000 10.4945 0.0000
# 6 0.0000 0.0000 0.0000 0.0000 0.0000 35.0285
#
#
#
# Elastic Compliance Matrix: (Units=1/GPa)
#
#
# Indices 1 2 3 4 5 6 
#
# 1 0.009560 0.003597 -0.005628 0.000000 0.000000 0.000000
# 2 0.003597 0.029674 -0.009185 0.000000 0.000000 0.000000
# 3 -0.005628 -0.009185 0.014301 0.000000 0.000000 0.000000
# 4 0.000000 0.000000 0.000000 0.036675 0.000000 0.000000
# 5 0.000000 0.000000 0.000000 0.000000 0.095288 0.000000
# 6 0.000000 0.000000 0.000000 0.000000 0.000000 0.028548
#
#
# Mechanical properties :
#
#
# Convention : Reuss Voigt Hill
#
# Bulk Modulus (GPa) = 32.15075 49.80037 40.97556
# Shear Modulus (GPa) = 20.25564 28.27954 24.26759
#
# Velocity S-wave (km/s) = 2.97745 3.51810 3.25901
# Velocity P-wave (km/s) = 5.08838 6.18860 5.66526
#
# Compressibility (1/GPa) = 0.03110347
#
# Stress axis : x y z
#
# Youngs Moduli (GPa) = 104.60369 33.69967 69.92720
#
# Poissons Ratio (x) = -0.12123 0.39353
# Poissons Ratio (y) = -0.37631 0.64230
# Poissons Ratio (z) = 0.58867 0.30954
#
# Static dielectric constant tensor:
#      x y z
#    x 1.922450 0.000000 0.000000 
#    y 0.000000 2.247240 0.000000 
#    z 0.000000 0.000000 1.876480 
# 
# From -- ./inp_files/2965.got.cif
#   From: 2010.05.17/outbox.cif.g08.bks.cpg/sg56_2_cif.got.tgz:2965.got - 2010.06.03 13:42:01.
