data_PCOD9433281
_publ_section_title
;
Structure prediction by ZEFSAII (Michael W. Deem and Ramdas Pophale) SiO2 
 PCOD9433281
Probable space group: P C C N
;
_chemical_formula_sum "Si O2"
_cell_formula_units_Z 48
_cell_length_a 17.083647
_cell_length_b 11.849547
_cell_length_c 10.625845
_cell_angle_alpha 90.000000
_cell_angle_beta 90.000000
_cell_angle_gamma 90.000000
_cell_volume 2151.026761
_symmetry_space_group_name_H-M "P C C N"
_symmetry_group_IT_number 56
_symmetry_cell_setting 'orthorhombic'
loop_
_space_group_symop_operation_xyz
x,y,z
1/2-x,1/2-y,z
1/2+x,-y,1/2-z
-x,1/2+y,1/2-z
-x,-y,-z
1/2+x,1/2+y,-z
1/2-x,y,1/2+z
x,1/2-y,1/2+z
loop_
_atom_site_type_symbol
_atom_site_label
_atom_site_fract_x
_atom_site_fract_y
_atom_site_fract_z
Si Si1 0.423522 0.340590 0.554181
Si Si2 0.727793 0.119089 0.143387
Si Si3 0.699593 0.479395 0.392446
Si Si4 0.453292 0.837025 0.158620
Si Si5 0.562288 0.104731 0.242033
Si Si6 0.968001 0.908164 0.901842
O O1 0.339810 0.399735 0.573867
O O2 0.471885 0.369216 0.426921
O O3 0.480095 0.385145 0.667620
O O4 0.423053 0.203950 0.555518
O O5 0.750000 0.250000 0.158166
O O6 0.759354 0.043310 0.258860
O O7 0.633889 0.123122 0.150127
O O8 0.750782 0.065856 0.009250
O O9 0.623083 0.400307 0.384362
O O10 0.440736 0.703046 0.153622
O O11 0.465227 0.862642 0.306714
O O12 0.580104 0.987284 0.308367
O O13 0.000000 0.000000 0.000000
#
# Coordination Sequence:
#
# PCOD9433281 Si02
#       6
#     8   8   8   8   8   8
#     4  11  23  44  72 100 142 186 232 297 357 419
#     4  12  26  42  68 105 147 191 235 294 362 429
#     4  12  25  44  68 105 144 189 240 292 360 427
#     4  11  21  39  70 100 138 177 230 296 354 411
#     4  11  22  41  69 105 133 178 237 291 350 420
#     4  11  23  39  68 107 138 172 229 295 353 424
#
# _framework density 22.314924999999999
#
# number of rings (size 3 to 8) (size 9 to 14) (size 15 to 20)
#    0.000    0.667    6.667    2.000    0.000    1.333 
#    0.000    0.833    0.000    2.000    0.000    0.000 
#    0.000    0.000    0.000    0.000    0.000    0.000 
#
# Total GULP energy -267962.731807 kJ/mol
# GULP energy per Si atom -5582.556913 kJ/mol
# Density = 2.226414 g / cm^3
# Si number density = 22.314925 Si / 1000 Ang^3
#
#
#
# Elastic Constant Matrix: (Units=GPa)
#
#
# Indices 1 2 3 4 5 6 
#
# 1 38.3032 15.6291 12.8746 0.0000 0.0000 0.0000
# 2 15.6291 133.9807 43.6135 0.0000 0.0000 0.0000
# 3 12.8746 43.6135 108.4268 0.0000 0.0000 0.0000
# 4 0.0000 0.0000 0.0000 19.7116 0.0000 0.0000
# 5 0.0000 0.0000 0.0000 0.0000 29.1852 0.0000
# 6 0.0000 0.0000 0.0000 0.0000 0.0000 18.0461
#
#
#
# Elastic Compliance Matrix: (Units=1/GPa)
#
#
# Indices 1 2 3 4 5 6 
#
# 1 0.027905 -0.002504 -0.002306 0.000000 0.000000 0.000000
# 2 -0.002504 0.008813 -0.003248 0.000000 0.000000 0.000000
# 3 -0.002306 -0.003248 0.010803 0.000000 0.000000 0.000000
# 4 0.000000 0.000000 0.000000 0.050731 0.000000 0.000000
# 5 0.000000 0.000000 0.000000 0.000000 0.034264 0.000000
# 6 0.000000 0.000000 0.000000 0.000000 0.000000 0.055413
#
#
# Mechanical properties :
#
#
# Convention : Reuss Voigt Hill
#
# Bulk Modulus (GPa) = 31.84263 47.21611 39.52937
# Shear Modulus (GPa) = 23.30855 27.29484 25.30169
#
# Velocity S-wave (km/s) = 3.23542 3.50117 3.37092
# Velocity P-wave (km/s) = 5.31582 6.12774 5.73616
#
# Compressibility (1/GPa) = 0.03140444
#
# Stress axis : x y z
#
# Youngs Moduli (GPa) = 35.83650 113.46790 92.56754
#
# Poissons Ratio (x) = 0.28418 0.21346
# Poissons Ratio (y) = 0.08975 0.30062
# Poissons Ratio (z) = 0.08264 0.36850
#
# Static dielectric constant tensor:
#      x y z
#    x 1.804160 0.000000 0.000000 
#    y 0.000000 1.910600 0.000000 
#    z 0.000000 0.000000 1.884890 
# 
# From -- ./inp_files/8288.got.cif
#   From: 2010.05.17/outbox.cif.g08.bks.cpg/sg56_5_cif.got.tgz:8288.got - 2010.06.03 13:42:01.
