data_PCOD9433853
_publ_section_title
;
Structure prediction by ZEFSAII (Michael W. Deem and Ramdas Pophale) SiO2 
 PCOD9433853
Probable space group: P C C N
;
_chemical_formula_sum "Si O2"
_cell_formula_units_Z 32
_cell_length_a 4.581838
_cell_length_b 11.779063
_cell_length_c 20.662053
_cell_angle_alpha 90.000000
_cell_angle_beta 90.000000
_cell_angle_gamma 90.000000
_cell_volume 1115.126010
_symmetry_space_group_name_H-M "P C C N"
_symmetry_group_IT_number 56
_symmetry_cell_setting 'orthorhombic'
loop_
_space_group_symop_operation_xyz
x,y,z
1/2-x,1/2-y,z
1/2+x,-y,1/2-z
-x,1/2+y,1/2-z
-x,-y,-z
1/2+x,1/2+y,-z
1/2-x,y,1/2+z
x,1/2-y,1/2+z
loop_
_atom_site_type_symbol
_atom_site_label
_atom_site_fract_x
_atom_site_fract_y
_atom_site_fract_z
Si Si1 0.750000 0.750000 0.362116
Si Si2 0.123737 0.367715 0.375640
Si Si3 0.849229 0.418692 0.052755
Si Si4 0.566193 0.917858 0.253826
Si Si5 0.250000 0.750000 0.549839
O O1 0.557971 0.663106 0.405016
O O2 0.564013 0.830402 0.313181
O O3 0.250000 0.250000 0.413574
O O4 0.195712 0.491293 0.401531
O O5 0.266174 0.363184 0.306211
O O6 0.788552 0.347258 0.393211
O O7 0.647694 0.340159 0.007137
O O8 0.000000 0.500000 0.000000
O O9 0.257708 0.968835 0.232951
#
# Coordination Sequence:
#
# PCOD9433853 Si02
#       5
#     4   8   8   8   4
#     4  12  28  50  84 118 168 224 290 352 448 520
#     4  12  26  49  77 113 157 213 276 347 427 503
#     4  12  26  49  73 119 162 214 277 343 422 519
#     4  12  30  52  81 117 165 213 278 358 426 515
#     4  12  28  46  82 110 162 216 276 350 426 510
#
# _framework density 28.696307999999998
#
# number of rings (size 3 to 8) (size 9 to 14) (size 15 to 20)
#    0.000    0.000    6.250    2.250   10.500    1.000 
#    0.000    0.000    0.000    0.000    0.000    0.000 
#    0.000    0.000    0.000    0.000    0.000    0.000 
#
# Total GULP energy -178421.821881 kJ/mol
# GULP energy per Si atom -5575.681934 kJ/mol
# Density = 2.863099 g / cm^3
# Si number density = 28.696308 Si / 1000 Ang^3
#
#
#
# Elastic Constant Matrix: (Units=GPa)
#
#
# Indices 1 2 3 4 5 6 
#
# 1 101.0691 74.0133 43.4291 0.0000 0.0000 0.0000
# 2 74.0133 221.7689 104.5784 0.0000 0.0000 0.0000
# 3 43.4291 104.5784 178.1447 0.0000 0.0000 0.0000
# 4 0.0000 0.0000 0.0000 108.4932 0.0000 0.0000
# 5 0.0000 0.0000 0.0000 0.0000 29.7893 0.0000
# 6 0.0000 0.0000 0.0000 0.0000 0.0000 77.3291
#
#
#
# Elastic Compliance Matrix: (Units=1/GPa)
#
#
# Indices 1 2 3 4 5 6 
#
# 1 0.013192 -0.003991 -0.000873 0.000000 0.000000 0.000000
# 2 -0.003991 0.007443 -0.003396 0.000000 0.000000 0.000000
# 3 -0.000873 -0.003396 0.007820 0.000000 0.000000 0.000000
# 4 0.000000 0.000000 0.000000 0.009217 0.000000 0.000000
# 5 0.000000 0.000000 0.000000 0.000000 0.033569 0.000000
# 6 0.000000 0.000000 0.000000 0.000000 0.000000 0.012932
#
#
# Mechanical properties :
#
#
# Convention : Reuss Voigt Hill
#
# Bulk Modulus (GPa) = 83.79418 105.00271 94.39845
# Shear Modulus (GPa) = 47.76852 61.71977 54.74414
#
# Velocity S-wave (km/s) = 4.08440 4.64269 4.37247
# Velocity P-wave (km/s) = 7.17683 8.08764 7.64581
#
# Compressibility (1/GPa) = 0.01193400
#
# Stress axis : x y z
#
# Youngs Moduli (GPa) = 75.80346 134.36014 127.87712
#
# Poissons Ratio (x) = 0.53623 0.11166
# Poissons Ratio (y) = 0.30253 0.43430
# Poissons Ratio (z) = 0.06619 0.45632
#
# Static dielectric constant tensor:
#      x y z
#    x 1.766030 0.000000 0.000000 
#    y 0.000000 2.368070 0.000000 
#    z 0.000000 0.000000 2.275950 
# 
# From -- ./inp_files/17283.got.cif
#   From: 2010.05.17/outbox.cif.g08.bks.cpg/sg56_9_cif.got.tgz:17283.got - 2010.06.03 13:42:01.
