data_PCOD9433260
_publ_section_title
;
Structure prediction by ZEFSAII (Michael W. Deem and Ramdas Pophale) SiO2 
 PCOD9433260
Probable space group: P C C N
;
_chemical_formula_sum "Si O2"
_cell_formula_units_Z 56
_cell_length_a 19.537649
_cell_length_b 14.825560
_cell_length_c 8.804838
_cell_angle_alpha 90.000000
_cell_angle_beta 90.000000
_cell_angle_gamma 90.000000
_cell_volume 2550.379329
_symmetry_space_group_name_H-M "P C C N"
_symmetry_group_IT_number 56
_symmetry_cell_setting 'orthorhombic'
loop_
_space_group_symop_operation_xyz
x,y,z
1/2-x,1/2-y,z
1/2+x,-y,1/2-z
-x,1/2+y,1/2-z
-x,-y,-z
1/2+x,1/2+y,-z
1/2-x,y,1/2+z
x,1/2-y,1/2+z
loop_
_atom_site_type_symbol
_atom_site_label
_atom_site_fract_x
_atom_site_fract_y
_atom_site_fract_z
Si Si1 0.391415 0.355740 0.128981
Si Si2 0.587813 0.158132 0.311140
Si Si3 0.318770 0.437237 0.596883
Si Si4 0.972427 0.974237 0.331792
Si Si5 0.812885 0.483480 0.235163
Si Si6 0.821744 0.737259 0.096371
Si Si7 0.545604 0.340395 0.147036
O O1 0.369681 0.456386 0.174274
O O2 0.374013 0.301639 0.282758
O O3 0.347050 0.325909 0.986012
O O4 0.467877 0.328086 0.090287
O O5 0.526568 0.094624 0.243496
O O6 0.660851 0.117705 0.258706
O O7 0.571940 0.258415 0.250322
O O8 0.588196 0.153838 0.493123
O O9 0.395744 0.435381 0.659932
O O10 0.318042 0.495493 0.442454
O O11 0.260099 0.479310 0.704208
O O12 0.307484 0.336617 0.533980
O O13 0.961931 0.066651 0.238910
O O14 0.000000 0.000000 0.500000
O O15 0.750000 0.750000 0.177933
#
# Coordination Sequence:
#
# PCOD9433260 Si02
#       7
#     8   8   8   8   8   8   8
#     4  11  22  40  61 100 137 177 221 280 347 422
#     4  12  26  48  74 106 140 183 239 294 359 424
#     4  11  25  41  69  99 142 190 228 298 353 422
#     4  12  23  47  74 105 144 186 238 296 356 418
#     4  11  25  44  69 100 142 183 233 287 362 424
#     4  11  21  36  60  95 137 178 221 273 345 425
#     4  12  26  44  75 103 138 185 236 298 352 423
#
# _framework density 21.957518
#
# number of rings (size 3 to 8) (size 9 to 14) (size 15 to 20)
#    0.000    0.571    4.286    4.286    4.000    0.000 
#    0.000    0.714    0.000    0.000    0.000    0.000 
#    0.000    0.000    0.000    0.000    0.000    0.000 
#
# Total GULP energy -313151.477867 kJ/mol
# GULP energy per Si atom -5591.990676 kJ/mol
# Density = 2.190754 g / cm^3
# Si number density = 21.957518 Si / 1000 Ang^3
#
#
#
# Elastic Constant Matrix: (Units=GPa)
#
#
# Indices 1 2 3 4 5 6 
#
# 1 75.2788 -8.9262 -4.7049 0.0000 0.0000 0.0000
# 2 -8.9262 60.0180 23.1451 0.0000 0.0000 0.0000
# 3 -4.7049 23.1451 89.7391 0.0000 0.0000 0.0000
# 4 0.0000 0.0000 0.0000 30.6720 0.0000 0.0000
# 5 0.0000 0.0000 0.0000 0.0000 23.2462 0.0000
# 6 0.0000 0.0000 0.0000 0.0000 0.0000 25.6743
#
#
#
# Elastic Compliance Matrix: (Units=1/GPa)
#
#
# Indices 1 2 3 4 5 6 
#
# 1 0.013526 0.001930 0.000211 0.000000 0.000000 0.000000
# 2 0.001930 0.018777 -0.004742 0.000000 0.000000 0.000000
# 3 0.000211 -0.004742 0.012377 0.000000 0.000000 0.000000
# 4 0.000000 0.000000 0.000000 0.032603 0.000000 0.000000
# 5 0.000000 0.000000 0.000000 0.000000 0.043018 0.000000
# 6 0.000000 0.000000 0.000000 0.000000 0.000000 0.038949
#
#
# Mechanical properties :
#
#
# Convention : Reuss Voigt Hill
#
# Bulk Modulus (GPa) = 25.32908 27.11820 26.22364
# Shear Modulus (GPa) = 28.15129 30.28663 29.21896
#
# Velocity S-wave (km/s) = 3.58450 3.71796 3.65184
# Velocity P-wave (km/s) = 5.35650 5.55050 5.45436
#
# Compressibility (1/GPa) = 0.03948031
#
# Stress axis : x y z
#
# Youngs Moduli (GPa) = 73.93148 53.25566 80.79190
#
# Poissons Ratio (x) = -0.10279 -0.01707
# Poissons Ratio (y) = -0.14270 0.38310
# Poissons Ratio (z) = -0.01562 0.25253
#
# Static dielectric constant tensor:
#      x y z
#    x 1.951060 0.000000 0.000000 
#    y 0.000000 1.841260 0.000000 
#    z 0.000000 0.000000 1.791220 
# 
# From -- ./inp_files/3570.got.cif
#   From: 2010.05.17/outbox.cif.g08.bks.cpg/sg56_2_cif.got.tgz:3570.got - 2010.06.03 13:42:01.
