data_PCOD9433366
_publ_section_title
;
Structure prediction by ZEFSAII (Michael W. Deem and Ramdas Pophale) SiO2 
 PCOD9433366
Probable space group: P C C N
;
_chemical_formula_sum "Si O2"
_cell_formula_units_Z 52
_cell_length_a 5.118566
_cell_length_b 22.672192
_cell_length_c 18.060261
_cell_angle_alpha 90.000000
_cell_angle_beta 90.000000
_cell_angle_gamma 90.000000
_cell_volume 2095.877236
_symmetry_space_group_name_H-M "P C C N"
_symmetry_group_IT_number 56
_symmetry_cell_setting 'orthorhombic'
loop_
_space_group_symop_operation_xyz
x,y,z
1/2-x,1/2-y,z
1/2+x,-y,1/2-z
-x,1/2+y,1/2-z
-x,-y,-z
1/2+x,1/2+y,-z
1/2-x,y,1/2+z
x,1/2-y,1/2+z
loop_
_atom_site_type_symbol
_atom_site_label
_atom_site_fract_x
_atom_site_fract_y
_atom_site_fract_z
Si Si1 0.939516 0.701717 0.733835
Si Si2 0.449340 0.868884 0.449211
Si Si3 0.447257 0.055693 0.097960
Si Si4 0.557917 0.926936 0.728977
Si Si5 0.750277 0.317894 0.909789
Si Si6 0.033590 0.566918 0.132155
Si Si7 0.750000 0.250000 0.131043
O O1 0.750000 0.750000 0.700606
O O2 0.818377 0.638160 0.741165
O O3 0.164491 0.690956 0.674605
O O4 0.038410 0.722805 0.812718
O O5 0.714954 0.900686 0.426271
O O6 0.444701 0.852890 0.536171
O O7 0.379893 0.805475 0.411021
O O8 0.214737 0.913056 0.426821
O O9 0.442868 0.050708 0.187780
O O10 0.404380 0.987021 0.076680
O O11 0.270344 0.929557 0.692551
O O12 0.759524 0.951032 0.669230
O O13 0.750000 0.250000 0.938294
O O14 0.977656 0.367466 0.904372
#
# Coordination Sequence:
#
# PCOD9433366 Si02
#       7
#     8   8   8   8   8   8   4
#     4  11  23  40  74 100 140 182 241 291 356 417
#     4  12  28  45  72 101 148 185 234 288 366 423
#     4  12  25  45  70 104 142 188 236 298 349 423
#     4  11  22  41  69 105 140 181 236 298 351 409
#     4  11  25  47  68 104 141 188 230 292 356 435
#     4  11  25  43  73 103 142 187 241 289 355 418
#     4  12  24  46  68 110 132 190 230 304 356 422
#
# _framework density 24.810614000000001
#
# number of rings (size 3 to 8) (size 9 to 14) (size 15 to 20)
#    0.000    0.615    3.077    4.615    4.308    4.923 
#    0.000    0.000    0.000    0.000    0.000    0.000 
#    0.000    0.000    0.000    0.000    0.000    0.000 
#
# Total GULP energy -290404.804506 kJ/mol
# GULP energy per Si atom -5584.707779 kJ/mol
# Density = 2.475414 g / cm^3
# Si number density = 24.810614 Si / 1000 Ang^3
#
#
#
# Elastic Constant Matrix: (Units=GPa)
#
#
# Indices 1 2 3 4 5 6 
#
# 1 106.6122 6.4982 11.8163 0.0000 0.0000 0.0000
# 2 6.4982 169.8903 10.4006 0.0000 0.0000 0.0000
# 3 11.8163 10.4006 72.0856 0.0000 0.0000 0.0000
# 4 0.0000 0.0000 0.0000 14.6929 0.0000 0.0000
# 5 0.0000 0.0000 0.0000 0.0000 21.2988 0.0000
# 6 0.0000 0.0000 0.0000 0.0000 0.0000 29.5420
#
#
#
# Elastic Compliance Matrix: (Units=1/GPa)
#
#
# Indices 1 2 3 4 5 6 
#
# 1 0.009566 -0.000272 -0.001529 0.000000 0.000000 0.000000
# 2 -0.000272 0.005946 -0.000813 0.000000 0.000000 0.000000
# 3 -0.001529 -0.000813 0.014240 0.000000 0.000000 0.000000
# 4 0.000000 0.000000 0.000000 0.068060 0.000000 0.000000
# 5 0.000000 0.000000 0.000000 0.000000 0.046951 0.000000
# 6 0.000000 0.000000 0.000000 0.000000 0.000000 0.033850
#
#
# Mechanical properties :
#
#
# Convention : Reuss Voigt Hill
#
# Bulk Modulus (GPa) = 40.77672 45.11315 42.94494
# Shear Modulus (GPa) = 26.03935 34.43160 30.23548
#
# Velocity S-wave (km/s) = 3.24315 3.72933 3.49471
# Velocity P-wave (km/s) = 5.52222 6.06353 5.79919
#
# Compressibility (1/GPa) = 0.02452380
#
# Stress axis : x y z
#
# Youngs Moduli (GPa) = 104.53882 168.17017 70.22303
#
# Poissons Ratio (x) = 0.04579 0.10735
# Poissons Ratio (y) = 0.02847 0.05711
# Poissons Ratio (z) = 0.15981 0.13678
#
# Static dielectric constant tensor:
#      x y z
#    x 1.949780 0.000000 0.000000 
#    y 0.000000 2.212110 0.000000 
#    z 0.000000 0.000000 1.966670 
# 
# From -- ./inp_files/17558.got.cif
#   From: 2010.05.17/outbox.cif.g08.bks.cpg/sg56_9_cif.got.tgz:17558.got - 2010.06.03 13:42:01.
