data_PCOD9433001
_publ_section_title
;
Structure prediction by ZEFSAII (Michael W. Deem and Ramdas Pophale) SiO2 
 PCOD9433001
Probable space group: P C C N
;
_chemical_formula_sum "Si O2"
_cell_formula_units_Z 56
_cell_length_a 11.619090
_cell_length_b 11.531236
_cell_length_c 21.167766
_cell_angle_alpha 90.000000
_cell_angle_beta 90.000000
_cell_angle_gamma 90.000000
_cell_volume 2836.109550
_symmetry_space_group_name_H-M "P C C N"
_symmetry_group_IT_number 56
_symmetry_cell_setting 'orthorhombic'
loop_
_space_group_symop_operation_xyz
x,y,z
1/2-x,1/2-y,z
1/2+x,-y,1/2-z
-x,1/2+y,1/2-z
-x,-y,-z
1/2+x,1/2+y,-z
1/2-x,y,1/2+z
x,1/2-y,1/2+z
loop_
_atom_site_type_symbol
_atom_site_label
_atom_site_fract_x
_atom_site_fract_y
_atom_site_fract_z
Si Si1 0.884785 0.362820 0.647536
Si Si2 0.631883 0.094522 0.174678
Si Si3 0.628756 0.791988 0.608917
Si Si4 0.985364 0.558491 0.069048
Si Si5 0.948797 0.059832 0.813235
Si Si6 0.758165 0.111751 0.404208
Si Si7 0.869762 0.485715 0.523272
O O1 0.895407 0.229271 0.663345
O O2 0.770256 0.413018 0.681003
O O3 0.863541 0.381457 0.573252
O O4 0.994416 0.439219 0.665327
O O5 0.569026 0.058981 0.238710
O O6 0.591123 0.021338 0.114672
O O7 0.750000 0.750000 0.637608
O O8 0.571450 0.686333 0.570246
O O9 0.537257 0.842852 0.659317
O O10 0.657696 0.897418 0.561487
O O11 0.110010 0.574775 0.101416
O O12 0.000000 0.500000 0.000000
O O13 0.826317 0.082097 0.846471
O O14 0.750000 0.250000 0.414994
O O15 0.708984 0.043358 0.464487
O O16 0.000000 0.500000 0.500000
#
# Coordination Sequence:
#
# PCOD9433001 Si02
#       7
#     8   8   8   8   8   8   8
#     4  10  24  46  68  95 131 177 222 277 343 401
#     4  11  27  42  72  96 136 175 227 283 332 417
#     4  11  23  44  68  95 138 178 226 281 345 413
#     4  12  26  42  66 106 134 172 227 286 346 400
#     4  11  25  44  68  98 130 186 226 273 344 415
#     4  12  24  41  71  97 138 176 223 284 337 409
#     4  11  21  43  68  97 127 174 224 274 338 408
#
# _framework density 19.745359000000001
#
# number of rings (size 3 to 8) (size 9 to 14) (size 15 to 20)
#    0.000    0.857    4.286    3.429   12.000    0.000 
#    0.000    0.714    0.000    0.000    0.000    0.000 
#    0.000    0.000    0.000    0.000    0.000    0.000 
#
# Total GULP energy -313061.865155 kJ/mol
# GULP energy per Si atom -5590.390449 kJ/mol
# Density = 1.970042 g / cm^3
# Si number density = 19.745359 Si / 1000 Ang^3
#
#
#
# Elastic Constant Matrix: (Units=GPa)
#
#
# Indices 1 2 3 4 5 6 
#
# 1 90.4835 21.9631 -3.3800 0.0000 0.0000 0.0000
# 2 21.9631 66.6888 17.8407 0.0000 0.0000 0.0000
# 3 -3.3800 17.8407 92.6007 0.0000 0.0000 0.0000
# 4 0.0000 0.0000 0.0000 14.3396 0.0000 0.0000
# 5 0.0000 0.0000 0.0000 0.0000 27.2458 0.0000
# 6 0.0000 0.0000 0.0000 0.0000 0.0000 29.5039
#
#
#
# Elastic Compliance Matrix: (Units=1/GPa)
#
#
# Indices 1 2 3 4 5 6 
#
# 1 0.012154 -0.004346 0.001281 0.000000 0.000000 0.000000
# 2 -0.004346 0.017364 -0.003504 0.000000 0.000000 0.000000
# 3 0.001281 -0.003504 0.011521 0.000000 0.000000 0.000000
# 4 0.000000 0.000000 0.000000 0.069737 0.000000 0.000000
# 5 0.000000 0.000000 0.000000 0.000000 0.036703 0.000000
# 6 0.000000 0.000000 0.000000 0.000000 0.000000 0.033894
#
#
# Mechanical properties :
#
#
# Convention : Reuss Voigt Hill
#
# Bulk Modulus (GPa) = 35.84024 35.84674 35.84349
# Shear Modulus (GPa) = 24.53264 28.44114 26.48689
#
# Velocity S-wave (km/s) = 3.52867 3.79937 3.66652
# Velocity P-wave (km/s) = 5.89853 6.11890 6.00972
#
# Compressibility (1/GPa) = 0.02790160
#
# Stress axis : x y z
#
# Youngs Moduli (GPa) = 82.27488 57.59194 86.79888
#
# Poissons Ratio (x) = 0.25027 -0.11118
# Poissons Ratio (y) = 0.35753 0.30414
# Poissons Ratio (z) = -0.10538 0.20180
#
# Static dielectric constant tensor:
#      x y z
#    x 1.724330 0.000000 0.000000 
#    y 0.000000 1.678550 0.000000 
#    z 0.000000 0.000000 1.666640 
# 
# From -- ./inp_files/18716.got.cif
#   From: 2010.05.17/outbox.cif.g08.bks.cpg/sg56_10_cif.got.tgz:18716.got - 2010.06.03 13:42:01.
