data_PCOD9433114
_publ_section_title
;
Structure prediction by ZEFSAII (Michael W. Deem and Ramdas Pophale) SiO2 
 PCOD9433114
Probable space group: P C C N
;
_chemical_formula_sum "Si O2"
_cell_formula_units_Z 32
_cell_length_a 4.986846
_cell_length_b 27.584318
_cell_length_c 9.510048
_cell_angle_alpha 90.000000
_cell_angle_beta 90.000000
_cell_angle_gamma 90.000000
_cell_volume 1308.190276
_symmetry_space_group_name_H-M "P C C N"
_symmetry_group_IT_number 56
_symmetry_cell_setting 'orthorhombic'
loop_
_space_group_symop_operation_xyz
x,y,z
1/2-x,1/2-y,z
1/2+x,-y,1/2-z
-x,1/2+y,1/2-z
-x,-y,-z
1/2+x,1/2+y,-z
1/2-x,y,1/2+z
x,1/2-y,1/2+z
loop_
_atom_site_type_symbol
_atom_site_label
_atom_site_fract_x
_atom_site_fract_y
_atom_site_fract_z
Si Si1 0.176581 0.323410 0.684066
Si Si2 0.040658 0.790549 0.549297
Si Si3 0.791261 0.126943 0.804454
Si Si4 0.533319 0.017049 0.337998
O O1 0.274965 0.300520 0.539776
O O2 0.449195 0.344610 0.749543
O O3 0.041139 0.283985 0.787688
O O4 0.958125 0.366383 0.696354
O O5 0.250000 0.750000 0.502867
O O6 0.185147 0.842758 0.561815
O O7 0.866156 0.072406 0.836315
O O8 0.257437 0.012375 0.250428
O O9 0.500000 0.000000 0.500000
#
# Coordination Sequence:
#
# PCOD9433114 Si02
#       4
#     8   8   8   8
#     4  10  25  47  78 111 159 212 260 337 401 483
#     4  10  26  52  79 116 159 212 278 327 410 489
#     4  10  26  48  80 114 162 212 272 332 412 480
#     4  12  28  51  84 124 169 219 282 346 426 498
#
# _framework density 24.461272000000001
#
# number of rings (size 3 to 8) (size 9 to 14) (size 15 to 20)
#    1.500    0.000    0.000    2.250    7.000    4.000 
#    4.500    1.250    0.000    0.000    0.000    0.000 
#    0.000    0.000    0.000    0.000    0.000    0.000 
#
# Total GULP energy -178875.283918 kJ/mol
# GULP energy per Si atom -5589.852622 kJ/mol
# Density = 2.440560 g / cm^3
# Si number density = 24.461272 Si / 1000 Ang^3
#
#
#
# Elastic Constant Matrix: (Units=GPa)
#
#
# Indices 1 2 3 4 5 6 
#
# 1 170.4278 26.8661 59.3428 0.0000 0.0000 0.0000
# 2 26.8661 124.6085 31.3654 0.0000 0.0000 0.0000
# 3 59.3428 31.3654 156.6646 0.0000 0.0000 0.0000
# 4 0.0000 0.0000 0.0000 12.1951 0.0000 0.0000
# 5 0.0000 0.0000 0.0000 0.0000 59.6901 0.0000
# 6 0.0000 0.0000 0.0000 0.0000 0.0000 56.9209
#
#
#
# Elastic Compliance Matrix: (Units=1/GPa)
#
#
# Indices 1 2 3 4 5 6 
#
# 1 0.006847 -0.000867 -0.002420 0.000000 0.000000 0.000000
# 2 -0.000867 0.008561 -0.001385 0.000000 0.000000 0.000000
# 3 -0.002420 -0.001385 0.007577 0.000000 0.000000 0.000000
# 4 0.000000 0.000000 0.000000 0.082000 0.000000 0.000000
# 5 0.000000 0.000000 0.000000 0.000000 0.016753 0.000000
# 6 0.000000 0.000000 0.000000 0.000000 0.000000 0.017568
#
#
# Mechanical properties :
#
#
# Convention : Reuss Voigt Hill
#
# Bulk Modulus (GPa) = 73.31497 76.31660 74.81579
# Shear Modulus (GPa) = 32.63752 48.03633 40.33692
#
# Velocity S-wave (km/s) = 3.65671 4.43625 4.06521
# Velocity P-wave (km/s) = 6.91850 7.58335 7.25854
#
# Compressibility (1/GPa) = 0.01363978
#
# Stress axis : x y z
#
# Youngs Moduli (GPa) = 146.05164 116.81111 131.97671
#
# Poissons Ratio (x) = 0.10129 0.31937
# Poissons Ratio (y) = 0.12664 0.18285
# Poissons Ratio (z) = 0.35343 0.16184
#
# Static dielectric constant tensor:
#      x y z
#    x 1.964000 0.000000 0.000000 
#    y 0.000000 1.958310 0.000000 
#    z 0.000000 0.000000 2.011770 
# 
# From -- ./inp_files/1564.got.cif
#   From: 2010.05.17/outbox.cif.g08.bks.cpg/sg56_1_cif.got.tgz:1564.got - 2010.06.03 13:42:01.
