data_PCOD9433900
_publ_section_title
;
Structure prediction by ZEFSAII (Michael W. Deem and Ramdas Pophale) SiO2 
 PCOD9433900
Probable space group: P C C N
;
_chemical_formula_sum "Si O2"
_cell_formula_units_Z 48
_cell_length_a 9.000000
_cell_length_b 15.000000
_cell_length_c 18.000000
_cell_angle_alpha 90.000000
_cell_angle_beta 90.000000
_cell_angle_gamma 90.000000
_cell_volume 2430.000000
_symmetry_space_group_name_H-M "P C C N"
_symmetry_group_IT_number 56
_symmetry_cell_setting 'orthorhombic'
loop_
_space_group_symop_operation_xyz
x,y,z
1/2-x,1/2-y,z
1/2+x,-y,1/2-z
-x,1/2+y,1/2-z
-x,-y,-z
1/2+x,1/2+y,-z
1/2-x,y,1/2+z
x,1/2-y,1/2+z
loop_
_atom_site_type_symbol
_atom_site_label
_atom_site_fract_x
_atom_site_fract_y
_atom_site_fract_z
Si Si1 0.247005 0.555571 0.706279
Si Si2 0.732292 0.049100 0.522746
Si Si3 0.497175 0.744471 0.361339
Si Si4 0.250000 0.750000 0.737415
Si Si5 0.457989 0.956512 0.846113
Si Si6 0.408554 0.071849 0.596294
Si Si7 0.250000 0.750000 0.987425
O O1 0.229383 0.660585 0.691255
O O2 0.184465 0.546508 0.790491
O O3 0.412911 0.522840 0.683259
O O4 0.131720 0.494953 0.661787
O O5 0.876506 0.030893 0.574204
O O6 0.579864 0.059233 0.570737
O O7 0.745482 0.147090 0.482127
O O8 0.698142 0.965780 0.468924
O O9 0.390495 0.767991 0.291533
O O10 0.536214 0.641306 0.347421
O O11 0.608417 0.825838 0.377104
O O12 0.392614 0.743866 0.433784
#
# Coordination Sequence:
#
# PCOD9433900 Si02
#       7
#     8   8   8   4   8   8   4
#     4  11  21  34  56  80 107 142 189 238 286 341
#     4   9  18  33  54  79 113 149 188 230 276 338
#     4   8  15  31  52  76 107 140 177 218 271 335
#     4   9  18  33  52  76 108 142 178 226 280 334
#     4  10  20  35  57  82 109 145 188 235 284 338
#     4  10  19  32  54  83 113 148 186 228 279 336
#     4   7  12  27  50  74 102 144 182 214 260 322
#
# _framework density 19.753086
#
# number of rings (size 3 to 8) (size 9 to 14) (size 15 to 20)
#    0.000    2.667    0.000    5.000    0.000    2.000 
#    0.000    0.000    0.000    7.000    0.000    0.000 
#    0.000    0.000    0.000    0.000    0.000    0.000 
#
# Total GULP energy -267202.520954 kJ/mol
# GULP energy per Si atom -5566.719187 kJ/mol
# Density = 1.970813 g / cm^3
# Si number density = 19.753086 Si / 1000 Ang^3
#
#
#
# Elastic Constant Matrix: (Units=GPa)
#
#
# Indices 1 2 3 4 5 6 
#
# 1 68.9739 49.7946 27.6358 0.0000 0.0000 0.0000
# 2 49.7946 172.4721 48.2185 0.0000 0.0000 0.0000
# 3 27.6358 48.2185 79.7411 0.0000 0.0000 0.0000
# 4 0.0000 0.0000 0.0000 -58.3871 0.0000 0.0000
# 5 0.0000 0.0000 0.0000 0.0000 25.8992 0.0000
# 6 0.0000 0.0000 0.0000 0.0000 0.0000 38.3649
#
#
#
# Elastic Compliance Matrix: (Units=1/GPa)
#
#
# Indices 1 2 3 4 5 6 
#
# 1 0.019320 -0.004460 -0.003999 0.000000 0.000000 0.000000
# 2 -0.004460 0.008007 -0.003296 0.000000 0.000000 0.000000
# 3 -0.003999 -0.003296 0.015920 0.000000 0.000000 0.000000
# 4 0.000000 0.000000 0.000000 -0.017127 0.000000 0.000000
# 5 0.000000 0.000000 0.000000 0.000000 0.038611 0.000000
# 6 0.000000 0.000000 0.000000 0.000000 0.000000 0.026065
#
#
# Mechanical properties :
#
#
# Convention : Reuss Voigt Hill
#
# Bulk Modulus (GPa) = 50.66626 63.60943 57.13785
# Shear Modulus (GPa) = 41.36127 14.21128 27.78628
#
# Velocity S-wave (km/s) = 4.58090 2.68516 3.75464
# Velocity P-wave (km/s) = 7.32700 6.47191 6.91269
#
# Compressibility (1/GPa) = 0.01973700
#
# Stress axis : x y z
#
# Youngs Moduli (GPa) = 51.75900 124.88743 62.81549
#
# Poissons Ratio (x) = 0.55700 0.25119
# Poissons Ratio (y) = 0.23085 0.20705
# Poissons Ratio (z) = 0.20698 0.41165
#
# Static dielectric constant tensor:
#      x y z
#    x 1.599760 0.000000 0.000000 
#    y 0.000000 1.733620 0.000000 
#    z 0.000000 0.000000 1.767350 
# 
# From -- ./inp_files/14870.got.cif
#   From: 2010.05.17/outbox.ucp.g08.bks.cvg/sg56_8_cif.got.tgz:14870.got - 2010.06.11 16:37:52.
