data_PCOD9433143
_publ_section_title
;
Structure prediction by ZEFSAII (Michael W. Deem and Ramdas Pophale) SiO2 
 PCOD9433143
Probable space group: P C C N
;
_chemical_formula_sum "Si O2"
_cell_formula_units_Z 36
_cell_length_a 9.417815
_cell_length_b 17.998004
_cell_length_c 10.285848
_cell_angle_alpha 90.000000
_cell_angle_beta 90.000000
_cell_angle_gamma 90.000000
_cell_volume 1743.470492
_symmetry_space_group_name_H-M "P C C N"
_symmetry_group_IT_number 56
_symmetry_cell_setting 'orthorhombic'
loop_
_space_group_symop_operation_xyz
x,y,z
1/2-x,1/2-y,z
1/2+x,-y,1/2-z
-x,1/2+y,1/2-z
-x,-y,-z
1/2+x,1/2+y,-z
1/2-x,y,1/2+z
x,1/2-y,1/2+z
loop_
_atom_site_type_symbol
_atom_site_label
_atom_site_fract_x
_atom_site_fract_y
_atom_site_fract_z
Si Si1 0.034518 0.632177 0.274146
Si Si2 0.231287 0.504643 0.367867
Si Si3 0.241682 0.096234 0.115607
Si Si4 0.048066 0.876053 0.470855
Si Si5 0.750000 0.250000 0.128356
O O1 0.101711 0.561785 0.349196
O O2 0.366093 0.554213 0.411680
O O3 0.146556 0.698264 0.288073
O O4 0.884608 0.650200 0.340540
O O5 0.254364 0.465170 0.229977
O O6 0.206540 0.444398 0.480036
O O7 0.481051 0.612607 0.623104
O O8 0.397269 0.131146 0.100392
O O9 0.149364 0.805052 0.452690
#
# Coordination Sequence:
#
# PCOD9433143 Si02
#       5
#     8   8   8   8   4
#     4  11  23  43  66  94 130 171 214 264 314 385
#     4  11  22  40  69  97 135 166 205 258 331 380
#     4  12  22  40  67 101 130 166 207 266 324 378
#     4  11  23  44  65  94 133 168 214 268 309 384
#     4  10  26  46  66  86 122 180 222 260 322 372
#
# _framework density 20.648472000000002
#
# number of rings (size 3 to 8) (size 9 to 14) (size 15 to 20)
#    0.000    0.889    4.444    3.333    0.000    0.889 
#    8.000    2.222    0.000    0.000    0.000    0.000 
#    0.000    0.000    0.000    0.000    0.000    0.000 
#
# Total GULP energy -201308.942997 kJ/mol
# GULP energy per Si atom -5591.915083 kJ/mol
# Density = 2.060147 g / cm^3
# Si number density = 20.648472 Si / 1000 Ang^3
#
#
#
# Elastic Constant Matrix: (Units=GPa)
#
#
# Indices 1 2 3 4 5 6 
#
# 1 174.3729 35.8039 46.0760 0.0000 0.0000 0.0000
# 2 35.8039 59.2957 14.8426 0.0000 0.0000 0.0000
# 3 46.0760 14.8426 104.4691 0.0000 0.0000 0.0000
# 4 0.0000 0.0000 0.0000 13.4544 0.0000 0.0000
# 5 0.0000 0.0000 0.0000 0.0000 31.2281 0.0000
# 6 0.0000 0.0000 0.0000 0.0000 0.0000 17.8283
#
#
#
# Elastic Compliance Matrix: (Units=1/GPa)
#
#
# Indices 1 2 3 4 5 6 
#
# 1 0.007190 -0.003678 -0.002649 0.000000 0.000000 0.000000
# 2 -0.003678 0.019368 -0.001129 0.000000 0.000000 0.000000
# 3 -0.002649 -0.001129 0.010901 0.000000 0.000000 0.000000
# 4 0.000000 0.000000 0.000000 0.074325 0.000000 0.000000
# 5 0.000000 0.000000 0.000000 0.000000 0.032022 0.000000
# 6 0.000000 0.000000 0.000000 0.000000 0.000000 0.056091
#
#
# Mechanical properties :
#
#
# Convention : Reuss Voigt Hill
#
# Bulk Modulus (GPa) = 44.35291 59.06475 51.70883
# Shear Modulus (GPa) = 22.48953 28.59651 25.54302
#
# Velocity S-wave (km/s) = 3.30383 3.72549 3.52098
# Velocity P-wave (km/s) = 6.00669 6.86824 6.45186
#
# Compressibility (1/GPa) = 0.02254643
#
# Stress axis : x y z
#
# Youngs Moduli (GPa) = 139.08252 51.63032 91.73643
#
# Poissons Ratio (x) = 0.18992 0.24296
# Poissons Ratio (y) = 0.51161 0.10361
# Poissons Ratio (z) = 0.36836 0.05831
#
# Static dielectric constant tensor:
#      x y z
#    x 1.762500 0.000000 0.000000 
#    y 0.000000 1.738460 0.000000 
#    z 0.000000 0.000000 1.686310 
# 
# From -- ./inp_files/10489.got.cif
#   From: 2010.05.17/outbox.cif.g08.bks.cpg/sg56_6_cif.got.tgz:10489.got - 2010.06.03 13:42:01.
