data_PCOD9433392
_publ_section_title
;
Structure prediction by ZEFSAII (Michael W. Deem and Ramdas Pophale) SiO2 
 PCOD9433392
Probable space group: P C C N
;
_chemical_formula_sum "Si O2"
_cell_formula_units_Z 48
_cell_length_a 8.285227
_cell_length_b 11.156860
_cell_length_c 24.540674
_cell_angle_alpha 90.000000
_cell_angle_beta 90.000000
_cell_angle_gamma 90.000000
_cell_volume 2268.469171
_symmetry_space_group_name_H-M "P C C N"
_symmetry_group_IT_number 56
_symmetry_cell_setting 'orthorhombic'
loop_
_space_group_symop_operation_xyz
x,y,z
1/2-x,1/2-y,z
1/2+x,-y,1/2-z
-x,1/2+y,1/2-z
-x,-y,-z
1/2+x,1/2+y,-z
1/2-x,y,1/2+z
x,1/2-y,1/2+z
loop_
_atom_site_type_symbol
_atom_site_label
_atom_site_fract_x
_atom_site_fract_y
_atom_site_fract_z
Si Si1 0.745679 0.107118 0.698343
Si Si2 0.083735 0.532062 0.690284
Si Si3 0.744445 0.610011 0.403274
Si Si4 0.843093 0.877622 0.016996
Si Si5 0.440493 0.729955 0.105863
Si Si6 0.589936 0.991803 0.092807
O O1 0.750000 0.250000 0.695191
O O2 0.564448 0.057174 0.698857
O O3 0.833127 0.064935 0.753322
O O4 0.833330 0.051910 0.645803
O O5 0.207027 0.469746 0.648136
O O6 0.024073 0.652262 0.659670
O O7 0.750000 0.750000 0.388407
O O8 0.866005 0.590287 0.453965
O O9 0.566693 0.569689 0.423355
O O10 0.750000 0.750000 0.014026
O O11 0.726652 0.972516 0.047022
O O12 0.994061 0.844949 0.054486
O O13 0.250000 0.750000 0.102172
O O14 0.527828 0.857984 0.106650
#
# Coordination Sequence:
#
# PCOD9433392 Si02
#       6
#     8   8   8   8   8   8
#     4  12  28  47  70 102 138 177 236 290 349 416
#     4  12  26  45  69 100 137 183 231 288 346 414
#     4  11  23  43  67 101 143 181 228 282 349 415
#     4   9  21  41  69 104 137 179 229 280 349 417
#     4  11  22  44  71 103 134 180 238 279 345 421
#     4  11  22  45  72 100 136 184 222 291 345 416
#
# _framework density 21.159644
#
# number of rings (size 3 to 8) (size 9 to 14) (size 15 to 20)
#    0.000    1.000    3.333    3.000    2.333    0.667 
#    0.000    0.833    0.000    0.000    0.000    0.000 
#    0.000    0.000    0.000    0.000    0.000    0.000 
#
# Total GULP energy -268611.469005 kJ/mol
# GULP energy per Si atom -5596.072271 kJ/mol
# Density = 2.111148 g / cm^3
# Si number density = 21.159644 Si / 1000 Ang^3
#
#
#
# Elastic Constant Matrix: (Units=GPa)
#
#
# Indices 1 2 3 4 5 6 
#
# 1 66.2622 36.5016 1.3828 0.0000 0.0000 0.0000
# 2 36.5016 125.6121 20.3270 0.0000 0.0000 0.0000
# 3 1.3828 20.3270 93.5395 0.0000 0.0000 0.0000
# 4 0.0000 0.0000 0.0000 -241.7009 0.0000 0.0000
# 5 0.0000 0.0000 0.0000 0.0000 81.9321 0.0000
# 6 0.0000 0.0000 0.0000 0.0000 0.0000 40.4964
#
#
#
# Elastic Compliance Matrix: (Units=1/GPa)
#
#
# Indices 1 2 3 4 5 6 
#
# 1 0.018041 -0.005389 0.000904 0.000000 0.000000 0.000000
# 2 -0.005389 0.009861 -0.002063 0.000000 0.000000 0.000000
# 3 0.000904 -0.002063 0.011126 0.000000 0.000000 0.000000
# 4 0.000000 0.000000 0.000000 -0.004137 0.000000 0.000000
# 5 0.000000 0.000000 0.000000 0.000000 0.012205 0.000000
# 6 0.000000 0.000000 0.000000 0.000000 0.000000 0.024694
#
#
# Mechanical properties :
#
#
# Convention : Reuss Voigt Hill
#
# Bulk Modulus (GPa) = 38.56204 44.64850 41.60527
# Shear Modulus (GPa) = 53.45942 -8.70765 22.37589
#
# Velocity S-wave (km/s) = 5.03186 -2.03080 3.25542
# Velocity P-wave (km/s) = 7.21273 3.95572 5.81684
#
# Compressibility (1/GPa) = 0.02593224
#
# Stress axis : x y z
#
# Youngs Moduli (GPa) = 55.42842 101.41101 89.88236
#
# Poissons Ratio (x) = 0.54650 -0.08129
# Poissons Ratio (y) = 0.29870 0.18544
# Poissons Ratio (z) = -0.05013 0.20923
#
# Static dielectric constant tensor:
#      x y z
#    x 1.767790 0.000000 0.000000 
#    y 0.000000 1.755840 0.000000 
#    z 0.000000 0.000000 1.736030 
# 
# From -- ./inp_files/20504.got.cif
#   From: 2010.05.17/outbox.cif.g08.bks.cpg/sg56_11_cif.got.tgz:20504.got - 2010.06.03 13:42:01.
