data_PCOD9433872
_publ_section_title
;
Structure prediction by ZEFSAII (Michael W. Deem and Ramdas Pophale) SiO2 
 PCOD9433872
Probable space group: P C C N
;
_chemical_formula_sum "Si O2"
_cell_formula_units_Z 40
_cell_length_a 8.554414
_cell_length_b 21.657991
_cell_length_c 7.587851
_cell_angle_alpha 90.000000
_cell_angle_beta 90.000000
_cell_angle_gamma 90.000000
_cell_volume 1405.811940
_symmetry_space_group_name_H-M "P C C N"
_symmetry_group_IT_number 56
_symmetry_cell_setting 'orthorhombic'
loop_
_space_group_symop_operation_xyz
x,y,z
1/2-x,1/2-y,z
1/2+x,-y,1/2-z
-x,1/2+y,1/2-z
-x,-y,-z
1/2+x,1/2+y,-z
1/2-x,y,1/2+z
x,1/2-y,1/2+z
loop_
_atom_site_type_symbol
_atom_site_label
_atom_site_fract_x
_atom_site_fract_y
_atom_site_fract_z
Si Si1 0.132474 0.434414 0.901820
Si Si2 0.565381 0.109540 0.236881
Si Si3 0.866759 0.049902 0.105253
Si Si4 0.635239 0.806460 0.217313
Si Si5 0.577211 0.275380 0.975958
O O1 0.995926 0.450163 0.760177
O O2 0.256875 0.489106 0.912960
O O3 0.211316 0.371040 0.832413
O O4 0.050364 0.416778 0.086652
O O5 0.564416 0.067764 0.415002
O O6 0.562363 0.179731 0.307473
O O7 0.737769 0.101056 0.154677
O O8 0.750000 0.750000 0.252966
O O9 0.511990 0.812535 0.373156
O O10 0.529175 0.784380 0.056840
O O11 0.750000 0.250000 0.004609
#
# Coordination Sequence:
#
# PCOD9433872 Si02
#       5
#     8   8   8   8   8
#     4  12  29  57  86 131 185 231 303 369 444 547
#     4  12  27  52  85 127 174 232 303 370 446 530
#     4  12  28  52  88 130 176 241 295 368 453 525
#     4  12  28  55  84 131 181 233 293 376 457 536
#     4  12  27  50  90 126 175 236 302 371 452 537
#
# _framework density 28.453308
#
# number of rings (size 3 to 8) (size 9 to 14) (size 15 to 20)
#    0.000    0.000    4.000    4.200    2.800    4.000 
#    7.200    1.000    0.000    0.000    0.000    0.000 
#    0.000    0.000    0.000    0.000    0.000    0.000 
#
# Total GULP energy -224934.421771 kJ/mol
# GULP energy per Si atom -5623.360544 kJ/mol
# Density = 2.838855 g / cm^3
# Si number density = 28.453308 Si / 1000 Ang^3
#
#
#
# Elastic Constant Matrix: (Units=GPa)
#
#
# Indices 1 2 3 4 5 6 
#
# 1 165.6395 58.4711 81.3715 0.0000 0.0000 0.0000
# 2 58.4711 194.1017 62.7564 0.0000 0.0000 0.0000
# 3 81.3715 62.7564 239.4085 0.0000 0.0000 0.0000
# 4 0.0000 0.0000 0.0000 53.8261 0.0000 0.0000
# 5 0.0000 0.0000 0.0000 0.0000 56.4349 0.0000
# 6 0.0000 0.0000 0.0000 0.0000 0.0000 66.8047
#
#
#
# Elastic Compliance Matrix: (Units=1/GPa)
#
#
# Indices 1 2 3 4 5 6 
#
# 1 0.007679 -0.001606 -0.002189 0.000000 0.000000 0.000000
# 2 -0.001606 0.005965 -0.001018 0.000000 0.000000 0.000000
# 3 -0.002189 -0.001018 0.005188 0.000000 0.000000 0.000000
# 4 0.000000 0.000000 0.000000 0.018578 0.000000 0.000000
# 5 0.000000 0.000000 0.000000 0.000000 0.017720 0.000000
# 6 0.000000 0.000000 0.000000 0.000000 0.000000 0.014969
#
#
# Mechanical properties :
#
#
# Convention : Reuss Voigt Hill
#
# Bulk Modulus (GPa) = 108.61619 111.59417 110.10518
# Shear Modulus (GPa) = 60.39153 61.84985 61.12069
#
# Velocity S-wave (km/s) = 4.61203 4.66739 4.63979
# Velocity P-wave (km/s) = 8.16195 8.26748 8.21489
#
# Compressibility (1/GPa) = 0.00920673
#
# Stress axis : x y z
#
# Youngs Moduli (GPa) = 130.21756 167.65397 192.75736
#
# Poissons Ratio (x) = 0.26917 0.42200
# Poissons Ratio (y) = 0.20907 0.19619
# Poissons Ratio (z) = 0.28508 0.17064
#
# Static dielectric constant tensor:
#      x y z
#    x 2.206000 0.000000 0.000000 
#    y 0.000000 2.262550 0.000000 
#    z 0.000000 0.000000 2.211890 
# 
# From -- ./inp_files/2039.got.cif
#   From: 2010.05.17/outbox.cif.g08.bks.cpg/sg56_2_cif.got.tgz:2039.got - 2010.06.03 13:42:01.
