data_PCOD9433912
_publ_section_title
;
Structure prediction by ZEFSAII (Michael W. Deem and Ramdas Pophale) SiO2 
 PCOD9433912
Probable space group: P C C N
;
_chemical_formula_sum "Si O2"
_cell_formula_units_Z 48
_cell_length_a 18.000000
_cell_length_b 15.000000
_cell_length_c 9.000000
_cell_angle_alpha 90.000000
_cell_angle_beta 90.000000
_cell_angle_gamma 90.000000
_cell_volume 2430.000000
_symmetry_space_group_name_H-M "P C C N"
_symmetry_group_IT_number 56
_symmetry_cell_setting 'orthorhombic'
loop_
_space_group_symop_operation_xyz
x,y,z
1/2-x,1/2-y,z
1/2+x,-y,1/2-z
-x,1/2+y,1/2-z
-x,-y,-z
1/2+x,1/2+y,-z
1/2-x,y,1/2+z
x,1/2-y,1/2+z
loop_
_atom_site_type_symbol
_atom_site_label
_atom_site_fract_x
_atom_site_fract_y
_atom_site_fract_z
Si Si1 0.973463 0.602075 0.275036
Si Si2 0.565223 0.378954 0.941153
Si Si3 0.021593 0.082170 0.670420
Si Si4 0.827721 0.978964 0.788446
Si Si5 0.330936 0.996820 0.064214
Si Si6 0.576336 0.180214 0.933490
O O1 0.886258 0.603412 0.309548
O O2 0.030196 0.584758 0.408405
O O3 0.984583 0.516622 0.167956
O O4 0.013040 0.682686 0.193468
O O5 0.493215 0.382085 0.834507
O O6 0.626776 0.442195 0.869790
O O7 0.600160 0.281142 0.958487
O O8 0.105126 0.065086 0.619484
O O9 0.970457 0.145089 0.572172
O O10 0.820913 0.996308 0.612854
O O11 0.746283 0.978148 0.858036
O O12 0.361640 0.895786 0.098535
#
# Coordination Sequence:
#
# PCOD9433912 Si02
#       6
#     8   8   8   8   8   8
#     4  10  20  37  62  85 115 155 208 244 276 354
#     4  11  23  35  63  93 119 147 204 247 302 351
#     4  10  19  41  60  82 115 160 202 243 285 345
#     4  11  23  39  57  89 116 158 195 239 293 356
#     4  11  23  38  62  82 122 156 196 238 295 351
#     4  11  20  40  61  88 118 159 189 252 302 347
#
# _framework density 19.753086
#
# number of rings (size 3 to 8) (size 9 to 14) (size 15 to 20)
#    0.000    1.333    5.000    4.000    7.000    0.667 
#    0.000    1.667    0.000    6.000    0.000    0.000 
#    0.000    0.000    0.000    0.000    0.000    0.000 
#
# Total GULP energy -267236.344674 kJ/mol
# GULP energy per Si atom -5567.423847 kJ/mol
# Density = 1.970813 g / cm^3
# Si number density = 19.753086 Si / 1000 Ang^3
#
#
#
# Elastic Constant Matrix: (Units=GPa)
#
#
# Indices 1 2 3 4 5 6 
#
# 1 124.9090 -21.4362 34.3555 0.0000 0.0000 0.0000
# 2 -21.4362 11.2824 0.5589 0.0000 0.0000 0.0000
# 3 34.3555 0.5589 80.9864 0.0000 0.0000 0.0000
# 4 0.0000 0.0000 0.0000 15.3194 0.0000 0.0000
# 5 0.0000 0.0000 0.0000 0.0000 35.4879 0.0000
# 6 0.0000 0.0000 0.0000 0.0000 0.0000 13.7071
#
#
#
# Elastic Compliance Matrix: (Units=1/GPa)
#
#
# Indices 1 2 3 4 5 6 
#
# 1 0.014559 0.027977 -0.006369 0.000000 0.000000 0.000000
# 2 0.027977 0.142426 -0.012851 0.000000 0.000000 0.000000
# 3 -0.006369 -0.012851 0.015138 0.000000 0.000000 0.000000
# 4 0.000000 0.000000 0.000000 0.065277 0.000000 0.000000
# 5 0.000000 0.000000 0.000000 0.000000 0.028179 0.000000
# 6 0.000000 0.000000 0.000000 0.000000 0.000000 0.072955
#
#
# Mechanical properties :
#
#
# Convention : Reuss Voigt Hill
#
# Bulk Modulus (GPa) = 5.27326 27.12603 16.19964
# Shear Modulus (GPa) = 13.01298 26.48285 19.74792
#
# Velocity S-wave (km/s) = 2.56946 3.66552 3.16529
# Velocity P-wave (km/s) = 3.38795 5.62824 4.64518
#
# Compressibility (1/GPa) = 0.18963615
#
# Stress axis : x y z
#
# Youngs Moduli (GPa) = 68.68662 7.02121 66.05747
#
# Poissons Ratio (x) = -0.19643 0.42073
# Poissons Ratio (y) = -1.92164 0.84891
# Poissons Ratio (z) = 0.43748 0.09023
#
# Static dielectric constant tensor:
#      x y z
#    x 1.688900 0.000000 0.000000 
#    y 0.000000 1.744220 0.000000 
#    z 0.000000 0.000000 1.814250 
# 
# From -- ./inp_files/3401.got.cif
#   From: 2010.05.17/outbox.ucp.g08.bks.cvg/sg56_2_cif.got.tgz:3401.got - 2010.06.11 16:37:52.
