data_PCOD9433767
_publ_section_title
;
Structure prediction by ZEFSAII (Michael W. Deem and Ramdas Pophale) SiO2 
 PCOD9433767
Probable space group: P C C N
;
_chemical_formula_sum "Si O2"
_cell_formula_units_Z 24
_cell_length_a 4.850157
_cell_length_b 9.535475
_cell_length_c 21.492734
_cell_angle_alpha 90.000000
_cell_angle_beta 90.000000
_cell_angle_gamma 90.000000
_cell_volume 994.007801
_symmetry_space_group_name_H-M "P C C N"
_symmetry_group_IT_number 56
_symmetry_cell_setting 'orthorhombic'
loop_
_space_group_symop_operation_xyz
x,y,z
1/2-x,1/2-y,z
1/2+x,-y,1/2-z
-x,1/2+y,1/2-z
-x,-y,-z
1/2+x,1/2+y,-z
1/2-x,y,1/2+z
x,1/2-y,1/2+z
loop_
_atom_site_type_symbol
_atom_site_label
_atom_site_fract_x
_atom_site_fract_y
_atom_site_fract_z
Si Si1 0.179180 0.101337 0.043402
Si Si2 0.795101 0.455093 0.125391
Si Si3 0.750000 0.250000 0.232992
Si Si4 0.750000 0.750000 0.678218
O O1 0.250000 0.250000 0.012534
O O2 0.453473 0.041296 0.076109
O O3 0.189829 0.112221 0.862027
O O4 0.963048 0.131698 0.098417
O O5 0.500000 0.500000 0.000000
O O6 0.858235 0.376907 0.189845
O O7 0.503034 0.292602 0.278041
#
# Coordination Sequence:
#
# PCOD9433767 Si02
#       4
#     8   8   4   4
#     4  12  26  49  76 104 141 195 250 312 376 444
#     4  12  25  47  73 106 151 186 245 307 369 445
#     4  12  22  46  72 104 150 192 244 290 376 442
#     4  12  26  42  72 114 142 194 238 300 366 460
#
# _framework density 24.144680000000001
#
# number of rings (size 3 to 8) (size 9 to 14) (size 15 to 20)
#    0.000    0.000    3.333    7.000    2.333    0.000 
#    0.000    0.000    0.000    0.000    0.000    0.000 
#    0.000    0.000    0.000    0.000    0.000    0.000 
#
# Total GULP energy -134389.973810 kJ/mol
# GULP energy per Si atom -5599.582242 kJ/mol
# Density = 2.408973 g / cm^3
# Si number density = 24.144680 Si / 1000 Ang^3
#
#
#
# Elastic Constant Matrix: (Units=GPa)
#
#
# Indices 1 2 3 4 5 6 
#
# 1 123.3087 15.1197 28.9438 0.0000 0.0000 0.0000
# 2 15.1197 166.3699 40.6287 0.0000 0.0000 0.0000
# 3 28.9438 40.6287 71.7607 0.0000 0.0000 0.0000
# 4 0.0000 0.0000 0.0000 54.2788 0.0000 0.0000
# 5 0.0000 0.0000 0.0000 0.0000 52.4606 0.0000
# 6 0.0000 0.0000 0.0000 0.0000 0.0000 38.3580
#
#
#
# Elastic Compliance Matrix: (Units=1/GPa)
#
#
# Indices 1 2 3 4 5 6 
#
# 1 0.008959 0.000079 -0.003658 0.000000 0.000000 0.000000
# 2 0.000079 0.006976 -0.003981 0.000000 0.000000 0.000000
# 3 -0.003658 -0.003981 0.017665 0.000000 0.000000 0.000000
# 4 0.000000 0.000000 0.000000 0.018423 0.000000 0.000000
# 5 0.000000 0.000000 0.000000 0.000000 0.019062 0.000000
# 6 0.000000 0.000000 0.000000 0.000000 0.000000 0.026070
#
#
# Mechanical properties :
#
#
# Convention : Reuss Voigt Hill
#
# Bulk Modulus (GPa) = 54.11705 58.98040 56.54873
# Shear Modulus (GPa) = 42.21717 47.46928 44.84323
#
# Velocity S-wave (km/s) = 4.18605 4.43881 4.31428
# Velocity P-wave (km/s) = 6.76952 7.12402 6.94903
#
# Compressibility (1/GPa) = 0.01847846
#
# Stress axis : x y z
#
# Youngs Moduli (GPa) = 111.62337 143.35282 56.60960
#
# Poissons Ratio (x) = -0.01135 0.20709
# Poissons Ratio (y) = -0.00884 0.22539
# Poissons Ratio (z) = 0.40834 0.57075
#
# Static dielectric constant tensor:
#      x y z
#    x 1.904600 0.000000 0.000000 
#    y 0.000000 2.079810 0.000000 
#    z 0.000000 0.000000 1.964070 
# 
# From -- ./inp_files/9294.got.cif
#   From: 2010.05.17/outbox.cif.g08.bks.cpg/sg56_5_cif.got.tgz:9294.got - 2010.06.03 13:42:01.
