data_PCOD9433339
_publ_section_title
;
Structure prediction by ZEFSAII (Michael W. Deem and Ramdas Pophale) SiO2 
 PCOD9433339
Probable space group: P C C N
;
_chemical_formula_sum "Si O2"
_cell_formula_units_Z 44
_cell_length_a 13.695173
_cell_length_b 16.759669
_cell_length_c 7.662814
_cell_angle_alpha 90.000000
_cell_angle_beta 90.000000
_cell_angle_gamma 90.000000
_cell_volume 1758.819386
_symmetry_space_group_name_H-M "P C C N"
_symmetry_group_IT_number 56
_symmetry_cell_setting 'orthorhombic'
loop_
_space_group_symop_operation_xyz
x,y,z
1/2-x,1/2-y,z
1/2+x,-y,1/2-z
-x,1/2+y,1/2-z
-x,-y,-z
1/2+x,1/2+y,-z
1/2-x,y,1/2+z
x,1/2-y,1/2+z
loop_
_atom_site_type_symbol
_atom_site_label
_atom_site_fract_x
_atom_site_fract_y
_atom_site_fract_z
Si Si1 0.539747 0.933555 0.803997
Si Si2 0.566431 0.664790 0.951822
Si Si3 0.827666 0.910437 0.643166
Si Si4 0.819845 0.424549 0.252656
Si Si5 0.250000 0.250000 0.475581
Si Si6 0.621138 0.399490 0.149915
O O1 0.557655 0.873157 0.643125
O O2 0.424084 0.920964 0.846925
O O3 0.568416 0.023592 0.740629
O O4 0.605007 0.916402 0.973357
O O5 0.642222 0.738085 0.941541
O O6 0.615480 0.601613 0.822487
O O7 0.458523 0.671779 0.870633
O O8 0.760984 0.833075 0.624341
O O9 0.774255 0.992708 0.679344
O O10 0.723153 0.371186 0.234467
O O11 0.853196 0.423326 0.451428
#
# Coordination Sequence:
#
# PCOD9433339 Si02
#       6
#     8   8   8   8   4   8
#     4  11  23  41  66 100 136 175 229 289 349 404
#     4  11  25  45  60  99 140 177 227 288 327 413
#     4  12  25  41  67  95 141 183 231 272 347 414
#     4  11  22  39  67 103 134 178 224 289 355 401
#     4  12  30  44  68 102 140 192 224 272 344 410
#     4  11  22  40  67  99 143 172 229 291 346 406
#
# _framework density 25.016781000000002
#
# number of rings (size 3 to 8) (size 9 to 14) (size 15 to 20)
#    0.000    0.727    3.636    4.364   10.182    0.000 
#    0.000    0.000    0.000    1.091    0.000    0.000 
#    0.000    0.000    0.000    0.000    0.000    0.000 
#
# Total GULP energy -245661.952286 kJ/mol
# GULP energy per Si atom -5583.226188 kJ/mol
# Density = 2.495984 g / cm^3
# Si number density = 25.016781 Si / 1000 Ang^3
#
#
#
# Elastic Constant Matrix: (Units=GPa)
#
#
# Indices 1 2 3 4 5 6 
#
# 1 203.1457 45.4750 13.8131 0.0000 0.0000 0.0000
# 2 45.4750 41.1307 15.1148 0.0000 0.0000 0.0000
# 3 13.8131 15.1148 56.8945 0.0000 0.0000 0.0000
# 4 0.0000 0.0000 0.0000 19.7823 0.0000 0.0000
# 5 0.0000 0.0000 0.0000 0.0000 36.2167 0.0000
# 6 0.0000 0.0000 0.0000 0.0000 0.0000 40.4942
#
#
#
# Elastic Compliance Matrix: (Units=1/GPa)
#
#
# Indices 1 2 3 4 5 6 
#
# 1 0.006549 -0.007376 0.000370 0.000000 0.000000 0.000000
# 2 -0.007376 0.035251 -0.007574 0.000000 0.000000 0.000000
# 3 0.000370 -0.007574 0.019499 0.000000 0.000000 0.000000
# 4 0.000000 0.000000 0.000000 0.050550 0.000000 0.000000
# 5 0.000000 0.000000 0.000000 0.000000 0.027612 0.000000
# 6 0.000000 0.000000 0.000000 0.000000 0.000000 0.024695
#
#
# Mechanical properties :
#
#
# Convention : Reuss Voigt Hill
#
# Bulk Modulus (GPa) = 31.11633 49.99743 40.55688
# Shear Modulus (GPa) = 24.50627 34.41650 29.46139
#
# Velocity S-wave (km/s) = 3.13324 3.71312 3.43544
# Velocity P-wave (km/s) = 5.05517 6.19773 5.65538
#
# Compressibility (1/GPa) = 0.03213746
#
# Stress axis : x y z
#
# Youngs Moduli (GPa) = 152.70392 28.36770 51.28511
#
# Poissons Ratio (x) = 0.20924 -0.01896
# Poissons Ratio (y) = 1.12637 0.38844
# Poissons Ratio (z) = -0.05645 0.21486
#
# Static dielectric constant tensor:
#      x y z
#    x 2.166360 0.000000 0.000000 
#    y 0.000000 2.002040 0.000000 
#    z 0.000000 0.000000 1.996880 
# 
# From -- ./inp_files/3340.got.cif
#   From: 2010.05.17/outbox.cif.g08.bks.cpg/sg56_2_cif.got.tgz:3340.got - 2010.06.03 13:42:01.
