data_PCOD9433706
_publ_section_title
;
Structure prediction by ZEFSAII (Michael W. Deem and Ramdas Pophale) SiO2 
 PCOD9433706
Probable space group: P C C N
;
_chemical_formula_sum "Si O2"
_cell_formula_units_Z 36
_cell_length_a 7.934894
_cell_length_b 8.666090
_cell_length_c 22.558157
_cell_angle_alpha 90.000000
_cell_angle_beta 90.000000
_cell_angle_gamma 90.000000
_cell_volume 1551.200512
_symmetry_space_group_name_H-M "P C C N"
_symmetry_group_IT_number 56
_symmetry_cell_setting 'orthorhombic'
loop_
_space_group_symop_operation_xyz
x,y,z
1/2-x,1/2-y,z
1/2+x,-y,1/2-z
-x,1/2+y,1/2-z
-x,-y,-z
1/2+x,1/2+y,-z
1/2-x,y,1/2+z
x,1/2-y,1/2+z
loop_
_atom_site_type_symbol
_atom_site_label
_atom_site_fract_x
_atom_site_fract_y
_atom_site_fract_z
Si Si1 0.494961 0.207847 0.805345
Si Si2 0.318012 0.493009 0.767451
Si Si3 0.439308 0.682754 0.066954
Si Si4 0.250000 0.750000 0.364177
Si Si5 0.068996 0.312008 0.563303
O O1 0.473995 0.373939 0.774663
O O2 0.343271 0.113520 0.775632
O O3 0.481769 0.238185 0.874980
O O4 0.653375 0.099809 0.789795
O O5 0.303599 0.610290 0.822052
O O6 0.250000 0.750000 0.060650
O O7 0.437810 0.496691 0.074203
O O8 0.540912 0.714486 0.006793
O O9 0.414938 0.725710 0.404218
O O10 0.250000 0.250000 0.582812
#
# Coordination Sequence:
#
# PCOD9433706 Si02
#       5
#     8   8   8   4   8
#     4  11  26  48  71 111 145 207 249 329 374 477
#     4  11  26  46  76 101 157 194 262 310 398 452
#     4  11  26  48  77 110 155 197 260 322 397 473
#     4  12  24  50  70 116 152 206 254 330 374 486
#     4  11  27  49  78 116 154 203 257 327 400 473
#
# _framework density 23.207833999999998
#
# number of rings (size 3 to 8) (size 9 to 14) (size 15 to 20)
#    0.000    0.889    3.333    1.333   10.889    0.889 
#    4.000    0.000    0.000    0.000    0.000    0.000 
#    0.000    0.000    0.000    0.000    0.000    0.000 
#
# Total GULP energy -201347.297680 kJ/mol
# GULP energy per Si atom -5592.980491 kJ/mol
# Density = 2.315501 g / cm^3
# Si number density = 23.207834 Si / 1000 Ang^3
#
#
#
# Elastic Constant Matrix: (Units=GPa)
#
#
# Indices 1 2 3 4 5 6 
#
# 1 108.7707 29.9145 17.8069 0.0000 0.0000 0.0000
# 2 29.9145 110.0700 66.1294 0.0000 0.0000 0.0000
# 3 17.8069 66.1294 118.8810 0.0000 0.0000 0.0000
# 4 0.0000 0.0000 0.0000 53.9212 0.0000 0.0000
# 5 0.0000 0.0000 0.0000 0.0000 28.7246 0.0000
# 6 0.0000 0.0000 0.0000 0.0000 0.0000 33.4455
#
#
#
# Elastic Compliance Matrix: (Units=1/GPa)
#
#
# Indices 1 2 3 4 5 6 
#
# 1 0.009936 -0.002713 0.000021 0.000000 0.000000 0.000000
# 2 -0.002713 0.014386 -0.007596 0.000000 0.000000 0.000000
# 3 0.000021 -0.007596 0.012634 0.000000 0.000000 0.000000
# 4 0.000000 0.000000 0.000000 0.018546 0.000000 0.000000
# 5 0.000000 0.000000 0.000000 0.000000 0.034813 0.000000
# 6 0.000000 0.000000 0.000000 0.000000 0.000000 0.029899
#
#
# Mechanical properties :
#
#
# Convention : Reuss Voigt Hill
#
# Bulk Modulus (GPa) = 61.05004 62.82480 61.93742
# Shear Modulus (GPa) = 34.18763 38.14299 36.16531
#
# Velocity S-wave (km/s) = 3.84227 4.05846 3.95184
# Velocity P-wave (km/s) = 6.78579 7.00648 6.89702
#
# Compressibility (1/GPa) = 0.01638001
#
# Stress axis : x y z
#
# Youngs Moduli (GPa) = 100.64028 69.51121 79.15058
#
# Poissons Ratio (x) = 0.18858 -0.00164
# Poissons Ratio (y) = 0.27303 0.60124
# Poissons Ratio (z) = -0.00209 0.52802
#
# Static dielectric constant tensor:
#      x y z
#    x 1.790300 0.000000 0.000000 
#    y 0.000000 0.611640 0.000000 
#    z 0.000000 0.000000 1.835190 
# 
# From -- ./inp_files/17859.got.cif
#   From: 2010.05.17/outbox.cif.g08.bks.cpg/sg56_9_cif.got.tgz:17859.got - 2010.06.03 13:42:01.
