data_PCOD9433966
_publ_section_title
;
Structure prediction by ZEFSAII (Michael W. Deem and Ramdas Pophale) SiO2 
 PCOD9433966
Probable space group: P C C N
;
_chemical_formula_sum "Si O2"
_cell_formula_units_Z 48
_cell_length_a 9.000000
_cell_length_b 18.000000
_cell_length_c 15.000000
_cell_angle_alpha 90.000000
_cell_angle_beta 90.000000
_cell_angle_gamma 90.000000
_cell_volume 2430.000000
_symmetry_space_group_name_H-M "P C C N"
_symmetry_group_IT_number 56
_symmetry_cell_setting 'orthorhombic'
loop_
_space_group_symop_operation_xyz
x,y,z
1/2-x,1/2-y,z
1/2+x,-y,1/2-z
-x,1/2+y,1/2-z
-x,-y,-z
1/2+x,1/2+y,-z
1/2-x,y,1/2+z
x,1/2-y,1/2+z
loop_
_atom_site_type_symbol
_atom_site_label
_atom_site_fract_x
_atom_site_fract_y
_atom_site_fract_z
Si Si1 0.984783 0.923157 0.554918
Si Si2 0.923920 0.760636 0.482040
Si Si3 0.483383 0.183799 0.326851
Si Si4 0.288754 0.416306 0.272540
Si Si5 0.042853 0.682903 0.309593
Si Si6 0.741793 0.417488 0.298588
O O1 0.960527 0.848347 0.496308
O O2 0.852444 0.928193 0.627567
O O3 0.126418 0.912447 0.619677
O O4 0.000000 0.000000 0.500000
O O5 0.750000 0.750000 0.457591
O O6 0.947943 0.719729 0.577143
O O7 0.022237 0.720702 0.405750
O O8 0.344115 0.141932 0.283276
O O9 0.532507 0.251271 0.263134
O O10 0.607719 0.120293 0.331715
O O11 0.409815 0.374844 0.211353
O O12 0.252323 0.496889 0.231850
O O13 0.185836 0.633378 0.284442
#
# Coordination Sequence:
#
# PCOD9433966 Si02
#       6
#     8   8   8   8   8   8
#     4  11  26  45  65 102 140 178 227 283 346 403
#     4  12  24  44  74 102 133 184 237 282 332 417
#     4  12  22  46  69  99 136 174 230 283 330 412
#     4  11  23  46  70  95 139 182 226 278 340 416
#     4  11  25  43  70 101 131 180 230 275 346 399
#     4  11  26  44  66 102 143 175 218 288 351 403
#
# _framework density 19.753086
#
# number of rings (size 3 to 8) (size 9 to 14) (size 15 to 20)
#    0.000    0.667    5.000    4.000    7.000    1.333 
#    3.000    2.500    0.000    0.000    0.000    0.000 
#    0.000    0.000    0.000    0.000    0.000    0.000 
#
# Total GULP energy -268396.793808 kJ/mol
# GULP energy per Si atom -5591.599871 kJ/mol
# Density = 1.970813 g / cm^3
# Si number density = 19.753086 Si / 1000 Ang^3
#
#
#
# Elastic Constant Matrix: (Units=GPa)
#
#
# Indices 1 2 3 4 5 6 
#
# 1 30.6073 4.1856 -14.3821 0.0000 0.0000 0.0000
# 2 4.1856 146.5986 23.9900 0.0000 0.0000 0.0000
# 3 -14.3821 23.9900 59.7957 0.0000 0.0000 0.0000
# 4 0.0000 0.0000 0.0000 51.6148 0.0000 0.0000
# 5 0.0000 0.0000 0.0000 0.0000 16.3805 0.0000
# 6 0.0000 0.0000 0.0000 0.0000 0.0000 41.8775
#
#
#
# Elastic Compliance Matrix: (Units=1/GPa)
#
#
# Indices 1 2 3 4 5 6 
#
# 1 0.037844 -0.002751 0.010206 0.000000 0.000000 0.000000
# 2 -0.002751 0.007501 -0.003671 0.000000 0.000000 0.000000
# 3 0.010206 -0.003671 0.020651 0.000000 0.000000 0.000000
# 4 0.000000 0.000000 0.000000 0.019374 0.000000 0.000000
# 5 0.000000 0.000000 0.000000 0.000000 0.061048 0.000000
# 6 0.000000 0.000000 0.000000 0.000000 0.000000 0.023879
#
#
# Mechanical properties :
#
#
# Convention : Reuss Voigt Hill
#
# Bulk Modulus (GPa) = 13.59364 29.39873 21.49618
# Shear Modulus (GPa) = 26.70233 36.85510 31.77871
#
# Velocity S-wave (km/s) = 3.68068 4.32416 4.01533
# Velocity P-wave (km/s) = 4.99599 6.31242 5.69239
#
# Compressibility (1/GPa) = 0.07356384
#
# Stress axis : x y z
#
# Youngs Moduli (GPa) = 26.42454 133.32298 48.42377
#
# Poissons Ratio (x) = 0.36672 -0.49420
# Poissons Ratio (y) = 0.07268 0.17775
# Poissons Ratio (z) = -0.26968 0.48940
#
# Static dielectric constant tensor:
#      x y z
#    x 1.761750 0.000000 0.000000 
#    y 0.000000 1.655430 0.000000 
#    z 0.000000 0.000000 1.667100 
# 
# From -- ./inp_files/10666.got.cif
#   From: 2010.05.17/outbox.ucp.g08.bks.cvg/sg56_6_cif.got.tgz:10666.got - 2010.06.11 16:37:52.
