data_PCOD9433079
_publ_section_title
;
Structure prediction by ZEFSAII (Michael W. Deem and Ramdas Pophale) SiO2 
 PCOD9433079
Probable space group: P C C N
;
_chemical_formula_sum "Si O2"
_cell_formula_units_Z 32
_cell_length_a 14.068543
_cell_length_b 4.880307
_cell_length_c 19.341654
_cell_angle_alpha 90.000000
_cell_angle_beta 90.000000
_cell_angle_gamma 90.000000
_cell_volume 1327.974925
_symmetry_space_group_name_H-M "P C C N"
_symmetry_group_IT_number 56
_symmetry_cell_setting 'orthorhombic'
loop_
_space_group_symop_operation_xyz
x,y,z
1/2-x,1/2-y,z
1/2+x,-y,1/2-z
-x,1/2+y,1/2-z
-x,-y,-z
1/2+x,1/2+y,-z
1/2-x,y,1/2+z
x,1/2-y,1/2+z
loop_
_atom_site_type_symbol
_atom_site_label
_atom_site_fract_x
_atom_site_fract_y
_atom_site_fract_z
Si Si1 0.817126 0.484285 0.992710
Si Si2 0.152396 0.079638 0.358534
Si Si3 0.648708 0.893821 0.298290
Si Si4 0.558505 0.101291 0.867646
O O1 0.750000 0.250000 0.964849
O O2 0.905947 0.511827 0.941580
O O3 0.750000 0.750000 0.994023
O O4 0.844417 0.401959 0.071491
O O5 0.250000 0.250000 0.360549
O O6 0.149909 0.983587 0.279385
O O7 0.048795 0.214425 0.367460
O O8 0.750000 0.750000 0.312072
O O9 0.573565 0.648925 0.313398
O O10 0.623945 0.146658 0.346096
#
# Coordination Sequence:
#
# PCOD9433079 Si02
#       4
#     8   8   8   8
#     4  11  24  43  66  95 130 170 215 265 320 381
#     4  10  25  44  65  96 134 172 213 264 321 382
#     4  11  24  42  68  98 130 167 214 267 322 381
#     4  12  23  43  69  97 128 171 216 264 319 382
#
# _framework density 24.096841000000001
#
# number of rings (size 3 to 8) (size 9 to 14) (size 15 to 20)
#    0.000    1.000    0.000    6.750    0.000   10.000 
#    0.000    8.750    0.000    0.000    0.000    0.000 
#    0.000    0.000    0.000    0.000    0.000    0.000 
#
# Total GULP energy -178666.874344 kJ/mol
# GULP energy per Si atom -5583.339823 kJ/mol
# Density = 2.404200 g / cm^3
# Si number density = 24.096841 Si / 1000 Ang^3
#
#
#
# Elastic Constant Matrix: (Units=GPa)
#
#
# Indices 1 2 3 4 5 6 
#
# 1 135.1078 16.7897 72.6937 0.0000 0.0000 0.0000
# 2 16.7897 87.1350 21.4032 0.0000 0.0000 0.0000
# 3 72.6937 21.4032 139.4084 0.0000 0.0000 0.0000
# 4 0.0000 0.0000 0.0000 23.2668 0.0000 0.0000
# 5 0.0000 0.0000 0.0000 0.0000 37.0448 0.0000
# 6 0.0000 0.0000 0.0000 0.0000 0.0000 25.2240
#
#
#
# Elastic Compliance Matrix: (Units=1/GPa)
#
#
# Indices 1 2 3 4 5 6 
#
# 1 0.010328 -0.000693 -0.005279 0.000000 0.000000 0.000000
# 2 -0.000693 0.011973 -0.001477 0.000000 0.000000 0.000000
# 3 -0.005279 -0.001477 0.010153 0.000000 0.000000 0.000000
# 4 0.000000 0.000000 0.000000 0.042980 0.000000 0.000000
# 5 0.000000 0.000000 0.000000 0.000000 0.026994 0.000000
# 6 0.000000 0.000000 0.000000 0.000000 0.000000 0.039645
#
#
# Mechanical properties :
#
#
# Convention : Reuss Voigt Hill
#
# Bulk Modulus (GPa) = 56.96272 64.82492 60.89382
# Shear Modulus (GPa) = 30.70841 33.82478 32.26660
#
# Velocity S-wave (km/s) = 3.57371 3.75067 3.66326
# Velocity P-wave (km/s) = 6.38114 6.76143 6.57403
#
# Compressibility (1/GPa) = 0.01755534
#
# Stress axis : x y z
#
# Youngs Moduli (GPa) = 96.82422 83.52305 98.49711
#
# Poissons Ratio (x) = 0.05791 0.51997
# Poissons Ratio (y) = 0.06713 0.14544
# Poissons Ratio (z) = 0.51114 0.12333
#
# Static dielectric constant tensor:
#      x y z
#    x 1.949190 0.000000 0.000000 
#    y 0.000000 1.911930 0.000000 
#    z 0.000000 0.000000 1.944880 
# 
# From -- ./inp_files/15958.got.cif
#   From: 2010.05.17/outbox.cif.g08.bks.cpg/sg56_8_cif.got.tgz:15958.got - 2010.06.03 13:42:01.
