data_PCOD9433829
_publ_section_title
;
Structure prediction by ZEFSAII (Michael W. Deem and Ramdas Pophale) SiO2 
 PCOD9433829
Probable space group: P C C N
;
_chemical_formula_sum "Si O2"
_cell_formula_units_Z 20
_cell_length_a 6.473708
_cell_length_b 4.996498
_cell_length_c 26.009780
_cell_angle_alpha 90.000000
_cell_angle_beta 90.000000
_cell_angle_gamma 90.000000
_cell_volume 841.308939
_symmetry_space_group_name_H-M "P C C N"
_symmetry_group_IT_number 56
_symmetry_cell_setting 'orthorhombic'
loop_
_space_group_symop_operation_xyz
x,y,z
1/2-x,1/2-y,z
1/2+x,-y,1/2-z
-x,1/2+y,1/2-z
-x,-y,-z
1/2+x,1/2+y,-z
1/2-x,y,1/2+z
x,1/2-y,1/2+z
loop_
_atom_site_type_symbol
_atom_site_label
_atom_site_fract_x
_atom_site_fract_y
_atom_site_fract_z
Si Si1 0.597420 0.498516 0.557072
Si Si2 0.532481 0.132205 0.714510
Si Si3 0.750000 0.750000 0.873472
O O1 0.750000 0.250000 0.561192
O O2 0.500000 0.500000 0.500000
O O3 0.402199 0.438896 0.593959
O O4 0.750000 0.750000 0.566336
O O5 0.750000 0.250000 0.696145
O O6 0.551036 0.870566 0.749148
O O7 0.391978 0.080064 0.665370
#
# Coordination Sequence:
#
# PCOD9433829 Si02
#       3
#     8   8   4
#     4  12  28  51  80 116 158 205 265 328 398 479
#     4  12  25  48  73 107 151 199 257 321 386 469
#     4  12  28  48  84 110 160 210 262 328 412 462
#
# _framework density 23.772478
#
# number of rings (size 3 to 8) (size 9 to 14) (size 15 to 20)
#    0.000    0.000    6.000    2.400    0.000    9.600 
#    0.000    0.000    0.000    0.000    0.000    0.000 
#    0.000    0.000    0.000    0.000    0.000    0.000 
#
# Total GULP energy -112038.301346 kJ/mol
# GULP energy per Si atom -5601.915067 kJ/mol
# Density = 2.371837 g / cm^3
# Si number density = 23.772478 Si / 1000 Ang^3
#
#
#
# Elastic Constant Matrix: (Units=GPa)
#
#
# Indices 1 2 3 4 5 6 
#
# 1 222.3706 85.1905 113.7495 0.0000 0.0000 0.0000
# 2 85.1905 196.2387 63.5591 0.0000 0.0000 0.0000
# 3 113.7495 63.5591 185.9679 0.0000 0.0000 0.0000
# 4 0.0000 0.0000 0.0000 25.0271 0.0000 0.0000
# 5 0.0000 0.0000 0.0000 0.0000 99.7203 0.0000
# 6 0.0000 0.0000 0.0000 0.0000 0.0000 45.3292
#
#
#
# Elastic Compliance Matrix: (Units=1/GPa)
#
#
# Indices 1 2 3 4 5 6 
#
# 1 0.007117 -0.001889 -0.003708 0.000000 0.000000 0.000000
# 2 -0.001889 0.006231 -0.000974 0.000000 0.000000 0.000000
# 3 -0.003708 -0.000974 0.007978 0.000000 0.000000 0.000000
# 4 0.000000 0.000000 0.000000 0.039957 0.000000 0.000000
# 5 0.000000 0.000000 0.000000 0.000000 0.010028 0.000000
# 6 0.000000 0.000000 0.000000 0.000000 0.000000 0.022061
#
#
# Mechanical properties :
#
#
# Convention : Reuss Voigt Hill
#
# Bulk Modulus (GPa) = 122.17757 125.50838 123.84298
# Shear Modulus (GPa) = 45.76962 56.82054 51.29508
#
# Velocity S-wave (km/s) = 4.39261 4.89425 4.65020
# Velocity P-wave (km/s) = 8.78822 9.21133 9.00226
#
# Compressibility (1/GPa) = 0.00818481
#
# Stress axis : x y z
#
# Youngs Moduli (GPa) = 140.50344 160.47756 125.34102
#
# Poissons Ratio (x) = 0.30311 0.46474
# Poissons Ratio (y) = 0.26538 0.12214
# Poissons Ratio (z) = 0.52096 0.15637
#
# Static dielectric constant tensor:
#      x y z
#    x 1.904940 0.000000 0.000000 
#    y 0.000000 1.804520 0.000000 
#    z 0.000000 0.000000 2.556710 
# 
# From -- ./inp_files/21417.got.cif
#   From: 2010.05.17/outbox.cif.g08.bks.cpg/sg56_11_cif.got.tgz:21417.got - 2010.06.03 13:42:01.
