data_PCOD9433359
_publ_section_title
;
Structure prediction by ZEFSAII (Michael W. Deem and Ramdas Pophale) SiO2 
 PCOD9433359
Probable space group: P C C N
;
_chemical_formula_sum "Si O2"
_cell_formula_units_Z 32
_cell_length_a 5.047244
_cell_length_b 18.246309
_cell_length_c 13.137329
_cell_angle_alpha 90.000000
_cell_angle_beta 90.000000
_cell_angle_gamma 90.000000
_cell_volume 1209.863575
_symmetry_space_group_name_H-M "P C C N"
_symmetry_group_IT_number 56
_symmetry_cell_setting 'orthorhombic'
loop_
_space_group_symop_operation_xyz
x,y,z
1/2-x,1/2-y,z
1/2+x,-y,1/2-z
-x,1/2+y,1/2-z
-x,-y,-z
1/2+x,1/2+y,-z
1/2-x,y,1/2+z
x,1/2-y,1/2+z
loop_
_atom_site_type_symbol
_atom_site_label
_atom_site_fract_x
_atom_site_fract_y
_atom_site_fract_z
Si Si1 0.427958 0.680899 0.916578
Si Si2 0.440781 0.395778 0.507557
Si Si3 0.950512 0.962607 0.294936
Si Si4 0.668443 0.668507 0.702861
O O1 0.250000 0.750000 0.949275
O O2 0.719288 0.665593 0.960406
O O3 0.468550 0.681939 0.795855
O O4 0.239394 0.616705 0.955084
O O5 0.367470 0.461838 0.585310
O O6 0.437566 0.383059 0.387240
O O7 0.901590 0.879839 0.253797
O O8 0.742033 0.011555 0.232831
O O9 0.750000 0.750000 0.668256
#
# Coordination Sequence:
#
# PCOD9433359 Si02
#       4
#     8   8   8   8
#     4  11  22  41  64  99 143 177 221 283 346 412
#     4  11  25  43  70 101 136 181 234 288 346 416
#     4  11  25  47  71 100 144 191 235 287 348 421
#     4  11  25  45  74 107 141 185 238 294 357 416
#
# _framework density 26.449259999999999
#
# number of rings (size 3 to 8) (size 9 to 14) (size 15 to 20)
#    0.000    1.000    0.000    8.250    0.000   12.000 
#    0.000    0.000    0.000    0.000    0.000    0.000 
#    0.000    0.000    0.000    0.000    0.000    0.000 
#
# Total GULP energy -178896.444930 kJ/mol
# GULP energy per Si atom -5590.513904 kJ/mol
# Density = 2.638906 g / cm^3
# Si number density = 26.449260 Si / 1000 Ang^3
#
#
#
# Elastic Constant Matrix: (Units=GPa)
#
#
# Indices 1 2 3 4 5 6 
#
# 1 92.5533 -10.5834 8.0623 0.0000 0.0000 0.0000
# 2 -10.5834 88.7789 -6.2869 0.0000 0.0000 0.0000
# 3 8.0623 -6.2869 141.8772 0.0000 0.0000 0.0000
# 4 0.0000 0.0000 0.0000 37.6384 0.0000 0.0000
# 5 0.0000 0.0000 0.0000 0.0000 21.7099 0.0000
# 6 0.0000 0.0000 0.0000 0.0000 0.0000 44.5513
#
#
#
# Elastic Compliance Matrix: (Units=1/GPa)
#
#
# Indices 1 2 3 4 5 6 
#
# 1 0.010999 0.001271 -0.000569 0.000000 0.000000 0.000000
# 2 0.001271 0.011446 0.000435 0.000000 0.000000 0.000000
# 3 -0.000569 0.000435 0.007100 0.000000 0.000000 0.000000
# 4 0.000000 0.000000 0.000000 0.026569 0.000000 0.000000
# 5 0.000000 0.000000 0.000000 0.000000 0.046062 0.000000
# 6 0.000000 0.000000 0.000000 0.000000 0.000000 0.022446
#
#
# Mechanical properties :
#
#
# Convention : Reuss Voigt Hill
#
# Bulk Modulus (GPa) = 31.42665 33.95481 32.69073
# Shear Modulus (GPa) = 37.60687 42.91442 40.26064
#
# Velocity S-wave (km/s) = 3.77483 4.03242 3.90575
# Velocity P-wave (km/s) = 5.55939 5.87760 5.72071
#
# Compressibility (1/GPa) = 0.03182013
#
# Stress axis : x y z
#
# Youngs Moduli (GPa) = 90.91353 87.36483 140.84625
#
# Poissons Ratio (x) = -0.11104 0.08010
# Poissons Ratio (y) = -0.11555 -0.06127
# Poissons Ratio (z) = 0.05171 -0.03800
#
# Static dielectric constant tensor:
#      x y z
#    x 1.990150 0.000000 0.000000 
#    y 0.000000 2.298950 0.000000 
#    z 0.000000 0.000000 2.151500 
# 
# From -- ./inp_files/5447.got.cif
#   From: 2010.05.17/outbox.cif.g08.bks.cpg/sg56_3_cif.got.tgz:5447.got - 2010.06.03 13:42:01.
