data_PCOD9433794
_publ_section_title
;
Structure prediction by ZEFSAII (Michael W. Deem and Ramdas Pophale) SiO2 
 PCOD9433794
Probable space group: P C C N
;
_chemical_formula_sum "Si O2"
_cell_formula_units_Z 32
_cell_length_a 4.897978
_cell_length_b 31.728345
_cell_length_c 8.142781
_cell_angle_alpha 90.000000
_cell_angle_beta 90.000000
_cell_angle_gamma 90.000000
_cell_volume 1265.426730
_symmetry_space_group_name_H-M "P C C N"
_symmetry_group_IT_number 56
_symmetry_cell_setting 'orthorhombic'
loop_
_space_group_symop_operation_xyz
x,y,z
1/2-x,1/2-y,z
1/2+x,-y,1/2-z
-x,1/2+y,1/2-z
-x,-y,-z
1/2+x,1/2+y,-z
1/2-x,y,1/2+z
x,1/2-y,1/2+z
loop_
_atom_site_type_symbol
_atom_site_label
_atom_site_fract_x
_atom_site_fract_y
_atom_site_fract_z
Si Si1 0.912660 0.955250 0.426370
Si Si2 0.103822 0.577488 0.255666
Si Si3 0.378671 0.829485 0.402902
Si Si4 0.351245 0.202692 0.916937
O O1 0.606081 0.949206 0.367103
O O2 0.104040 0.944607 0.271517
O O3 0.991321 0.922857 0.571440
O O4 0.000000 0.000000 0.500000
O O5 0.127818 0.624079 0.327463
O O6 0.588285 0.827015 0.555735
O O7 0.517074 0.801302 0.262076
O O8 0.088649 0.811850 0.459015
O O9 0.250000 0.250000 0.943100
#
# Coordination Sequence:
#
# PCOD9433794 Si02
#       4
#     8   8   8   8
#     4  12  25  44  68 102 141 184 231 284 342 406
#     4  12  24  43  70 101 138 183 230 283 341 408
#     4  12  25  46  71 103 137 180 230 283 344 415
#     4  12  27  47  72 102 138 179 227 286 348 415
#
# _framework density 25.287911999999999
#
# number of rings (size 3 to 8) (size 9 to 14) (size 15 to 20)
#    0.000    0.000    0.000   11.250    0.000    2.000 
#    0.000    1.250    0.000    0.000    0.000    0.000 
#    0.000    0.000    0.000    0.000    0.000    0.000 
#
# Total GULP energy -179726.802545 kJ/mol
# GULP energy per Si atom -5616.462580 kJ/mol
# Density = 2.523036 g / cm^3
# Si number density = 25.287912 Si / 1000 Ang^3
#
#
#
# Elastic Constant Matrix: (Units=GPa)
#
#
# Indices 1 2 3 4 5 6 
#
# 1 134.8504 41.1745 11.1062 0.0000 0.0000 0.0000
# 2 41.1745 111.7415 1.1278 0.0000 0.0000 0.0000
# 3 11.1062 1.1278 87.7644 0.0000 0.0000 0.0000
# 4 0.0000 0.0000 0.0000 40.9008 0.0000 0.0000
# 5 0.0000 0.0000 0.0000 0.0000 32.0407 0.0000
# 6 0.0000 0.0000 0.0000 0.0000 0.0000 41.6261
#
#
#
# Elastic Compliance Matrix: (Units=1/GPa)
#
#
# Indices 1 2 3 4 5 6 
#
# 1 0.008448 -0.003102 -0.001029 0.000000 0.000000 0.000000
# 2 -0.003102 0.010090 0.000263 0.000000 0.000000 0.000000
# 3 -0.001029 0.000263 0.011521 0.000000 0.000000 0.000000
# 4 0.000000 0.000000 0.000000 0.024449 0.000000 0.000000
# 5 0.000000 0.000000 0.000000 0.000000 0.031210 0.000000
# 6 0.000000 0.000000 0.000000 0.000000 0.000000 0.024023
#
#
# Mechanical properties :
#
#
# Convention : Reuss Voigt Hill
#
# Bulk Modulus (GPa) = 44.80052 49.01927 46.90989
# Shear Modulus (GPa) = 40.02589 41.64337 40.83463
#
# Velocity S-wave (km/s) = 3.98277 4.06244 4.02280
# Velocity P-wave (km/s) = 6.23735 6.43670 6.33781
#
# Compressibility (1/GPa) = 0.02232117
#
# Stress axis : x y z
#
# Youngs Moduli (GPa) = 118.37602 99.11053 86.79805
#
# Poissons Ratio (x) = 0.30748 0.08933
# Poissons Ratio (y) = 0.36725 -0.02282
# Poissons Ratio (z) = 0.12183 -0.02606
#
# Static dielectric constant tensor:
#      x y z
#    x 1.925970 0.000000 0.000000 
#    y 0.000000 1.974730 0.000000 
#    z 0.000000 0.000000 2.029510 
# 
# From -- ./inp_files/1547.got.cif
#   From: 2010.05.17/outbox.cif.g08.bks.cpg/sg56_1_cif.got.tgz:1547.got - 2010.06.03 13:42:01.
