data_PCOD9433146
_publ_section_title
;
Structure prediction by ZEFSAII (Michael W. Deem and Ramdas Pophale) SiO2 
 PCOD9433146
Probable space group: P C C N
;
_chemical_formula_sum "Si O2"
_cell_formula_units_Z 48
_cell_length_a 7.717519
_cell_length_b 9.364298
_cell_length_c 31.146952
_cell_angle_alpha 90.000000
_cell_angle_beta 90.000000
_cell_angle_gamma 90.000000
_cell_volume 2250.963676
_symmetry_space_group_name_H-M "P C C N"
_symmetry_group_IT_number 56
_symmetry_cell_setting 'orthorhombic'
loop_
_space_group_symop_operation_xyz
x,y,z
1/2-x,1/2-y,z
1/2+x,-y,1/2-z
-x,1/2+y,1/2-z
-x,-y,-z
1/2+x,1/2+y,-z
1/2-x,y,1/2+z
x,1/2-y,1/2+z
loop_
_atom_site_type_symbol
_atom_site_label
_atom_site_fract_x
_atom_site_fract_y
_atom_site_fract_z
Si Si1 0.566993 0.338114 0.515315
Si Si2 0.455252 0.275754 0.318868
Si Si3 0.047076 0.231416 0.104770
Si Si4 0.131802 0.580960 0.827211
Si Si5 0.250000 0.750000 0.749167
Si Si6 0.750000 0.750000 0.037612
Si Si7 0.101874 0.438753 0.391686
O O1 0.750000 0.250000 0.506041
O O2 0.500000 0.500000 0.500000
O O3 0.538271 0.322460 0.566312
O O4 0.418562 0.249088 0.491464
O O5 0.250000 0.250000 0.308473
O O6 0.491598 0.444449 0.322734
O O7 0.583910 0.231684 0.281318
O O8 0.480730 0.190197 0.363739
O O9 0.250000 0.250000 0.107042
O O10 0.963150 0.288239 0.149219
O O11 0.022313 0.064510 0.093863
O O12 0.225235 0.620651 0.782892
O O13 0.274507 0.519944 0.858983
O O14 0.718772 0.619276 0.069951
#
# Coordination Sequence:
#
# PCOD9433146 Si02
#       7
#     8   8   8   8   4   4   8
#     4  12  28  47  75 110 149 193 250 311 368 445
#     4  10  26  46  70 103 139 186 239 298 360 426
#     4  12  26  44  73 106 146 189 244 291 371 438
#     4  11  23  46  67  99 138 191 226 299 353 430
#     4  12  26  42  74 100 142 180 240 294 366 424
#     4  12  24  48  76 104 146 190 240 298 366 434
#     4  11  23  49  72 100 148 188 240 300 361 438
#
# _framework density 21.324202
#
# number of rings (size 3 to 8) (size 9 to 14) (size 15 to 20)
#    0.000    0.667    5.000    3.000    9.333    2.000 
#    1.500    0.000    0.000    0.000    0.000    0.000 
#    0.000    0.000    0.000    0.000    0.000    0.000 
#
# Total GULP energy -267382.943102 kJ/mol
# GULP energy per Si atom -5570.477981 kJ/mol
# Density = 2.127567 g / cm^3
# Si number density = 21.324202 Si / 1000 Ang^3
#
#
#
# Elastic Constant Matrix: (Units=GPa)
#
#
# Indices 1 2 3 4 5 6 
#
# 1 98.2902 19.5342 32.1177 0.0000 0.0000 0.0000
# 2 19.5342 60.6900 6.5635 0.0000 0.0000 0.0000
# 3 32.1177 6.5635 88.5286 0.0000 0.0000 0.0000
# 4 0.0000 0.0000 0.0000 36.1583 0.0000 0.0000
# 5 0.0000 0.0000 0.0000 0.0000 32.9133 0.0000
# 6 0.0000 0.0000 0.0000 0.0000 0.0000 27.9568
#
#
#
# Elastic Compliance Matrix: (Units=1/GPa)
#
#
# Indices 1 2 3 4 5 6 
#
# 1 0.012232 -0.003485 -0.004179 0.000000 0.000000 0.000000
# 2 -0.003485 0.017603 -0.000041 0.000000 0.000000 0.000000
# 3 -0.004179 -0.000041 0.012815 0.000000 0.000000 0.000000
# 4 0.000000 0.000000 0.000000 0.027656 0.000000 0.000000
# 5 0.000000 0.000000 0.000000 0.000000 0.030383 0.000000
# 6 0.000000 0.000000 0.000000 0.000000 0.000000 0.035769
#
#
# Mechanical properties :
#
#
# Convention : Reuss Voigt Hill
#
# Bulk Modulus (GPa) = 36.71061 40.43774 38.57418
# Shear Modulus (GPa) = 31.06559 32.02525 31.54542
#
# Velocity S-wave (km/s) = 3.82098 3.87954 3.85037
# Velocity P-wave (km/s) = 6.05965 6.25078 6.15596
#
# Compressibility (1/GPa) = 0.02724008
#
# Stress axis : x y z
#
# Youngs Moduli (GPa) = 81.75096 56.80738 78.03317
#
# Poissons Ratio (x) = 0.19798 0.32613
# Poissons Ratio (y) = 0.28492 0.00318
# Poissons Ratio (z) = 0.34167 0.00231
#
# Static dielectric constant tensor:
#      x y z
#    x 1.851220 0.000000 0.000000 
#    y 0.000000 1.587350 0.000000 
#    z 0.000000 0.000000 1.767180 
# 
# From -- ./inp_files/23297.got.cif
#   From: 2010.05.17/outbox.cif.g08.bks.cpg/sg56_12_cif.got.tgz:23297.got - 2010.06.03 13:42:01.
