data_PCOD9433850
_publ_section_title
;
Structure prediction by ZEFSAII (Michael W. Deem and Ramdas Pophale) SiO2 
 PCOD9433850
Probable space group: P C C N
;
_chemical_formula_sum "Si O2"
_cell_formula_units_Z 28
_cell_length_a 12.408993
_cell_length_b 6.411647
_cell_length_c 14.765111
_cell_angle_alpha 90.000000
_cell_angle_beta 90.000000
_cell_angle_gamma 90.000000
_cell_volume 1174.742983
_symmetry_space_group_name_H-M "P C C N"
_symmetry_group_IT_number 56
_symmetry_cell_setting 'orthorhombic'
loop_
_space_group_symop_operation_xyz
x,y,z
1/2-x,1/2-y,z
1/2+x,-y,1/2-z
-x,1/2+y,1/2-z
-x,-y,-z
1/2+x,1/2+y,-z
1/2-x,y,1/2+z
x,1/2-y,1/2+z
loop_
_atom_site_type_symbol
_atom_site_label
_atom_site_fract_x
_atom_site_fract_y
_atom_site_fract_z
Si Si1 0.629313 0.719703 0.854498
Si Si2 0.395671 0.109496 0.955966
Si Si3 0.436082 0.454095 0.805782
Si Si4 0.750000 0.250000 0.120373
O O1 0.750000 0.750000 0.818221
O O2 0.634642 0.738888 0.961555
O O3 0.556777 0.521444 0.831769
O O4 0.566881 0.899977 0.799983
O O5 0.408560 0.252090 0.866983
O O6 0.500000 0.000000 0.000000
O O7 0.309725 0.928680 0.936912
O O8 0.346139 0.630607 0.826236
#
# Coordination Sequence:
#
# PCOD9433850 Si02
#       4
#     8   8   8   4
#     4  12  27  46  78 107 150 198 256 310 371 461
#     4  12  26  49  75 112 148 197 250 311 381 446
#     4  12  28  50  71 113 152 196 252 312 380 441
#     4  12  26  48  78 102 160 198 242 322 370 444
#
# _framework density 23.835001999999999
#
# number of rings (size 3 to 8) (size 9 to 14) (size 15 to 20)
#    0.000    0.000    2.857    6.857    8.000    1.143 
#    0.000    0.000    0.000    0.000    0.000    0.000 
#    0.000    0.000    0.000    0.000    0.000    0.000 
#
# Total GULP energy -156618.120673 kJ/mol
# GULP energy per Si atom -5593.504310 kJ/mol
# Density = 2.378075 g / cm^3
# Si number density = 23.835002 Si / 1000 Ang^3
#
#
#
# Elastic Constant Matrix: (Units=GPa)
#
#
# Indices 1 2 3 4 5 6 
#
# 1 131.5650 46.3354 -1.2918 0.0000 0.0000 0.0000
# 2 46.3354 100.1337 28.6243 0.0000 0.0000 0.0000
# 3 -1.2918 28.6243 99.7003 0.0000 0.0000 0.0000
# 4 0.0000 0.0000 0.0000 41.4290 0.0000 0.0000
# 5 0.0000 0.0000 0.0000 0.0000 4.3110 0.0000
# 6 0.0000 0.0000 0.0000 0.0000 0.0000 65.9202
#
#
#
# Elastic Compliance Matrix: (Units=1/GPa)
#
#
# Indices 1 2 3 4 5 6 
#
# 1 0.009275 -0.004713 0.001473 0.000000 0.000000 0.000000
# 2 -0.004713 0.013274 -0.003872 0.000000 0.000000 0.000000
# 3 0.001473 -0.003872 0.011161 0.000000 0.000000 0.000000
# 4 0.000000 0.000000 0.000000 0.024138 0.000000 0.000000
# 5 0.000000 0.000000 0.000000 0.000000 0.231962 0.000000
# 6 0.000000 0.000000 0.000000 0.000000 0.000000 0.015170
#
#
# Mechanical properties :
#
#
# Convention : Reuss Voigt Hill
#
# Bulk Modulus (GPa) = 51.31752 53.19275 52.25513
# Shear Modulus (GPa) = 15.35156 39.51411 27.43284
#
# Velocity S-wave (km/s) = 2.54062 4.07605 3.39624
# Velocity P-wave (km/s) = 5.49394 6.67216 6.11151
#
# Compressibility (1/GPa) = 0.01948652
#
# Stress axis : x y z
#
# Youngs Moduli (GPa) = 107.81483 75.33249 89.59870
#
# Poissons Ratio (x) = 0.35505 -0.13201
# Poissons Ratio (y) = 0.50814 0.34695
# Poissons Ratio (z) = -0.15885 0.29170
#
# Static dielectric constant tensor:
#      x y z
#    x 2.031680 0.000000 0.000000 
#    y 0.000000 1.919760 0.000000 
#    z 0.000000 0.000000 1.845460 
# 
# From -- ./inp_files/15305.got.cif
#   From: 2010.05.17/outbox.cif.g08.bks.cpg/sg56_8_cif.got.tgz:15305.got - 2010.06.03 13:42:01.
