data_PCOD9433280
_publ_section_title
;
Structure prediction by ZEFSAII (Michael W. Deem and Ramdas Pophale) SiO2 
 PCOD9433280
Probable space group: P C C N
;
_chemical_formula_sum "Si O2"
_cell_formula_units_Z 32
_cell_length_a 6.730578
_cell_length_b 17.083489
_cell_length_c 13.572683
_cell_angle_alpha 90.000000
_cell_angle_beta 90.000000
_cell_angle_gamma 90.000000
_cell_volume 1560.610914
_symmetry_space_group_name_H-M "P C C N"
_symmetry_group_IT_number 56
_symmetry_cell_setting 'orthorhombic'
loop_
_space_group_symop_operation_xyz
x,y,z
1/2-x,1/2-y,z
1/2+x,-y,1/2-z
-x,1/2+y,1/2-z
-x,-y,-z
1/2+x,1/2+y,-z
1/2-x,y,1/2+z
x,1/2-y,1/2+z
loop_
_atom_site_type_symbol
_atom_site_label
_atom_site_fract_x
_atom_site_fract_y
_atom_site_fract_z
Si Si1 0.412476 0.897038 0.299971
Si Si2 0.963766 0.561877 0.801243
Si Si3 0.661531 0.565748 0.969321
Si Si4 0.802299 0.838489 0.656472
O O1 0.481058 0.984561 0.266198
O O2 0.532107 0.876834 0.399005
O O3 0.481069 0.845308 0.207299
O O4 0.841640 0.873582 0.240813
O O5 0.841584 0.538531 0.898697
O O6 0.239901 0.392889 0.937313
O O7 0.180947 0.595624 0.820892
O O8 0.500000 0.500000 0.000000
O O9 0.750000 0.750000 0.632826
#
# Coordination Sequence:
#
# PCOD9433280 Si02
#       4
#     8   8   8   8
#     4  11  21  41  67  96 125 170 224 271 329 399
#     4  11  21  41  67  96 126 170 223 269 326 401
#     4  11  21  39  67  97 129 169 226 267 326 404
#     4  11  25  42  61  95 139 169 211 283 339 382
#
# _framework density 20.504791000000001
#
# number of rings (size 3 to 8) (size 9 to 14) (size 15 to 20)
#    0.000    1.000    7.500    0.000    0.000   11.000 
#    0.000    0.000    0.000    0.000    0.000    0.000 
#    0.000    0.000    0.000    0.000    0.000    0.000 
#
# Total GULP energy -178615.732653 kJ/mol
# GULP energy per Si atom -5581.741645 kJ/mol
# Density = 2.045812 g / cm^3
# Si number density = 20.504791 Si / 1000 Ang^3
#
#
#
# Elastic Constant Matrix: (Units=GPa)
#
#
# Indices 1 2 3 4 5 6 
#
# 1 130.3895 0.8261 55.0064 0.0000 0.0000 0.0000
# 2 0.8261 51.9415 19.2594 0.0000 0.0000 0.0000
# 3 55.0064 19.2594 134.5971 0.0000 0.0000 0.0000
# 4 0.0000 0.0000 0.0000 12.7923 0.0000 0.0000
# 5 0.0000 0.0000 0.0000 0.0000 32.0749 0.0000
# 6 0.0000 0.0000 0.0000 0.0000 0.0000 19.5819
#
#
#
# Elastic Compliance Matrix: (Units=1/GPa)
#
#
# Indices 1 2 3 4 5 6 
#
# 1 0.009354 0.001340 -0.004015 0.000000 0.000000 0.000000
# 2 0.001340 0.020523 -0.003484 0.000000 0.000000 0.000000
# 3 -0.004015 -0.003484 0.009569 0.000000 0.000000 0.000000
# 4 0.000000 0.000000 0.000000 0.078172 0.000000 0.000000
# 5 0.000000 0.000000 0.000000 0.000000 0.031177 0.000000
# 6 0.000000 0.000000 0.000000 0.000000 0.000000 0.051068
#
#
# Mechanical properties :
#
#
# Convention : Reuss Voigt Hill
#
# Bulk Modulus (GPa) = 36.86188 51.90131 44.38159
# Shear Modulus (GPa) = 22.60155 29.01222 25.80689
#
# Velocity S-wave (km/s) = 3.32363 3.76560 3.55149
# Velocity P-wave (km/s) = 5.72232 6.65380 6.20556
#
# Compressibility (1/GPa) = 0.02712830
#
# Stress axis : x y z
#
# Youngs Moduli (GPa) = 106.90074 48.72580 104.50620
#
# Poissons Ratio (x) = -0.06528 0.41956
# Poissons Ratio (y) = -0.14323 0.36412
# Poissons Ratio (z) = 0.42917 0.16977
#
# Static dielectric constant tensor:
#      x y z
#    x 1.786570 0.000000 0.000000 
#    y 0.000000 1.720430 0.000000 
#    z 0.000000 0.000000 1.773490 
# 
# From -- ./inp_files/9461.got.cif
#   From: 2010.05.17/outbox.cif.g08.bks.cpg/sg56_5_cif.got.tgz:9461.got - 2010.06.03 13:42:01.
