data_PCOD9433914
_publ_section_title
;
Structure prediction by ZEFSAII (Michael W. Deem and Ramdas Pophale) SiO2 
 PCOD9433914
Probable space group: P C C N
;
_chemical_formula_sum "Si O2"
_cell_formula_units_Z 64
_cell_length_a 12.000000
_cell_length_b 15.000000
_cell_length_c 18.000000
_cell_angle_alpha 90.000000
_cell_angle_beta 90.000000
_cell_angle_gamma 90.000000
_cell_volume 3240.000000
_symmetry_space_group_name_H-M "P C C N"
_symmetry_group_IT_number 56
_symmetry_cell_setting 'orthorhombic'
loop_
_space_group_symop_operation_xyz
x,y,z
1/2-x,1/2-y,z
1/2+x,-y,1/2-z
-x,1/2+y,1/2-z
-x,-y,-z
1/2+x,1/2+y,-z
1/2-x,y,1/2+z
x,1/2-y,1/2+z
loop_
_atom_site_type_symbol
_atom_site_label
_atom_site_fract_x
_atom_site_fract_y
_atom_site_fract_z
Si Si1 0.222383 0.032037 0.484666
Si Si2 0.147426 0.185511 0.068228
Si Si3 0.001914 0.613380 0.818481
Si Si4 0.983824 0.652648 0.983756
Si Si5 0.687332 0.533096 0.690923
Si Si6 0.206270 0.851701 0.566063
Si Si7 0.140390 0.555030 0.207737
Si Si8 0.051550 0.316468 0.728680
O O1 0.308129 0.100398 0.523780
O O2 0.102233 0.071529 0.509081
O O3 0.210839 0.040133 0.396321
O O4 0.247231 0.930817 0.510788
O O5 0.250000 0.250000 0.093721
O O6 0.078829 0.252611 0.015759
O O7 0.079860 0.161900 0.142552
O O8 0.035607 0.645830 0.901116
O O9 0.908381 0.536092 0.829624
O O10 0.967295 0.706191 0.774427
O O11 0.098054 0.546181 0.789759
O O12 0.074774 0.650581 0.047493
O O13 0.796918 0.491892 0.725617
O O14 0.648145 0.629436 0.724508
O O15 0.250000 0.750000 0.558166
O O16 0.216563 0.892965 0.648248
O O17 0.055204 0.629586 0.239617
#
# Coordination Sequence:
#
# PCOD9433914 Si02
#       8
#     8   8   8   8   8   8   8   8
#     4  11  21  43  68  93 129 166 221 269 325 399
#     4   9  21  40  68  96 123 166 216 278 325 379
#     4  10  21  42  68  90 126 177 217 263 321 400
#     4  10  19  42  68  91 119 168 223 260 318 389
#     4  11  24  40  64  98 130 176 212 267 338 399
#     4  12  25  40  67  98 126 173 219 271 323 398
#     4  11  25  44  60  94 138 171 212 273 340 386
#     4  10  23  40  65  97 127 172 224 264 324 397
#
# _framework density 19.753086
#
# number of rings (size 3 to 8) (size 9 to 14) (size 15 to 20)
#    0.000    1.500    2.500    2.625    5.250    2.000 
#    9.000    1.250    0.000    0.000    0.000    0.000 
#    0.000    0.000    0.000    0.000    0.000    0.000 
#
# Total GULP energy -356271.284783 kJ/mol
# GULP energy per Si atom -5566.738825 kJ/mol
# Density = 1.970813 g / cm^3
# Si number density = 19.753086 Si / 1000 Ang^3
#
#
#
# Elastic Constant Matrix: (Units=GPa)
#
#
# Indices 1 2 3 4 5 6 
#
# 1 7.1011 14.1251 4.6606 0.0000 0.0000 0.0000
# 2 14.1251 164.6080 44.2729 0.0000 0.0000 0.0000
# 3 4.6606 44.2729 100.5884 0.0000 0.0000 0.0000
# 4 0.0000 0.0000 0.0000 27.3176 0.0000 0.0000
# 5 0.0000 0.0000 0.0000 0.0000 17.8006 0.0000
# 6 0.0000 0.0000 0.0000 0.0000 0.0000 23.4402
#
#
#
# Elastic Compliance Matrix: (Units=1/GPa)
#
#
# Indices 1 2 3 4 5 6 
#
# 1 0.170050 -0.014148 -0.001652 0.000000 0.000000 0.000000
# 2 -0.014148 0.008068 -0.002895 0.000000 0.000000 0.000000
# 3 -0.001652 -0.002895 0.011292 0.000000 0.000000 0.000000
# 4 0.000000 0.000000 0.000000 0.036606 0.000000 0.000000
# 5 0.000000 0.000000 0.000000 0.000000 0.056178 0.000000
# 6 0.000000 0.000000 0.000000 0.000000 0.000000 0.042662
#
#
# Mechanical properties :
#
#
# Convention : Reuss Voigt Hill
#
# Bulk Modulus (GPa) = 6.57808 44.26829 25.42319
# Shear Modulus (GPa) = 12.10887 27.66093 19.88490
#
# Velocity S-wave (km/s) = 2.47859 3.74616 3.17625
# Velocity P-wave (km/s) = 3.39538 6.41647 5.13321
#
# Compressibility (1/GPa) = 0.15201996
#
# Stress axis : x y z
#
# Youngs Moduli (GPa) = 5.88062 123.94900 88.55472
#
# Poissons Ratio (x) = 1.75361 0.14629
# Poissons Ratio (y) = 0.08320 0.25641
# Poissons Ratio (z) = 0.00971 0.35889
#
# Static dielectric constant tensor:
#      x y z
#    x 1.836440 0.000000 0.000000 
#    y 0.000000 1.675000 0.000000 
#    z 0.000000 0.000000 1.705140 
# 
# From -- ./inp_files/15822.got.cif
#   From: 2010.05.17/outbox.ucp.g08.bks.cvg/sg56_8_cif.got.tgz:15822.got - 2010.06.11 16:37:52.
