data_PCOD9433300
_publ_section_title
;
Structure prediction by ZEFSAII (Michael W. Deem and Ramdas Pophale) SiO2 
 PCOD9433300
Probable space group: P C C N
;
_chemical_formula_sum "Si O2"
_cell_formula_units_Z 48
_cell_length_a 10.148471
_cell_length_b 8.833535
_cell_length_c 25.504019
_cell_angle_alpha 90.000000
_cell_angle_beta 90.000000
_cell_angle_gamma 90.000000
_cell_volume 2286.355572
_symmetry_space_group_name_H-M "P C C N"
_symmetry_group_IT_number 56
_symmetry_cell_setting 'orthorhombic'
loop_
_space_group_symop_operation_xyz
x,y,z
1/2-x,1/2-y,z
1/2+x,-y,1/2-z
-x,1/2+y,1/2-z
-x,-y,-z
1/2+x,1/2+y,-z
1/2-x,y,1/2+z
x,1/2-y,1/2+z
loop_
_atom_site_type_symbol
_atom_site_label
_atom_site_fract_x
_atom_site_fract_y
_atom_site_fract_z
Si Si1 0.770121 0.427948 0.650374
Si Si2 0.503645 0.876641 0.136547
Si Si3 0.485106 0.879394 0.428492
Si Si4 0.608360 0.664757 0.222260
Si Si5 0.389213 0.168860 0.159551
Si Si6 0.100492 0.807286 0.042633
O O1 0.750000 0.250000 0.659131
O O2 0.634275 0.519578 0.642917
O O3 0.852535 0.447388 0.596855
O O4 0.855632 0.502996 0.697031
O O5 0.514004 0.752902 0.182376
O O6 0.488096 0.792403 0.081727
O O7 0.384400 0.993883 0.143288
O O8 0.534853 0.762965 0.384671
O O9 0.451626 0.800027 0.483187
O O10 0.584125 0.017579 0.439695
O O11 0.750000 0.750000 0.222504
O O12 0.554494 0.665580 0.281149
O O13 0.250000 0.250000 0.163206
O O14 0.250000 0.750000 0.045362
#
# Coordination Sequence:
#
# PCOD9433300 Si02
#       6
#     8   8   8   8   8   8
#     4  11  21  43  68  99 129 173 226 271 332 401
#     4  11  23  40  70  97 130 181 214 276 332 396
#     4  11  24  45  68  95 137 172 226 286 325 408
#     4   9  22  41  65  98 134 167 225 267 329 403
#     4  11  24  43  63  99 137 177 221 276 333 400
#     4  11  25  45  67  98 134 177 223 282 340 400
#
# _framework density 20.994109000000002
#
# number of rings (size 3 to 8) (size 9 to 14) (size 15 to 20)
#    0.000    1.333    3.333    1.500    2.333    0.667 
#    6.000    4.167    0.000    0.000    0.000    0.000 
#    0.000    0.000    0.000    0.000    0.000    0.000 
#
# Total GULP energy -268177.625469 kJ/mol
# GULP energy per Si atom -5587.033864 kJ/mol
# Density = 2.094633 g / cm^3
# Si number density = 20.994109 Si / 1000 Ang^3
#
#
#
# Elastic Constant Matrix: (Units=GPa)
#
#
# Indices 1 2 3 4 5 6 
#
# 1 46.3147 47.0770 43.9250 0.0000 0.0000 0.0000
# 2 47.0770 128.6657 80.3728 0.0000 0.0000 0.0000
# 3 43.9250 80.3728 200.3168 0.0000 0.0000 0.0000
# 4 0.0000 0.0000 0.0000 21.0341 0.0000 0.0000
# 5 0.0000 0.0000 0.0000 0.0000 5.9581 0.0000
# 6 0.0000 0.0000 0.0000 0.0000 0.0000 30.9625
#
#
#
# Elastic Compliance Matrix: (Units=1/GPa)
#
#
# Indices 1 2 3 4 5 6 
#
# 1 0.036120 -0.011034 -0.003493 0.000000 0.000000 0.000000
# 2 -0.011034 0.013742 -0.003094 0.000000 0.000000 0.000000
# 3 -0.003493 -0.003094 0.007000 0.000000 0.000000 0.000000
# 4 0.000000 0.000000 0.000000 0.047542 0.000000 0.000000
# 5 0.000000 0.000000 0.000000 0.000000 0.167839 0.000000
# 6 0.000000 0.000000 0.000000 0.000000 0.000000 0.032297
#
#
# Mechanical properties :
#
#
# Convention : Reuss Voigt Hill
#
# Bulk Modulus (GPa) = 46.25553 79.78296 63.01924
# Shear Modulus (GPa) = 14.40974 25.18577 19.79775
#
# Velocity S-wave (km/s) = 2.62271 3.46737 3.07419
# Velocity P-wave (km/s) = 5.59034 7.35630 6.53327
#
# Compressibility (1/GPa) = 0.02161904
#
# Stress axis : x y z
#
# Youngs Moduli (GPa) = 27.68584 72.76976 142.86558
#
# Poissons Ratio (x) = 0.80291 0.49906
# Poissons Ratio (y) = 0.30547 0.44206
# Poissons Ratio (z) = 0.09671 0.22517
#
# Static dielectric constant tensor:
#      x y z
#    x 1.799840 0.000000 0.000000 
#    y 0.000000 1.753350 0.000000 
#    z 0.000000 0.000000 1.726810 
# 
# From -- ./inp_files/22243.got.cif
#   From: 2010.05.17/outbox.cif.g08.bks.cpg/sg56_12_cif.got.tgz:22243.got - 2010.06.03 13:42:01.
