data_PCOD9433059
_publ_section_title
;
Structure prediction by ZEFSAII (Michael W. Deem and Ramdas Pophale) SiO2 
 PCOD9433059
Probable space group: P C C N
;
_chemical_formula_sum "Si O2"
_cell_formula_units_Z 32
_cell_length_a 5.219568
_cell_length_b 27.044935
_cell_length_c 8.822411
_cell_angle_alpha 90.000000
_cell_angle_beta 90.000000
_cell_angle_gamma 90.000000
_cell_volume 1245.396921
_symmetry_space_group_name_H-M "P C C N"
_symmetry_group_IT_number 56
_symmetry_cell_setting 'orthorhombic'
loop_
_space_group_symop_operation_xyz
x,y,z
1/2-x,1/2-y,z
1/2+x,-y,1/2-z
-x,1/2+y,1/2-z
-x,-y,-z
1/2+x,1/2+y,-z
1/2-x,y,1/2+z
x,1/2-y,1/2+z
loop_
_atom_site_type_symbol
_atom_site_label
_atom_site_fract_x
_atom_site_fract_y
_atom_site_fract_z
Si Si1 0.750000 0.750000 0.341914
Si Si2 0.238929 0.603659 0.207060
Si Si3 0.760044 0.031876 0.038185
Si Si4 0.988012 0.336524 0.020812
Si Si5 0.750000 0.250000 0.364725
O O1 0.718120 0.700426 0.441019
O O2 0.499739 0.751251 0.238558
O O3 0.224543 0.550554 0.289590
O O4 0.405517 0.636442 0.322287
O O5 0.334294 0.584210 0.045039
O O6 0.987121 0.630434 0.133872
O O7 0.500000 0.000000 0.000000
O O8 0.000000 0.000000 0.000000
O O9 0.766956 0.298536 0.967941
#
# Coordination Sequence:
#
# PCOD9433059 Si02
#       5
#     4   8   8   8   4
#     4  12  26  50  78 106 158 214 268 326 398 464
#     4  10  24  48  80 116 155 203 270 328 392 493
#     4  11  24  50  77 114 156 203 253 328 416 479
#     4  11  24  51  75 116 156 213 267 331 394 465
#     4  12  26  50  74 108 156 214 264 328 390 466
#
# _framework density 25.69462
#
# number of rings (size 3 to 8) (size 9 to 14) (size 15 to 20)
#    0.000    1.000    2.500    3.000    0.000    0.000 
#   18.000    0.000    0.000    0.000    0.000    0.000 
#    0.000    0.000    0.000    0.000    0.000    0.000 
#
# Total GULP energy -178265.335699 kJ/mol
# GULP energy per Si atom -5570.791741 kJ/mol
# Density = 2.563614 g / cm^3
# Si number density = 25.694620 Si / 1000 Ang^3
#
#
#
# Elastic Constant Matrix: (Units=GPa)
#
#
# Indices 1 2 3 4 5 6 
#
# 1 176.0671 45.9795 47.8565 0.0000 0.0000 0.0000
# 2 45.9795 109.6060 27.0349 0.0000 0.0000 0.0000
# 3 47.8565 27.0349 87.2725 0.0000 0.0000 0.0000
# 4 0.0000 0.0000 0.0000 92.1626 0.0000 0.0000
# 5 0.0000 0.0000 0.0000 0.0000 44.0347 0.0000
# 6 0.0000 0.0000 0.0000 0.0000 0.0000 38.7533
#
#
#
# Elastic Compliance Matrix: (Units=1/GPa)
#
#
# Indices 1 2 3 4 5 6 
#
# 1 0.007131 -0.002195 -0.003230 0.000000 0.000000 0.000000
# 2 -0.002195 0.010554 -0.002066 0.000000 0.000000 0.000000
# 3 -0.003230 -0.002066 0.013870 0.000000 0.000000 0.000000
# 4 0.000000 0.000000 0.000000 0.010850 0.000000 0.000000
# 5 0.000000 0.000000 0.000000 0.000000 0.022709 0.000000
# 6 0.000000 0.000000 0.000000 0.000000 0.000000 0.025804
#
#
# Mechanical properties :
#
#
# Convention : Reuss Voigt Hill
#
# Bulk Modulus (GPa) = 60.34059 68.29857 64.31958
# Shear Modulus (GPa) = 44.87355 51.79511 48.33433
#
# Velocity S-wave (km/s) = 4.18355 4.49463 4.34188
# Velocity P-wave (km/s) = 6.84623 7.31944 7.08679
#
# Compressibility (1/GPa) = 0.01657259
#
# Stress axis : x y z
#
# Youngs Moduli (GPa) = 140.23651 94.75286 72.09942
#
# Poissons Ratio (x) = 0.20794 0.23291
# Poissons Ratio (y) = 0.30776 0.14895
# Poissons Ratio (z) = 0.45302 0.19575
#
# Static dielectric constant tensor:
#      x y z
#    x 2.003520 0.000000 0.000000 
#    y 0.000000 6.633980 0.000000 
#    z 0.000000 0.000000 2.097020 
# 
# From -- ./inp_files/1570.got.cif
#   From: 2010.05.17/outbox.cif.g08.bks.cpg/sg56_1_cif.got.tgz:1570.got - 2010.06.03 13:42:01.
