data_PCOD9433801
_publ_section_title
;
Structure prediction by ZEFSAII (Michael W. Deem and Ramdas Pophale) SiO2 
 PCOD9433801
Probable space group: P C C N
;
_chemical_formula_sum "Si O2"
_cell_formula_units_Z 40
_cell_length_a 28.763716
_cell_length_b 5.182695
_cell_length_c 10.322546
_cell_angle_alpha 90.000000
_cell_angle_beta 90.000000
_cell_angle_gamma 90.000000
_cell_volume 1538.818754
_symmetry_space_group_name_H-M "P C C N"
_symmetry_group_IT_number 56
_symmetry_cell_setting 'orthorhombic'
loop_
_space_group_symop_operation_xyz
x,y,z
1/2-x,1/2-y,z
1/2+x,-y,1/2-z
-x,1/2+y,1/2-z
-x,-y,-z
1/2+x,1/2+y,-z
1/2-x,y,1/2+z
x,1/2-y,1/2+z
loop_
_atom_site_type_symbol
_atom_site_label
_atom_site_fract_x
_atom_site_fract_y
_atom_site_fract_z
Si Si1 0.356087 0.700606 0.176695
Si Si2 0.649732 0.806279 0.666689
Si Si3 0.250000 0.750000 0.582562
Si Si4 0.413615 0.420356 0.522759
Si Si5 0.250000 0.250000 0.909802
Si Si6 0.528969 0.661938 0.741913
O O1 0.365282 0.429018 0.242638
O O2 0.366253 0.919539 0.284028
O O3 0.300471 0.707603 0.148612
O O4 0.390250 0.806559 0.064088
O O5 0.631481 0.745486 0.523560
O O6 0.704992 0.807418 0.672531
O O7 0.258623 0.499263 0.495827
O O8 0.442640 0.296957 0.640207
O O9 0.445252 0.406165 0.393647
O O10 0.507843 0.390355 0.789717
#
# Coordination Sequence:
#
# PCOD9433801 Si02
#       6
#     8   8   4   8   4   8
#     4  12  27  47  77 115 163 216 271 331 396 482
#     4  12  27  47  77 114 164 215 271 329 395 481
#     4  12  24  44  74 110 166 220 274 332 394 462
#     4  12  28  54  87 119 164 211 272 337 412 498
#     4  12  24  46  72 114 164 224 272 334 390 464
#     4  12  30  55  86 123 162 206 270 348 433 502
#
# _framework density 25.993963999999998
#
# number of rings (size 3 to 8) (size 9 to 14) (size 15 to 20)
#    0.000    0.000    4.000    4.800    2.800    3.200 
#    0.000    0.000    0.000    0.000    0.000    0.000 
#    0.000    0.000    0.000    0.000    0.000    0.000 
#
# Total GULP energy -224084.592448 kJ/mol
# GULP energy per Si atom -5602.114811 kJ/mol
# Density = 2.593480 g / cm^3
# Si number density = 25.993964 Si / 1000 Ang^3
#
#
#
# Elastic Constant Matrix: (Units=GPa)
#
#
# Indices 1 2 3 4 5 6 
#
# 1 110.2898 4.6040 49.6054 0.0000 0.0000 0.0000
# 2 4.6040 70.8144 30.7233 0.0000 0.0000 0.0000
# 3 49.6054 30.7233 143.7319 0.0000 0.0000 0.0000
# 4 0.0000 0.0000 0.0000 32.5114 0.0000 0.0000
# 5 0.0000 0.0000 0.0000 0.0000 63.9773 0.0000
# 6 0.0000 0.0000 0.0000 0.0000 0.0000 51.4088
#
#
#
# Elastic Compliance Matrix: (Units=1/GPa)
#
#
# Indices 1 2 3 4 5 6 
#
# 1 0.010798 0.001008 -0.003942 0.000000 0.000000 0.000000
# 2 0.001008 0.015659 -0.003695 0.000000 0.000000 0.000000
# 3 -0.003942 -0.003695 0.009108 0.000000 0.000000 0.000000
# 4 0.000000 0.000000 0.000000 0.030758 0.000000 0.000000
# 5 0.000000 0.000000 0.000000 0.000000 0.015631 0.000000
# 6 0.000000 0.000000 0.000000 0.000000 0.000000 0.019452
#
#
# Mechanical properties :
#
#
# Convention : Reuss Voigt Hill
#
# Bulk Modulus (GPa) = 44.82948 54.96684 49.89816
# Shear Modulus (GPa) = 40.95022 45.57307 43.26164
#
# Velocity S-wave (km/s) = 3.97340 4.19169 4.08400
# Velocity P-wave (km/s) = 6.19146 6.67974 6.44023
#
# Compressibility (1/GPa) = 0.02230675
#
# Stress axis : x y z
#
# Youngs Moduli (GPa) = 92.60952 63.86088 109.79589
#
# Poissons Ratio (x) = -0.06439 0.43284
# Poissons Ratio (y) = -0.09338 0.40572
# Poissons Ratio (z) = 0.36509 0.23598
#
# Static dielectric constant tensor:
#      x y z
#    x 2.169610 0.000000 0.000000 
#    y 0.000000 1.952900 0.000000 
#    z 0.000000 0.000000 2.058710 
# 
# From -- ./inp_files/9013.got.cif
#   From: 2010.05.17/outbox.cif.g08.bks.cpg/sg56_5_cif.got.tgz:9013.got - 2010.06.03 13:42:01.
