data_PCOD9433448
_publ_section_title
;
Structure prediction by ZEFSAII (Michael W. Deem and Ramdas Pophale) SiO2 
 PCOD9433448
Probable space group: P C C N
;
_chemical_formula_sum "Si O2"
_cell_formula_units_Z 60
_cell_length_a 18.864693
_cell_length_b 9.146365
_cell_length_c 18.264624
_cell_angle_alpha 90.000000
_cell_angle_beta 90.000000
_cell_angle_gamma 90.000000
_cell_volume 3151.439736
_symmetry_space_group_name_H-M "P C C N"
_symmetry_group_IT_number 56
_symmetry_cell_setting 'orthorhombic'
loop_
_space_group_symop_operation_xyz
x,y,z
1/2-x,1/2-y,z
1/2+x,-y,1/2-z
-x,1/2+y,1/2-z
-x,-y,-z
1/2+x,1/2+y,-z
1/2-x,y,1/2+z
x,1/2-y,1/2+z
loop_
_atom_site_type_symbol
_atom_site_label
_atom_site_fract_x
_atom_site_fract_y
_atom_site_fract_z
Si Si1 0.750000 0.250000 0.002764
Si Si2 0.370578 0.829236 0.881013
Si Si3 0.001915 0.145371 0.171137
Si Si4 0.745045 0.531432 0.899840
Si Si5 0.184943 0.856327 0.218749
Si Si6 0.046174 0.098875 0.445245
Si Si7 0.972722 0.297968 0.325251
Si Si8 0.631170 0.765457 0.926253
O O1 0.682790 0.220712 0.055530
O O2 0.742887 0.388441 0.949689
O O3 0.431108 0.707445 0.867554
O O4 0.330399 0.856918 0.804662
O O5 0.409125 0.981270 0.899607
O O6 0.000375 0.215745 0.252284
O O7 0.069527 0.207748 0.127099
O O8 0.004064 0.968803 0.173553
O O9 0.711446 0.503594 0.819851
O O10 0.690864 0.643811 0.936399
O O11 0.824144 0.596259 0.895834
O O12 0.250000 0.750000 0.205217
O O13 0.112676 0.803596 0.180206
O O14 0.000144 0.204945 0.393993
O O15 0.096802 0.192972 0.496904
O O16 0.000000 0.000000 0.500000
#
# Coordination Sequence:
#
# PCOD9433448 Si02
#       8
#     4   8   8   8   8   8   8   8
#     4  12  24  44  68  98 140 180 228 282 340 420
#     4  11  25  44  69 102 136 176 230 286 347 413
#     4  11  24  46  72  98 137 176 235 286 341 413
#     4  11  25  42  69  95 136 182 228 277 344 413
#     4  11  23  41  68  96 130 177 231 274 336 416
#     4  12  26  43  70 100 140 175 225 289 349 406
#     4  11  26  44  69 102 135 182 231 287 346 408
#     4  11  25  44  65 101 134 176 227 288 343 408
#
# _framework density 19.038917999999999
#
# number of rings (size 3 to 8) (size 9 to 14) (size 15 to 20)
#    0.000    0.800    5.333    1.600    5.600    1.600 
#    0.000    0.000    0.000    0.000    0.000    0.000 
#    0.000    0.000    0.000    0.000    0.000    0.000 
#
# Total GULP energy -335177.098739 kJ/mol
# GULP energy per Si atom -5586.284979 kJ/mol
# Density = 1.899558 g / cm^3
# Si number density = 19.038918 Si / 1000 Ang^3
#
#
#
# Elastic Constant Matrix: (Units=GPa)
#
#
# Indices 1 2 3 4 5 6 
#
# 1 81.8607 49.4044 64.9019 0.0000 0.0000 0.0000
# 2 49.4044 137.5298 68.4986 0.0000 0.0000 0.0000
# 3 64.9019 68.4986 99.7793 0.0000 0.0000 0.0000
# 4 0.0000 0.0000 0.0000 37.3369 0.0000 0.0000
# 5 0.0000 0.0000 0.0000 0.0000 11.3182 0.0000
# 6 0.0000 0.0000 0.0000 0.0000 0.0000 35.8062
#
#
#
# Elastic Compliance Matrix: (Units=1/GPa)
#
#
# Indices 1 2 3 4 5 6 
#
# 1 0.025390 -0.001360 -0.015581 0.000000 0.000000 0.000000
# 2 -0.001360 0.011122 -0.006750 0.000000 0.000000 0.000000
# 3 -0.015581 -0.006750 0.024791 0.000000 0.000000 0.000000
# 4 0.000000 0.000000 0.000000 0.026783 0.000000 0.000000
# 5 0.000000 0.000000 0.000000 0.000000 0.088353 0.000000
# 6 0.000000 0.000000 0.000000 0.000000 0.000000 0.027928
#
#
# Mechanical properties :
#
#
# Convention : Reuss Voigt Hill
#
# Bulk Modulus (GPa) = 71.84273 76.08660 73.96467
# Shear Modulus (GPa) = 19.50139 25.98325 22.74232
#
# Velocity S-wave (km/s) = 3.20393 3.69825 3.45993
# Velocity P-wave (km/s) = 7.17659 7.63456 7.40912
#
# Compressibility (1/GPa) = 0.01391929
#
# Stress axis : x y z
#
# Youngs Moduli (GPa) = 39.38514 89.91233 40.33690
#
# Poissons Ratio (x) = 0.12231 0.62850
# Poissons Ratio (y) = 0.05358 0.27229
# Poissons Ratio (z) = 0.61367 0.60694
#
# Static dielectric constant tensor:
#      x y z
#    x 2.554770 0.000000 0.000000 
#    y 0.000000 1.651890 0.000000 
#    z 0.000000 0.000000 1.661220 
# 
# From -- ./inp_files/16671.got.cif
#   From: 2010.05.17/outbox.cif.g08.bks.cpg/sg56_9_cif.got.tgz:16671.got - 2010.06.03 13:42:01.
