data_PCOD9433687
_publ_section_title
;
Structure prediction by ZEFSAII (Michael W. Deem and Ramdas Pophale) SiO2 
 PCOD9433687
Probable space group: P C C N
;
_chemical_formula_sum "Si O2"
_cell_formula_units_Z 56
_cell_length_a 13.158465
_cell_length_b 12.820209
_cell_length_c 13.382800
_cell_angle_alpha 90.000000
_cell_angle_beta 90.000000
_cell_angle_gamma 90.000000
_cell_volume 2257.601696
_symmetry_space_group_name_H-M "P C C N"
_symmetry_group_IT_number 56
_symmetry_cell_setting 'orthorhombic'
loop_
_space_group_symop_operation_xyz
x,y,z
1/2-x,1/2-y,z
1/2+x,-y,1/2-z
-x,1/2+y,1/2-z
-x,-y,-z
1/2+x,1/2+y,-z
1/2-x,y,1/2+z
x,1/2-y,1/2+z
loop_
_atom_site_type_symbol
_atom_site_label
_atom_site_fract_x
_atom_site_fract_y
_atom_site_fract_z
Si Si1 0.677592 0.991735 0.862537
Si Si2 0.369183 0.241966 0.371823
Si Si3 0.299021 0.861367 0.492035
Si Si4 0.478270 0.119174 0.530030
Si Si5 0.343968 0.680728 0.775490
Si Si6 0.884173 0.567637 0.257742
Si Si7 0.002579 0.136538 0.701367
O O1 0.740128 0.045086 0.953721
O O2 0.630660 0.091529 0.803660
O O3 0.767434 0.941697 0.794857
O O4 0.584940 0.909927 0.878228
O O5 0.250000 0.250000 0.359320
O O6 0.394465 0.190429 0.477490
O O7 0.401996 0.356892 0.336282
O O8 0.425364 0.166205 0.293771
O O9 0.250000 0.750000 0.508286
O O10 0.416370 0.838260 0.515848
O O11 0.304496 0.880331 0.373353
O O12 0.445479 0.109094 0.645334
O O13 0.500000 0.000000 0.500000
O O14 0.250000 0.750000 0.736307
O O15 0.427943 0.764524 0.812682
O O16 0.926690 0.455119 0.231100
#
# Coordination Sequence:
#
# PCOD9433687 Si02
#       7
#     8   8   8   8   8   8   8
#     4  12  24  45  83 112 151 205 265 317 391 474
#     4  12  27  47  74 117 158 197 258 329 392 463
#     4  11  26  46  73 114 152 200 261 317 384 471
#     4  12  25  49  79 111 153 213 259 316 398 471
#     4  11  25  48  77 113 157 203 260 323 393 469
#     4  12  26  49  81 111 152 207 264 313 400 470
#     4  12  24  46  80 111 154 207 252 329 394 460
#
# _framework density 24.805084000000001
#
# number of rings (size 3 to 8) (size 9 to 14) (size 15 to 20)
#    0.000    0.286    5.714    3.000    4.000    0.571 
#    2.571    2.857    0.000    0.000    0.000    0.000 
#    0.000    0.000    0.000    0.000    0.000    0.000 
#
# Total GULP energy -312930.000663 kJ/mol
# GULP energy per Si atom -5588.035726 kJ/mol
# Density = 2.474863 g / cm^3
# Si number density = 24.805084 Si / 1000 Ang^3
#
#
#
# Elastic Constant Matrix: (Units=GPa)
#
#
# Indices 1 2 3 4 5 6 
#
# 1 139.2615 53.0805 8.4101 0.0000 0.0000 0.0000
# 2 53.0805 135.4086 41.2881 0.0000 0.0000 0.0000
# 3 8.4101 41.2881 85.4847 0.0000 0.0000 0.0000
# 4 0.0000 0.0000 0.0000 22.0289 0.0000 0.0000
# 5 0.0000 0.0000 0.0000 0.0000 13.3795 0.0000
# 6 0.0000 0.0000 0.0000 0.0000 0.0000 48.4100
#
#
#
# Elastic Compliance Matrix: (Units=1/GPa)
#
#
# Indices 1 2 3 4 5 6 
#
# 1 0.008502 -0.003609 0.000907 0.000000 0.000000 0.000000
# 2 -0.003609 0.010193 -0.004568 0.000000 0.000000 0.000000
# 3 0.000907 -0.004568 0.013815 0.000000 0.000000 0.000000
# 4 0.000000 0.000000 0.000000 0.045395 0.000000 0.000000
# 5 0.000000 0.000000 0.000000 0.000000 0.074741 0.000000
# 6 0.000000 0.000000 0.000000 0.000000 0.000000 0.020657
#
#
# Mechanical properties :
#
#
# Convention : Reuss Voigt Hill
#
# Bulk Modulus (GPa) = 55.65194 62.85690 59.25442
# Shear Modulus (GPa) = 25.79546 33.92209 29.85877
#
# Velocity S-wave (km/s) = 3.22829 3.70205 3.47325
# Velocity P-wave (km/s) = 6.03160 6.60824 6.32649
#
# Compressibility (1/GPa) = 0.01796883
#
# Stress axis : x y z
#
# Youngs Moduli (GPa) = 117.62461 98.10992 72.38509
#
# Poissons Ratio (x) = 0.35409 -0.06564
# Poissons Ratio (y) = 0.42452 0.33064
# Poissons Ratio (z) = -0.10666 0.44815
#
# Static dielectric constant tensor:
#      x y z
#    x 2.045510 0.000000 0.000000 
#    y 0.000000 1.994470 0.000000 
#    z 0.000000 0.000000 2.489110 
# 
# From -- ./inp_files/12270.got.cif
#   From: 2010.05.17/outbox.cif.g08.bks.cpg/sg56_7_cif.got.tgz:12270.got - 2010.06.03 13:42:01.
