data_PCOD9433160
_publ_section_title
;
Structure prediction by ZEFSAII (Michael W. Deem and Ramdas Pophale) SiO2 
 PCOD9433160
Probable space group: P C C N
;
_chemical_formula_sum "Si O2"
_cell_formula_units_Z 28
_cell_length_a 7.749043
_cell_length_b 7.716463
_cell_length_c 19.656264
_cell_angle_alpha 90.000000
_cell_angle_beta 90.000000
_cell_angle_gamma 90.000000
_cell_volume 1175.350308
_symmetry_space_group_name_H-M "P C C N"
_symmetry_group_IT_number 56
_symmetry_cell_setting 'orthorhombic'
loop_
_space_group_symop_operation_xyz
x,y,z
1/2-x,1/2-y,z
1/2+x,-y,1/2-z
-x,1/2+y,1/2-z
-x,-y,-z
1/2+x,1/2+y,-z
1/2-x,y,1/2+z
x,1/2-y,1/2+z
loop_
_atom_site_type_symbol
_atom_site_label
_atom_site_fract_x
_atom_site_fract_y
_atom_site_fract_z
Si Si1 0.937670 0.661168 0.710230
Si Si2 0.750000 0.250000 0.889777
Si Si3 0.336803 0.091864 0.534650
Si Si4 0.935167 0.281026 0.651420
O O1 0.750000 0.750000 0.709673
O O2 0.917067 0.465756 0.687002
O O3 0.081652 0.737514 0.658815
O O4 0.012394 0.658522 0.786715
O O5 0.764535 0.425797 0.934910
O O6 0.250000 0.250000 0.491850
O O7 0.419567 0.203454 0.595738
O O8 0.500000 0.000000 0.500000
O O9 0.750000 0.250000 0.618491
#
# Coordination Sequence:
#
# PCOD9433160 Si02
#       4
#     8   4   8   8
#     4  11  23  40  70 107 151 182 230 295 374 436
#     4  10  26  48  70 112 148 184 246 306 364 452
#     4  11  28  49  76 104 144 201 254 306 365 436
#     4  11  24  42  71 109 143 187 233 299 368 443
#
# _framework density 23.822683999999999
#
# number of rings (size 3 to 8) (size 9 to 14) (size 15 to 20)
#    0.000    1.143    1.429    2.571   14.000    5.714 
#    0.000    0.000    0.000    0.000    0.000    0.000 
#    0.000    0.000    0.000    0.000    0.000    0.000 
#
# Total GULP energy -156596.979462 kJ/mol
# GULP energy per Si atom -5592.749266 kJ/mol
# Density = 2.376846 g / cm^3
# Si number density = 23.822684 Si / 1000 Ang^3
#
#
#
# Elastic Constant Matrix: (Units=GPa)
#
#
# Indices 1 2 3 4 5 6 
#
# 1 126.6697 34.4435 7.9653 0.0000 0.0000 0.0000
# 2 34.4435 95.5033 6.4973 0.0000 0.0000 0.0000
# 3 7.9653 6.4973 33.6135 0.0000 0.0000 0.0000
# 4 0.0000 0.0000 0.0000 47.5938 0.0000 0.0000
# 5 0.0000 0.0000 0.0000 0.0000 -202.1681 0.0000
# 6 0.0000 0.0000 0.0000 0.0000 0.0000 47.7474
#
#
#
# Elastic Compliance Matrix: (Units=1/GPa)
#
#
# Indices 1 2 3 4 5 6 
#
# 1 0.008827 -0.003082 -0.001496 0.000000 0.000000 0.000000
# 2 -0.003082 0.011686 -0.001529 0.000000 0.000000 0.000000
# 3 -0.001496 -0.001529 0.030400 0.000000 0.000000 0.000000
# 4 0.000000 0.000000 0.000000 0.021011 0.000000 0.000000
# 5 0.000000 0.000000 0.000000 0.000000 -0.004946 0.000000
# 6 0.000000 0.000000 0.000000 0.000000 0.000000 0.020944
#
#
# Mechanical properties :
#
#
# Convention : Reuss Voigt Hill
#
# Bulk Modulus (GPa) = 25.83957 39.28875 32.56416
# Shear Modulus (GPa) = 44.23471 -7.57337 18.33067
#
# Velocity S-wave (km/s) = 4.31377 -1.78493 2.77693
# Velocity P-wave (km/s) = 5.97341 3.50429 4.89702
#
# Compressibility (1/GPa) = 0.03870034
#
# Stress axis : x y z
#
# Youngs Moduli (GPa) = 113.29471 85.57104 32.89483
#
# Poissons Ratio (x) = 0.26369 0.04921
# Poissons Ratio (y) = 0.34912 0.05028
# Poissons Ratio (z) = 0.16949 0.13081
#
# Static dielectric constant tensor:
#      x y z
#    x 2.028140 0.000000 0.000000 
#    y 0.000000 1.974660 0.000000 
#    z 0.000000 0.000000 1.976330 
# 
# From -- ./inp_files/14288.got.cif
#   From: 2010.05.17/outbox.cif.g08.bks.cpg/sg56_8_cif.got.tgz:14288.got - 2010.06.03 13:42:01.
