data_PCOD9433443
_publ_section_title
;
Structure prediction by ZEFSAII (Michael W. Deem and Ramdas Pophale) SiO2 
 PCOD9433443
Probable space group: P C C N
;
_chemical_formula_sum "Si O2"
_cell_formula_units_Z 64
_cell_length_a 16.335807
_cell_length_b 15.063933
_cell_length_c 11.595046
_cell_angle_alpha 90.000000
_cell_angle_beta 90.000000
_cell_angle_gamma 90.000000
_cell_volume 2853.326337
_symmetry_space_group_name_H-M "P C C N"
_symmetry_group_IT_number 56
_symmetry_cell_setting 'orthorhombic'
loop_
_space_group_symop_operation_xyz
x,y,z
1/2-x,1/2-y,z
1/2+x,-y,1/2-z
-x,1/2+y,1/2-z
-x,-y,-z
1/2+x,1/2+y,-z
1/2-x,y,1/2+z
x,1/2-y,1/2+z
loop_
_atom_site_type_symbol
_atom_site_label
_atom_site_fract_x
_atom_site_fract_y
_atom_site_fract_z
Si Si1 0.576581 0.133203 0.258443
Si Si2 0.669376 0.400257 0.537552
Si Si3 0.084558 0.058353 0.497221
Si Si4 0.611682 0.650159 0.275989
Si Si5 0.585137 0.518265 0.934186
Si Si6 0.319579 0.516467 0.839014
Si Si7 0.391931 0.827520 0.184175
Si Si8 0.417570 0.346174 0.272370
O O1 0.595309 0.108989 0.127470
O O2 0.478560 0.131004 0.278484
O O3 0.609415 0.063057 0.350281
O O4 0.618422 0.228930 0.267862
O O5 0.652646 0.488320 0.464193
O O6 0.743987 0.421666 0.621112
O O7 0.658000 0.329299 0.436357
O O8 0.091574 0.137565 0.588391
O O9 0.115149 0.089954 0.371978
O O10 0.000000 0.000000 0.500000
O O11 0.676075 0.575497 0.234514
O O12 0.627315 0.752354 0.243882
O O13 0.578520 0.602757 0.849504
O O14 0.500000 0.500000 0.000000
O O15 0.647714 0.519582 0.038672
O O16 0.372158 0.590264 0.768844
O O17 0.490874 0.832277 0.174385
#
# Coordination Sequence:
#
# PCOD9433443 Si02
#       8
#     8   8   8   8   8   8   8   8
#     4  11  24  42  71 103 133 180 239 283 349 419
#     4  12  26  44  72  97 142 191 231 286 361 430
#     4  12  20  43  73  98 131 182 240 286 342 418
#     4  11  23  42  72 102 135 175 236 303 341 413
#     4  12  23  42  67 100 141 181 223 292 352 422
#     4  12  27  45  65 101 147 183 227 290 365 424
#     4  11  24  44  68 105 138 180 233 293 352 427
#     4  11  23  40  76 107 130 177 245 296 351 412
#
# _framework density 22.429960000000001
#
# number of rings (size 3 to 8) (size 9 to 14) (size 15 to 20)
#    0.000    0.500    7.500    0.000    5.250    0.500 
#    0.000    0.625    0.000    0.000    0.000    0.000 
#    0.000    0.000    0.000    0.000    0.000    0.000 
#
# Total GULP energy -356379.206042 kJ/mol
# GULP energy per Si atom -5568.425094 kJ/mol
# Density = 2.237891 g / cm^3
# Si number density = 22.429960 Si / 1000 Ang^3
#
#
#
# Elastic Constant Matrix: (Units=GPa)
#
#
# Indices 1 2 3 4 5 6 
#
# 1 19.2576 -5.0999 -1.4912 0.0000 0.0000 0.0000
# 2 -5.0999 121.9140 44.9150 0.0000 0.0000 0.0000
# 3 -1.4912 44.9150 129.0209 0.0000 0.0000 0.0000
# 4 0.0000 0.0000 0.0000 32.2064 0.0000 0.0000
# 5 0.0000 0.0000 0.0000 0.0000 24.4913 0.0000
# 6 0.0000 0.0000 0.0000 0.0000 0.0000 13.5439
#
#
#
# Elastic Compliance Matrix: (Units=1/GPa)
#
#
# Indices 1 2 3 4 5 6 
#
# 1 0.052513 0.002263 -0.000181 0.000000 0.000000 0.000000
# 2 0.002263 0.009507 -0.003283 0.000000 0.000000 0.000000
# 3 -0.000181 -0.003283 0.008892 0.000000 0.000000 0.000000
# 4 0.000000 0.000000 0.000000 0.031050 0.000000 0.000000
# 5 0.000000 0.000000 0.000000 0.000000 0.040831 0.000000
# 6 0.000000 0.000000 0.000000 0.000000 0.000000 0.073834
#
#
# Mechanical properties :
#
#
# Convention : Reuss Voigt Hill
#
# Bulk Modulus (GPa) = 14.59656 38.53783 26.56719
# Shear Modulus (GPa) = 20.67276 29.50622 25.08949
#
# Velocity S-wave (km/s) = 3.03918 3.63089 3.34813
# Velocity P-wave (km/s) = 4.34018 5.89886 5.17850
#
# Compressibility (1/GPa) = 0.06850930
#
# Stress axis : x y z
#
# Youngs Moduli (GPa) = 19.04296 105.18750 112.46562
#
# Poissons Ratio (x) = -0.23808 0.02036
# Poissons Ratio (y) = -0.04310 0.36927
# Poissons Ratio (z) = 0.00345 0.34537
#
# Static dielectric constant tensor:
#      x y z
#    x 0.000000 0.000000 0.000000 
#    y 0.000000 0.000000 0.000000 
#    z 0.000000 0.000000 0.000000 
# 
# From -- ./inp_files/8424.got.cif
#   From: 2010.05.17/outbox.cif.g08.bks.cpg/sg56_5_cif.got.tgz:8424.got - 2010.06.03 13:42:01.
