data_PCOD9433846
_publ_section_title
;
Structure prediction by ZEFSAII (Michael W. Deem and Ramdas Pophale) SiO2 
 PCOD9433846
Probable space group: P C C N
;
_chemical_formula_sum "Si O2"
_cell_formula_units_Z 36
_cell_length_a 5.619581
_cell_length_b 12.438729
_cell_length_c 21.685215
_cell_angle_alpha 90.000000
_cell_angle_beta 90.000000
_cell_angle_gamma 90.000000
_cell_volume 1515.806182
_symmetry_space_group_name_H-M "P C C N"
_symmetry_group_IT_number 56
_symmetry_cell_setting 'orthorhombic'
loop_
_space_group_symop_operation_xyz
x,y,z
1/2-x,1/2-y,z
1/2+x,-y,1/2-z
-x,1/2+y,1/2-z
-x,-y,-z
1/2+x,1/2+y,-z
1/2-x,y,1/2+z
x,1/2-y,1/2+z
loop_
_atom_site_type_symbol
_atom_site_label
_atom_site_fract_x
_atom_site_fract_y
_atom_site_fract_z
Si Si1 0.250000 0.250000 0.076851
Si Si2 0.750000 0.250000 0.000336
Si Si3 0.209429 0.059830 0.667999
Si Si4 0.569152 0.159886 0.278758
Si Si5 0.520478 0.069688 0.939519
Si Si6 0.750000 0.750000 0.116045
O O1 0.502857 0.238683 0.039375
O O2 0.187929 0.147393 0.120323
O O3 0.744979 0.146523 0.955107
O O4 0.109995 0.127970 0.724680
O O5 0.342844 0.956816 0.697116
O O6 0.026394 0.000509 0.622115
O O7 0.750000 0.250000 0.252855
O O8 0.459206 0.220955 0.337079
O O9 0.307933 0.150544 0.926772
O O10 0.500000 0.000000 0.000000
#
# Coordination Sequence:
#
# PCOD9433846 Si02
#       6
#     4   4   8   8   8   4
#     4  12  30  50  84 118 172 210 282 342 412 506
#     4  12  28  52  74 120 164 224 264 338 420 504
#     4  12  28  48  80 119 156 217 270 354 404 502
#     4  12  28  52  81 115 159 218 280 346 425 490
#     4  12  26  47  79 117 160 215 270 337 422 494
#     4  12  26  54  78 116 162 216 278 344 420 510
#
# _framework density 23.749739000000002
#
# number of rings (size 3 to 8) (size 9 to 14) (size 15 to 20)
#    0.000    0.000    4.444    4.000    7.778    0.889 
#    0.000    0.000    0.000    0.000    0.000    0.000 
#    0.000    0.000    0.000    0.000    0.000    0.000 
#
# Total GULP energy -200967.088788 kJ/mol
# GULP energy per Si atom -5582.419133 kJ/mol
# Density = 2.369568 g / cm^3
# Si number density = 23.749739 Si / 1000 Ang^3
#
#
#
# Elastic Constant Matrix: (Units=GPa)
#
#
# Indices 1 2 3 4 5 6 
#
# 1 69.0569 8.0798 22.9194 0.0000 0.0000 0.0000
# 2 8.0798 97.3948 -11.3640 0.0000 0.0000 0.0000
# 3 22.9194 -11.3640 77.9209 0.0000 0.0000 0.0000
# 4 0.0000 0.0000 0.0000 50.9641 0.0000 0.0000
# 5 0.0000 0.0000 0.0000 0.0000 27.5833 0.0000
# 6 0.0000 0.0000 0.0000 0.0000 0.0000 35.8056
#
#
#
# Elastic Compliance Matrix: (Units=1/GPa)
#
#
# Indices 1 2 3 4 5 6 
#
# 1 0.016406 -0.001957 -0.005111 0.000000 0.000000 0.000000
# 2 -0.001957 0.010679 0.002133 0.000000 0.000000 0.000000
# 3 -0.005111 0.002133 0.014648 0.000000 0.000000 0.000000
# 4 0.000000 0.000000 0.000000 0.019622 0.000000 0.000000
# 5 0.000000 0.000000 0.000000 0.000000 0.036254 0.000000
# 6 0.000000 0.000000 0.000000 0.000000 0.000000 0.027929
#
#
# Mechanical properties :
#
#
# Convention : Reuss Voigt Hill
#
# Bulk Modulus (GPa) = 31.38519 31.51587 31.45053
# Shear Modulus (GPa) = 34.23989 37.85310 36.04649
#
# Velocity S-wave (km/s) = 3.80109 3.99661 3.90008
# Velocity P-wave (km/s) = 5.70158 5.88184 5.79241
#
# Compressibility (1/GPa) = 0.03186216
#
# Stress axis : x y z
#
# Youngs Moduli (GPa) = 60.95264 93.64375 68.26873
#
# Poissons Ratio (x) = 0.18330 0.34893
# Poissons Ratio (y) = 0.11931 -0.14563
# Poissons Ratio (z) = 0.31154 -0.19976
#
# Static dielectric constant tensor:
#      x y z
#    x 1.903820 0.000000 0.000000 
#    y 0.000000 1.609670 0.000000 
#    z 0.000000 0.000000 1.892710 
# 
# From -- ./inp_files/19931.got.cif
#   From: 2010.05.17/outbox.cif.g08.bks.cpg/sg56_10_cif.got.tgz:19931.got - 2010.06.03 13:42:01.
