data_PCOD9433818
_publ_section_title
;
Structure prediction by ZEFSAII (Michael W. Deem and Ramdas Pophale) SiO2 
 PCOD9433818
Probable space group: P C C N
;
_chemical_formula_sum "Si O2"
_cell_formula_units_Z 32
_cell_length_a 11.763679
_cell_length_b 5.181012
_cell_length_c 20.065279
_cell_angle_alpha 90.000000
_cell_angle_beta 90.000000
_cell_angle_gamma 90.000000
_cell_volume 1222.933850
_symmetry_space_group_name_H-M "P C C N"
_symmetry_group_IT_number 56
_symmetry_cell_setting 'orthorhombic'
loop_
_space_group_symop_operation_xyz
x,y,z
1/2-x,1/2-y,z
1/2+x,-y,1/2-z
-x,1/2+y,1/2-z
-x,-y,-z
1/2+x,1/2+y,-z
1/2-x,y,1/2+z
x,1/2-y,1/2+z
loop_
_atom_site_type_symbol
_atom_site_label
_atom_site_fract_x
_atom_site_fract_y
_atom_site_fract_z
Si Si1 0.123804 0.820253 0.729319
Si Si2 0.048415 0.002811 0.859835
Si Si3 0.125899 0.374862 0.109055
Si Si4 0.750000 0.750000 0.069847
Si Si5 0.250000 0.750000 0.523755
O O1 0.250000 0.750000 0.708944
O O2 0.037651 0.630859 0.692897
O O3 0.121508 0.831518 0.808555
O O4 0.105718 0.081988 0.687528
O O5 0.133009 0.220132 0.888793
O O6 0.976590 0.818500 0.909906
O O7 0.250000 0.250000 0.101622
O O8 0.144477 0.647230 0.070127
O O9 0.739492 0.494551 0.024841
#
# Coordination Sequence:
#
# PCOD9433818 Si02
#       5
#     8   8   8   4   4
#     4  12  26  46  80 119 166 211 272 347 439 512
#     4  12  29  47  82 126 167 218 277 365 434 514
#     4  12  24  51  81 117 160 225 280 339 423 514
#     4  12  34  52  80 122 172 222 290 350 416 492
#     4  12  28  58  80 114 170 234 290 340 406 514
#
# _framework density 26.166584
#
# number of rings (size 3 to 8) (size 9 to 14) (size 15 to 20)
#    0.000    0.000    7.500    0.000   10.500    2.000 
#    0.000    0.000    0.000    0.000    0.000    0.000 
#    0.000    0.000    0.000    0.000    0.000    0.000 
#
# Total GULP energy -178721.320573 kJ/mol
# GULP energy per Si atom -5585.041268 kJ/mol
# Density = 2.610703 g / cm^3
# Si number density = 26.166584 Si / 1000 Ang^3
#
#
#
# Elastic Constant Matrix: (Units=GPa)
#
#
# Indices 1 2 3 4 5 6 
#
# 1 153.7840 62.9344 40.9590 0.0000 0.0000 0.0000
# 2 62.9344 164.7187 54.0184 0.0000 0.0000 0.0000
# 3 40.9590 54.0184 87.1902 0.0000 0.0000 0.0000
# 4 0.0000 0.0000 0.0000 39.4971 0.0000 0.0000
# 5 0.0000 0.0000 0.0000 0.0000 -78.4481 0.0000
# 6 0.0000 0.0000 0.0000 0.0000 0.0000 47.3838
#
#
#
# Elastic Compliance Matrix: (Units=1/GPa)
#
#
# Indices 1 2 3 4 5 6 
#
# 1 0.008078 -0.002312 -0.002363 0.000000 0.000000 0.000000
# 2 -0.002312 0.008280 -0.004044 0.000000 0.000000 0.000000
# 3 -0.002363 -0.004044 0.015085 0.000000 0.000000 0.000000
# 4 0.000000 0.000000 0.000000 0.025318 0.000000 0.000000
# 5 0.000000 0.000000 0.000000 0.000000 -0.012747 0.000000
# 6 0.000000 0.000000 0.000000 0.000000 0.000000 0.021104
#
#
# Mechanical properties :
#
#
# Convention : Reuss Voigt Hill
#
# Bulk Modulus (GPa) = 71.39700 80.16850 75.78275
# Shear Modulus (GPa) = 57.32394 18.20530 37.76462
#
# Velocity S-wave (km/s) = 4.68560 2.64056 3.80312
# Velocity P-wave (km/s) = 7.52449 6.32463 6.95050
#
# Compressibility (1/GPa) = 0.01400619
#
# Stress axis : x y z
#
# Youngs Moduli (GPa) = 123.79533 120.76717 66.29270
#
# Poissons Ratio (x) = 0.27916 0.15662
# Poissons Ratio (y) = 0.28616 0.26810
# Poissons Ratio (z) = 0.29248 0.48841
#
# Static dielectric constant tensor:
#      x y z
#    x 2.892610 0.000000 0.000000 
#    y 0.000000 2.376120 0.000000 
#    z 0.000000 0.000000 2.167990 
# 
# From -- ./inp_files/18531.got.cif
#   From: 2010.05.17/outbox.cif.g08.bks.cpg/sg56_10_cif.got.tgz:18531.got - 2010.06.03 13:42:01.
