data_PCOD9433944
_publ_section_title
;
Structure prediction by ZEFSAII (Michael W. Deem and Ramdas Pophale) SiO2 
 PCOD9433944
Probable space group: P C C N
;
_chemical_formula_sum "Si O2"
_cell_formula_units_Z 60
_cell_length_a 12.000000
_cell_length_b 21.000000
_cell_length_c 12.000000
_cell_angle_alpha 90.000000
_cell_angle_beta 90.000000
_cell_angle_gamma 90.000000
_cell_volume 3024.000000
_symmetry_space_group_name_H-M "P C C N"
_symmetry_group_IT_number 56
_symmetry_cell_setting 'orthorhombic'
loop_
_space_group_symop_operation_xyz
x,y,z
1/2-x,1/2-y,z
1/2+x,-y,1/2-z
-x,1/2+y,1/2-z
-x,-y,-z
1/2+x,1/2+y,-z
1/2-x,y,1/2+z
x,1/2-y,1/2+z
loop_
_atom_site_type_symbol
_atom_site_label
_atom_site_fract_x
_atom_site_fract_y
_atom_site_fract_z
Si Si1 0.652922 0.869081 0.992729
Si Si2 0.782078 0.177025 0.013100
Si Si3 0.879553 0.266823 0.725574
Si Si4 0.918827 0.841815 0.736135
Si Si5 0.883626 0.567175 0.441130
Si Si6 0.750000 0.750000 0.866639
Si Si7 0.926448 0.421630 0.382689
Si Si8 0.567456 0.130067 0.142805
O O1 0.756392 0.912991 0.959855
O O2 0.685915 0.799587 0.945528
O O3 0.537998 0.886396 0.932211
O O4 0.636023 0.868142 0.124562
O O5 0.750000 0.250000 0.980424
O O6 0.867420 0.191451 0.113447
O O7 0.677804 0.139093 0.066717
O O8 0.841721 0.133677 0.922547
O O9 0.750000 0.250000 0.752547
O O10 0.939917 0.200682 0.697716
O O11 0.962980 0.309003 0.798580
O O12 0.928523 0.895659 0.831635
O O13 0.837654 0.788819 0.790978
O O14 0.889819 0.491802 0.420844
O O15 0.957656 0.587284 0.549000
O O16 0.929654 0.416335 0.249156
#
# Coordination Sequence:
#
# PCOD9433944 Si02
#       8
#     8   8   8   8   8   4   8   8
#     4  11  24  40  64 100 134 167 225 271 332 397
#     4   9  21  40  64  96 127 169 213 273 334 396
#     4   9  19  37  61  97 130 165 209 257 328 395
#     4  11  21  40  66  95 138 169 217 280 327 405
#     4  10  26  43  65  93 123 188 224 266 345 400
#     4  10  22  38  60 102 130 178 206 258 350 394
#     4  11  23  47  67  88 132 178 227 276 330 423
#     4  10  23  39  64  99 128 164 219 271 334 387
#
# _framework density 19.841270000000002
#
# number of rings (size 3 to 8) (size 9 to 14) (size 15 to 20)
#    0.000    2.133    2.667    0.400    3.733    9.600 
#    2.400    2.000    0.000    0.000    0.000    0.000 
#    0.000    0.000    0.000    0.000    0.000    0.000 
#
# Total GULP energy -334795.525745 kJ/mol
# GULP energy per Si atom -5579.925429 kJ/mol
# Density = 1.979611 g / cm^3
# Si number density = 19.841270 Si / 1000 Ang^3
#
#
#
# Elastic Constant Matrix: (Units=GPa)
#
#
# Indices 1 2 3 4 5 6 
#
# 1 56.8808 40.3368 15.4376 0.0000 0.0000 0.0000
# 2 40.3368 58.4547 11.1508 0.0000 0.0000 0.0000
# 3 15.4376 11.1508 83.8356 0.0000 0.0000 0.0000
# 4 0.0000 0.0000 0.0000 11.1230 0.0000 0.0000
# 5 0.0000 0.0000 0.0000 0.0000 7.7830 0.0000
# 6 0.0000 0.0000 0.0000 0.0000 0.0000 23.0333
#
#
#
# Elastic Compliance Matrix: (Units=1/GPa)
#
#
# Indices 1 2 3 4 5 6 
#
# 1 0.035320 -0.023734 -0.003347 0.000000 0.000000 0.000000
# 2 -0.023734 0.033501 -0.000086 0.000000 0.000000 0.000000
# 3 -0.003347 -0.000086 0.012556 0.000000 0.000000 0.000000
# 4 0.000000 0.000000 0.000000 0.089904 0.000000 0.000000
# 5 0.000000 0.000000 0.000000 0.000000 0.128485 0.000000
# 6 0.000000 0.000000 0.000000 0.000000 0.000000 0.043415
#
#
# Mechanical properties :
#
#
# Convention : Reuss Voigt Hill
#
# Bulk Modulus (GPa) = 36.97712 37.00241 36.98977
# Shear Modulus (GPa) = 12.29922 17.20425 14.75174
#
# Velocity S-wave (km/s) = 2.49244 2.94784 2.72965
# Velocity P-wave (km/s) = 5.19230 5.50237 5.34958
#
# Compressibility (1/GPa) = 0.02704375
#
# Stress axis : x y z
#
# Youngs Moduli (GPa) = 28.31252 29.84949 79.64442
#
# Poissons Ratio (x) = 0.70845 0.26657
# Poissons Ratio (y) = 0.67198 0.00681
# Poissons Ratio (z) = 0.09476 0.00255
#
# Static dielectric constant tensor:
#      x y z
#    x 1.715780 0.000000 0.000000 
#    y 0.000000 1.677020 0.000000 
#    z 0.000000 0.000000 1.701670 
# 
# From -- ./inp_files/7329.got.cif
#   From: 2010.05.17/outbox.ucp.g08.bks.cvg/sg56_4_cif.got.tgz:7329.got - 2010.06.11 16:37:52.
