data_PCOD9433880
_publ_section_title
;
Structure prediction by ZEFSAII (Michael W. Deem and Ramdas Pophale) SiO2 
 PCOD9433880
Probable space group: P C C N
;
_chemical_formula_sum "Si O2"
_cell_formula_units_Z 24
_cell_length_a 5.439699
_cell_length_b 7.535037
_cell_length_c 24.208098
_cell_angle_alpha 90.000000
_cell_angle_beta 90.000000
_cell_angle_gamma 90.000000
_cell_volume 992.249588
_symmetry_space_group_name_H-M "P C C N"
_symmetry_group_IT_number 56
_symmetry_cell_setting 'orthorhombic'
loop_
_space_group_symop_operation_xyz
x,y,z
1/2-x,1/2-y,z
1/2+x,-y,1/2-z
-x,1/2+y,1/2-z
-x,-y,-z
1/2+x,1/2+y,-z
1/2-x,y,1/2+z
x,1/2-y,1/2+z
loop_
_atom_site_type_symbol
_atom_site_label
_atom_site_fract_x
_atom_site_fract_y
_atom_site_fract_z
Si Si1 0.250000 0.750000 0.361539
Si Si2 0.250000 0.750000 0.634063
Si Si3 0.093720 0.068124 0.558759
Si Si4 0.000057 0.510467 0.715026
O O1 0.364035 0.606340 0.401770
O O2 0.454289 0.839951 0.323642
O O3 0.271408 0.584732 0.592752
O O4 0.038799 0.684026 0.676596
O O5 0.250000 0.250000 0.553129
O O6 0.000000 0.000000 0.500000
O O7 0.253989 0.484553 0.748203
#
# Coordination Sequence:
#
# PCOD9433880 Si02
#       4
#     4   4   8   8
#     4  12  28  50  78 116 170 206 280 340 406 502
#     4  12  28  52  86 114 170 220 270 350 418 490
#     4  12  29  52  81 120 161 215 280 344 419 498
#     4  12  29  51  83 125 166 222 279 338 419 501
#
# _framework density 24.187462
#
# number of rings (size 3 to 8) (size 9 to 14) (size 15 to 20)
#    0.000    0.000    3.333    4.000    4.667   14.667 
#    0.000    0.000    0.000    0.000    0.000    0.000 
#    0.000    0.000    0.000    0.000    0.000    0.000 
#
# Total GULP energy -134449.570600 kJ/mol
# GULP energy per Si atom -5602.065442 kJ/mol
# Density = 2.413241 g / cm^3
# Si number density = 24.187462 Si / 1000 Ang^3
#
#
#
# Elastic Constant Matrix: (Units=GPa)
#
#
# Indices 1 2 3 4 5 6 
#
# 1 151.0013 63.1232 106.9514 0.0000 0.0000 0.0000
# 2 63.1232 153.2769 84.9011 0.0000 0.0000 0.0000
# 3 106.9514 84.9011 209.0287 0.0000 0.0000 0.0000
# 4 0.0000 0.0000 0.0000 60.5762 0.0000 0.0000
# 5 0.0000 0.0000 0.0000 0.0000 46.9774 0.0000
# 6 0.0000 0.0000 0.0000 0.0000 0.0000 39.9618
#
#
#
# Elastic Compliance Matrix: (Units=1/GPa)
#
#
# Indices 1 2 3 4 5 6 
#
# 1 0.010751 -0.001781 -0.004777 0.000000 0.000000 0.000000
# 2 -0.001781 0.008713 -0.002628 0.000000 0.000000 0.000000
# 3 -0.004777 -0.002628 0.008296 0.000000 0.000000 0.000000
# 4 0.000000 0.000000 0.000000 0.016508 0.000000 0.000000
# 5 0.000000 0.000000 0.000000 0.000000 0.021287 0.000000
# 6 0.000000 0.000000 0.000000 0.000000 0.000000 0.025024
#
#
# Mechanical properties :
#
#
# Convention : Reuss Voigt Hill
#
# Bulk Modulus (GPa) = 106.52722 113.69537 110.11129
# Shear Modulus (GPa) = 44.61118 46.72516 45.66817
#
# Velocity S-wave (km/s) = 4.29930 4.39998 4.34993
# Velocity P-wave (km/s) = 8.29357 8.53939 8.41737
#
# Compressibility (1/GPa) = 0.00938727
#
# Stress axis : x y z
#
# Youngs Moduli (GPa) = 93.01735 114.76873 120.54613
#
# Poissons Ratio (x) = 0.20444 0.57587
# Poissons Ratio (y) = 0.16569 0.31675
# Poissons Ratio (z) = 0.44436 0.30157
#
# Static dielectric constant tensor:
#      x y z
#    x 1.917160 0.000000 0.000000 
#    y 0.000000 1.918410 0.000000 
#    z 0.000000 0.000000 1.887690 
# 
# From -- ./inp_files/19750.got.cif
#   From: 2010.05.17/outbox.cif.g08.bks.cpg/sg56_10_cif.got.tgz:19750.got - 2010.06.03 13:42:01.
