data_PCOD9433964
_publ_section_title
;
Structure prediction by ZEFSAII (Michael W. Deem and Ramdas Pophale) SiO2 
 PCOD9433964
Probable space group: P C C N
;
_chemical_formula_sum "Si O2"
_cell_formula_units_Z 64
_cell_length_a 12.000000
_cell_length_b 30.000000
_cell_length_c 9.000000
_cell_angle_alpha 90.000000
_cell_angle_beta 90.000000
_cell_angle_gamma 90.000000
_cell_volume 3240.000000
_symmetry_space_group_name_H-M "P C C N"
_symmetry_group_IT_number 56
_symmetry_cell_setting 'orthorhombic'
loop_
_space_group_symop_operation_xyz
x,y,z
1/2-x,1/2-y,z
1/2+x,-y,1/2-z
-x,1/2+y,1/2-z
-x,-y,-z
1/2+x,1/2+y,-z
1/2-x,y,1/2+z
x,1/2-y,1/2+z
loop_
_atom_site_type_symbol
_atom_site_label
_atom_site_fract_x
_atom_site_fract_y
_atom_site_fract_z
Si Si1 0.929250 0.377454 0.138387
Si Si2 0.007526 0.262173 0.464037
Si Si3 0.344829 0.987758 0.367501
Si Si4 0.871030 0.654131 0.388942
Si Si5 0.992337 0.574308 0.558572
Si Si6 0.885070 0.028650 0.479488
Si Si7 0.146376 0.717478 0.807276
Si Si8 0.130973 0.329819 0.960389
O O1 0.896081 0.420170 0.037231
O O2 0.841487 0.336093 0.163618
O O3 0.962350 0.398827 0.297734
O O4 0.034722 0.354388 0.055906
O O5 0.055990 0.303549 0.556231
O O6 0.098559 0.222735 0.451522
O O7 0.902567 0.239928 0.545539
O O8 0.956029 0.278808 0.309392
O O9 0.409407 0.950809 0.467781
O O10 0.217654 0.991189 0.424334
O O11 0.409072 0.034731 0.389675
O O12 0.353198 0.974107 0.194614
O O13 0.927431 0.609536 0.454607
O O14 0.748492 0.661398 0.459304
O O15 0.865911 0.653324 0.210022
O O16 0.000000 0.000000 0.500000
O O17 0.250000 0.750000 0.763561
#
# Coordination Sequence:
#
# PCOD9433964 Si02
#       8
#     8   8   8   8   8   8   8   8
#     4  11  24  48  70 108 144 183 247 302 364 451
#     4  11  23  43  66  96 139 179 233 291 359 430
#     4  11  27  47  73 106 148 193 246 305 378 439
#     4  12  24  41  70  99 138 183 238 298 364 437
#     4  11  24  46  74 106 142 189 243 303 374 441
#     4  12  26  48  77 107 151 197 250 312 377 449
#     4  11  24  45  70  99 137 187 237 294 357 437
#     4  11  26  41  66 102 139 185 236 299 364 432
#
# _framework density 19.753086
#
# number of rings (size 3 to 8) (size 9 to 14) (size 15 to 20)
#    0.000    0.750    3.750    3.000    5.250    3.000 
#   11.250    0.000    0.000    0.000    0.000    0.000 
#    0.000    0.000    0.000    0.000    0.000    0.000 
#
# Total GULP energy -357849.904470 kJ/mol
# GULP energy per Si atom -5591.404757 kJ/mol
# Density = 1.970813 g / cm^3
# Si number density = 19.753086 Si / 1000 Ang^3
#
#
#
# Elastic Constant Matrix: (Units=GPa)
#
#
# Indices 1 2 3 4 5 6 
#
# 1 108.7622 43.2101 35.9281 0.0000 0.0000 0.0000
# 2 43.2101 142.4802 44.9308 0.0000 0.0000 0.0000
# 3 35.9281 44.9308 153.4356 0.0000 0.0000 0.0000
# 4 0.0000 0.0000 0.0000 42.3916 0.0000 0.0000
# 5 0.0000 0.0000 0.0000 0.0000 37.7659 0.0000
# 6 0.0000 0.0000 0.0000 0.0000 0.0000 29.4800
#
#
#
# Elastic Compliance Matrix: (Units=1/GPa)
#
#
# Indices 1 2 3 4 5 6 
#
# 1 0.010859 -0.002745 -0.001739 0.000000 0.000000 0.000000
# 2 -0.002745 0.008426 -0.001825 0.000000 0.000000 0.000000
# 3 -0.001739 -0.001825 0.007459 0.000000 0.000000 0.000000
# 4 0.000000 0.000000 0.000000 0.023590 0.000000 0.000000
# 5 0.000000 0.000000 0.000000 0.000000 0.026479 0.000000
# 6 0.000000 0.000000 0.000000 0.000000 0.000000 0.033921
#
#
# Mechanical properties :
#
#
# Convention : Reuss Voigt Hill
#
# Bulk Modulus (GPa) = 70.78492 72.53512 71.66002
# Shear Modulus (GPa) = 39.04389 40.63477 39.83933
#
# Velocity S-wave (km/s) = 4.45072 4.54049 4.49583
# Velocity P-wave (km/s) = 7.89459 8.01802 7.95654
#
# Compressibility (1/GPa) = 0.01412730
#
# Stress axis : x y z
#
# Youngs Moduli (GPa) = 92.08643 118.67433 134.06725
#
# Poissons Ratio (x) = 0.32575 0.23314
# Poissons Ratio (y) = 0.25277 0.24464
# Poissons Ratio (z) = 0.16014 0.21655
#
# Static dielectric constant tensor:
#      x y z
#    x 1.686960 0.000000 0.000000 
#    y 0.000000 1.689980 0.000000 
#    z 0.000000 0.000000 1.685670 
# 
# From -- ./inp_files/2954.got.cif
#   From: 2010.05.17/outbox.ucp.g08.bks.cvg/sg56_2_cif.got.tgz:2954.got - 2010.06.11 16:37:52.
