data_PCOD9433109
_publ_section_title
;
Structure prediction by ZEFSAII (Michael W. Deem and Ramdas Pophale) SiO2 
 PCOD9433109
Probable space group: P C C N
;
_chemical_formula_sum "Si O2"
_cell_formula_units_Z 32
_cell_length_a 4.778485
_cell_length_b 11.477036
_cell_length_c 21.175178
_cell_angle_alpha 90.000000
_cell_angle_beta 90.000000
_cell_angle_gamma 90.000000
_cell_volume 1161.306992
_symmetry_space_group_name_H-M "P C C N"
_symmetry_group_IT_number 56
_symmetry_cell_setting 'orthorhombic'
loop_
_space_group_symop_operation_xyz
x,y,z
1/2-x,1/2-y,z
1/2+x,-y,1/2-z
-x,1/2+y,1/2-z
-x,-y,-z
1/2+x,1/2+y,-z
1/2-x,y,1/2+z
x,1/2-y,1/2+z
loop_
_atom_site_type_symbol
_atom_site_label
_atom_site_fract_x
_atom_site_fract_y
_atom_site_fract_z
Si Si1 0.879096 0.364531 0.123519
Si Si2 0.349651 0.421097 0.445983
Si Si3 0.250000 0.750000 0.635426
Si Si4 0.250000 0.250000 0.540095
Si Si5 0.004859 0.081717 0.759740
O O1 0.750000 0.250000 0.090654
O O2 0.740173 0.484152 0.103544
O O3 0.911859 0.351959 0.196714
O O4 0.177071 0.350787 0.091121
O O5 0.500000 0.500000 0.500000
O O6 0.559530 0.338230 0.406113
O O7 0.136270 0.341153 0.485621
O O8 0.436087 0.834474 0.681470
O O9 0.817794 0.963400 0.754531
#
# Coordination Sequence:
#
# PCOD9433109 Si02
#       5
#     8   8   4   4   8
#     4  11  25  47  75 112 155 212 266 345 410 496
#     4  10  25  47  69 113 153 215 269 332 410 497
#     4  12  26  50  82 116 168 220 280 348 430 502
#     4  10  26  46  76 106 160 206 276 326 412 482
#     4  12  29  50  80 119 161 210 275 348 418 503
#
# _framework density 27.555160000000001
#
# number of rings (size 3 to 8) (size 9 to 14) (size 15 to 20)
#    0.000    1.000    3.750    0.000   14.000    2.000 
#    0.000    0.000    0.000    0.000    0.000    0.000 
#    0.000    0.000    0.000    0.000    0.000    0.000 
#
# Total GULP energy -178253.570943 kJ/mol
# GULP energy per Si atom -5570.424092 kJ/mol
# Density = 2.749244 g / cm^3
# Si number density = 27.555160 Si / 1000 Ang^3
#
#
#
# Elastic Constant Matrix: (Units=GPa)
#
#
# Indices 1 2 3 4 5 6 
#
# 1 61.5362 40.4409 34.2260 0.0000 0.0000 0.0000
# 2 40.4409 162.1472 84.1665 0.0000 0.0000 0.0000
# 3 34.2260 84.1665 179.0646 0.0000 0.0000 0.0000
# 4 0.0000 0.0000 0.0000 80.1112 0.0000 0.0000
# 5 0.0000 0.0000 0.0000 0.0000 39.4883 0.0000
# 6 0.0000 0.0000 0.0000 0.0000 0.0000 57.2908
#
#
#
# Elastic Compliance Matrix: (Units=1/GPa)
#
#
# Indices 1 2 3 4 5 6 
#
# 1 0.019938 -0.003961 -0.001949 0.000000 0.000000 0.000000
# 2 -0.003961 0.008944 -0.003447 0.000000 0.000000 0.000000
# 3 -0.001949 -0.003447 0.007577 0.000000 0.000000 0.000000
# 4 0.000000 0.000000 0.000000 0.012483 0.000000 0.000000
# 5 0.000000 0.000000 0.000000 0.000000 0.025324 0.000000
# 6 0.000000 0.000000 0.000000 0.000000 0.000000 0.017455
#
#
# Mechanical properties :
#
#
# Convention : Reuss Voigt Hill
#
# Bulk Modulus (GPa) = 56.35290 80.04611 68.19950
# Shear Modulus (GPa) = 42.97367 51.63904 47.30635
#
# Velocity S-wave (km/s) = 3.95340 4.33370 4.14791
# Velocity P-wave (km/s) = 6.42919 7.35892 6.90971
#
# Compressibility (1/GPa) = 0.01774532
#
# Stress axis : x y z
#
# Youngs Moduli (GPa) = 50.15612 111.80141 131.97172
#
# Poissons Ratio (x) = 0.44284 0.25722
# Poissons Ratio (y) = 0.19866 0.45492
# Poissons Ratio (z) = 0.09776 0.38539
#
# Static dielectric constant tensor:
#      x y z
#    x 1.322940 0.000000 0.000000 
#    y 0.000000 2.088740 0.000000 
#    z 0.000000 0.000000 2.175650 
# 
# From -- ./inp_files/17287.got.cif
#   From: 2010.05.17/outbox.cif.g08.bks.cpg/sg56_9_cif.got.tgz:17287.got - 2010.06.03 13:42:01.
