data_PCOD9433749
_publ_section_title
;
Structure prediction by ZEFSAII (Michael W. Deem and Ramdas Pophale) SiO2 
 PCOD9433749
Probable space group: P C C N
;
_chemical_formula_sum "Si O2"
_cell_formula_units_Z 48
_cell_length_a 14.700981
_cell_length_b 8.507789
_cell_length_c 16.529005
_cell_angle_alpha 90.000000
_cell_angle_beta 90.000000
_cell_angle_gamma 90.000000
_cell_volume 2067.329671
_symmetry_space_group_name_H-M "P C C N"
_symmetry_group_IT_number 56
_symmetry_cell_setting 'orthorhombic'
loop_
_space_group_symop_operation_xyz
x,y,z
1/2-x,1/2-y,z
1/2+x,-y,1/2-z
-x,1/2+y,1/2-z
-x,-y,-z
1/2+x,1/2+y,-z
1/2-x,y,1/2+z
x,1/2-y,1/2+z
loop_
_atom_site_type_symbol
_atom_site_label
_atom_site_fract_x
_atom_site_fract_y
_atom_site_fract_z
Si Si1 0.649627 0.263509 0.416736
Si Si2 0.894579 0.967703 0.012934
Si Si3 0.860786 0.467636 0.073525
Si Si4 0.750000 0.750000 0.015322
Si Si5 0.887002 0.519686 0.704332
Si Si6 0.019780 0.328413 0.808806
Si Si7 0.750000 0.250000 0.189155
O O1 0.750000 0.250000 0.377804
O O2 0.654501 0.114597 0.474832
O O3 0.628356 0.403639 0.481407
O O4 0.567191 0.248213 0.353706
O O5 0.887397 0.965432 0.108575
O O6 0.842736 0.816383 0.975400
O O7 0.000000 0.000000 0.000000
O O8 0.785647 0.603631 0.066135
O O9 0.826270 0.328446 0.131305
O O10 0.940204 0.556170 0.122136
O O11 0.975089 0.429736 0.738114
O O12 0.801480 0.405474 0.727088
O O13 0.906420 0.703772 0.725685
#
# Coordination Sequence:
#
# PCOD9433749 Si02
#       7
#     8   8   8   4   8   8   4
#     4  12  23  44  70 105 138 182 234 300 353 418
#     4  12  23  45  74 100 141 184 240 303 354 421
#     4  12  20  42  70 103 134 182 239 282 356 424
#     4  12  20  40  70 108 134 180 238 288 352 438
#     4  12  25  46  67 102 139 188 234 286 363 429
#     4  12  28  44  69 103 146 184 234 294 361 437
#     4  12  22  42  74  94 136 188 228 292 342 426
#
# _framework density 23.218356
#
# number of rings (size 3 to 8) (size 9 to 14) (size 15 to 20)
#    0.000    0.000    9.167    1.500    1.167    0.000 
#    0.000    0.000    0.000    1.000    0.000    0.000 
#    0.000    0.000    0.000    0.000    0.000    0.000 
#
# Total GULP energy -267375.452786 kJ/mol
# GULP energy per Si atom -5570.321933 kJ/mol
# Density = 2.316551 g / cm^3
# Si number density = 23.218356 Si / 1000 Ang^3
#
#
#
# Elastic Constant Matrix: (Units=GPa)
#
#
# Indices 1 2 3 4 5 6 
#
# 1 122.5711 34.9392 10.7882 0.0000 0.0000 0.0000
# 2 34.9392 110.2935 18.0849 0.0000 0.0000 0.0000
# 3 10.7882 18.0849 23.7810 0.0000 0.0000 0.0000
# 4 0.0000 0.0000 0.0000 25.4012 0.0000 0.0000
# 5 0.0000 0.0000 0.0000 0.0000 29.5521 0.0000
# 6 0.0000 0.0000 0.0000 0.0000 0.0000 48.1060
#
#
#
# Elastic Compliance Matrix: (Units=1/GPa)
#
#
# Indices 1 2 3 4 5 6 
#
# 1 0.009068 -0.002511 -0.002204 0.000000 0.000000 0.000000
# 2 -0.002511 0.011054 -0.007267 0.000000 0.000000 0.000000
# 3 -0.002204 -0.007267 0.048577 0.000000 0.000000 0.000000
# 4 0.000000 0.000000 0.000000 0.039368 0.000000 0.000000
# 5 0.000000 0.000000 0.000000 0.000000 0.033839 0.000000
# 6 0.000000 0.000000 0.000000 0.000000 0.000000 0.020787
#
#
# Mechanical properties :
#
#
# Convention : Reuss Voigt Hill
#
# Bulk Modulus (GPa) = 22.35424 42.69671 32.52547
# Shear Modulus (GPa) = 24.80536 33.46739 29.13638
#
# Velocity S-wave (km/s) = 3.27211 3.80072 3.54628
# Velocity P-wave (km/s) = 4.89125 6.13920 5.55041
#
# Compressibility (1/GPa) = 0.04473424
#
# Stress axis : x y z
#
# Youngs Moduli (GPa) = 110.27332 90.46635 20.58599
#
# Poissons Ratio (x) = 0.22719 0.04537
# Poissons Ratio (y) = 0.27693 0.14960
# Poissons Ratio (z) = 0.24305 0.65742
#
# Static dielectric constant tensor:
#      x y z
#    x 1.858950 0.000000 0.000000 
#    y 0.000000 1.965450 0.000000 
#    z 0.000000 0.000000 1.868920 
# 
# From -- ./inp_files/21095.got.cif
#   From: 2010.05.17/outbox.cif.g08.bks.cpg/sg56_11_cif.got.tgz:21095.got - 2010.06.03 13:42:01.
