data_PCOD9433331
_publ_section_title
;
Structure prediction by ZEFSAII (Michael W. Deem and Ramdas Pophale) SiO2 
 PCOD9433331
Probable space group: P C C N
;
_chemical_formula_sum "Si O2"
_cell_formula_units_Z 32
_cell_length_a 16.021154
_cell_length_b 8.349143
_cell_length_c 10.898446
_cell_angle_alpha 90.000000
_cell_angle_beta 90.000000
_cell_angle_gamma 90.000000
_cell_volume 1457.807805
_symmetry_space_group_name_H-M "P C C N"
_symmetry_group_IT_number 56
_symmetry_cell_setting 'orthorhombic'
loop_
_space_group_symop_operation_xyz
x,y,z
1/2-x,1/2-y,z
1/2+x,-y,1/2-z
-x,1/2+y,1/2-z
-x,-y,-z
1/2+x,1/2+y,-z
1/2-x,y,1/2+z
x,1/2-y,1/2+z
loop_
_atom_site_type_symbol
_atom_site_label
_atom_site_fract_x
_atom_site_fract_y
_atom_site_fract_z
Si Si1 0.701338 0.914952 0.421328
Si Si2 0.010238 0.403623 0.625538
Si Si3 0.266067 0.058885 0.834102
Si Si4 0.453052 0.945517 0.877612
O O1 0.750000 0.750000 0.439780
O O2 0.608971 0.865122 0.380917
O O3 0.706937 0.997528 0.554576
O O4 0.741017 0.007120 0.304878
O O5 0.000250 0.498245 0.752979
O O6 0.000000 0.500000 0.500000
O O7 0.954889 0.245799 0.625098
O O8 0.250000 0.250000 0.817450
O O9 0.360283 0.019264 0.876275
O O10 0.500000 0.000000 0.000000
#
# Coordination Sequence:
#
# PCOD9433331 Si02
#       4
#     8   8   8   8
#     4   9  18  34  58  85 116 160 208 249 303 374
#     4  11  24  41  63  95 129 165 216 273 327 383
#     4   9  18  33  56  86 116 158 209 251 305 379
#     4  11  22  38  63  94 128 169 213 265 320 382
#
# _framework density 21.950768
#
# number of rings (size 3 to 8) (size 9 to 14) (size 15 to 20)
#    0.000    2.000    0.000    4.500    0.000    8.000 
#    0.000    1.250    0.000    9.000    0.000    0.000 
#    0.000    0.000    0.000    0.000    0.000    0.000 
#
# Total GULP energy -178446.786709 kJ/mol
# GULP energy per Si atom -5576.462085 kJ/mol
# Density = 2.190081 g / cm^3
# Si number density = 21.950768 Si / 1000 Ang^3
#
#
#
# Elastic Constant Matrix: (Units=GPa)
#
#
# Indices 1 2 3 4 5 6 
#
# 1 53.9872 32.2783 6.5410 0.0000 0.0000 0.0000
# 2 32.2783 99.5712 40.5034 0.0000 0.0000 0.0000
# 3 6.5410 40.5034 165.3217 0.0000 0.0000 0.0000
# 4 0.0000 0.0000 0.0000 30.6676 0.0000 0.0000
# 5 0.0000 0.0000 0.0000 0.0000 38.5190 0.0000
# 6 0.0000 0.0000 0.0000 0.0000 0.0000 32.0968
#
#
#
# Elastic Compliance Matrix: (Units=1/GPa)
#
#
# Indices 1 2 3 4 5 6 
#
# 1 0.023131 -0.007915 0.001024 0.000000 0.000000 0.000000
# 2 -0.007915 0.013863 -0.003083 0.000000 0.000000 0.000000
# 3 0.001024 -0.003083 0.006764 0.000000 0.000000 0.000000
# 4 0.000000 0.000000 0.000000 0.032608 0.000000 0.000000
# 5 0.000000 0.000000 0.000000 0.000000 0.025961 0.000000
# 6 0.000000 0.000000 0.000000 0.000000 0.000000 0.031156
#
#
# Mechanical properties :
#
#
# Convention : Reuss Voigt Hill
#
# Bulk Modulus (GPa) = 42.00042 53.05841 47.52942
# Shear Modulus (GPa) = 30.98514 36.22716 33.60615
#
# Velocity S-wave (km/s) = 3.76117 4.06690 3.91702
# Velocity P-wave (km/s) = 6.16744 6.80271 6.49285
#
# Compressibility (1/GPa) = 0.02380928
#
# Stress axis : x y z
#
# Youngs Moduli (GPa) = 43.23181 72.13393 147.84830
#
# Poissons Ratio (x) = 0.57094 -0.15139
# Poissons Ratio (y) = 0.34218 0.45586
# Poissons Ratio (z) = -0.04427 0.22241
#
# Static dielectric constant tensor:
#      x y z
#    x 1.836290 0.000000 0.000000 
#    y 0.000000 1.694200 0.000000 
#    z 0.000000 0.000000 2.003290 
# 
# From -- ./inp_files/5982.got.cif
#   From: 2010.05.17/outbox.cif.g08.bks.cpg/sg56_3_cif.got.tgz:5982.got - 2010.06.03 13:42:01.
