data_PCOD9433415
_publ_section_title
;
Structure prediction by ZEFSAII (Michael W. Deem and Ramdas Pophale) SiO2 
 PCOD9433415
Probable space group: P C C N
;
_chemical_formula_sum "Si O2"
_cell_formula_units_Z 60
_cell_length_a 17.253224
_cell_length_b 8.400436
_cell_length_c 17.619863
_cell_angle_alpha 90.000000
_cell_angle_beta 90.000000
_cell_angle_gamma 90.000000
_cell_volume 2553.727867
_symmetry_space_group_name_H-M "P C C N"
_symmetry_group_IT_number 56
_symmetry_cell_setting 'orthorhombic'
loop_
_space_group_symop_operation_xyz
x,y,z
1/2-x,1/2-y,z
1/2+x,-y,1/2-z
-x,1/2+y,1/2-z
-x,-y,-z
1/2+x,1/2+y,-z
1/2-x,y,1/2+z
x,1/2-y,1/2+z
loop_
_atom_site_type_symbol
_atom_site_label
_atom_site_fract_x
_atom_site_fract_y
_atom_site_fract_z
Si Si1 0.884559 0.214793 0.600623
Si Si2 0.250000 0.750000 0.295656
Si Si3 0.915757 0.551737 0.532365
Si Si4 0.473268 0.086790 0.172899
Si Si5 0.291355 0.095789 0.592637
Si Si6 0.463985 0.233278 0.320678
Si Si7 0.358206 0.690864 0.169722
Si Si8 0.862052 0.049082 0.452889
O O1 0.808003 0.161287 0.646366
O O2 0.876660 0.392409 0.567335
O O3 0.898762 0.091089 0.532833
O O4 0.961742 0.214685 0.650832
O O5 0.317266 0.796579 0.234657
O O6 0.864294 0.616759 0.463050
O O7 0.926526 0.678246 0.600399
O O8 0.000000 0.500000 0.500000
O O9 0.520466 0.921601 0.185712
O O10 0.416281 0.051029 0.103197
O O11 0.428009 0.152168 0.246173
O O12 0.250000 0.250000 0.625406
O O13 0.315378 0.975135 0.658701
O O14 0.222742 0.023234 0.541012
O O15 0.551600 0.163851 0.319018
O O16 0.350826 0.784289 0.091170
#
# Coordination Sequence:
#
# PCOD9433415 Si02
#       8
#     8   4   8   8   8   8   8   8
#     4  12  25  44  75 103 136 190 241 295 356 428
#     4  12  24  42  76 100 136 182 246 292 350 438
#     4  12  25  44  71 101 143 189 238 301 373 430
#     4  11  25  43  72 105 142 193 235 305 359 445
#     4  12  26  41  69 104 140 189 238 303 366 430
#     4  11  24  44  68 105 146 180 246 298 368 443
#     4  11  22  47  69  99 140 196 233 299 362 440
#     4  11  24  45  69  98 146 184 245 282 363 447
#
# _framework density 23.495062999999998
#
# number of rings (size 3 to 8) (size 9 to 14) (size 15 to 20)
#    0.000    0.533    5.333    2.800    5.600    1.067 
#    0.000    0.000    0.000    0.800    0.000    0.000 
#    0.000    0.000    0.000    0.000    0.000    0.000 
#
# Total GULP energy -335242.034130 kJ/mol
# GULP energy per Si atom -5587.367236 kJ/mol
# Density = 2.344159 g / cm^3
# Si number density = 23.495063 Si / 1000 Ang^3
#
#
#
# Elastic Constant Matrix: (Units=GPa)
#
#
# Indices 1 2 3 4 5 6 
#
# 1 89.9076 10.0909 13.3372 0.0000 0.0000 0.0000
# 2 10.0909 76.4000 16.8535 0.0000 0.0000 0.0000
# 3 13.3372 16.8535 97.1541 0.0000 0.0000 0.0000
# 4 0.0000 0.0000 0.0000 22.5237 0.0000 0.0000
# 5 0.0000 0.0000 0.0000 0.0000 34.9813 0.0000
# 6 0.0000 0.0000 0.0000 0.0000 0.0000 37.9300
#
#
#
# Elastic Compliance Matrix: (Units=1/GPa)
#
#
# Indices 1 2 3 4 5 6 
#
# 1 0.011461 -0.001213 -0.001363 0.000000 0.000000 0.000000
# 2 -0.001213 0.013738 -0.002217 0.000000 0.000000 0.000000
# 3 -0.001363 -0.002217 0.010865 0.000000 0.000000 0.000000
# 4 0.000000 0.000000 0.000000 0.044398 0.000000 0.000000
# 5 0.000000 0.000000 0.000000 0.000000 0.028587 0.000000
# 6 0.000000 0.000000 0.000000 0.000000 0.000000 0.026364
#
#
# Mechanical properties :
#
#
# Convention : Reuss Voigt Hill
#
# Bulk Modulus (GPa) = 37.76676 38.22500 37.99588
# Shear Modulus (GPa) = 32.50473 33.96567 33.23520
#
# Velocity S-wave (km/s) = 3.72354 3.80630 3.76515
# Velocity P-wave (km/s) = 5.88180 5.96841 5.92526
#
# Compressibility (1/GPa) = 0.02647831
#
# Stress axis : x y z
#
# Youngs Moduli (GPa) = 87.25344 72.78967 92.04243
#
# Poissons Ratio (x) = 0.08830 0.12544
# Poissons Ratio (y) = 0.10585 0.20403
# Poissons Ratio (z) = 0.11892 0.16135
#
# Static dielectric constant tensor:
#      x y z
#    x 1.877190 0.000000 0.000000 
#    y 0.000000 1.944880 0.000000 
#    z 0.000000 0.000000 1.892980 
# 
# From -- ./inp_files/16669.got.cif
#   From: 2010.05.17/outbox.cif.g08.bks.cpg/sg56_9_cif.got.tgz:16669.got - 2010.06.03 13:42:01.
