data_PCOD9433185
_publ_section_title
;
Structure prediction by ZEFSAII (Michael W. Deem and Ramdas Pophale) SiO2 
 PCOD9433185
Probable space group: P C C N
;
_chemical_formula_sum "Si O2"
_cell_formula_units_Z 52
_cell_length_a 19.512932
_cell_length_b 8.967306
_cell_length_c 13.278168
_cell_angle_alpha 90.000000
_cell_angle_beta 90.000000
_cell_angle_gamma 90.000000
_cell_volume 2323.393019
_symmetry_space_group_name_H-M "P C C N"
_symmetry_group_IT_number 56
_symmetry_cell_setting 'orthorhombic'
loop_
_space_group_symop_operation_xyz
x,y,z
1/2-x,1/2-y,z
1/2+x,-y,1/2-z
-x,1/2+y,1/2-z
-x,-y,-z
1/2+x,1/2+y,-z
1/2-x,y,1/2+z
x,1/2-y,1/2+z
loop_
_atom_site_type_symbol
_atom_site_label
_atom_site_fract_x
_atom_site_fract_y
_atom_site_fract_z
Si Si1 0.143740 0.485746 0.609217
Si Si2 0.460681 0.196920 0.472671
Si Si3 0.871175 0.566869 0.945736
Si Si4 0.250000 0.250000 0.088942
Si Si5 0.377278 0.760433 0.486911
Si Si6 0.581699 0.202176 0.224394
Si Si7 0.056244 0.449793 0.251274
O O1 0.080810 0.391579 0.560342
O O2 0.203403 0.374597 0.643170
O O3 0.166524 0.597934 0.520332
O O4 0.118056 0.601977 0.692041
O O5 0.431446 0.364188 0.485414
O O6 0.541952 0.198394 0.492976
O O7 0.443943 0.121285 0.364011
O O8 0.803910 0.656746 0.975950
O O9 0.885287 0.598648 0.827164
O O10 0.863297 0.391534 0.955330
O O11 0.370338 0.722833 0.370807
O O12 0.557982 0.370724 0.249151
O O13 0.513143 0.110350 0.201073
#
# Coordination Sequence:
#
# PCOD9433185 Si02
#       7
#     8   8   8   4   8   8   8
#     4  11  23  46  68  99 144 185 236 285 342 425
#     4  11  22  40  69 107 147 174 221 289 362 421
#     4  11  25  43  67  99 140 183 235 286 340 428
#     4  10  28  50  70  90 134 206 232 280 350 410
#     4  12  22  40  69 108 137 177 227 297 358 410
#     4  12  25  37  70 109 142 179 223 292 365 422
#     4  12  23  39  66 107 144 180 225 286 368 424
#
# _framework density 22.381060999999999
#
# number of rings (size 3 to 8) (size 9 to 14) (size 15 to 20)
#    0.000    0.615    6.154    1.846    4.308    0.615 
#    0.000    6.923    3.385    0.000    0.000    0.000 
#    0.000    0.000    0.000    0.000    0.000    0.000 
#
# Total GULP energy -290387.752709 kJ/mol
# GULP energy per Si atom -5584.379860 kJ/mol
# Density = 2.233012 g / cm^3
# Si number density = 22.381061 Si / 1000 Ang^3
#
#
#
# Elastic Constant Matrix: (Units=GPa)
#
#
# Indices 1 2 3 4 5 6 
#
# 1 57.1720 38.5785 13.3304 0.0000 0.0000 0.0000
# 2 38.5785 138.7191 43.0956 0.0000 0.0000 0.0000
# 3 13.3304 43.0956 90.1924 0.0000 0.0000 0.0000
# 4 0.0000 0.0000 0.0000 36.3790 0.0000 0.0000
# 5 0.0000 0.0000 0.0000 0.0000 1.0826 0.0000
# 6 0.0000 0.0000 0.0000 0.0000 0.0000 32.6869
#
#
#
# Elastic Compliance Matrix: (Units=1/GPa)
#
#
# Indices 1 2 3 4 5 6 
#
# 1 0.021543 -0.005874 -0.000377 0.000000 0.000000 0.000000
# 2 -0.005874 0.010067 -0.003942 0.000000 0.000000 0.000000
# 3 -0.000377 -0.003942 0.013027 0.000000 0.000000 0.000000
# 4 0.000000 0.000000 0.000000 0.027488 0.000000 0.000000
# 5 0.000000 0.000000 0.000000 0.000000 0.923738 0.000000
# 6 0.000000 0.000000 0.000000 0.000000 0.000000 0.030593
#
#
# Mechanical properties :
#
#
# Convention : Reuss Voigt Hill
#
# Bulk Modulus (GPa) = 41.23736 52.89917 47.06827
# Shear Modulus (GPa) = 4.73967 26.76828 15.75397
#
# Velocity S-wave (km/s) = 1.45682 3.46211 2.65598
# Velocity P-wave (km/s) = 4.61464 6.29830 5.52103
#
# Compressibility (1/GPa) = 0.02424986
#
# Stress axis : x y z
#
# Youngs Moduli (GPa) = 46.41961 99.33399 76.76495
#
# Poissons Ratio (x) = 0.58348 0.02897
# Poissons Ratio (y) = 0.27266 0.30261
# Poissons Ratio (z) = 0.01752 0.39158
#
# Static dielectric constant tensor:
#      x y z
#    x 1.840450 0.000000 0.000000 
#    y 0.000000 1.871680 0.000000 
#    z 0.000000 0.000000 1.905340 
# 
# From -- ./inp_files/13024.got.cif
#   From: 2010.05.17/outbox.cif.g08.bks.cpg/sg56_7_cif.got.tgz:13024.got - 2010.06.03 13:42:01.
