data_PCOD9433167
_publ_section_title
;
Structure prediction by ZEFSAII (Michael W. Deem and Ramdas Pophale) SiO2 
 PCOD9433167
Probable space group: P C C N
;
_chemical_formula_sum "Si O2"
_cell_formula_units_Z 36
_cell_length_a 11.149101
_cell_length_b 12.151756
_cell_length_c 12.237418
_cell_angle_alpha 90.000000
_cell_angle_beta 90.000000
_cell_angle_gamma 90.000000
_cell_volume 1657.939525
_symmetry_space_group_name_H-M "P C C N"
_symmetry_group_IT_number 56
_symmetry_cell_setting 'orthorhombic'
loop_
_space_group_symop_operation_xyz
x,y,z
1/2-x,1/2-y,z
1/2+x,-y,1/2-z
-x,1/2+y,1/2-z
-x,-y,-z
1/2+x,1/2+y,-z
1/2-x,y,1/2+z
x,1/2-y,1/2+z
loop_
_atom_site_type_symbol
_atom_site_label
_atom_site_fract_x
_atom_site_fract_y
_atom_site_fract_z
Si Si1 0.338724 0.552548 0.716932
Si Si2 0.068189 0.074961 0.912232
Si Si3 0.714953 0.873295 0.939911
Si Si4 0.963050 0.306296 0.970144
Si Si5 0.250000 0.750000 0.863558
O O1 0.426492 0.486709 0.797731
O O2 0.261122 0.460119 0.655669
O O3 0.405064 0.616734 0.620510
O O4 0.270536 0.643052 0.788789
O O5 0.008995 0.194750 0.912305
O O6 0.203329 0.092889 0.957295
O O7 0.000000 0.000000 0.000000
O O8 0.750000 0.750000 0.905491
O O9 0.576055 0.865640 0.973392
O O10 0.864555 0.271237 0.059418
#
# Coordination Sequence:
#
# PCOD9433167 Si02
#       5
#     8   8   8   8   4
#     4  12  26  43  81 102 145 194 241 292 376 431
#     4  11  25  46  72 105 147 189 240 304 356 436
#     4  10  26  49  72 106 149 189 245 303 361 441
#     4  11  26  50  69 107 151 185 247 304 368 438
#     4  12  26  46  72 112 144 194 234 312 366 446
#
# _framework density 21.713699999999999
#
# number of rings (size 3 to 8) (size 9 to 14) (size 15 to 20)
#    0.000    0.889    2.222    2.667    6.222    4.444 
#    0.000    0.000    0.000    0.000    0.000    0.000 
#    0.000    0.000    0.000    0.000    0.000    0.000 
#
# Total GULP energy -201605.310641 kJ/mol
# GULP energy per Si atom -5600.147518 kJ/mol
# Density = 2.166428 g / cm^3
# Si number density = 21.713700 Si / 1000 Ang^3
#
#
#
# Elastic Constant Matrix: (Units=GPa)
#
#
# Indices 1 2 3 4 5 6 
#
# 1 88.5112 13.6659 19.1741 0.0000 0.0000 0.0000
# 2 13.6659 124.6075 61.2824 0.0000 0.0000 0.0000
# 3 19.1741 61.2824 103.9456 0.0000 0.0000 0.0000
# 4 0.0000 0.0000 0.0000 61.6507 0.0000 0.0000
# 5 0.0000 0.0000 0.0000 0.0000 -17.2799 0.0000
# 6 0.0000 0.0000 0.0000 0.0000 0.0000 18.6349
#
#
#
# Elastic Compliance Matrix: (Units=1/GPa)
#
#
# Indices 1 2 3 4 5 6 
#
# 1 0.011777 -0.000314 -0.001987 0.000000 0.000000 0.000000
# 2 -0.000314 0.011311 -0.006610 0.000000 0.000000 0.000000
# 3 -0.001987 -0.006610 0.013884 0.000000 0.000000 0.000000
# 4 0.000000 0.000000 0.000000 0.016220 0.000000 0.000000
# 5 0.000000 0.000000 0.000000 0.000000 -0.057871 0.000000
# 6 0.000000 0.000000 0.000000 0.000000 0.000000 0.053663
#
#
# Mechanical properties :
#
#
# Convention : Reuss Voigt Hill
#
# Bulk Modulus (GPa) = 52.22406 56.14545 54.18475
# Shear Modulus (GPa) = 68.31469 27.46393 47.88931
#
# Velocity S-wave (km/s) = 5.61515 3.56029 4.70136
# Velocity P-wave (km/s) = 8.13285 6.54325 7.38097
#
# Compressibility (1/GPa) = 0.01914826
#
# Stress axis : x y z
#
# Youngs Moduli (GPa) = 84.91124 88.41204 72.02438
#
# Poissons Ratio (x) = 0.02779 0.14312
# Poissons Ratio (y) = 0.02669 0.47611
# Poissons Ratio (z) = 0.16873 0.58444
#
# Static dielectric constant tensor:
#      x y z
#    x 1.795540 0.000000 0.000000 
#    y 0.000000 1.814970 0.000000 
#    z 0.000000 0.000000 1.751210 
# 
# From -- ./inp_files/6838.got.cif
#   From: 2010.05.17/outbox.cif.g08.bks.cpg/sg56_4_cif.got.tgz:6838.got - 2010.06.03 13:42:01.
