data_PCOD9433116
_publ_section_title
;
Structure prediction by ZEFSAII (Michael W. Deem and Ramdas Pophale) SiO2 
 PCOD9433116
Probable space group: P C C N
;
_chemical_formula_sum "Si O2"
_cell_formula_units_Z 60
_cell_length_a 22.797918
_cell_length_b 10.715073
_cell_length_c 11.359883
_cell_angle_alpha 90.000000
_cell_angle_beta 90.000000
_cell_angle_gamma 90.000000
_cell_volume 2775.007619
_symmetry_space_group_name_H-M "P C C N"
_symmetry_group_IT_number 56
_symmetry_cell_setting 'orthorhombic'
loop_
_space_group_symop_operation_xyz
x,y,z
1/2-x,1/2-y,z
1/2+x,-y,1/2-z
-x,1/2+y,1/2-z
-x,-y,-z
1/2+x,1/2+y,-z
1/2-x,y,1/2+z
x,1/2-y,1/2+z
loop_
_atom_site_type_symbol
_atom_site_label
_atom_site_fract_x
_atom_site_fract_y
_atom_site_fract_z
Si Si1 0.168349 0.040771 0.455472
Si Si2 0.598734 0.065831 0.502272
Si Si3 0.290073 0.486225 0.855624
Si Si4 0.750000 0.250000 0.254416
Si Si5 0.586022 0.567578 0.755175
Si Si6 0.871771 0.661627 0.823701
Si Si7 0.046868 0.948798 0.751535
Si Si8 0.358776 0.800894 0.104437
O O1 0.124741 0.010625 0.348872
O O2 0.143343 0.149042 0.539030
O O3 0.231964 0.074438 0.407473
O O4 0.169873 0.918610 0.538571
O O5 0.659046 0.005096 0.548966
O O6 0.553134 0.044940 0.607504
O O7 0.608909 0.212810 0.487183
O O8 0.584537 0.012420 0.374455
O O9 0.268881 0.625126 0.814929
O O10 0.320192 0.406291 0.751472
O O11 0.806818 0.276192 0.334308
O O12 0.616227 0.699287 0.783837
O O13 0.518759 0.583301 0.715745
O O14 0.930200 0.580188 0.799215
O O15 0.094717 0.851981 0.699581
#
# Coordination Sequence:
#
# PCOD9433116 Si02
#       8
#     8   8   8   4   8   8   8   8
#     4  11  25  44  69 104 136 183 233 287 355 410
#     4  11  24  42  70 106 135 184 233 287 358 413
#     4  11  23  44  70 102 145 176 228 293 349 424
#     4  12  18  42  72 104 138 174 226 284 356 410
#     4  12  28  43  75 100 140 194 237 282 358 425
#     4  10  26  49  66 103 140 185 234 288 353 415
#     4  10  25  48  67 101 139 186 233 296 349 414
#     4  11  23  41  72 106 139 175 234 296 349 414
#
# _framework density 21.621561
#
# number of rings (size 3 to 8) (size 9 to 14) (size 15 to 20)
#    0.000    1.067    4.000    2.800    9.333    3.733 
#    0.000    0.000    0.000    0.000    0.000    0.000 
#    0.000    0.000    0.000    0.000    0.000    0.000 
#
# Total GULP energy -335571.730724 kJ/mol
# GULP energy per Si atom -5592.862179 kJ/mol
# Density = 2.157235 g / cm^3
# Si number density = 21.621561 Si / 1000 Ang^3
#
#
#
# Elastic Constant Matrix: (Units=GPa)
#
#
# Indices 1 2 3 4 5 6 
#
# 1 105.1617 4.5248 31.4165 0.0000 0.0000 0.0000
# 2 4.5248 42.8562 -7.8405 0.0000 0.0000 0.0000
# 3 31.4165 -7.8405 82.1761 0.0000 0.0000 0.0000
# 4 0.0000 0.0000 0.0000 -13.5960 0.0000 0.0000
# 5 0.0000 0.0000 0.0000 0.0000 9.1277 0.0000
# 6 0.0000 0.0000 0.0000 0.0000 0.0000 22.2983
#
#
#
# Elastic Compliance Matrix: (Units=1/GPa)
#
#
# Indices 1 2 3 4 5 6 
#
# 1 0.010892 -0.001946 -0.004350 0.000000 0.000000 0.000000
# 2 -0.001946 0.024096 0.003043 0.000000 0.000000 0.000000
# 3 -0.004350 0.003043 0.014122 0.000000 0.000000 0.000000
# 4 0.000000 0.000000 0.000000 -0.073551 0.000000 0.000000
# 5 0.000000 0.000000 0.000000 0.000000 0.109557 0.000000
# 6 0.000000 0.000000 0.000000 0.000000 0.000000 0.044846
#
#
# Mechanical properties :
#
#
# Convention : Reuss Voigt Hill
#
# Bulk Modulus (GPa) = 23.47140 31.82175 27.64657
# Shear Modulus (GPa) = 33.18504 17.03889 25.11197
#
# Velocity S-wave (km/s) = 3.92192 2.81027 3.41168
# Velocity P-wave (km/s) = 5.60247 5.02789 5.32294
#
# Compressibility (1/GPa) = 0.04260505
#
# Stress axis : x y z
#
# Youngs Moduli (GPa) = 91.80721 41.50069 70.80999
#
# Poissons Ratio (x) = 0.08075 0.30802
# Poissons Ratio (y) = 0.17864 -0.21547
# Poissons Ratio (z) = 0.39935 -0.12628
#
# Static dielectric constant tensor:
#      x y z
#    x 1.775940 0.000000 0.000000 
#    y 0.000000 1.781160 0.000000 
#    z 0.000000 0.000000 1.795700 
# 
# From -- ./inp_files/8689.got.cif
#   From: 2010.05.17/outbox.cif.g08.bks.cpg/sg56_5_cif.got.tgz:8689.got - 2010.06.03 13:42:01.
