data_PCOD9433247
_publ_section_title
;
Structure prediction by ZEFSAII (Michael W. Deem and Ramdas Pophale) SiO2 
 PCOD9433247
Probable space group: P C C N
;
_chemical_formula_sum "Si O2"
_cell_formula_units_Z 60
_cell_length_a 11.299365
_cell_length_b 9.648363
_cell_length_c 25.282794
_cell_angle_alpha 90.000000
_cell_angle_beta 90.000000
_cell_angle_gamma 90.000000
_cell_volume 2756.339688
_symmetry_space_group_name_H-M "P C C N"
_symmetry_group_IT_number 56
_symmetry_cell_setting 'orthorhombic'
loop_
_space_group_symop_operation_xyz
x,y,z
1/2-x,1/2-y,z
1/2+x,-y,1/2-z
-x,1/2+y,1/2-z
-x,-y,-z
1/2+x,1/2+y,-z
1/2-x,y,1/2+z
x,1/2-y,1/2+z
loop_
_atom_site_type_symbol
_atom_site_label
_atom_site_fract_x
_atom_site_fract_y
_atom_site_fract_z
Si Si1 0.519254 0.515864 0.350389
Si Si2 0.750000 0.250000 0.232311
Si Si3 0.032985 0.473723 0.439215
Si Si4 0.627496 0.240171 0.908328
Si Si5 0.866195 0.800885 0.882488
Si Si6 0.845598 0.041767 0.814464
Si Si7 0.100637 0.972229 0.771770
Si Si8 0.248599 0.086170 0.864448
O O1 0.591914 0.409874 0.387910
O O2 0.555638 0.670555 0.365997
O O3 0.564671 0.484420 0.290473
O O4 0.380157 0.480320 0.359456
O O5 0.778495 0.386449 0.266252
O O6 0.868474 0.186746 0.208577
O O7 0.161248 0.479282 0.409758
O O8 0.000000 0.500000 0.500000
O O9 0.985405 0.316799 0.431856
O O10 0.948795 0.585623 0.410079
O O11 0.750000 0.250000 0.941153
O O12 0.656887 0.341482 0.859096
O O13 0.750000 0.750000 0.914356
O O14 0.806572 0.892088 0.835013
O O15 0.978384 0.019196 0.797574
O O16 0.191175 0.065660 0.806094
O O17 0.250000 0.250000 0.875056
#
# Coordination Sequence:
#
# PCOD9433247 Si02
#       8
#     8   4   8   8   8   8   8   8
#     4  12  25  41  75 109 152 198 245 308 370 458
#     4  12  24  40  62  94 142 208 246 292 352 446
#     4  11  26  52  77 103 145 194 249 324 401 452
#     4  11  20  45  73  98 137 194 249 304 372 457
#     4  11  25  45  70 107 141 180 249 317 370 448
#     4  11  22  40  62  93 136 183 246 287 350 426
#     4  12  25  38  65 102 148 201 243 283 369 448
#     4  12  26  49  74 109 158 199 260 318 381 470
#
# _framework density 21.768000000000001
#
# number of rings (size 3 to 8) (size 9 to 14) (size 15 to 20)
#    0.000    0.533    6.000    3.200    3.733    2.667 
#    2.400    0.667    0.000    0.000    0.000    0.000 
#    0.000    0.000    0.000    0.000    0.000    0.000 
#
# Total GULP energy -334277.973951 kJ/mol
# GULP energy per Si atom -5571.299566 kJ/mol
# Density = 2.171846 g / cm^3
# Si number density = 21.768000 Si / 1000 Ang^3
#
#
#
# Elastic Constant Matrix: (Units=GPa)
#
#
# Indices 1 2 3 4 5 6 
#
# 1 157.5672 47.3665 45.2801 0.0000 0.0000 0.0000
# 2 47.3665 149.6579 43.1121 0.0000 0.0000 0.0000
# 3 45.2801 43.1121 60.5777 0.0000 0.0000 0.0000
# 4 0.0000 0.0000 0.0000 8.2018 0.0000 0.0000
# 5 0.0000 0.0000 0.0000 0.0000 8.0715 0.0000
# 6 0.0000 0.0000 0.0000 0.0000 0.0000 46.5736
#
#
#
# Elastic Compliance Matrix: (Units=1/GPa)
#
#
# Indices 1 2 3 4 5 6 
#
# 1 0.008211 -0.001045 -0.005393 0.000000 0.000000 0.000000
# 2 -0.001045 0.008538 -0.005295 0.000000 0.000000 0.000000
# 3 -0.005393 -0.005295 0.024308 0.000000 0.000000 0.000000
# 4 0.000000 0.000000 0.000000 0.121924 0.000000 0.000000
# 5 0.000000 0.000000 0.000000 0.000000 0.123892 0.000000
# 6 0.000000 0.000000 0.000000 0.000000 0.000000 0.021471
#
#
# Mechanical properties :
#
#
# Convention : Reuss Voigt Hill
#
# Bulk Modulus (GPa) = 56.85400 71.03556 63.94478
# Shear Modulus (GPa) = 14.80713 28.03898 21.42305
#
# Velocity S-wave (km/s) = 2.61094 3.59288 3.14053
# Velocity P-wave (km/s) = 5.93837 7.06510 6.52609
#
# Compressibility (1/GPa) = 0.01758891
#
# Stress axis : x y z
#
# Youngs Moduli (GPa) = 121.79468 117.12271 41.13904
#
# Poissons Ratio (x) = 0.12238 0.22188
# Poissons Ratio (y) = 0.12727 0.21784
# Poissons Ratio (z) = 0.65690 0.62020
#
# Static dielectric constant tensor:
#      x y z
#    x 2.066330 0.000000 0.000000 
#    y 0.000000 1.734070 0.000000 
#    z 0.000000 0.000000 1.995980 
# 
# From -- ./inp_files/22341.got.cif
#   From: 2010.05.17/outbox.cif.g08.bks.cpg/sg56_12_cif.got.tgz:22341.got - 2010.06.03 13:42:01.
