data_PCOD9433860
_publ_section_title
;
Structure prediction by ZEFSAII (Michael W. Deem and Ramdas Pophale) SiO2 
 PCOD9433860
Probable space group: P C C N
;
_chemical_formula_sum "Si O2"
_cell_formula_units_Z 24
_cell_length_a 7.947607
_cell_length_b 16.454166
_cell_length_c 7.206502
_cell_angle_alpha 90.000000
_cell_angle_beta 90.000000
_cell_angle_gamma 90.000000
_cell_volume 942.403238
_symmetry_space_group_name_H-M "P C C N"
_symmetry_group_IT_number 56
_symmetry_cell_setting 'orthorhombic'
loop_
_space_group_symop_operation_xyz
x,y,z
1/2-x,1/2-y,z
1/2+x,-y,1/2-z
-x,1/2+y,1/2-z
-x,-y,-z
1/2+x,1/2+y,-z
1/2-x,y,1/2+z
x,1/2-y,1/2+z
loop_
_atom_site_type_symbol
_atom_site_label
_atom_site_fract_x
_atom_site_fract_y
_atom_site_fract_z
Si Si1 0.041925 0.580034 0.386427
Si Si2 0.927309 0.707267 0.647712
Si Si3 0.085004 0.864645 0.504560
O O1 0.230679 0.609454 0.437510
O O2 0.025176 0.573534 0.164835
O O3 0.000000 0.500000 0.500000
O O4 0.923792 0.650107 0.468346
O O5 0.750000 0.750000 0.669567
O O6 0.065717 0.777619 0.610323
O O7 0.977023 0.651299 0.820932
#
# Coordination Sequence:
#
# PCOD9433860 Si02
#       3
#     8   8   8
#     4  12  29  51  81 119 165 217 268 339 414 483
#     4  12  27  50  85 120 154 214 281 331 400 497
#     4  12  26  51  83 111 160 214 270 329 403 481
#
# _framework density 25.466805999999998
#
# number of rings (size 3 to 8) (size 9 to 14) (size 15 to 20)
#    0.000    0.000    6.667    2.000    0.000    5.333 
#    0.000    0.000    0.000    0.000    0.000    0.000 
#    0.000    0.000    0.000    0.000    0.000    0.000 
#
# Total GULP energy -134622.391678 kJ/mol
# GULP energy per Si atom -5609.266320 kJ/mol
# Density = 2.540884 g / cm^3
# Si number density = 25.466806 Si / 1000 Ang^3
#
#
#
# Elastic Constant Matrix: (Units=GPa)
#
#
# Indices 1 2 3 4 5 6 
#
# 1 174.6741 51.1123 50.4988 0.0000 0.0000 0.0000
# 2 51.1123 74.4373 11.9677 0.0000 0.0000 0.0000
# 3 50.4988 11.9677 186.7927 0.0000 0.0000 0.0000
# 4 0.0000 0.0000 0.0000 48.6391 0.0000 0.0000
# 5 0.0000 0.0000 0.0000 0.0000 33.1538 0.0000
# 6 0.0000 0.0000 0.0000 0.0000 0.0000 26.0227
#
#
#
# Elastic Compliance Matrix: (Units=1/GPa)
#
#
# Indices 1 2 3 4 5 6 
#
# 1 0.007698 -0.005003 -0.001761 0.000000 0.000000 0.000000
# 2 -0.005003 0.016825 0.000274 0.000000 0.000000 0.000000
# 3 -0.001761 0.000274 0.005812 0.000000 0.000000 0.000000
# 4 0.000000 0.000000 0.000000 0.020560 0.000000 0.000000
# 5 0.000000 0.000000 0.000000 0.000000 0.030162 0.000000
# 6 0.000000 0.000000 0.000000 0.000000 0.000000 0.038428
#
#
# Mechanical properties :
#
#
# Convention : Reuss Voigt Hill
#
# Bulk Modulus (GPa) = 57.61258 73.67353 65.64305
# Shear Modulus (GPa) = 36.16692 43.05148 39.60920
#
# Velocity S-wave (km/s) = 3.77259 4.11602 3.94804
# Velocity P-wave (km/s) = 6.45355 7.18198 6.82749
#
# Compressibility (1/GPa) = 0.01735732
#
# Stress axis : x y z
#
# Youngs Moduli (GPa) = 129.90778 59.43523 172.06070
#
# Poissons Ratio (x) = 0.29733 0.30292
# Poissons Ratio (y) = 0.64988 -0.04723
# Poissons Ratio (z) = 0.22871 -0.01631
#
# Static dielectric constant tensor:
#      x y z
#    x 1.961640 0.000000 0.000000 
#    y 0.000000 2.031730 0.000000 
#    z 0.000000 0.000000 2.034420 
# 
# From -- ./inp_files/1780.got.cif
#   From: 2010.05.17/outbox.cif.g08.bks.cpg/sg56_1_cif.got.tgz:1780.got - 2010.06.03 13:42:01.
