data_PCOD9433819
_publ_section_title
;
Structure prediction by ZEFSAII (Michael W. Deem and Ramdas Pophale) SiO2 
 PCOD9433819
Probable space group: P C C N
;
_chemical_formula_sum "Si O2"
_cell_formula_units_Z 32
_cell_length_a 15.092829
_cell_length_b 4.898444
_cell_length_c 18.162664
_cell_angle_alpha 90.000000
_cell_angle_beta 90.000000
_cell_angle_gamma 90.000000
_cell_volume 1342.790771
_symmetry_space_group_name_H-M "P C C N"
_symmetry_group_IT_number 56
_symmetry_cell_setting 'orthorhombic'
loop_
_space_group_symop_operation_xyz
x,y,z
1/2-x,1/2-y,z
1/2+x,-y,1/2-z
-x,1/2+y,1/2-z
-x,-y,-z
1/2+x,1/2+y,-z
1/2-x,y,1/2+z
x,1/2-y,1/2+z
loop_
_atom_site_type_symbol
_atom_site_label
_atom_site_fract_x
_atom_site_fract_y
_atom_site_fract_z
Si Si1 0.583516 0.826522 0.469553
Si Si2 0.561275 0.373551 0.240357
Si Si3 0.689844 0.984657 0.611703
Si Si4 0.352461 0.698521 0.611005
O O1 0.594304 0.512857 0.442732
O O2 0.500000 0.000000 0.500000
O O3 0.654064 0.868811 0.534734
O O4 0.607203 0.001721 0.397986
O O5 0.481840 0.576150 0.261165
O O6 0.607786 0.444242 0.163908
O O7 0.633213 0.393139 0.305589
O O8 0.750000 0.250000 0.600356
O O9 0.750000 0.750000 0.647371
O O10 0.250000 0.750000 0.591801
#
# Coordination Sequence:
#
# PCOD9433819 Si02
#       4
#     8   8   8   8
#     4  12  25  44  69  99 135 177 225 280 341 410
#     4  12  26  46  69  99 136 180 228 281 342 411
#     4  12  25  44  68  99 135 176 223 280 341 405
#     4  12  25  44  69  99 134 177 226 281 340 408
#
# _framework density 23.830967000000001
#
# number of rings (size 3 to 8) (size 9 to 14) (size 15 to 20)
#    0.000    0.000    0.000   12.000    0.000    2.000 
#    0.000    0.000    0.000    0.000    0.000    0.000 
#    0.000    0.000    0.000    0.000    0.000    0.000 
#
# Total GULP energy -179012.157990 kJ/mol
# GULP energy per Si atom -5594.129937 kJ/mol
# Density = 2.377673 g / cm^3
# Si number density = 23.830967 Si / 1000 Ang^3
#
#
#
# Elastic Constant Matrix: (Units=GPa)
#
#
# Indices 1 2 3 4 5 6 
#
# 1 78.7865 -0.4766 -3.3695 0.0000 0.0000 0.0000
# 2 -0.4766 90.4251 2.5118 0.0000 0.0000 0.0000
# 3 -3.3695 2.5118 100.3999 0.0000 0.0000 0.0000
# 4 0.0000 0.0000 0.0000 15.6364 0.0000 0.0000
# 5 0.0000 0.0000 0.0000 0.0000 -7.9227 0.0000
# 6 0.0000 0.0000 0.0000 0.0000 0.0000 48.5322
#
#
#
# Elastic Compliance Matrix: (Units=1/GPa)
#
#
# Indices 1 2 3 4 5 6 
#
# 1 0.012711 0.000055 0.000425 0.000000 0.000000 0.000000
# 2 0.000055 0.011067 -0.000275 0.000000 0.000000 0.000000
# 3 0.000425 -0.000275 0.009981 0.000000 0.000000 0.000000
# 4 0.000000 0.000000 0.000000 0.063953 0.000000 0.000000
# 5 0.000000 0.000000 0.000000 0.000000 -0.126219 0.000000
# 6 0.000000 0.000000 0.000000 0.000000 0.000000 0.020605
#
#
# Mechanical properties :
#
#
# Convention : Reuss Voigt Hill
#
# Bulk Modulus (GPa) = 29.26549 29.66032 29.46291
# Shear Modulus (GPa) = 1624.73249 29.31222 827.02235
#
# Velocity S-wave (km/s) = 26.13912 3.51095 18.64913
# Velocity P-wave (km/s) = 30.38605 5.37669 21.81995
#
# Compressibility (1/GPa) = 0.03416993
#
# Stress axis : x y z
#
# Youngs Moduli (GPa) = 78.67173 90.36027 100.18718
#
# Poissons Ratio (x) = -0.00499 -0.04260
# Poissons Ratio (y) = -0.00434 0.02755
# Poissons Ratio (z) = -0.03345 0.02485
#
# Static dielectric constant tensor:
#      x y z
#    x 2.132410 0.000000 0.000000 
#    y 0.000000 1.871700 0.000000 
#    z 0.000000 0.000000 1.876230 
# 
# From -- ./inp_files/15947.got.cif
#   From: 2010.05.17/outbox.cif.g08.bks.cpg/sg56_8_cif.got.tgz:15947.got - 2010.06.03 13:42:01.
