data_PCOD9433333
_publ_section_title
;
Structure prediction by ZEFSAII (Michael W. Deem and Ramdas Pophale) SiO2 
 PCOD9433333
Probable space group: P C C N
;
_chemical_formula_sum "Si O2"
_cell_formula_units_Z 48
_cell_length_a 11.405714
_cell_length_b 13.625392
_cell_length_c 13.798729
_cell_angle_alpha 90.000000
_cell_angle_beta 90.000000
_cell_angle_gamma 90.000000
_cell_volume 2144.423552
_symmetry_space_group_name_H-M "P C C N"
_symmetry_group_IT_number 56
_symmetry_cell_setting 'orthorhombic'
loop_
_space_group_symop_operation_xyz
x,y,z
1/2-x,1/2-y,z
1/2+x,-y,1/2-z
-x,1/2+y,1/2-z
-x,-y,-z
1/2+x,1/2+y,-z
1/2-x,y,1/2+z
x,1/2-y,1/2+z
loop_
_atom_site_type_symbol
_atom_site_label
_atom_site_fract_x
_atom_site_fract_y
_atom_site_fract_z
Si Si1 0.486315 0.103410 0.282590
Si Si2 0.742093 0.862643 0.479312
Si Si3 0.722690 0.862318 0.200795
Si Si4 0.121508 0.803646 0.729241
Si Si5 0.567825 0.496872 0.398248
Si Si6 0.962859 0.586702 0.366501
O O1 0.347184 0.087040 0.286193
O O2 0.531809 0.213484 0.290736
O O3 0.513824 0.057323 0.177358
O O4 0.531972 0.030350 0.363882
O O5 0.750000 0.750000 0.447224
O O6 0.797731 0.870049 0.586070
O O7 0.815070 0.939455 0.416708
O O8 0.604170 0.881998 0.463289
O O9 0.750000 0.750000 0.220233
O O10 0.623887 0.890828 0.275701
O O11 0.250000 0.750000 0.731304
O O12 0.079913 0.855873 0.830918
O O13 0.103303 0.891113 0.649232
O O14 0.500000 0.500000 0.500000
#
# Coordination Sequence:
#
# PCOD9433333 Si02
#       6
#     8   8   8   8   8   8
#     4  11  23  40  70  91 137 178 230 286 362 430
#     4  11  22  38  70  99 133 176 241 292 347 433
#     4  11  22  41  68  98 130 179 235 288 353 426
#     4  11  24  43  67  99 145 186 229 294 380 436
#     4  11  24  44  71 106 138 186 240 302 361 437
#     4  11  22  41  65  99 131 180 235 291 355 430
#
# _framework density 22.383637
#
# number of rings (size 3 to 8) (size 9 to 14) (size 15 to 20)
#    0.000    1.000    3.333    4.500    4.667    0.667 
#    0.000    0.833    0.000    0.000    0.000    0.000 
#    0.000    0.000    0.000    0.000    0.000    0.000 
#
# Total GULP energy -267636.962022 kJ/mol
# GULP energy per Si atom -5575.770042 kJ/mol
# Density = 2.233269 g / cm^3
# Si number density = 22.383637 Si / 1000 Ang^3
#
#
#
# Elastic Constant Matrix: (Units=GPa)
#
#
# Indices 1 2 3 4 5 6 
#
# 1 86.2627 29.5169 22.0130 0.0000 0.0000 0.0000
# 2 29.5169 154.2042 37.3603 0.0000 0.0000 0.0000
# 3 22.0130 37.3603 66.9582 0.0000 0.0000 0.0000
# 4 0.0000 0.0000 0.0000 17.7952 0.0000 0.0000
# 5 0.0000 0.0000 0.0000 0.0000 13.9988 0.0000
# 6 0.0000 0.0000 0.0000 0.0000 0.0000 58.9866
#
#
#
# Elastic Compliance Matrix: (Units=1/GPa)
#
#
# Indices 1 2 3 4 5 6 
#
# 1 0.013021 -0.001683 -0.003342 0.000000 0.000000 0.000000
# 2 -0.001683 0.007716 -0.003752 0.000000 0.000000 0.000000
# 3 -0.003342 -0.003752 0.018127 0.000000 0.000000 0.000000
# 4 0.000000 0.000000 0.000000 0.056195 0.000000 0.000000
# 5 0.000000 0.000000 0.000000 0.000000 0.071435 0.000000
# 6 0.000000 0.000000 0.000000 0.000000 0.000000 0.016953
#
#
# Mechanical properties :
#
#
# Convention : Reuss Voigt Hill
#
# Bulk Modulus (GPa) = 46.92490 53.91171 50.41830
# Shear Modulus (GPa) = 24.02651 32.72512 28.37582
#
# Velocity S-wave (km/s) = 3.27983 3.82777 3.56435
# Velocity P-wave (km/s) = 5.94579 6.60859 6.28593
#
# Compressibility (1/GPa) = 0.02131065
#
# Stress axis : x y z
#
# Youngs Moduli (GPa) = 76.79845 129.59991 55.16670
#
# Poissons Ratio (x) = 0.21809 0.18436
# Poissons Ratio (y) = 0.12923 0.20699
# Poissons Ratio (z) = 0.25665 0.48627
#
# Static dielectric constant tensor:
#      x y z
#    x 2.159770 0.000000 0.000000 
#    y 0.000000 1.865500 0.000000 
#    z 0.000000 0.000000 1.898780 
# 
# From -- ./inp_files/11584.got.cif
#   From: 2010.05.17/outbox.cif.g08.bks.cpg/sg56_6_cif.got.tgz:11584.got - 2010.06.03 13:42:01.
