data_PCOD9433033
_publ_section_title
;
Structure prediction by ZEFSAII (Michael W. Deem and Ramdas Pophale) SiO2 
 PCOD9433033
Probable space group: P C C N
;
_chemical_formula_sum "Si O2"
_cell_formula_units_Z 56
_cell_length_a 14.773338
_cell_length_b 5.135839
_cell_length_c 30.230595
_cell_angle_alpha 90.000000
_cell_angle_beta 90.000000
_cell_angle_gamma 90.000000
_cell_volume 2293.700610
_symmetry_space_group_name_H-M "P C C N"
_symmetry_group_IT_number 56
_symmetry_cell_setting 'orthorhombic'
loop_
_space_group_symop_operation_xyz
x,y,z
1/2-x,1/2-y,z
1/2+x,-y,1/2-z
-x,1/2+y,1/2-z
-x,-y,-z
1/2+x,1/2+y,-z
1/2-x,y,1/2+z
x,1/2-y,1/2+z
loop_
_atom_site_type_symbol
_atom_site_label
_atom_site_fract_x
_atom_site_fract_y
_atom_site_fract_z
Si Si1 0.851138 0.376483 0.160298
Si Si2 0.643036 0.696289 0.572044
Si Si3 0.485000 0.444870 0.863639
Si Si4 0.859088 0.273910 0.422771
Si Si5 0.140326 0.269618 0.026780
Si Si6 0.984905 0.244212 0.276547
Si Si7 0.307428 0.008292 0.742857
O O1 0.750000 0.250000 0.157436
O O2 0.863884 0.493536 0.111699
O O3 0.837052 0.541652 0.205844
O O4 0.933765 0.171180 0.163824
O O5 0.750000 0.750000 0.569252
O O6 0.579563 0.917071 0.593394
O O7 0.613384 0.639387 0.522181
O O8 0.585671 0.410626 0.883256
O O9 0.482217 0.216392 0.826892
O O10 0.750000 0.250000 0.415457
O O11 0.882944 0.471491 0.462790
O O12 0.889698 0.983339 0.436919
O O13 0.250000 0.250000 0.028767
O O14 0.896048 0.423919 0.282776
O O15 0.036386 0.461177 0.245256
O O16 0.250000 0.750000 0.742106
O O17 0.250000 0.250000 0.726878
#
# Coordination Sequence:
#
# PCOD9433033 Si02
#       7
#     8   8   8   8   8   8   8
#     4  11  23  40  65 101 140 173 223 286 352 419
#     4  11  23  40  67 100 139 178 225 283 359 427
#     4  12  27  42  70 101 137 187 224 293 351 414
#     4  10  24  47  68  97 135 185 237 285 336 403
#     4   9  22  43  69  94 136 182 229 288 342 407
#     4  12  26  46  67 100 140 176 229 285 348 418
#     4  11  24  44  71  96 134 184 232 286 348 415
#
# _framework density 24.414693
#
# number of rings (size 3 to 8) (size 9 to 14) (size 15 to 20)
#    0.000    1.143    2.857    2.143    8.000    2.286 
#    0.000    2.143    0.000    0.000    0.000    0.000 
#    0.000    0.000    0.000    0.000    0.000    0.000 
#
# Total GULP energy -311873.994640 kJ/mol
# GULP energy per Si atom -5569.178476 kJ/mol
# Density = 2.435912 g / cm^3
# Si number density = 24.414693 Si / 1000 Ang^3
#
#
#
# Elastic Constant Matrix: (Units=GPa)
#
#
# Indices 1 2 3 4 5 6 
#
# 1 84.9571 4.0242 8.9955 0.0000 0.0000 0.0000
# 2 4.0242 72.4921 9.8811 0.0000 0.0000 0.0000
# 3 8.9955 9.8811 86.5958 0.0000 0.0000 0.0000
# 4 0.0000 0.0000 0.0000 0.0906 0.0000 0.0000
# 5 0.0000 0.0000 0.0000 0.0000 27.8739 0.0000
# 6 0.0000 0.0000 0.0000 0.0000 0.0000 25.8452
#
#
#
# Elastic Compliance Matrix: (Units=1/GPa)
#
#
# Indices 1 2 3 4 5 6 
#
# 1 0.011919 -0.000501 -0.001181 0.000000 0.000000 0.000000
# 2 -0.000501 0.014034 -0.001549 0.000000 0.000000 0.000000
# 3 -0.001181 -0.001549 0.011847 0.000000 0.000000 0.000000
# 4 0.000000 0.000000 0.000000 11.035309 0.000000 0.000000
# 5 0.000000 0.000000 0.000000 0.000000 0.035876 0.000000
# 6 0.000000 0.000000 0.000000 0.000000 0.000000 0.038692
#
#
# Mechanical properties :
#
#
# Convention : Reuss Voigt Hill
#
# Bulk Modulus (GPa) = 31.90984 32.20518 32.05751
# Shear Modulus (GPa) = 0.44784 25.50489 12.97637
#
# Velocity S-wave (km/s) = 0.42875 3.23562 2.30793
# Velocity P-wave (km/s) = 3.65286 5.21330 4.50122
#
# Compressibility (1/GPa) = 0.03133829
#
# Stress axis : x y z
#
# Youngs Moduli (GPa) = 83.89673 71.25764 84.40685
#
# Poissons Ratio (x) = 0.03568 0.09969
# Poissons Ratio (y) = 0.04201 0.13077
# Poissons Ratio (z) = 0.09909 0.11040
#
# Static dielectric constant tensor:
#      x y z
#    x 2.284670 0.000000 0.000000 
#    y 0.000000 1.756280 0.000000 
#    z 0.000000 0.000000 1.913810 
# 
# From -- ./inp_files/23591.got.cif
#   From: 2010.05.17/outbox.cif.g08.bks.cpg/sg56_12_cif.got.tgz:23591.got - 2010.06.03 13:42:01.
