data_PCOD9433776
_publ_section_title
;
Structure prediction by ZEFSAII (Michael W. Deem and Ramdas Pophale) SiO2 
 PCOD9433776
Probable space group: P C C N
;
_chemical_formula_sum "Si O2"
_cell_formula_units_Z 56
_cell_length_a 13.758923
_cell_length_b 21.707172
_cell_length_c 9.049680
_cell_angle_alpha 90.000000
_cell_angle_beta 90.000000
_cell_angle_gamma 90.000000
_cell_volume 2702.843565
_symmetry_space_group_name_H-M "P C C N"
_symmetry_group_IT_number 56
_symmetry_cell_setting 'orthorhombic'
loop_
_space_group_symop_operation_xyz
x,y,z
1/2-x,1/2-y,z
1/2+x,-y,1/2-z
-x,1/2+y,1/2-z
-x,-y,-z
1/2+x,1/2+y,-z
1/2-x,y,1/2+z
x,1/2-y,1/2+z
loop_
_atom_site_type_symbol
_atom_site_label
_atom_site_fract_x
_atom_site_fract_y
_atom_site_fract_z
Si Si1 0.629920 0.059124 0.381389
Si Si2 0.027220 0.153663 0.958301
Si Si3 0.139163 0.224004 0.482844
Si Si4 0.830534 0.031420 0.224618
Si Si5 0.480167 0.470119 0.342378
Si Si6 0.346958 0.389172 0.689590
Si Si7 0.631541 0.630977 0.760489
O O1 0.574367 0.124805 0.402014
O O2 0.727833 0.056701 0.282900
O O3 0.657044 0.034314 0.546369
O O4 0.554189 0.016411 0.288722
O O5 0.054717 0.224849 0.986057
O O6 0.110709 0.132021 0.846339
O O7 0.050996 0.124316 0.115651
O O8 0.250000 0.250000 0.510878
O O9 0.111945 0.165307 0.584567
O O10 0.138171 0.196206 0.318038
O O11 0.921460 0.065669 0.299410
O O12 0.851103 0.963259 0.293086
O O13 0.500000 0.500000 0.500000
O O14 0.390269 0.423047 0.355656
O O15 0.233354 0.380354 0.665314
#
# Coordination Sequence:
#
# PCOD9433776 Si02
#       7
#     8   8   8   8   8   8   8
#     4  12  26  46  70 103 143 194 235 301 368 427
#     4  12  25  43  65  98 147 190 234 279 356 445
#     4  12  25  40  65 103 145 188 229 281 360 439
#     4  12  25  43  69 102 143 184 237 301 363 430
#     4  12  24  41  68 105 140 182 238 292 366 434
#     4  12  23  38  67 102 144 181 229 291 359 436
#     4  12  23  40  64 102 141 183 227 285 358 430
#
# _framework density 20.718920000000001
#
# number of rings (size 3 to 8) (size 9 to 14) (size 15 to 20)
#    0.000    0.000    7.143    3.857    2.000    0.000 
#    0.000    0.000    0.000    0.857    0.000    0.000 
#    0.000    0.000    0.000    0.000    0.000    0.000 
#
# Total GULP energy -311965.246393 kJ/mol
# GULP energy per Si atom -5570.807971 kJ/mol
# Density = 2.067176 g / cm^3
# Si number density = 20.718920 Si / 1000 Ang^3
#
#
#
# Elastic Constant Matrix: (Units=GPa)
#
#
# Indices 1 2 3 4 5 6 
#
# 1 106.0059 31.2031 37.7961 0.0000 0.0000 0.0000
# 2 31.2031 104.4206 32.1744 0.0000 0.0000 0.0000
# 3 37.7961 32.1744 104.0910 0.0000 0.0000 0.0000
# 4 0.0000 0.0000 0.0000 27.0248 0.0000 0.0000
# 5 0.0000 0.0000 0.0000 0.0000 35.9797 0.0000
# 6 0.0000 0.0000 0.0000 0.0000 0.0000 35.9019
#
#
#
# Elastic Compliance Matrix: (Units=1/GPa)
#
#
# Indices 1 2 3 4 5 6 
#
# 1 0.011332 -0.002341 -0.003391 0.000000 0.000000 0.000000
# 2 -0.002341 0.011069 -0.002571 0.000000 0.000000 0.000000
# 3 -0.003391 -0.002571 0.011633 0.000000 0.000000 0.000000
# 4 0.000000 0.000000 0.000000 0.037003 0.000000 0.000000
# 5 0.000000 0.000000 0.000000 0.000000 0.027793 0.000000
# 6 0.000000 0.000000 0.000000 0.000000 0.000000 0.027854
#
#
# Mechanical properties :
#
#
# Convention : Reuss Voigt Hill
#
# Bulk Modulus (GPa) = 57.38402 57.42940 57.40671
# Shear Modulus (GPa) = 33.53484 34.00421 33.76952
#
# Velocity S-wave (km/s) = 4.02750 4.05559 4.04157
# Velocity P-wave (km/s) = 7.02739 7.05045 7.03893
#
# Compressibility (1/GPa) = 0.01742645
#
# Stress axis : x y z
#
# Youngs Moduli (GPa) = 88.24862 90.34638 85.96261
#
# Poissons Ratio (x) = 0.21153 0.29149
# Poissons Ratio (y) = 0.20662 0.22102
# Poissons Ratio (z) = 0.29924 0.23229
#
# Static dielectric constant tensor:
#      x y z
#    x 1.785050 0.000000 0.000000 
#    y 0.000000 1.873920 0.000000 
#    z 0.000000 0.000000 1.830210 
# 
# From -- ./inp_files/3573.got.cif
#   From: 2010.05.17/outbox.cif.g08.bks.cpg/sg56_2_cif.got.tgz:3573.got - 2010.06.03 13:42:01.
