data_PCOD9433543
_publ_section_title
;
Structure prediction by ZEFSAII (Michael W. Deem and Ramdas Pophale) SiO2 
 PCOD9433543
Probable space group: P C C N
;
_chemical_formula_sum "Si O2"
_cell_formula_units_Z 32
_cell_length_a 6.931927
_cell_length_b 21.293498
_cell_length_c 8.370329
_cell_angle_alpha 90.000000
_cell_angle_beta 90.000000
_cell_angle_gamma 90.000000
_cell_volume 1235.502192
_symmetry_space_group_name_H-M "P C C N"
_symmetry_group_IT_number 56
_symmetry_cell_setting 'orthorhombic'
loop_
_space_group_symop_operation_xyz
x,y,z
1/2-x,1/2-y,z
1/2+x,-y,1/2-z
-x,1/2+y,1/2-z
-x,-y,-z
1/2+x,1/2+y,-z
1/2-x,y,1/2+z
x,1/2-y,1/2+z
loop_
_atom_site_type_symbol
_atom_site_label
_atom_site_fract_x
_atom_site_fract_y
_atom_site_fract_z
Si Si1 0.474361 0.321991 0.354495
Si Si2 0.446461 0.926063 0.387284
Si Si3 0.304567 0.995651 0.099153
Si Si4 0.097020 0.298842 0.194582
O O1 0.573663 0.365679 0.222870
O O2 0.502371 0.331481 0.544006
O O3 0.980662 0.249766 0.805141
O O4 0.245243 0.334070 0.312109
O O5 0.365438 0.983402 0.279550
O O6 0.321379 0.935154 0.544268
O O7 0.668235 0.944093 0.415807
O O8 0.500000 0.000000 0.000000
O O9 0.250000 0.250000 0.109983
#
# Coordination Sequence:
#
# PCOD9433543 Si02
#       4
#     8   8   8   8
#     4   9  17  31  58  88 116 162 203 251 311 376
#     4  11  24  41  66  90 127 174 209 261 324 374
#     4  11  24  43  60  96 131 160 218 262 307 392
#     4   8  14  31  50  91 119 146 212 247 300 385
#
# _framework density 25.900399
#
# number of rings (size 3 to 8) (size 9 to 14) (size 15 to 20)
#    1.500    0.500    5.000    0.000    3.500    0.000 
#    0.000    2.500    0.000    4.500    0.000    0.000 
#    0.000    0.000    0.000    0.000    0.000    0.000 
#
# Total GULP energy -178417.060534 kJ/mol
# GULP energy per Si atom -5575.533142 kJ/mol
# Density = 2.584145 g / cm^3
# Si number density = 25.900399 Si / 1000 Ang^3
#
#
#
# Elastic Constant Matrix: (Units=GPa)
#
#
# Indices 1 2 3 4 5 6 
#
# 1 100.2701 12.9249 22.0221 0.0000 0.0000 0.0000
# 2 12.9249 39.8166 4.3009 0.0000 0.0000 0.0000
# 3 22.0221 4.3009 102.1279 0.0000 0.0000 0.0000
# 4 0.0000 0.0000 0.0000 33.5565 0.0000 0.0000
# 5 0.0000 0.0000 0.0000 0.0000 41.7250 0.0000
# 6 0.0000 0.0000 0.0000 0.0000 0.0000 25.3613
#
#
#
# Elastic Compliance Matrix: (Units=1/GPa)
#
#
# Indices 1 2 3 4 5 6 
#
# 1 0.010883 -0.003294 -0.002208 0.000000 0.000000 0.000000
# 2 -0.003294 0.026227 -0.000394 0.000000 0.000000 0.000000
# 3 -0.002208 -0.000394 0.010284 0.000000 0.000000 0.000000
# 4 0.000000 0.000000 0.000000 0.029800 0.000000 0.000000
# 5 0.000000 0.000000 0.000000 0.000000 0.023966 0.000000
# 6 0.000000 0.000000 0.000000 0.000000 0.000000 0.039430
#
#
# Mechanical properties :
#
#
# Convention : Reuss Voigt Hill
#
# Bulk Modulus (GPa) = 28.08866 35.63448 31.86157
# Shear Modulus (GPa) = 30.44127 33.65967 32.05047
#
# Velocity S-wave (km/s) = 3.43201 3.60888 3.52156
# Velocity P-wave (km/s) = 5.15494 5.58153 5.37247
#
# Compressibility (1/GPa) = 0.03560155
#
# Stress axis : x y z
#
# Youngs Moduli (GPa) = 91.88977 38.12859 97.23517
#
# Poissons Ratio (x) = 0.12560 0.21469
# Poissons Ratio (y) = 0.30270 0.03833
# Poissons Ratio (z) = 0.20289 0.01503
#
# Static dielectric constant tensor:
#      x y z
#    x 2.079740 0.000000 0.000000 
#    y 0.000000 2.101390 0.000000 
#    z 0.000000 0.000000 2.067390 
# 
# From -- ./inp_files/1586.got.cif
#   From: 2010.05.17/outbox.cif.g08.bks.cpg/sg56_1_cif.got.tgz:1586.got - 2010.06.03 13:42:01.
