data_PCOD9433265
_publ_section_title
;
Structure prediction by ZEFSAII (Michael W. Deem and Ramdas Pophale) SiO2 
 PCOD9433265
Probable space group: P C C N
;
_chemical_formula_sum "Si O2"
_cell_formula_units_Z 32
_cell_length_a 8.526332
_cell_length_b 13.978327
_cell_length_c 9.875738
_cell_angle_alpha 90.000000
_cell_angle_beta 90.000000
_cell_angle_gamma 90.000000
_cell_volume 1177.028544
_symmetry_space_group_name_H-M "P C C N"
_symmetry_group_IT_number 56
_symmetry_cell_setting 'orthorhombic'
loop_
_space_group_symop_operation_xyz
x,y,z
1/2-x,1/2-y,z
1/2+x,-y,1/2-z
-x,1/2+y,1/2-z
-x,-y,-z
1/2+x,1/2+y,-z
1/2-x,y,1/2+z
x,1/2-y,1/2+z
loop_
_atom_site_type_symbol
_atom_site_label
_atom_site_fract_x
_atom_site_fract_y
_atom_site_fract_z
Si Si1 0.029586 0.761167 0.150721
Si Si2 0.369863 0.453435 0.764285
Si Si3 0.475531 0.636759 0.906889
Si Si4 0.326723 0.400369 0.486906
O O1 0.925468 0.843413 0.223147
O O2 0.082376 0.698829 0.278635
O O3 0.940795 0.685465 0.053628
O O4 0.118828 0.827471 0.040323
O O5 0.456156 0.528643 0.858478
O O6 0.374262 0.472256 0.605879
O O7 0.205619 0.451406 0.843993
O O8 0.660328 0.640640 0.951330
#
# Coordination Sequence:
#
# PCOD9433265 Si02
#       4
#     8   8   8   8
#     4  11  21  37  63  91 121 154 203 249 300 350
#     4  11  23  38  61  93 125 154 199 256 308 354
#     4  11  23  38  61  93 125 154 199 256 308 354
#     4  11  21  37  63  91 121 154 203 249 300 350
#
# _framework density 27.187106
#
# number of rings (size 3 to 8) (size 9 to 14) (size 15 to 20)
#    0.000    1.000    5.000    6.000    0.000    1.000 
#    0.000    0.000    0.000   12.000    0.000    0.000 
#    0.000    0.000    0.000    0.000    0.000    0.000 
#
# Total GULP energy -178581.937100 kJ/mol
# GULP energy per Si atom -5580.685534 kJ/mol
# Density = 2.712523 g / cm^3
# Si number density = 27.187106 Si / 1000 Ang^3
#
#
#
# Elastic Constant Matrix: (Units=GPa)
#
#
# Indices 1 2 3 4 5 6 
#
# 1 33.6385 21.6164 -1.1534 0.0000 0.0000 0.0000
# 2 21.6164 65.5479 18.3905 0.0000 0.0000 0.0000
# 3 -1.1534 18.3905 198.4950 0.0000 0.0000 0.0000
# 4 0.0000 0.0000 0.0000 45.9994 0.0000 0.0000
# 5 0.0000 0.0000 0.0000 0.0000 20.9990 0.0000
# 6 0.0000 0.0000 0.0000 0.0000 0.0000 32.4821
#
#
#
# Elastic Compliance Matrix: (Units=1/GPa)
#
#
# Indices 1 2 3 4 5 6 
#
# 1 0.038109 -0.012967 0.001423 0.000000 0.000000 0.000000
# 2 -0.012967 0.020075 -0.001935 0.000000 0.000000 0.000000
# 3 0.001423 -0.001935 0.005225 0.000000 0.000000 0.000000
# 4 0.000000 0.000000 0.000000 0.021739 0.000000 0.000000
# 5 0.000000 0.000000 0.000000 0.000000 0.047621 0.000000
# 6 0.000000 0.000000 0.000000 0.000000 0.000000 0.030786
#
#
# Mechanical properties :
#
#
# Convention : Reuss Voigt Hill
#
# Bulk Modulus (GPa) = 27.43391 41.70983 34.57187
# Shear Modulus (GPa) = 24.67113 37.15129 30.91121
#
# Velocity S-wave (km/s) = 3.01567 3.70064 3.37557
# Velocity P-wave (km/s) = 4.71576 5.79954 5.28550
#
# Compressibility (1/GPa) = 0.03645123
#
# Stress axis : x y z
#
# Youngs Moduli (GPa) = 26.24034 49.81266 191.36980
#
# Poissons Ratio (x) = 0.64591 -0.27229
# Poissons Ratio (y) = 0.34026 0.37036
# Poissons Ratio (z) = -0.03734 0.09640
#
# Static dielectric constant tensor:
#      x y z
#    x 2.358270 0.000000 0.000000 
#    y 0.000000 2.132550 0.000000 
#    z 0.000000 0.000000 2.164760 
# 
# From -- ./inp_files/6765.got.cif
#   From: 2010.05.17/outbox.cif.g08.bks.cpg/sg56_4_cif.got.tgz:6765.got - 2010.06.03 13:42:01.
