data_PCOD9433163
_publ_section_title
;
Structure prediction by ZEFSAII (Michael W. Deem and Ramdas Pophale) SiO2 
 PCOD9433163
Probable space group: P C C N
;
_chemical_formula_sum "Si O2"
_cell_formula_units_Z 60
_cell_length_a 26.879655
_cell_length_b 11.351534
_cell_length_c 8.865471
_cell_angle_alpha 90.000000
_cell_angle_beta 90.000000
_cell_angle_gamma 90.000000
_cell_volume 2705.079655
_symmetry_space_group_name_H-M "P C C N"
_symmetry_group_IT_number 56
_symmetry_cell_setting 'orthorhombic'
loop_
_space_group_symop_operation_xyz
x,y,z
1/2-x,1/2-y,z
1/2+x,-y,1/2-z
-x,1/2+y,1/2-z
-x,-y,-z
1/2+x,1/2+y,-z
1/2-x,y,1/2+z
x,1/2-y,1/2+z
loop_
_atom_site_type_symbol
_atom_site_label
_atom_site_fract_x
_atom_site_fract_y
_atom_site_fract_z
Si Si1 0.097710 0.678850 0.098380
Si Si2 0.700811 0.394349 0.253732
Si Si3 0.555084 0.366252 0.087707
Si Si4 0.701623 0.664435 0.245298
Si Si5 0.551358 0.515207 0.593288
Si Si6 0.947403 0.901297 0.928038
Si Si7 0.750000 0.250000 0.003915
Si Si8 0.130003 0.216325 0.496211
O O1 0.147140 0.629345 0.174632
O O2 0.060445 0.669820 0.239376
O O3 0.094654 0.806991 0.024649
O O4 0.082289 0.598322 0.957796
O O5 0.711587 0.528050 0.203853
O O6 0.708975 0.302950 0.116833
O O7 0.736017 0.355423 0.391689
O O8 0.498868 0.333293 0.039523
O O9 0.560212 0.505643 0.062150
O O10 0.750000 0.750000 0.249635
O O11 0.673373 0.658404 0.404924
O O12 0.660266 0.721009 0.136769
O O13 0.500000 0.500000 0.500000
O O14 0.543639 0.528764 0.771906
O O15 0.586942 0.624353 0.547903
O O16 0.900332 0.817666 0.916108
#
# Coordination Sequence:
#
# PCOD9433163 Si02
#       8
#     8   8   8   8   8   8   4   8
#     4  12  23  44  69 100 138 186 238 295 362 448
#     4  11  25  48  74 104 146 187 252 311 381 456
#     4  11  25  41  68 101 140 188 238 295 365 442
#     4  12  28  48  76 110 151 199 258 318 387 457
#     4  12  24  44  70 101 146 192 239 300 372 448
#     4  11  25  44  66 102 143 190 241 300 364 446
#     4  10  26  48  74 106 140 192 240 324 384 444
#     4  12  26  47  72 107 145 195 249 310 375 449
#
# _framework density 22.180492999999998
#
# number of rings (size 3 to 8) (size 9 to 14) (size 15 to 20)
#    0.000    0.533    4.000    3.600    3.733    0.000 
#    2.400    0.000    0.000    0.000    0.000    0.000 
#    0.000    0.000    0.000    0.000    0.000    0.000 
#
# Total GULP energy -335180.824281 kJ/mol
# GULP energy per Si atom -5586.347071 kJ/mol
# Density = 2.213001 g / cm^3
# Si number density = 22.180493 Si / 1000 Ang^3
#
#
#
# Elastic Constant Matrix: (Units=GPa)
#
#
# Indices 1 2 3 4 5 6 
#
# 1 101.9028 35.9131 7.8620 0.0000 0.0000 0.0000
# 2 35.9131 80.2536 19.3015 0.0000 0.0000 0.0000
# 3 7.8620 19.3015 78.9354 0.0000 0.0000 0.0000
# 4 0.0000 0.0000 0.0000 25.1607 0.0000 0.0000
# 5 0.0000 0.0000 0.0000 0.0000 34.4649 0.0000
# 6 0.0000 0.0000 0.0000 0.0000 0.0000 36.7093
#
#
#
# Elastic Compliance Matrix: (Units=1/GPa)
#
#
# Indices 1 2 3 4 5 6 
#
# 1 0.011652 -0.005243 0.000122 0.000000 0.000000 0.000000
# 2 -0.005243 0.015599 -0.003292 0.000000 0.000000 0.000000
# 3 0.000122 -0.003292 0.013461 0.000000 0.000000 0.000000
# 4 0.000000 0.000000 0.000000 0.039745 0.000000 0.000000
# 5 0.000000 0.000000 0.000000 0.000000 0.029015 0.000000
# 6 0.000000 0.000000 0.000000 0.000000 0.000000 0.027241
#
#
# Mechanical properties :
#
#
# Convention : Reuss Voigt Hill
#
# Bulk Modulus (GPa) = 41.86839 43.02721 42.44780
# Shear Modulus (GPa) = 30.95948 32.46799 31.71373
#
# Velocity S-wave (km/s) = 3.74009 3.83013 3.78538
# Velocity P-wave (km/s) = 6.12929 6.24505 6.18744
#
# Compressibility (1/GPa) = 0.02388437
#
# Stress axis : x y z
#
# Youngs Moduli (GPa) = 85.82378 64.10821 74.28626
#
# Poissons Ratio (x) = 0.33614 -0.00903
# Poissons Ratio (y) = 0.45000 0.24455
# Poissons Ratio (z) = -0.01044 0.21104
#
# Static dielectric constant tensor:
#      x y z
#    x 1.867110 0.000000 0.000000 
#    y 0.000000 1.837700 0.000000 
#    z 0.000000 0.000000 1.803780 
# 
# From -- ./inp_files/4980.got.cif
#   From: 2010.05.17/outbox.cif.g08.bks.cpg/sg56_3_cif.got.tgz:4980.got - 2010.06.03 13:42:01.
