data_PCOD9433659
_publ_section_title
;
Structure prediction by ZEFSAII (Michael W. Deem and Ramdas Pophale) SiO2 
 PCOD9433659
Probable space group: P C C N
;
_chemical_formula_sum "Si O2"
_cell_formula_units_Z 32
_cell_length_a 7.236328
_cell_length_b 16.750561
_cell_length_c 9.414090
_cell_angle_alpha 90.000000
_cell_angle_beta 90.000000
_cell_angle_gamma 90.000000
_cell_volume 1141.105889
_symmetry_space_group_name_H-M "P C C N"
_symmetry_group_IT_number 56
_symmetry_cell_setting 'orthorhombic'
loop_
_space_group_symop_operation_xyz
x,y,z
1/2-x,1/2-y,z
1/2+x,-y,1/2-z
-x,1/2+y,1/2-z
-x,-y,-z
1/2+x,1/2+y,-z
1/2-x,y,1/2+z
x,1/2-y,1/2+z
loop_
_atom_site_type_symbol
_atom_site_label
_atom_site_fract_x
_atom_site_fract_y
_atom_site_fract_z
Si Si1 0.281858 0.667762 0.835728
Si Si2 0.771982 0.920004 0.053589
Si Si3 0.029155 0.021832 0.222083
Si Si4 0.573310 0.721915 0.449903
O O1 0.250000 0.750000 0.744057
O O2 0.370728 0.590423 0.770288
O O3 0.435262 0.701504 0.949580
O O4 0.079494 0.658060 0.899904
O O5 0.621192 0.976518 0.126006
O O6 0.950383 0.942650 0.148494
O O7 0.691128 0.830643 0.061958
O O8 0.823306 0.944157 0.893762
O O9 0.750000 0.750000 0.356644
#
# Coordination Sequence:
#
# PCOD9433659 Si02
#       4
#     8   8   8   8
#     4   8  20  41  69 108 137 185 244 290 365 433
#     4  11  25  46  71 103 148 190 242 300 374 427
#     4  11  25  46  69 108 143 197 244 302 368 446
#     4   9  18  43  70 104 139 191 227 308 356 432
#
# _framework density 28.042971000000001
#
# number of rings (size 3 to 8) (size 9 to 14) (size 15 to 20)
#    1.500    0.500    2.500    0.000    0.000    8.000 
#    9.000    0.000    0.000    0.000    0.000    0.000 
#    0.000    0.000    0.000    0.000    0.000    0.000 
#
# Total GULP energy -178182.089360 kJ/mol
# GULP energy per Si atom -5568.190292 kJ/mol
# Density = 2.797914 g / cm^3
# Si number density = 28.042971 Si / 1000 Ang^3
#
#
#
# Elastic Constant Matrix: (Units=GPa)
#
#
# Indices 1 2 3 4 5 6 
#
# 1 202.5951 39.2793 44.1135 0.0000 0.0000 0.0000
# 2 39.2793 150.3177 23.3496 0.0000 0.0000 0.0000
# 3 44.1135 23.3496 94.3770 0.0000 0.0000 0.0000
# 4 0.0000 0.0000 0.0000 23.0041 0.0000 0.0000
# 5 0.0000 0.0000 0.0000 0.0000 39.2081 0.0000
# 6 0.0000 0.0000 0.0000 0.0000 0.0000 49.5456
#
#
#
# Elastic Compliance Matrix: (Units=1/GPa)
#
#
# Indices 1 2 3 4 5 6 
#
# 1 0.005669 -0.001112 -0.002374 0.000000 0.000000 0.000000
# 2 -0.001112 0.007137 -0.001246 0.000000 0.000000 0.000000
# 3 -0.002374 -0.001246 0.012014 0.000000 0.000000 0.000000
# 4 0.000000 0.000000 0.000000 0.043470 0.000000 0.000000
# 5 0.000000 0.000000 0.000000 0.000000 0.025505 0.000000
# 6 0.000000 0.000000 0.000000 0.000000 0.000000 0.020183
#
#
# Mechanical properties :
#
#
# Convention : Reuss Voigt Hill
#
# Bulk Modulus (GPa) = 65.12902 73.41940 69.27421
# Shear Modulus (GPa) = 38.89196 45.05471 41.97334
#
# Velocity S-wave (km/s) = 3.72811 4.01263 3.87298
# Velocity P-wave (km/s) = 6.46582 6.90696 6.69003
#
# Compressibility (1/GPa) = 0.01535414
#
# Stress axis : x y z
#
# Youngs Moduli (GPa) = 176.40912 140.11944 83.23730
#
# Poissons Ratio (x) = 0.15587 0.19764
# Poissons Ratio (y) = 0.19624 0.10369
# Poissons Ratio (z) = 0.41887 0.17455
#
# Static dielectric constant tensor:
#      x y z
#    x 2.299970 0.000000 0.000000 
#    y 0.000000 2.483870 0.000000 
#    z 0.000000 0.000000 2.178530 
# 
# From -- ./inp_files/1942.got.cif
#   From: 2010.05.17/outbox.cif.g08.bks.cpg/sg56_1_cif.got.tgz:1942.got - 2010.06.03 13:42:01.
