data_PCOD9433716
_publ_section_title
;
Structure prediction by ZEFSAII (Michael W. Deem and Ramdas Pophale) SiO2 
 PCOD9433716
Probable space group: P C C N
;
_chemical_formula_sum "Si O2"
_cell_formula_units_Z 40
_cell_length_a 15.578184
_cell_length_b 11.047972
_cell_length_c 9.596718
_cell_angle_alpha 90.000000
_cell_angle_beta 90.000000
_cell_angle_gamma 90.000000
_cell_volume 1651.665614
_symmetry_space_group_name_H-M "P C C N"
_symmetry_group_IT_number 56
_symmetry_cell_setting 'orthorhombic'
loop_
_space_group_symop_operation_xyz
x,y,z
1/2-x,1/2-y,z
1/2+x,-y,1/2-z
-x,1/2+y,1/2-z
-x,-y,-z
1/2+x,1/2+y,-z
1/2-x,y,1/2+z
x,1/2-y,1/2+z
loop_
_atom_site_type_symbol
_atom_site_label
_atom_site_fract_x
_atom_site_fract_y
_atom_site_fract_z
Si Si1 0.388910 0.115207 0.275517
Si Si2 0.529092 0.308048 0.000000
Si Si3 0.300676 0.540974 0.000000
Si Si4 0.105049 0.545523 0.000000
Si Si5 0.111090 0.115207 0.224483
O O1 0.474872 0.141975 0.368108
O O2 0.321445 0.042572 0.368139
O O3 0.355619 0.250000 0.250000
O O4 0.404741 0.037706 0.137089
O O5 0.623871 0.361669 1.000000
O O6 0.545071 0.164160 0.000001
O O7 0.474873 0.358025 0.131893
O O8 0.204510 0.587333 0.000000
O O9 0.321445 0.457427 0.131861
O O10 0.904741 0.537707 0.137088
#
# Coordination Sequence:
#
# PCOD9433716 Si02
#       5
#     8   8   8   8   8
#     4  11  26  47  77 110 155 205 254 309 378 463
#     4  11  28  47  76 112 158 195 268 312 371 462
#     4  11  26  49  72 115 161 193 253 322 384 447
#     4  12  27  48  82 108 155 208 250 317 389 442
#     4  11  26  47  77 110 155 205 254 309 378 463
#
# _framework density 24.217977000000001
#
# number of rings (size 3 to 8) (size 9 to 14) (size 15 to 20)
#    0.000    0.800    0.000    6.600   11.200    6.400 
#    0.000    4.000    0.000    0.000    0.000    2.800 
#    0.000    0.000    0.000    0.000    0.000    0.000 
#
# Total GULP energy -224254.663740 kJ/mol
# GULP energy per Si atom -5606.366594 kJ/mol
# Density = 2.416286 g / cm^3
# Si number density = 24.217977 Si / 1000 Ang^3
#
#
#
# Elastic Constant Matrix: (Units=GPa)
#
#
# Indices 1 2 3 4 5 6 
#
# 1 168.3705 12.4070 32.3408 0.0000 0.0000 0.0000
# 2 12.4070 125.3116 64.3803 0.0000 0.0000 0.0000
# 3 32.3408 64.3803 189.2261 0.0000 0.0000 0.0000
# 4 0.0000 0.0000 0.0000 57.1659 0.0000 0.0000
# 5 0.0000 0.0000 0.0000 0.0000 22.2518 0.0000
# 6 0.0000 0.0000 0.0000 0.0000 0.0000 30.5781
#
#
#
# Elastic Compliance Matrix: (Units=1/GPa)
#
#
# Indices 1 2 3 4 5 6 
#
# 1 0.006142 -0.000083 -0.001021 0.000000 0.000000 0.000000
# 2 -0.000083 0.009672 -0.003276 0.000000 0.000000 0.000000
# 3 -0.001021 -0.003276 0.006574 0.000000 0.000000 0.000000
# 4 0.000000 0.000000 0.000000 0.017493 0.000000 0.000000
# 5 0.000000 0.000000 0.000000 0.000000 0.044940 0.000000
# 6 0.000000 0.000000 0.000000 0.000000 0.000000 0.032703
#
#
# Mechanical properties :
#
#
# Convention : Reuss Voigt Hill
#
# Bulk Modulus (GPa) = 73.39360 77.90716 75.65038
# Shear Modulus (GPa) = 38.21840 46.91785 42.56812
#
# Velocity S-wave (km/s) = 3.97684 4.40627 4.19705
# Velocity P-wave (km/s) = 7.17344 7.62404 7.40217
#
# Compressibility (1/GPa) = 0.01362517
#
# Stress axis : x y z
#
# Youngs Moduli (GPa) = 162.82404 103.39542 152.11586
#
# Poissons Ratio (x) = 0.00862 0.15536
# Poissons Ratio (y) = 0.01357 0.49838
# Poissons Ratio (z) = 0.16629 0.33876
#
# Static dielectric constant tensor:
#      x y z
#    x 1.956240 0.000000 0.000000 
#    y 0.000000 1.892230 0.000000 
#    z 0.000000 0.000000 1.935630 
# 
# From -- ./inp_files/7653.got.cif
#   From: 2010.05.17/outbox.cif.g08.bks.cpg/sg56_4_cif.got.tgz:7653.got - 2010.06.03 13:42:01.
