data_PCOD9433182
_publ_section_title
;
Structure prediction by ZEFSAII (Michael W. Deem and Ramdas Pophale) SiO2 
 PCOD9433182
Probable space group: P C C N
;
_chemical_formula_sum "Si O2"
_cell_formula_units_Z 24
_cell_length_a 12.814380
_cell_length_b 5.539415
_cell_length_c 14.217497
_cell_angle_alpha 90.000000
_cell_angle_beta 90.000000
_cell_angle_gamma 90.000000
_cell_volume 1009.217207
_symmetry_space_group_name_H-M "P C C N"
_symmetry_group_IT_number 56
_symmetry_cell_setting 'orthorhombic'
loop_
_space_group_symop_operation_xyz
x,y,z
1/2-x,1/2-y,z
1/2+x,-y,1/2-z
-x,1/2+y,1/2-z
-x,-y,-z
1/2+x,1/2+y,-z
1/2-x,y,1/2+z
x,1/2-y,1/2+z
loop_
_atom_site_type_symbol
_atom_site_label
_atom_site_fract_x
_atom_site_fract_y
_atom_site_fract_z
Si Si1 0.804241 0.495632 0.217937
Si Si2 0.162894 0.050254 0.065384
Si Si3 0.551590 0.312034 0.570073
O O1 0.750000 0.250000 0.185680
O O2 0.801097 0.479225 0.330551
O O3 0.911331 0.462430 0.160968
O O4 0.750000 0.750000 0.193242
O O5 0.250000 0.250000 0.032769
O O6 0.047020 0.145148 0.091123
O O7 0.137403 0.844377 0.988345
O O8 0.500000 0.500000 0.500000
#
# Coordination Sequence:
#
# PCOD9433182 Si02
#       3
#     8   8   8
#     4  11  29  49  78 112 155 202 254 314 381 458
#     4  10  27  50  76 112 155 201 253 322 385 456
#     4  11  28  45  80 110 152 199 257 316 380 462
#
# _framework density 23.780805999999998
#
# number of rings (size 3 to 8) (size 9 to 14) (size 15 to 20)
#    0.000    1.333    0.000    0.000   28.000    0.000 
#    0.000    0.000    0.000    0.000    0.000    0.000 
#    0.000    0.000    0.000    0.000    0.000    0.000 
#
# Total GULP energy -133867.104156 kJ/mol
# GULP energy per Si atom -5577.796006 kJ/mol
# Density = 2.372668 g / cm^3
# Si number density = 23.780806 Si / 1000 Ang^3
#
#
#
# Elastic Constant Matrix: (Units=GPa)
#
#
# Indices 1 2 3 4 5 6 
#
# 1 99.5313 63.5452 30.0189 0.0000 0.0000 0.0000
# 2 63.5452 163.3995 59.5982 0.0000 0.0000 0.0000
# 3 30.0189 59.5982 108.7910 0.0000 0.0000 0.0000
# 4 0.0000 0.0000 0.0000 17.4842 0.0000 0.0000
# 5 0.0000 0.0000 0.0000 0.0000 64.6398 0.0000
# 6 0.0000 0.0000 0.0000 0.0000 0.0000 53.1643
#
#
#
# Elastic Compliance Matrix: (Units=1/GPa)
#
#
# Indices 1 2 3 4 5 6 
#
# 1 0.013462 -0.004850 -0.001058 0.000000 0.000000 0.000000
# 2 -0.004850 0.009395 -0.003809 0.000000 0.000000 0.000000
# 3 -0.001058 -0.003809 0.011570 0.000000 0.000000 0.000000
# 4 0.000000 0.000000 0.000000 0.057195 0.000000 0.000000
# 5 0.000000 0.000000 0.000000 0.000000 0.015470 0.000000
# 6 0.000000 0.000000 0.000000 0.000000 0.000000 0.018810
#
#
# Mechanical properties :
#
#
# Convention : Reuss Voigt Hill
#
# Bulk Modulus (GPa) = 66.68745 75.33848 71.01296
# Shear Modulus (GPa) = 33.25943 41.62828 37.44385
#
# Velocity S-wave (km/s) = 3.74382 4.18844 3.97235
# Velocity P-wave (km/s) = 6.84044 7.42562 7.13903
#
# Compressibility (1/GPa) = 0.01499533
#
# Stress axis : x y z
#
# Youngs Moduli (GPa) = 74.28120 106.43826 86.42762
#
# Poissons Ratio (x) = 0.51618 0.09144
# Poissons Ratio (y) = 0.36023 0.32918
# Poissons Ratio (z) = 0.07859 0.40539
#
# Static dielectric constant tensor:
#      x y z
#    x 1.872530 0.000000 0.000000 
#    y 0.000000 1.991080 0.000000 
#    z 0.000000 0.000000 1.517440 
# 
# From -- ./inp_files/11920.got.cif
#   From: 2010.05.17/outbox.cif.g08.bks.cpg/sg56_6_cif.got.tgz:11920.got - 2010.06.03 13:42:01.
