data_PCOD9433387
_publ_section_title
;
Structure prediction by ZEFSAII (Michael W. Deem and Ramdas Pophale) SiO2 
 PCOD9433387
Probable space group: P C C N
;
_chemical_formula_sum "Si O2"
_cell_formula_units_Z 60
_cell_length_a 24.085304
_cell_length_b 9.051687
_cell_length_c 10.927429
_cell_angle_alpha 90.000000
_cell_angle_beta 90.000000
_cell_angle_gamma 90.000000
_cell_volume 2382.317569
_symmetry_space_group_name_H-M "P C C N"
_symmetry_group_IT_number 56
_symmetry_cell_setting 'orthorhombic'
loop_
_space_group_symop_operation_xyz
x,y,z
1/2-x,1/2-y,z
1/2+x,-y,1/2-z
-x,1/2+y,1/2-z
-x,-y,-z
1/2+x,1/2+y,-z
1/2-x,y,1/2+z
x,1/2-y,1/2+z
loop_
_atom_site_type_symbol
_atom_site_label
_atom_site_fract_x
_atom_site_fract_y
_atom_site_fract_z
Si Si1 0.083375 0.027465 0.046978
Si Si2 0.306680 0.474734 0.635375
Si Si3 0.312063 0.034730 0.716519
Si Si4 0.332696 0.783382 0.307613
Si Si5 0.250000 0.750000 0.003558
Si Si6 0.884831 0.666190 0.064574
Si Si7 0.952784 0.197556 0.160472
Si Si8 0.518043 0.504066 0.693140
O O1 0.089710 0.172764 0.962589
O O2 0.058443 0.900177 0.959683
O O3 0.144649 0.016968 0.105879
O O4 0.044987 0.026114 0.169479
O O5 0.248942 0.407018 0.683102
O O6 0.339184 0.560682 0.740802
O O7 0.283479 0.617577 0.563584
O O8 0.347446 0.379722 0.552259
O O9 0.342920 0.133347 0.820404
O O10 0.301888 0.862615 0.756179
O O11 0.298022 0.824501 0.425009
O O12 0.393841 0.721306 0.324970
O O13 0.938714 0.567692 0.095710
O O14 0.994972 0.334964 0.161078
O O15 0.964664 0.104490 0.283242
#
# Coordination Sequence:
#
# PCOD9433387 Si02
#       8
#     8   8   8   8   4   8   8   8
#     4  11  26  48  71 101 150 197 240 311 378 445
#     4  12  22  38  72 104 148 194 240 299 371 438
#     4  11  22  44  69 103 148 181 248 299 362 451
#     4  12  22  38  69 110 138 184 247 302 351 445
#     4  12  18  38  66 108 146 192 240 304 360 434
#     4  11  25  46  70 101 151 196 239 304 370 439
#     4  12  25  46  77 104 143 196 245 315 376 433
#     4  11  26  49  73 106 145 186 257 307 371 454
#
# _framework density 25.185559999999999
#
# number of rings (size 3 to 8) (size 9 to 14) (size 15 to 20)
#    0.000    0.533    6.667    2.000    1.867    3.733 
#    0.000    4.667    0.000    0.000    0.000    0.000 
#    0.000    0.000    0.000    0.000    0.000    0.000 
#
# Total GULP energy -335157.090056 kJ/mol
# GULP energy per Si atom -5585.951501 kJ/mol
# Density = 2.512824 g / cm^3
# Si number density = 25.185560 Si / 1000 Ang^3
#
#
#
# Elastic Constant Matrix: (Units=GPa)
#
#
# Indices 1 2 3 4 5 6 
#
# 1 62.4391 14.5696 9.3488 0.0000 0.0000 0.0000
# 2 14.5696 132.2567 47.6389 0.0000 0.0000 0.0000
# 3 9.3488 47.6389 56.4724 0.0000 0.0000 0.0000
# 4 0.0000 0.0000 0.0000 30.5869 0.0000 0.0000
# 5 0.0000 0.0000 0.0000 0.0000 -3.5256 0.0000
# 6 0.0000 0.0000 0.0000 0.0000 0.0000 28.2153
#
#
#
# Elastic Compliance Matrix: (Units=1/GPa)
#
#
# Indices 1 2 3 4 5 6 
#
# 1 0.016555 -0.001202 -0.001727 0.000000 0.000000 0.000000
# 2 -0.001202 0.010949 -0.009037 0.000000 0.000000 0.000000
# 3 -0.001727 -0.009037 0.025617 0.000000 0.000000 0.000000
# 4 0.000000 0.000000 0.000000 0.032694 0.000000 0.000000
# 5 0.000000 0.000000 0.000000 0.000000 -0.283638 0.000000
# 6 0.000000 0.000000 0.000000 0.000000 0.000000 0.035442
#
#
# Mechanical properties :
#
#
# Convention : Reuss Voigt Hill
#
# Bulk Modulus (GPa) = 34.25934 43.80919 39.03426
# Shear Modulus (GPa) = -38.84356 23.02938 -7.90709
#
# Velocity S-wave (km/s) = -3.93147 3.02717 -1.77380
# Velocity P-wave (km/s) = 2.64126 5.44524 3.36707
#
# Compressibility (1/GPa) = 0.02918912
#
# Stress axis : x y z
#
# Youngs Moduli (GPa) = 60.40630 91.33607 39.03644
#
# Poissons Ratio (x) = 0.10976 0.06741
# Poissons Ratio (y) = 0.07259 0.35277
# Poissons Ratio (z) = 0.10431 0.82541
#
# Static dielectric constant tensor:
#      x y z
#    x 2.014450 0.000000 0.000000 
#    y 0.000000 1.982020 0.000000 
#    z 0.000000 0.000000 2.112800 
# 
# From -- ./inp_files/9077.got.cif
#   From: 2010.05.17/outbox.cif.g08.bks.cpg/sg56_5_cif.got.tgz:9077.got - 2010.06.03 13:42:01.
