data_PCOD9433316
_publ_section_title
;
Structure prediction by ZEFSAII (Michael W. Deem and Ramdas Pophale) SiO2 
 PCOD9433316
Probable space group: P C C N
;
_chemical_formula_sum "Si O2"
_cell_formula_units_Z 48
_cell_length_a 10.230707
_cell_length_b 8.936903
_cell_length_c 20.719444
_cell_angle_alpha 90.000000
_cell_angle_beta 90.000000
_cell_angle_gamma 90.000000
_cell_volume 1894.396088
_symmetry_space_group_name_H-M "P C C N"
_symmetry_group_IT_number 56
_symmetry_cell_setting 'orthorhombic'
loop_
_space_group_symop_operation_xyz
x,y,z
1/2-x,1/2-y,z
1/2+x,-y,1/2-z
-x,1/2+y,1/2-z
-x,-y,-z
1/2+x,1/2+y,-z
1/2-x,y,1/2+z
x,1/2-y,1/2+z
loop_
_atom_site_type_symbol
_atom_site_label
_atom_site_fract_x
_atom_site_fract_y
_atom_site_fract_z
Si Si1 0.237545 0.575775 0.420260
Si Si2 0.889078 0.676317 0.029353
Si Si3 0.960499 0.833648 0.755794
Si Si4 0.315351 0.464657 0.777580
Si Si5 0.885372 0.811377 0.889486
Si Si6 0.871235 0.136103 0.946698
O O1 0.250000 0.750000 0.408449
O O2 0.364738 0.494918 0.451533
O O3 0.204481 0.501881 0.352796
O O4 0.133829 0.572207 0.479321
O O5 0.750000 0.750000 0.046761
O O6 0.906082 0.816162 0.223531
O O7 0.906170 0.714572 0.953807
O O8 0.983791 0.793463 0.831196
O O9 0.832133 0.941132 0.749265
O O10 0.096265 0.914511 0.738397
O O11 0.750000 0.750000 0.861627
O O12 0.003834 0.761147 0.064906
O O13 0.868508 0.985927 0.905515
O O14 0.750000 0.250000 0.940077
#
# Coordination Sequence:
#
# PCOD9433316 Si02
#       6
#     8   8   8   8   8   8
#     4  11  26  46  74 107 149 190 245 310 370 447
#     4  11  24  44  74 106 147 189 234 292 379 449
#     4  11  27  48  76 102 150 189 257 302 370 425
#     4  11  27  50  70 107 139 197 247 310 360 433
#     4  11  21  47  74 104 148 192 236 303 369 444
#     4  11  25  45  69 113 147 187 239 298 372 451
#
# _framework density 25.337889000000001
#
# number of rings (size 3 to 8) (size 9 to 14) (size 15 to 20)
#    0.000    1.000    5.000    1.500    7.000    2.667 
#    9.000    0.000    0.000    1.000    0.000    0.000 
#    0.000    0.000    0.000    0.000    0.000    0.000 
#
# Total GULP energy -268673.191768 kJ/mol
# GULP energy per Si atom -5597.358162 kJ/mol
# Density = 2.528022 g / cm^3
# Si number density = 25.337889 Si / 1000 Ang^3
#
#
#
# Elastic Constant Matrix: (Units=GPa)
#
#
# Indices 1 2 3 4 5 6 
#
# 1 125.7940 46.0302 8.2135 0.0000 0.0000 0.0000
# 2 46.0302 148.8025 56.1092 0.0000 0.0000 0.0000
# 3 8.2135 56.1092 107.5774 0.0000 0.0000 0.0000
# 4 0.0000 0.0000 0.0000 51.5660 0.0000 0.0000
# 5 0.0000 0.0000 0.0000 0.0000 -0.9169 0.0000
# 6 0.0000 0.0000 0.0000 0.0000 0.0000 45.1327
#
#
#
# Elastic Compliance Matrix: (Units=1/GPa)
#
#
# Indices 1 2 3 4 5 6 
#
# 1 0.009043 -0.003158 0.000957 0.000000 0.000000 0.000000
# 2 -0.003158 0.009468 -0.004697 0.000000 0.000000 0.000000
# 3 0.000957 -0.004697 0.011673 0.000000 0.000000 0.000000
# 4 0.000000 0.000000 0.000000 0.019393 0.000000 0.000000
# 5 0.000000 0.000000 0.000000 0.000000 -1.090617 0.000000
# 6 0.000000 0.000000 0.000000 0.000000 0.000000 0.022157
#
#
# Mechanical properties :
#
#
# Convention : Reuss Voigt Hill
#
# Bulk Modulus (GPa) = 61.02625 66.98666 64.00646
# Shear Modulus (GPa) = -5.00188 37.27776 16.13794
#
# Velocity S-wave (km/s) = -1.40654 3.83982 2.52644
# Velocity P-wave (km/s) = 4.63675 6.79365 5.81606
#
# Compressibility (1/GPa) = 0.01638639
#
# Stress axis : x y z
#
# Youngs Moduli (GPa) = 110.58780 105.61421 85.67087
#
# Poissons Ratio (x) = 0.33353 -0.08196
# Poissons Ratio (y) = 0.34923 0.40242
# Poissons Ratio (z) = -0.10580 0.49611
#
# Static dielectric constant tensor:
#      x y z
#    x 2.089650 0.000000 0.000000 
#    y 0.000000 2.068120 0.000000 
#    z 0.000000 0.000000 1.976110 
# 
# From -- ./inp_files/20904.got.cif
#   From: 2010.05.17/outbox.cif.g08.bks.cpg/sg56_11_cif.got.tgz:20904.got - 2010.06.03 13:42:01.
