data_PCOD9433065
_publ_section_title
;
Structure prediction by ZEFSAII (Michael W. Deem and Ramdas Pophale) SiO2 
 PCOD9433065
Probable space group: P C C N
;
_chemical_formula_sum "Si O2"
_cell_formula_units_Z 44
_cell_length_a 8.104609
_cell_length_b 26.209874
_cell_length_c 9.021014
_cell_angle_alpha 90.000000
_cell_angle_beta 90.000000
_cell_angle_gamma 90.000000
_cell_volume 1916.250837
_symmetry_space_group_name_H-M "P C C N"
_symmetry_group_IT_number 56
_symmetry_cell_setting 'orthorhombic'
loop_
_space_group_symop_operation_xyz
x,y,z
1/2-x,1/2-y,z
1/2+x,-y,1/2-z
-x,1/2+y,1/2-z
-x,-y,-z
1/2+x,1/2+y,-z
1/2-x,y,1/2+z
x,1/2-y,1/2+z
loop_
_atom_site_type_symbol
_atom_site_label
_atom_site_fract_x
_atom_site_fract_y
_atom_site_fract_z
Si Si1 0.106453 0.964841 0.107040
Si Si2 0.651834 0.179066 0.810776
Si Si3 0.331779 0.494294 0.415314
Si Si4 0.971175 0.861237 0.225533
Si Si5 0.750000 0.250000 0.563925
Si Si6 0.848177 0.625753 0.058502
O O1 0.015011 0.919349 0.182918
O O2 0.176952 0.998534 0.240158
O O3 0.245457 0.954673 0.986222
O O4 0.000000 0.000000 0.000000
O O5 0.634331 0.214906 0.667190
O O6 0.507215 0.137377 0.834083
O O7 0.846305 0.162997 0.797874
O O8 0.645229 0.214211 0.956065
O O9 0.500000 0.500000 0.500000
O O10 0.298551 0.434280 0.443831
O O11 0.816829 0.846164 0.119994
O O12 0.904130 0.859301 0.393044
#
# Coordination Sequence:
#
# PCOD9433065 Si02
#       6
#     8   8   8   8   4   8
#     4  12  25  42  64  97 146 196 243 296 347 406
#     4  11  25  50  78 104 140 185 233 297 379 437
#     4  12  23  42  63  95 140 195 248 292 343 412
#     4  12  27  45  71 109 145 195 244 296 359 420
#     4  10  24  50  80 104 140 178 232 302 376 464
#     4  12  26  47  71 106 148 188 244 301 354 430
#
# _framework density 22.961504999999999
#
# number of rings (size 3 to 8) (size 9 to 14) (size 15 to 20)
#    0.000    0.364    5.455    3.273    2.545    0.000 
#    0.000    5.455    0.000    0.000    0.000    0.000 
#    0.000    0.000    0.000    0.000    0.000    0.000 
#
# Total GULP energy -245059.591176 kJ/mol
# GULP energy per Si atom -5569.536163 kJ/mol
# Density = 2.290924 g / cm^3
# Si number density = 22.961505 Si / 1000 Ang^3
#
#
#
# Elastic Constant Matrix: (Units=GPa)
#
#
# Indices 1 2 3 4 5 6 
#
# 1 122.8217 23.3673 32.9690 0.0000 0.0000 0.0000
# 2 23.3673 48.1235 20.0750 0.0000 0.0000 0.0000
# 3 32.9690 20.0750 140.0647 0.0000 0.0000 0.0000
# 4 0.0000 0.0000 0.0000 29.4749 0.0000 0.0000
# 5 0.0000 0.0000 0.0000 0.0000 32.7379 0.0000
# 6 0.0000 0.0000 0.0000 0.0000 0.0000 12.6255
#
#
#
# Elastic Compliance Matrix: (Units=1/GPa)
#
#
# Indices 1 2 3 4 5 6 
#
# 1 0.009313 -0.003837 -0.001642 0.000000 0.000000 0.000000
# 2 -0.003837 0.023682 -0.002491 0.000000 0.000000 0.000000
# 3 -0.001642 -0.002491 0.007883 0.000000 0.000000 0.000000
# 4 0.000000 0.000000 0.000000 0.033927 0.000000 0.000000
# 5 0.000000 0.000000 0.000000 0.000000 0.030546 0.000000
# 6 0.000000 0.000000 0.000000 0.000000 0.000000 0.079205
#
#
# Mechanical properties :
#
#
# Convention : Reuss Voigt Hill
#
# Bulk Modulus (GPa) = 40.10011 51.53695 45.81853
# Shear Modulus (GPa) = 23.94540 30.60756 27.27648
#
# Velocity S-wave (km/s) = 3.23282 3.65498 3.45036
# Velocity P-wave (km/s) = 5.60685 6.34866 5.98925
#
# Compressibility (1/GPa) = 0.02493759
#
# Stress axis : x y z
#
# Youngs Moduli (GPa) = 107.38062 42.22593 126.85311
#
# Poissons Ratio (x) = 0.16202 0.20831
# Poissons Ratio (y) = 0.41201 0.31601
# Poissons Ratio (z) = 0.17633 0.10519
#
# Static dielectric constant tensor:
#      x y z
#    x 1.752840 0.000000 0.000000 
#    y 0.000000 1.876340 0.000000 
#    z 0.000000 0.000000 1.615680 
# 
# From -- ./inp_files/2173.got.cif
#   From: 2010.05.17/outbox.cif.g08.bks.cpg/sg56_2_cif.got.tgz:2173.got - 2010.06.03 13:42:01.
