data_PCOD9433403
_publ_section_title
;
Structure prediction by ZEFSAII (Michael W. Deem and Ramdas Pophale) SiO2 
 PCOD9433403
Probable space group: P C C N
;
_chemical_formula_sum "Si O2"
_cell_formula_units_Z 40
_cell_length_a 14.942267
_cell_length_b 10.825870
_cell_length_c 9.809046
_cell_angle_alpha 90.000000
_cell_angle_beta 90.000000
_cell_angle_gamma 90.000000
_cell_volume 1586.741101
_symmetry_space_group_name_H-M "P C C N"
_symmetry_group_IT_number 56
_symmetry_cell_setting 'orthorhombic'
loop_
_space_group_symop_operation_xyz
x,y,z
1/2-x,1/2-y,z
1/2+x,-y,1/2-z
-x,1/2+y,1/2-z
-x,-y,-z
1/2+x,1/2+y,-z
1/2-x,y,1/2+z
x,1/2-y,1/2+z
loop_
_atom_site_type_symbol
_atom_site_label
_atom_site_fract_x
_atom_site_fract_y
_atom_site_fract_z
Si Si1 0.684981 0.633863 0.956533
Si Si2 0.074779 0.884652 0.719707
Si Si3 0.011413 0.805873 0.009713
Si Si4 0.750863 0.110577 0.610680
Si Si5 0.086772 0.975750 0.230155
O O1 0.750000 0.750000 0.951386
O O2 0.594164 0.675742 0.034867
O O3 0.732171 0.510636 0.018604
O O4 0.646830 0.594981 0.807884
O O5 0.176174 0.898704 0.768361
O O6 0.054323 0.809771 0.584714
O O7 0.010834 0.003415 0.707003
O O8 0.030314 0.815772 0.850178
O O9 0.064480 0.916913 0.083525
O O10 0.750000 0.250000 0.547997
O O11 0.847370 0.102247 0.679264
#
# Coordination Sequence:
#
# PCOD9433403 Si02
#       5
#     8   8   8   8   8
#     4  11  24  45  70 101 144 194 242 298 362 437
#     4  11  23  45  71 101 142 189 236 300 363 432
#     4  11  22  45  71  99 146 190 235 298 372 425
#     4  12  24  40  71 105 138 185 244 299 355 433
#     4  11  23  43  69 100 143 193 237 296 366 430
#
# _framework density 25.208901000000001
#
# number of rings (size 3 to 8) (size 9 to 14) (size 15 to 20)
#    0.000    0.800    6.000    2.400    0.000    6.400 
#    0.000    1.000    0.000    0.000    0.000    0.000 
#    0.000    0.000    0.000    0.000    0.000    0.000 
#
# Total GULP energy -223695.615064 kJ/mol
# GULP energy per Si atom -5592.390377 kJ/mol
# Density = 2.515152 g / cm^3
# Si number density = 25.208901 Si / 1000 Ang^3
#
#
#
# Elastic Constant Matrix: (Units=GPa)
#
#
# Indices 1 2 3 4 5 6 
#
# 1 144.8638 57.3460 21.0823 0.0000 0.0000 0.0000
# 2 57.3460 107.9654 12.8565 0.0000 0.0000 0.0000
# 3 21.0823 12.8565 69.4551 0.0000 0.0000 0.0000
# 4 0.0000 0.0000 0.0000 13.8272 0.0000 0.0000
# 5 0.0000 0.0000 0.0000 0.0000 33.9917 0.0000
# 6 0.0000 0.0000 0.0000 0.0000 0.0000 51.4460
#
#
#
# Elastic Compliance Matrix: (Units=1/GPa)
#
#
# Indices 1 2 3 4 5 6 
#
# 1 0.008976 -0.004543 -0.001883 0.000000 0.000000 0.000000
# 2 -0.004543 0.011771 -0.000800 0.000000 0.000000 0.000000
# 3 -0.001883 -0.000800 0.015118 0.000000 0.000000 0.000000
# 4 0.000000 0.000000 0.000000 0.072321 0.000000 0.000000
# 5 0.000000 0.000000 0.000000 0.000000 0.029419 0.000000
# 6 0.000000 0.000000 0.000000 0.000000 0.000000 0.019438
#
#
# Mechanical properties :
#
#
# Convention : Reuss Voigt Hill
#
# Bulk Modulus (GPa) = 46.70513 56.09489 51.40001
# Shear Modulus (GPa) = 27.99061 35.25296 31.62179
#
# Velocity S-wave (km/s) = 3.33580 3.74362 3.54558
# Velocity P-wave (km/s) = 5.77964 6.40208 6.09880
#
# Compressibility (1/GPa) = 0.02141092
#
# Stress axis : x y z
#
# Youngs Moduli (GPa) = 111.41338 84.95785 66.14837
#
# Poissons Ratio (x) = 0.38597 0.12459
# Poissons Ratio (y) = 0.50616 0.05290
# Poissons Ratio (z) = 0.20984 0.06795
#
# Static dielectric constant tensor:
#      x y z
#    x 1.999790 0.000000 0.000000 
#    y 0.000000 2.134940 0.000000 
#    z 0.000000 0.000000 1.957640 
# 
# From -- ./inp_files/6993.got.cif
#   From: 2010.05.17/outbox.cif.g08.bks.cpg/sg56_4_cif.got.tgz:6993.got - 2010.06.03 13:42:01.
