data_PCOD9433911
_publ_section_title
;
Structure prediction by ZEFSAII (Michael W. Deem and Ramdas Pophale) SiO2 
 PCOD9433911
Probable space group: P C C N
;
_chemical_formula_sum "Si O2"
_cell_formula_units_Z 48
_cell_length_a 9.000000
_cell_length_b 18.000000
_cell_length_c 15.000000
_cell_angle_alpha 90.000000
_cell_angle_beta 90.000000
_cell_angle_gamma 90.000000
_cell_volume 2430.000000
_symmetry_space_group_name_H-M "P C C N"
_symmetry_group_IT_number 56
_symmetry_cell_setting 'orthorhombic'
loop_
_space_group_symop_operation_xyz
x,y,z
1/2-x,1/2-y,z
1/2+x,-y,1/2-z
-x,1/2+y,1/2-z
-x,-y,-z
1/2+x,1/2+y,-z
1/2-x,y,1/2+z
x,1/2-y,1/2+z
loop_
_atom_site_type_symbol
_atom_site_label
_atom_site_fract_x
_atom_site_fract_y
_atom_site_fract_z
Si Si1 0.416816 0.726808 0.903014
Si Si2 0.606196 0.431268 0.186531
Si Si3 0.881086 0.810387 0.072475
Si Si4 0.376798 0.185882 0.223064
Si Si5 0.329570 0.021409 0.476073
Si Si6 0.762264 0.974283 0.827115
O O1 0.250000 0.750000 0.922969
O O2 0.414744 0.654668 0.838174
O O3 0.501673 0.791669 0.849851
O O4 0.501756 0.706321 0.994289
O O5 0.701987 0.467862 0.106260
O O6 0.439826 0.466202 0.188998
O O7 0.691058 0.457110 0.274532
O O8 0.750000 0.750000 0.065150
O O9 0.935419 0.809858 0.175087
O O10 0.822511 0.893432 0.054365
O O11 0.250000 0.250000 0.214938
O O12 0.309917 0.104131 0.204144
O O13 0.240529 0.014106 0.567387
O O14 0.500000 0.000000 0.500000
#
# Coordination Sequence:
#
# PCOD9433911 Si02
#       6
#     8   8   8   8   8   8
#     4  12  26  42  62  99 141 172 221 275 335 401
#     4  11  24  42  64  98 128 177 219 272 340 393
#     4  11  22  41  70  94 124 179 227 268 336 400
#     4  11  22  43  70  92 124 177 228 273 324 401
#     4  10  19  39  66  87 125 171 210 266 330 396
#     4  11  22  41  70  94 129 168 223 271 335 397
#
# _framework density 19.753086
#
# number of rings (size 3 to 8) (size 9 to 14) (size 15 to 20)
#    0.000    1.000    6.667    1.500    2.333    0.667 
#    3.000    0.833    0.000    0.000    0.000    0.000 
#    0.000    0.000    0.000    0.000    0.000    0.000 
#
# Total GULP energy -268193.060650 kJ/mol
# GULP energy per Si atom -5587.355430 kJ/mol
# Density = 1.970813 g / cm^3
# Si number density = 19.753086 Si / 1000 Ang^3
#
#
#
# Elastic Constant Matrix: (Units=GPa)
#
#
# Indices 1 2 3 4 5 6 
#
# 1 51.8316 13.9396 30.5526 0.0000 0.0000 0.0000
# 2 13.9396 64.6219 20.6771 0.0000 0.0000 0.0000
# 3 30.5526 20.6771 136.0248 0.0000 0.0000 0.0000
# 4 0.0000 0.0000 0.0000 27.9276 0.0000 0.0000
# 5 0.0000 0.0000 0.0000 0.0000 10.6584 0.0000
# 6 0.0000 0.0000 0.0000 0.0000 0.0000 24.7443
#
#
#
# Elastic Compliance Matrix: (Units=1/GPa)
#
#
# Indices 1 2 3 4 5 6 
#
# 1 0.022955 -0.003471 -0.004628 0.000000 0.000000 0.000000
# 2 -0.003471 0.016791 -0.001773 0.000000 0.000000 0.000000
# 3 -0.004628 -0.001773 0.008661 0.000000 0.000000 0.000000
# 4 0.000000 0.000000 0.000000 0.035807 0.000000 0.000000
# 5 0.000000 0.000000 0.000000 0.000000 0.093823 0.000000
# 6 0.000000 0.000000 0.000000 0.000000 0.000000 0.040413
#
#
# Mechanical properties :
#
#
# Convention : Reuss Voigt Hill
#
# Bulk Modulus (GPa) = 34.88879 42.53521 38.71200
# Shear Modulus (GPa) = 20.18189 25.15332 22.66760
#
# Velocity S-wave (km/s) = 3.19988 3.57233 3.39122
# Velocity P-wave (km/s) = 5.59939 6.21253 5.91391
#
# Compressibility (1/GPa) = 0.02866250
#
# Stress axis : x y z
#
# Youngs Moduli (GPa) = 43.56375 59.55743 115.46471
#
# Poissons Ratio (x) = 0.20670 0.53441
# Poissons Ratio (y) = 0.15119 0.20469
# Poissons Ratio (z) = 0.20163 0.10558
#
# Static dielectric constant tensor:
#      x y z
#    x 1.687390 0.000000 0.000000 
#    y 0.000000 1.669050 0.000000 
#    z 0.000000 0.000000 1.724770 
# 
# From -- ./inp_files/10627.got.cif
#   From: 2010.05.17/outbox.ucp.g08.bks.cvg/sg56_6_cif.got.tgz:10627.got - 2010.06.11 16:37:52.
