data_PCOD9433685
_publ_section_title
;
Structure prediction by ZEFSAII (Michael W. Deem and Ramdas Pophale) SiO2 
 PCOD9433685
Probable space group: P C C N
;
_chemical_formula_sum "Si O2"
_cell_formula_units_Z 32
_cell_length_a 6.173423
_cell_length_b 12.933351
_cell_length_c 16.452775
_cell_angle_alpha 90.000000
_cell_angle_beta 90.000000
_cell_angle_gamma 90.000000
_cell_volume 1313.639680
_symmetry_space_group_name_H-M "P C C N"
_symmetry_group_IT_number 56
_symmetry_cell_setting 'orthorhombic'
loop_
_space_group_symop_operation_xyz
x,y,z
1/2-x,1/2-y,z
1/2+x,-y,1/2-z
-x,1/2+y,1/2-z
-x,-y,-z
1/2+x,1/2+y,-z
1/2-x,y,1/2+z
x,1/2-y,1/2+z
loop_
_atom_site_type_symbol
_atom_site_label
_atom_site_fract_x
_atom_site_fract_y
_atom_site_fract_z
Si Si1 0.611023 0.348723 0.572999
Si Si2 0.900353 0.513084 0.627729
Si Si3 0.244237 0.372703 0.208252
Si Si4 0.505960 0.232669 0.408382
O O1 0.750000 0.250000 0.603727
O O2 0.745032 0.453813 0.566301
O O3 0.443886 0.379893 0.642131
O O4 0.520515 0.303332 0.488861
O O5 0.795181 0.564312 0.708861
O O6 0.011450 0.609174 0.583538
O O7 0.052694 0.424467 0.664476
O O8 0.250000 0.250000 0.222331
O O9 0.250000 0.250000 0.383731
O O10 0.750000 0.250000 0.366284
#
# Coordination Sequence:
#
# PCOD9433685 Si02
#       4
#     8   8   8   8
#     4  11  25  48  74 112 157 204 265 331 402 484
#     4  12  27  47  82 112 156 221 260 345 409 483
#     4  12  25  47  77 115 155 203 276 331 406 480
#     4  11  29  51  75 118 164 212 268 329 403 496
#
# _framework density 24.3598
#
# number of rings (size 3 to 8) (size 9 to 14) (size 15 to 20)
#    0.000    0.500    5.000    1.500    7.000    8.000 
#    0.000    0.000    0.000    0.000    0.000    0.000 
#    0.000    0.000    0.000    0.000    0.000    0.000 
#
# Total GULP energy -178326.529954 kJ/mol
# GULP energy per Si atom -5572.704061 kJ/mol
# Density = 2.430436 g / cm^3
# Si number density = 24.359800 Si / 1000 Ang^3
#
#
#
# Elastic Constant Matrix: (Units=GPa)
#
#
# Indices 1 2 3 4 5 6 
#
# 1 120.4775 56.4073 20.2624 0.0000 0.0000 0.0000
# 2 56.4073 190.0796 15.0019 0.0000 0.0000 0.0000
# 3 20.2624 15.0019 56.4457 0.0000 0.0000 0.0000
# 4 0.0000 0.0000 0.0000 173.1305 0.0000 0.0000
# 5 0.0000 0.0000 0.0000 0.0000 12.8126 0.0000
# 6 0.0000 0.0000 0.0000 0.0000 0.0000 70.4071
#
#
#
# Elastic Compliance Matrix: (Units=1/GPa)
#
#
# Indices 1 2 3 4 5 6 
#
# 1 0.010079 -0.002763 -0.002884 0.000000 0.000000 0.000000
# 2 -0.002763 0.006131 -0.000638 0.000000 0.000000 0.000000
# 3 -0.002884 -0.000638 0.018921 0.000000 0.000000 0.000000
# 4 0.000000 0.000000 0.000000 0.005776 0.000000 0.000000
# 5 0.000000 0.000000 0.000000 0.000000 0.078048 0.000000
# 6 0.000000 0.000000 0.000000 0.000000 0.000000 0.014203
#
#
# Mechanical properties :
#
#
# Convention : Reuss Voigt Hill
#
# Bulk Modulus (GPa) = 44.32258 61.14956 52.73607
# Shear Modulus (GPa) = 32.62677 69.62545 51.12611
#
# Velocity S-wave (km/s) = 3.66371 5.35202 4.58623
# Velocity P-wave (km/s) = 6.01095 7.95923 7.05269
#
# Compressibility (1/GPa) = 0.02256186
#
# Stress axis : x y z
#
# Youngs Moduli (GPa) = 99.21480 163.09633 52.85204
#
# Poissons Ratio (x) = 0.45071 0.15241
# Poissons Ratio (y) = 0.27418 0.03370
# Poissons Ratio (z) = 0.28610 0.10398
#
# Static dielectric constant tensor:
#      x y z
#    x 2.163000 0.000000 0.000000 
#    y 0.000000 1.905590 0.000000 
#    z 0.000000 0.000000 1.985540 
# 
# From -- ./inp_files/17274.got.cif
#   From: 2010.05.17/outbox.cif.g08.bks.cpg/sg56_9_cif.got.tgz:17274.got - 2010.06.03 13:42:01.
