data_PCOD9433436
_publ_section_title
;
Structure prediction by ZEFSAII (Michael W. Deem and Ramdas Pophale) SiO2 
 PCOD9433436
Probable space group: P C C N
;
_chemical_formula_sum "Si O2"
_cell_formula_units_Z 64
_cell_length_a 16.109177
_cell_length_b 8.692930
_cell_length_c 20.017826
_cell_angle_alpha 90.000000
_cell_angle_beta 90.000000
_cell_angle_gamma 90.000000
_cell_volume 2803.215241
_symmetry_space_group_name_H-M "P C C N"
_symmetry_group_IT_number 56
_symmetry_cell_setting 'orthorhombic'
loop_
_space_group_symop_operation_xyz
x,y,z
1/2-x,1/2-y,z
1/2+x,-y,1/2-z
-x,1/2+y,1/2-z
-x,-y,-z
1/2+x,1/2+y,-z
1/2-x,y,1/2+z
x,1/2-y,1/2+z
loop_
_atom_site_type_symbol
_atom_site_label
_atom_site_fract_x
_atom_site_fract_y
_atom_site_fract_z
Si Si1 0.992946 0.767940 0.177913
Si Si2 0.242259 0.925216 0.224654
Si Si3 0.383849 0.195966 0.063540
Si Si4 0.786219 0.086060 0.066824
Si Si5 0.077903 0.050107 0.698831
Si Si6 0.223084 0.997644 0.077303
Si Si7 0.548636 0.602649 0.052447
Si Si8 0.182693 0.119042 0.340691
O O1 0.014615 0.864905 0.112785
O O2 0.906234 0.693629 0.153332
O O3 0.052156 0.626546 0.191180
O O4 0.973559 0.867705 0.242904
O O5 0.250000 0.750000 0.248185
O O6 0.325610 0.031142 0.220665
O O7 0.215023 0.918121 0.148033
O O8 0.182251 0.008876 0.276369
O O9 0.315951 0.059809 0.061092
O O10 0.332997 0.350094 0.080907
O O11 0.435038 0.143101 0.129239
O O12 0.424873 0.247837 0.993067
O O13 0.750000 0.250000 0.091133
O O14 0.873572 0.997181 0.083321
O O15 0.716666 0.969357 0.094520
O O16 0.798274 0.099351 0.987469
O O17 0.500000 0.500000 0.000000
O O18 0.250000 0.250000 0.328059
#
# Coordination Sequence:
#
# PCOD9433436 Si02
#       8
#     8   8   8   8   8   8   8   8
#     4  12  27  45  67  99 133 185 225 288 350 417
#     4  11  23  40  66  99 129 169 226 281 335 399
#     4   9  20  39  63  93 124 176 216 270 330 405
#     4  11  23  41  67 102 131 173 228 285 333 401
#     4  11  26  43  65  97 138 173 230 278 350 410
#     4   9  19  36  67  93 129 162 216 271 336 393
#     4  11  25  42  66  97 142 178 224 278 351 411
#     4  12  23  44  71  90 130 178 236 276 331 409
#
# _framework density 22.830926000000002
#
# number of rings (size 3 to 8) (size 9 to 14) (size 15 to 20)
#    0.000    1.250    2.500    2.250    7.000    5.500 
#    0.000    0.000    0.000    0.000    0.000    0.000 
#    0.000    0.000    0.000    0.000    0.000    0.000 
#
# Total GULP energy -357232.779770 kJ/mol
# GULP energy per Si atom -5581.762184 kJ/mol
# Density = 2.277896 g / cm^3
# Si number density = 22.830926 Si / 1000 Ang^3
#
#
#
# Elastic Constant Matrix: (Units=GPa)
#
#
# Indices 1 2 3 4 5 6 
#
# 1 33.7343 -7.2417 5.1130 0.0000 0.0000 0.0000
# 2 -7.2417 69.5596 35.4135 0.0000 0.0000 0.0000
# 3 5.1130 35.4135 150.3517 0.0000 0.0000 0.0000
# 4 0.0000 0.0000 0.0000 -6.9197 0.0000 0.0000
# 5 0.0000 0.0000 0.0000 0.0000 25.9494 0.0000
# 6 0.0000 0.0000 0.0000 0.0000 0.0000 28.4558
#
#
#
# Elastic Compliance Matrix: (Units=1/GPa)
#
#
# Indices 1 2 3 4 5 6 
#
# 1 0.030869 0.004259 -0.002053 0.000000 0.000000 0.000000
# 2 0.004259 0.016923 -0.004131 0.000000 0.000000 0.000000
# 3 -0.002053 -0.004131 0.007694 0.000000 0.000000 0.000000
# 4 0.000000 0.000000 0.000000 -0.144516 0.000000 0.000000
# 5 0.000000 0.000000 0.000000 0.000000 0.038537 0.000000
# 6 0.000000 0.000000 0.000000 0.000000 0.000000 0.035142
#
#
# Mechanical properties :
#
#
# Convention : Reuss Voigt Hill
#
# Bulk Modulus (GPa) = 19.36646 35.57944 27.47295
# Shear Modulus (GPa) = 875.71454 24.18782 449.95118
#
# Velocity S-wave (km/s) = 19.60606 3.25842 14.05374
# Velocity P-wave (km/s) = 22.82611 5.45657 16.59526
#
# Compressibility (1/GPa) = 0.05163567
#
# Stress axis : x y z
#
# Youngs Moduli (GPa) = 32.39513 59.09282 129.97436
#
# Poissons Ratio (x) = -0.25167 0.26682
# Poissons Ratio (y) = -0.13797 0.53689
# Poissons Ratio (z) = 0.06650 0.24410
#
# Static dielectric constant tensor:
#      x y z
#    x 2.016050 0.000000 0.000000 
#    y 0.000000 1.880740 0.000000 
#    z 0.000000 0.000000 1.883240 
# 
# From -- ./inp_files/16883.got.cif
#   From: 2010.05.17/outbox.cif.g08.bks.cpg/sg56_9_cif.got.tgz:16883.got - 2010.06.03 13:42:01.
