data_PCOD9433083
_publ_section_title
;
Structure prediction by ZEFSAII (Michael W. Deem and Ramdas Pophale) SiO2 
 PCOD9433083
Probable space group: P C C N
;
_chemical_formula_sum "Si O2"
_cell_formula_units_Z 40
_cell_length_a 17.120357
_cell_length_b 5.755212
_cell_length_c 19.095347
_cell_angle_alpha 90.000000
_cell_angle_beta 90.000000
_cell_angle_gamma 90.000000
_cell_volume 1881.489059
_symmetry_space_group_name_H-M "P C C N"
_symmetry_group_IT_number 56
_symmetry_cell_setting 'orthorhombic'
loop_
_space_group_symop_operation_xyz
x,y,z
1/2-x,1/2-y,z
1/2+x,-y,1/2-z
-x,1/2+y,1/2-z
-x,-y,-z
1/2+x,1/2+y,-z
1/2-x,y,1/2+z
x,1/2-y,1/2+z
loop_
_atom_site_type_symbol
_atom_site_label
_atom_site_fract_x
_atom_site_fract_y
_atom_site_fract_z
Si Si1 0.675344 0.087892 0.423802
Si Si2 0.568571 0.608750 0.172147
Si Si3 0.792218 0.994900 0.078374
Si Si4 0.411867 0.310224 0.180690
Si Si5 0.528332 0.076639 0.924402
O O1 0.750000 0.250000 0.415241
O O2 0.686100 0.952880 0.496734
O O3 0.596105 0.234100 0.433620
O O4 0.660210 0.945153 0.353317
O O5 0.631835 0.472386 0.126845
O O6 0.488950 0.470638 0.189930
O O7 0.603905 0.693995 0.245111
O O8 0.541261 0.817270 0.121764
O O9 0.750000 0.250000 0.080135
O O10 0.750000 0.750000 0.100728
O O11 0.435514 0.128310 0.121096
O O12 0.500000 0.000000 0.000000
#
# Coordination Sequence:
#
# PCOD9433083 Si02
#       5
#     8   8   8   8   8
#     4  10  25  44  69 104 141 185 244 303 361 433
#     4  11  24  44  68 104 141 184 244 298 367 441
#     4  11  27  47  73 104 146 194 241 303 365 439
#     4  11  23  43  71 101 141 188 235 306 362 435
#     4  11  23  41  75 101 133 189 239 297 354 430
#
# _framework density 21.259758000000001
#
# number of rings (size 3 to 8) (size 9 to 14) (size 15 to 20)
#    0.000    1.200    2.000    2.400   14.000    3.200 
#    3.600    0.000    0.000    0.000    0.000    0.000 
#    0.000    0.000    0.000    0.000    0.000    0.000 
#
# Total GULP energy -223531.023887 kJ/mol
# GULP energy per Si atom -5588.275597 kJ/mol
# Density = 2.121137 g / cm^3
# Si number density = 21.259758 Si / 1000 Ang^3
#
#
#
# Elastic Constant Matrix: (Units=GPa)
#
#
# Indices 1 2 3 4 5 6 
#
# 1 59.5407 4.7569 42.2253 0.0000 0.0000 0.0000
# 2 4.7569 52.4982 27.3102 0.0000 0.0000 0.0000
# 3 42.2253 27.3102 142.8061 0.0000 0.0000 0.0000
# 4 0.0000 0.0000 0.0000 -6.9004 0.0000 0.0000
# 5 0.0000 0.0000 0.0000 0.0000 39.5263 0.0000
# 6 0.0000 0.0000 0.0000 0.0000 0.0000 20.0135
#
#
#
# Elastic Compliance Matrix: (Units=1/GPa)
#
#
# Indices 1 2 3 4 5 6 
#
# 1 0.021357 0.001499 -0.006602 0.000000 0.000000 0.000000
# 2 0.001499 0.021258 -0.004509 0.000000 0.000000 0.000000
# 3 -0.006602 -0.004509 0.009817 0.000000 0.000000 0.000000
# 4 0.000000 0.000000 0.000000 -0.144919 0.000000 0.000000
# 5 0.000000 0.000000 0.000000 0.000000 0.025300 0.000000
# 6 0.000000 0.000000 0.000000 0.000000 0.000000 0.049966
#
#
# Mechanical properties :
#
#
# Convention : Reuss Voigt Hill
#
# Bulk Modulus (GPa) = 30.11189 44.82553 37.46871
# Shear Modulus (GPa) = 382.52239 22.56473 202.54356
#
# Velocity S-wave (km/s) = 13.42827 3.26142 9.77127
# Velocity P-wave (km/s) = 15.95679 5.94247 12.04019
#
# Compressibility (1/GPa) = 0.03320947
#
# Stress axis : x y z
#
# Youngs Moduli (GPa) = 46.82250 47.04141 101.86706
#
# Poissons Ratio (x) = -0.07052 0.67249
# Poissons Ratio (y) = -0.07019 0.45928
# Poissons Ratio (z) = 0.30911 0.21209
#
# Static dielectric constant tensor:
#      x y z
#    x 1.769870 0.000000 0.000000 
#    y 0.000000 1.879030 0.000000 
#    z 0.000000 0.000000 1.459130 
# 
# From -- ./inp_files/13804.got.cif
#   From: 2010.05.17/outbox.cif.g08.bks.cpg/sg56_7_cif.got.tgz:13804.got - 2010.06.03 13:42:01.
