data_PCOD9433783
_publ_section_title
;
Structure prediction by ZEFSAII (Michael W. Deem and Ramdas Pophale) SiO2 
 PCOD9433783
Probable space group: P C C N
;
_chemical_formula_sum "Si O2"
_cell_formula_units_Z 40
_cell_length_a 13.570727
_cell_length_b 11.759378
_cell_length_c 9.608926
_cell_angle_alpha 90.000000
_cell_angle_beta 90.000000
_cell_angle_gamma 90.000000
_cell_volume 1533.424202
_symmetry_space_group_name_H-M "P C C N"
_symmetry_group_IT_number 56
_symmetry_cell_setting 'orthorhombic'
loop_
_space_group_symop_operation_xyz
x,y,z
1/2-x,1/2-y,z
1/2+x,-y,1/2-z
-x,1/2+y,1/2-z
-x,-y,-z
1/2+x,1/2+y,-z
1/2-x,y,1/2+z
x,1/2-y,1/2+z
loop_
_atom_site_type_symbol
_atom_site_label
_atom_site_fract_x
_atom_site_fract_y
_atom_site_fract_z
Si Si1 0.911100 0.498748 0.207104
Si Si2 0.770739 0.881265 0.519816
Si Si3 0.349512 0.691116 0.100953
Si Si4 0.543347 0.232481 0.142850
Si Si5 0.384553 0.424785 0.752131
O O1 0.857272 0.600485 0.133735
O O2 0.852556 0.434005 0.330042
O O3 0.920698 0.395180 0.095330
O O4 0.976727 0.488571 0.744496
O O5 0.750000 0.750000 0.490445
O O6 0.676041 0.926271 0.605318
O O7 0.812881 0.936416 0.379649
O O8 0.250000 0.750000 0.045856
O O9 0.381782 0.764793 0.234856
O O10 0.437884 0.692957 0.990032
O O11 0.440673 0.195732 0.213405
#
# Coordination Sequence:
#
# PCOD9433783 Si02
#       5
#     8   8   8   8   8
#     4   8  23  41  64 101 137 176 231 289 354 405
#     4  12  23  45  69  99 138 193 234 279 352 423
#     4   9  17  36  66  98 132 173 228 289 352 415
#     4   8  20  37  64  95 137 172 223 288 361 390
#     4   9  24  42  67  94 139 179 234 288 344 404
#
# _framework density 26.085408999999999
#
# number of rings (size 3 to 8) (size 9 to 14) (size 15 to 20)
#    2.400    0.000    0.000    1.800    5.600    1.600 
#    0.000    1.000    0.000    0.000    0.000    0.000 
#    0.000    0.000    0.000    0.000    0.000    0.000 
#
# Total GULP energy -222776.674827 kJ/mol
# GULP energy per Si atom -5569.416871 kJ/mol
# Density = 2.602604 g / cm^3
# Si number density = 26.085409 Si / 1000 Ang^3
#
#
#
# Elastic Constant Matrix: (Units=GPa)
#
#
# Indices 1 2 3 4 5 6 
#
# 1 157.2100 36.9114 37.9157 0.0000 0.0000 0.0000
# 2 36.9114 45.0942 11.0082 0.0000 0.0000 0.0000
# 3 37.9157 11.0082 97.1746 0.0000 0.0000 0.0000
# 4 0.0000 0.0000 0.0000 1.5154 0.0000 0.0000
# 5 0.0000 0.0000 0.0000 0.0000 -17.1251 0.0000
# 6 0.0000 0.0000 0.0000 0.0000 0.0000 9.9887
#
#
#
# Elastic Compliance Matrix: (Units=1/GPa)
#
#
# Indices 1 2 3 4 5 6 
#
# 1 0.008464 -0.006296 -0.002589 0.000000 0.000000 0.000000
# 2 -0.006296 0.027490 -0.000658 0.000000 0.000000 0.000000
# 3 -0.002589 -0.000658 0.011375 0.000000 0.000000 0.000000
# 4 0.000000 0.000000 0.000000 0.659882 0.000000 0.000000
# 5 0.000000 0.000000 0.000000 0.000000 -0.058394 0.000000
# 6 0.000000 0.000000 0.000000 0.000000 0.000000 0.100113
#
#
# Mechanical properties :
#
#
# Convention : Reuss Voigt Hill
#
# Bulk Modulus (GPa) = 35.40607 52.34992 43.87800
# Shear Modulus (GPa) = 6.43145 13.11871 9.77508
#
# Velocity S-wave (km/s) = 1.57191 2.24501 1.93790
# Velocity P-wave (km/s) = 4.11061 5.17999 4.67597
#
# Compressibility (1/GPa) = 0.02824374
#
# Stress axis : x y z
#
# Youngs Moduli (GPa) = 118.15402 36.37735 87.90840
#
# Poissons Ratio (x) = 0.22902 0.22760
# Poissons Ratio (y) = 0.74386 0.05781
# Poissons Ratio (z) = 0.30591 0.02392
#
# Static dielectric constant tensor:
#      x y z
#    x 2.124520 0.000000 0.000000 
#    y 0.000000 2.108930 0.000000 
#    z 0.000000 0.000000 1.974120 
# 
# From -- ./inp_files/3300.got.cif
#   From: 2010.05.17/outbox.cif.g08.bks.cpg/sg56_2_cif.got.tgz:3300.got - 2010.06.03 13:42:01.
