data_PCOD9433216
_publ_section_title
;
Structure prediction by ZEFSAII (Michael W. Deem and Ramdas Pophale) SiO2 
 PCOD9433216
Probable space group: P C C N
;
_chemical_formula_sum "Si O2"
_cell_formula_units_Z 32
_cell_length_a 18.044355
_cell_length_b 8.726794
_cell_length_c 9.417579
_cell_angle_alpha 90.000000
_cell_angle_beta 90.000000
_cell_angle_gamma 90.000000
_cell_volume 1482.980222
_symmetry_space_group_name_H-M "P C C N"
_symmetry_group_IT_number 56
_symmetry_cell_setting 'orthorhombic'
loop_
_space_group_symop_operation_xyz
x,y,z
1/2-x,1/2-y,z
1/2+x,-y,1/2-z
-x,1/2+y,1/2-z
-x,-y,-z
1/2+x,1/2+y,-z
1/2-x,y,1/2+z
x,1/2-y,1/2+z
loop_
_atom_site_type_symbol
_atom_site_label
_atom_site_fract_x
_atom_site_fract_y
_atom_site_fract_z
Si Si1 0.162908 0.270202 0.084857
Si Si2 0.413507 0.549157 0.465160
Si Si3 0.418247 0.103396 0.362133
Si Si4 0.935173 0.223174 0.275608
O O1 0.250000 0.250000 0.086251
O O2 0.137596 0.402521 0.975580
O O3 0.119226 0.125760 0.016077
O O4 0.134966 0.334045 0.235986
O O5 0.500000 0.500000 0.500000
O O6 0.407532 0.638335 0.319641
O O7 0.389519 0.663951 0.590632
O O8 0.489216 0.211953 0.342537
O O9 0.441228 0.928802 0.323836
#
# Coordination Sequence:
#
# PCOD9433216 Si02
#       4
#     8   8   8   8
#     4  11  23  40  60  88 127 167 204 249 318 386
#     4  11  21  40  60  96 126 151 216 262 302 370
#     4  11  21  37  61  92 121 163 208 261 307 368
#     4  11  20  37  63  93 123 158 210 268 307 346
#
# _framework density 21.578168000000002
#
# number of rings (size 3 to 8) (size 9 to 14) (size 15 to 20)
#    0.000    1.000    7.500    0.750    0.000    6.000 
#    0.000    1.250    0.000    9.000    0.000    0.000 
#    0.000    0.000    0.000    0.000    0.000    0.000 
#
# Total GULP energy -178689.094287 kJ/mol
# GULP energy per Si atom -5584.034196 kJ/mol
# Density = 2.152906 g / cm^3
# Si number density = 21.578168 Si / 1000 Ang^3
#
#
#
# Elastic Constant Matrix: (Units=GPa)
#
#
# Indices 1 2 3 4 5 6 
#
# 1 44.3595 12.9704 -7.8183 0.0000 0.0000 0.0000
# 2 12.9704 43.2781 16.0400 0.0000 0.0000 0.0000
# 3 -7.8183 16.0400 58.2975 0.0000 0.0000 0.0000
# 4 0.0000 0.0000 0.0000 60.2010 0.0000 0.0000
# 5 0.0000 0.0000 0.0000 0.0000 10.3166 0.0000
# 6 0.0000 0.0000 0.0000 0.0000 0.0000 18.2212
#
#
#
# Elastic Compliance Matrix: (Units=1/GPa)
#
#
# Indices 1 2 3 4 5 6 
#
# 1 0.026718 -0.010396 0.006443 0.000000 0.000000 0.000000
# 2 -0.010396 0.029775 -0.009586 0.000000 0.000000 0.000000
# 3 0.006443 -0.009586 0.020655 0.000000 0.000000 0.000000
# 4 0.000000 0.000000 0.000000 0.016611 0.000000 0.000000
# 5 0.000000 0.000000 0.000000 0.000000 0.096931 0.000000
# 6 0.000000 0.000000 0.000000 0.000000 0.000000 0.054881
#
#
# Mechanical properties :
#
#
# Convention : Reuss Voigt Hill
#
# Bulk Modulus (GPa) = 19.97150 20.92433 20.44792
# Shear Modulus (GPa) = 17.28075 26.06396 21.67235
#
# Velocity S-wave (km/s) = 2.83299 3.47924 3.17261
# Velocity P-wave (km/s) = 4.46952 5.08509 4.78721
#
# Compressibility (1/GPa) = 0.05007136
#
# Stress axis : x y z
#
# Youngs Moduli (GPa) = 37.42746 33.58538 48.41407
#
# Poissons Ratio (x) = 0.34914 -0.31195
# Poissons Ratio (y) = 0.38908 0.46412
# Poissons Ratio (z) = -0.24116 0.32196
#
# Static dielectric constant tensor:
#      x y z
#    x 1.768120 0.000000 0.000000 
#    y 0.000000 1.882790 0.000000 
#    z 0.000000 0.000000 1.841900 
# 
# From -- ./inp_files/1938.got.cif
#   From: 2010.05.17/outbox.cif.g08.bks.cpg/sg56_1_cif.got.tgz:1938.got - 2010.06.03 13:42:01.
