data_PCOD9433618
_publ_section_title
;
Structure prediction by ZEFSAII (Michael W. Deem and Ramdas Pophale) SiO2 
 PCOD9433618
Probable space group: P C C N
;
_chemical_formula_sum "Si O2"
_cell_formula_units_Z 48
_cell_length_a 8.570066
_cell_length_b 14.938511
_cell_length_c 17.544037
_cell_angle_alpha 90.000000
_cell_angle_beta 90.000000
_cell_angle_gamma 90.000000
_cell_volume 2246.058235
_symmetry_space_group_name_H-M "P C C N"
_symmetry_group_IT_number 56
_symmetry_cell_setting 'orthorhombic'
loop_
_space_group_symop_operation_xyz
x,y,z
1/2-x,1/2-y,z
1/2+x,-y,1/2-z
-x,1/2+y,1/2-z
-x,-y,-z
1/2+x,1/2+y,-z
1/2-x,y,1/2+z
x,1/2-y,1/2+z
loop_
_atom_site_type_symbol
_atom_site_label
_atom_site_fract_x
_atom_site_fract_y
_atom_site_fract_z
Si Si1 0.058728 0.384431 0.276307
Si Si2 0.578102 0.296315 0.222500
Si Si3 0.785798 0.043951 0.309699
Si Si4 0.366489 0.666841 0.945418
Si Si5 0.152825 0.159626 0.945219
Si Si6 0.183208 0.507342 0.013549
O O1 0.162249 0.448731 0.224085
O O2 0.125888 0.379603 0.361341
O O3 0.038358 0.282837 0.246112
O O4 0.885321 0.427306 0.280977
O O5 0.750000 0.250000 0.222496
O O6 0.594340 0.379598 0.279787
O O7 0.551163 0.331609 0.137000
O O8 0.786329 0.039373 0.400647
O O9 0.250000 0.750000 0.948209
O O10 0.488442 0.675809 0.013634
O O11 0.266071 0.577534 0.957193
O O12 0.250000 0.250000 0.939874
O O13 0.241579 0.088172 0.997180
O O14 0.000000 0.500000 0.000000
#
# Coordination Sequence:
#
# PCOD9433618 Si02
#       6
#     8   8   8   8   8   8
#     4  11  26  47  72 106 143 190 237 305 363 440
#     4   9  23  43  71 102 138 184 235 291 362 430
#     4  11  26  45  74 102 144 187 244 295 369 431
#     4  11  24  47  76 102 144 188 240 303 365 439
#     4  12  28  47  71 107 146 187 244 302 367 439
#     4  12  28  45  75 103 143 197 247 303 366 435
#
# _framework density 21.370773
#
# number of rings (size 3 to 8) (size 9 to 14) (size 15 to 20)
#    0.000    1.000    1.667    2.500   18.667    0.000 
#    0.000    0.000    0.000    0.000    0.000    0.000 
#    0.000    0.000    0.000    0.000    0.000    0.000 
#
# Total GULP energy -268788.791506 kJ/mol
# GULP energy per Si atom -5599.766490 kJ/mol
# Density = 2.132213 g / cm^3
# Si number density = 21.370773 Si / 1000 Ang^3
#
#
#
# Elastic Constant Matrix: (Units=GPa)
#
#
# Indices 1 2 3 4 5 6 
#
# 1 71.5542 29.1770 9.8629 0.0000 0.0000 0.0000
# 2 29.1770 125.4807 40.3598 0.0000 0.0000 0.0000
# 3 9.8629 40.3598 114.1374 0.0000 0.0000 0.0000
# 4 0.0000 0.0000 0.0000 42.7431 0.0000 0.0000
# 5 0.0000 0.0000 0.0000 0.0000 17.1384 0.0000
# 6 0.0000 0.0000 0.0000 0.0000 0.0000 39.2003
#
#
#
# Elastic Compliance Matrix: (Units=1/GPa)
#
#
# Indices 1 2 3 4 5 6 
#
# 1 0.015440 -0.003567 -0.000073 0.000000 0.000000 0.000000
# 2 -0.003567 0.009816 -0.003163 0.000000 0.000000 0.000000
# 3 -0.000073 -0.003163 0.009886 0.000000 0.000000 0.000000
# 4 0.000000 0.000000 0.000000 0.023396 0.000000 0.000000
# 5 0.000000 0.000000 0.000000 0.000000 0.058349 0.000000
# 6 0.000000 0.000000 0.000000 0.000000 0.000000 0.025510
#
#
# Mechanical properties :
#
#
# Convention : Reuss Voigt Hill
#
# Bulk Modulus (GPa) = 46.43173 52.21908 49.32540
# Shear Modulus (GPa) = 30.64103 35.26785 32.95444
#
# Velocity S-wave (km/s) = 3.79064 4.06678 3.93113
# Velocity P-wave (km/s) = 6.39785 6.82198 6.61332
#
# Compressibility (1/GPa) = 0.02153700
#
# Stress axis : x y z
#
# Youngs Moduli (GPa) = 64.76761 101.87497 101.15252
#
# Poissons Ratio (x) = 0.36335 0.00739
# Poissons Ratio (y) = 0.23100 0.31992
# Poissons Ratio (z) = 0.00473 0.32221
#
# Static dielectric constant tensor:
#      x y z
#    x 1.764720 0.000000 0.000000 
#    y 0.000000 1.725590 0.000000 
#    z 0.000000 0.000000 1.750500 
# 
# From -- ./inp_files/14822.got.cif
#   From: 2010.05.17/outbox.cif.g08.bks.cpg/sg56_8_cif.got.tgz:14822.got - 2010.06.03 13:42:01.
