data_PCOD9433999
_publ_section_title
;
Structure prediction by ZEFSAII (Michael W. Deem and Ramdas Pophale) SiO2 
 PCOD9433999
Probable space group: P B C M
;
_chemical_formula_sum "Si O2"
_cell_formula_units_Z 40
_cell_length_a 22.233585
_cell_length_b 5.423862
_cell_length_c 14.542034
_cell_angle_alpha 90.000000
_cell_angle_beta 90.000000
_cell_angle_gamma 90.000000
_cell_volume 1753.651463
_symmetry_space_group_name_H-M "P B C M"
_symmetry_group_IT_number 57
_symmetry_cell_setting 'orthorhombic'
loop_
_space_group_symop_operation_xyz
x,y,z
-x,-y,1/2+z
x,1/2-y,-z
-x,1/2+y,1/2-z
-x,-y,-z
x,y,1/2-z
-x,1/2+y,z
x,1/2-y,1/2+z
loop_
_atom_site_type_symbol
_atom_site_label
_atom_site_fract_x
_atom_site_fract_y
_atom_site_fract_z
Si Si1 0.658221 0.001600 0.441778
Si Si2 0.791889 0.019112 0.108136
Si Si3 0.469802 0.394895 0.139862
Si Si4 0.840637 0.978636 0.603180
Si Si5 0.978002 0.694345 0.394814
O O1 0.669023 0.750000 0.500000
O O2 0.599363 0.946969 0.382545
O O3 0.646448 0.250000 0.500000
O O4 0.720568 0.055260 0.389810
O O5 0.826208 0.256892 0.145472
O O6 0.807722 0.753625 0.147503
O O7 0.814928 0.999947 0.001399
O O8 0.477521 0.387074 0.250000
O O9 0.491205 0.127532 0.104385
O O10 0.910457 0.908238 0.602951
O O11 0.998374 0.750000 0.500000
O O12 0.016704 0.469332 0.354135
#
# Coordination Sequence:
#
# PCOD9433999 Si02
#       5
#     8   8   8   8   8
#     4  12  21  34  55  82 106 127 172 221 245 297
#     4  10  17  27  39  61  86 119 151 196 242 294
#     4  10  23  42  59  77 106 141 168 199 257 317
#     4  10  16  27  38  51  87 123 153 199 249 289
#     4  10  18  22  31  49  71 111 169 201 219 277
#
# _framework density 22.809549000000001
#
# number of rings (size 3 to 8) (size 9 to 14) (size 15 to 20)
#    0.000    1.600    6.000    2.400    5.600    2.400 
#    0.000    0.000    0.000    0.000    0.000    0.000 
#    0.000    0.000    0.000    0.000    0.000   34.000 
#
# Total GULP energy -223351.883222 kJ/mol
# GULP energy per Si atom -5583.797081 kJ/mol
# Density = 2.275763 g / cm^3
# Si number density = 22.809549 Si / 1000 Ang^3
#
#
#
# Elastic Constant Matrix: (Units=GPa)
#
#
# Indices 1 2 3 4 5 6 
#
# 1 131.5331 42.8856 -3.4888 0.0000 0.0000 0.0000
# 2 42.8856 240.3956 19.4158 0.0000 0.0000 0.0000
# 3 -3.4888 19.4158 62.8553 0.0000 0.0000 0.0000
# 4 0.0000 0.0000 0.0000 -14.9952 0.0000 0.0000
# 5 0.0000 0.0000 0.0000 0.0000 -78.3960 0.0000
# 6 0.0000 0.0000 0.0000 0.0000 0.0000 50.7671
#
#
#
# Elastic Compliance Matrix: (Units=1/GPa)
#
#
# Indices 1 2 3 4 5 6 
#
# 1 0.008124 -0.001524 0.000922 0.000000 0.000000 0.000000
# 2 -0.001524 0.004552 -0.001491 0.000000 0.000000 0.000000
# 3 0.000922 -0.001491 0.016421 0.000000 0.000000 0.000000
# 4 0.000000 0.000000 0.000000 -0.066688 0.000000 0.000000
# 5 0.000000 0.000000 0.000000 0.000000 -0.012756 0.000000
# 6 0.000000 0.000000 0.000000 0.000000 0.000000 0.019698
#
#
# Mechanical properties :
#
#
# Convention : Reuss Voigt Hill
#
# Bulk Modulus (GPa) = 40.14210 61.37880 50.76045
# Shear Modulus (GPa) = -275.33659 16.53993 -129.39833
#
# Velocity S-wave (km/s) = -10.99878 2.69575 -7.54010
# Velocity P-wave (km/s) = 11.98585 6.05451 7.31449
#
# Compressibility (1/GPa) = 0.02491150
#
# Stress axis : x y z
#
# Youngs Moduli (GPa) = 123.09374 219.68224 60.89698
#
# Poissons Ratio (x) = 0.33473 -0.05612
# Poissons Ratio (y) = 0.18756 0.09078
# Poissons Ratio (z) = -0.11344 0.32748
#
# Static dielectric constant tensor:
#      x y z
#    x 1.807380 0.000000 0.000000 
#    y 0.000000 1.930070 0.000000 
#    z 0.000000 0.000000 1.839680 
# 
# From -- ./inp_files/22974.got.cif
#   From: 2010.05.17/outbox.cif.g08.bks.cpg/sg57_12_cif.got.tgz:22974.got - 2010.06.03 13:58:18.
