data_PCOD9433267
_publ_section_title
;
Structure prediction by ZEFSAII (Michael W. Deem and Ramdas Pophale) SiO2 
 PCOD9433267
Probable space group: P C C N
;
_chemical_formula_sum "Si O2"
_cell_formula_units_Z 56
_cell_length_a 13.743612
_cell_length_b 9.522529
_cell_length_c 20.722738
_cell_angle_alpha 90.000000
_cell_angle_beta 90.000000
_cell_angle_gamma 90.000000
_cell_volume 2712.066449
_symmetry_space_group_name_H-M "P C C N"
_symmetry_group_IT_number 56
_symmetry_cell_setting 'orthorhombic'
loop_
_space_group_symop_operation_xyz
x,y,z
1/2-x,1/2-y,z
1/2+x,-y,1/2-z
-x,1/2+y,1/2-z
-x,-y,-z
1/2+x,1/2+y,-z
1/2-x,y,1/2+z
x,1/2-y,1/2+z
loop_
_atom_site_type_symbol
_atom_site_label
_atom_site_fract_x
_atom_site_fract_y
_atom_site_fract_z
Si Si1 0.793962 0.488237 0.274784
Si Si2 0.219513 0.584414 0.089362
Si Si3 0.493638 0.001775 0.895621
Si Si4 0.294252 0.592334 0.448130
Si Si5 0.900054 0.713716 0.194435
Si Si6 0.159463 0.527664 0.331595
Si Si7 0.945742 0.218147 0.705864
O O1 0.775241 0.490120 0.350933
O O2 0.818366 0.632113 0.236369
O O3 0.696113 0.437049 0.240478
O O4 0.872318 0.377102 0.247889
O O5 0.250000 0.750000 0.094867
O O6 0.102581 0.557293 0.091215
O O7 0.243601 0.533483 0.016687
O O8 0.430749 0.130982 0.868873
O O9 0.412351 0.927604 0.942890
O O10 0.505168 0.890828 0.837529
O O11 0.250000 0.750000 0.447579
O O12 0.244901 0.526213 0.384442
O O13 0.988664 0.703205 0.243567
O O14 0.885312 0.874501 0.174612
O O15 0.095372 0.665294 0.343365
#
# Coordination Sequence:
#
# PCOD9433267 Si02
#       7
#     8   8   8   8   8   8   8
#     4  11  21  38  61  91 127 162 213 267 326 391
#     4  11  24  40  68  95 132 171 226 277 340 402
#     4  11  22  41  63  94 127 172 221 273 326 406
#     4  11  22  42  67  94 127 177 226 274 327 414
#     4  11  23  34  64  96 130 162 209 271 338 384
#     4  12  20  38  66  91 129 166 214 264 331 395
#     4  11  21  37  66  96 127 166 219 272 325 393
#
# _framework density 20.648461000000001
#
# number of rings (size 3 to 8) (size 9 to 14) (size 15 to 20)
#    0.000    0.857    4.286    6.429    0.000    0.000 
#    0.000    0.000   15.714    3.429    0.000    0.000 
#    0.000    0.000    0.000    0.000    0.000    0.000 
#
# Total GULP energy -311759.124944 kJ/mol
# GULP energy per Si atom -5567.127231 kJ/mol
# Density = 2.060146 g / cm^3
# Si number density = 20.648461 Si / 1000 Ang^3
#
#
#
# Elastic Constant Matrix: (Units=GPa)
#
#
# Indices 1 2 3 4 5 6 
#
# 1 86.3494 47.0167 23.5765 0.0000 0.0000 0.0000
# 2 47.0167 75.1253 24.3728 0.0000 0.0000 0.0000
# 3 23.5765 24.3728 112.8590 0.0000 0.0000 0.0000
# 4 0.0000 0.0000 0.0000 -8.1394 0.0000 0.0000
# 5 0.0000 0.0000 0.0000 0.0000 16.5850 0.0000
# 6 0.0000 0.0000 0.0000 0.0000 0.0000 32.2722
#
#
#
# Elastic Compliance Matrix: (Units=1/GPa)
#
#
# Indices 1 2 3 4 5 6 
#
# 1 0.017773 -0.010666 -0.001409 0.000000 0.000000 0.000000
# 2 -0.010666 0.020715 -0.002245 0.000000 0.000000 0.000000
# 3 -0.001409 -0.002245 0.009640 0.000000 0.000000 0.000000
# 4 0.000000 0.000000 0.000000 -0.122859 0.000000 0.000000
# 5 0.000000 0.000000 0.000000 0.000000 0.060295 0.000000
# 6 0.000000 0.000000 0.000000 0.000000 0.000000 0.030986
#
#
# Mechanical properties :
#
#
# Convention : Reuss Voigt Hill
#
# Bulk Modulus (GPa) = 51.31802 51.58508 51.45155
# Shear Modulus (GPa) = 96.73322 20.10139 58.41730
#
# Velocity S-wave (km/s) = 6.85196 3.12349 5.32473
# Velocity P-wave (km/s) = 9.35448 6.16806 7.92311
#
# Compressibility (1/GPa) = 0.01948633
#
# Stress axis : x y z
#
# Youngs Moduli (GPa) = 56.26429 48.27464 103.73481
#
# Poissons Ratio (x) = 0.51490 0.14621
# Poissons Ratio (y) = 0.60012 0.23292
# Poissons Ratio (z) = 0.07930 0.10840
#
# Static dielectric constant tensor:
#      x y z
#    x 1.914210 0.000000 0.000000 
#    y 0.000000 1.832470 0.000000 
#    z 0.000000 0.000000 1.758260 
# 
# From -- ./inp_files/19111.got.cif
#   From: 2010.05.17/outbox.cif.g08.bks.cpg/sg56_10_cif.got.tgz:19111.got - 2010.06.03 13:42:01.
