data_PCOD9433215
_publ_section_title
;
Structure prediction by ZEFSAII (Michael W. Deem and Ramdas Pophale) SiO2 
 PCOD9433215
Probable space group: P C C N
;
_chemical_formula_sum "Si O2"
_cell_formula_units_Z 56
_cell_length_a 5.406287
_cell_length_b 20.036364
_cell_length_c 27.733656
_cell_angle_alpha 90.000000
_cell_angle_beta 90.000000
_cell_angle_gamma 90.000000
_cell_volume 3004.174354
_symmetry_space_group_name_H-M "P C C N"
_symmetry_group_IT_number 56
_symmetry_cell_setting 'orthorhombic'
loop_
_space_group_symop_operation_xyz
x,y,z
1/2-x,1/2-y,z
1/2+x,-y,1/2-z
-x,1/2+y,1/2-z
-x,-y,-z
1/2+x,1/2+y,-z
1/2-x,y,1/2+z
x,1/2-y,1/2+z
loop_
_atom_site_type_symbol
_atom_site_label
_atom_site_fract_x
_atom_site_fract_y
_atom_site_fract_z
Si Si1 0.739761 0.950159 0.700594
Si Si2 0.081998 0.423281 0.001652
Si Si3 0.343518 0.416856 0.902043
Si Si4 0.263997 0.461834 0.694869
Si Si5 0.502048 0.791054 0.553988
Si Si6 0.573570 0.565694 0.905622
Si Si7 0.178361 0.824222 0.954359
O O1 0.752063 0.906814 0.652142
O O2 0.749963 0.921003 0.754841
O O3 0.475799 0.988957 0.697849
O O4 0.975531 0.999323 0.695795
O O5 0.283707 0.427759 0.044067
O O6 0.886507 0.368114 0.018566
O O7 0.157898 0.408663 0.946740
O O8 0.000000 0.500000 0.000000
O O9 0.531469 0.357873 0.914597
O O10 0.445748 0.492688 0.905447
O O11 0.235260 0.428623 0.642646
O O12 0.750000 0.750000 0.567242
O O13 0.520224 0.810873 0.497283
O O14 0.250000 0.750000 0.558053
O O15 0.393999 0.628896 0.909829
O O16 0.250000 0.750000 0.938636
#
# Coordination Sequence:
#
# PCOD9433215 Si02
#       7
#     8   8   8   8   8   8   8
#     4   9  19  35  56  85 115 154 185 248 298 352
#     4  12  21  34  56  86 121 152 194 250 294 347
#     4  11  20  37  59  88 119 152 198 244 303 347
#     4   9  19  35  55  84 121 145 195 241 301 345
#     4  11  24  40  56  82 119 160 197 236 290 361
#     4  11  22  34  57  88 113 155 194 248 291 351
#     4  11  24  38  54  82 123 164 197 234 297 361
#
# _framework density 18.640729
#
# number of rings (size 3 to 8) (size 9 to 14) (size 15 to 20)
#    0.000    1.429    2.857    3.857    2.000    3.429 
#    0.000    0.000    0.000    0.000    3.714    1.000 
#    0.000    0.000    0.000    0.000    0.000    0.000 
#
# Total GULP energy -311789.573185 kJ/mol
# GULP energy per Si atom -5567.670950 kJ/mol
# Density = 1.859830 g / cm^3
# Si number density = 18.640729 Si / 1000 Ang^3
#
#
#
# Elastic Constant Matrix: (Units=GPa)
#
#
# Indices 1 2 3 4 5 6 
#
# 1 51.6203 19.1147 -11.6072 0.0000 0.0000 0.0000
# 2 19.1147 118.4940 16.6679 0.0000 0.0000 0.0000
# 3 -11.6072 16.6679 58.5251 0.0000 0.0000 0.0000
# 4 0.0000 0.0000 0.0000 1.4611 0.0000 0.0000
# 5 0.0000 0.0000 0.0000 0.0000 25.4623 0.0000
# 6 0.0000 0.0000 0.0000 0.0000 0.0000 15.8776
#
#
#
# Elastic Compliance Matrix: (Units=1/GPa)
#
#
# Indices 1 2 3 4 5 6 
#
# 1 0.022272 -0.004390 0.005667 0.000000 0.000000 0.000000
# 2 -0.004390 0.009657 -0.003621 0.000000 0.000000 0.000000
# 3 0.005667 -0.003621 0.019242 0.000000 0.000000 0.000000
# 4 0.000000 0.000000 0.000000 0.684426 0.000000 0.000000
# 5 0.000000 0.000000 0.000000 0.000000 0.039274 0.000000
# 6 0.000000 0.000000 0.000000 0.000000 0.000000 0.062982
#
#
# Mechanical properties :
#
#
# Convention : Reuss Voigt Hill
#
# Bulk Modulus (GPa) = 21.51278 30.77669 26.14473
# Shear Modulus (GPa) = 5.82728 22.19112 14.00920
#
# Velocity S-wave (km/s) = 1.77000 3.45405 2.74439
# Velocity P-wave (km/s) = 3.96774 5.69681 4.90900
#
# Compressibility (1/GPa) = 0.04648400
#
# Stress axis : x y z
#
# Youngs Moduli (GPa) = 44.89901 103.55455 51.96982
#
# Poissons Ratio (x) = 0.45461 -0.29454
# Poissons Ratio (y) = 0.19711 0.18818
# Poissons Ratio (z) = -0.25446 0.37496
#
# Static dielectric constant tensor:
#      x y z
#    x 1.639300 0.000000 0.000000 
#    y 0.000000 1.539100 0.000000 
#    z 0.000000 0.000000 1.683640 
# 
# From -- ./inp_files/21823.got.cif
#   From: 2010.05.17/outbox.cif.g08.bks.cpg/sg56_11_cif.got.tgz:21823.got - 2010.06.03 13:42:01.
