data_PCOD9433711
_publ_section_title
;
Structure prediction by ZEFSAII (Michael W. Deem and Ramdas Pophale) SiO2 
 PCOD9433711
Probable space group: P C C N
;
_chemical_formula_sum "Si O2"
_cell_formula_units_Z 60
_cell_length_a 18.685867
_cell_length_b 12.096233
_cell_length_c 11.442243
_cell_angle_alpha 90.000000
_cell_angle_beta 90.000000
_cell_angle_gamma 90.000000
_cell_volume 2586.274178
_symmetry_space_group_name_H-M "P C C N"
_symmetry_group_IT_number 56
_symmetry_cell_setting 'orthorhombic'
loop_
_space_group_symop_operation_xyz
x,y,z
1/2-x,1/2-y,z
1/2+x,-y,1/2-z
-x,1/2+y,1/2-z
-x,-y,-z
1/2+x,1/2+y,-z
1/2-x,y,1/2+z
x,1/2-y,1/2+z
loop_
_atom_site_type_symbol
_atom_site_label
_atom_site_fract_x
_atom_site_fract_y
_atom_site_fract_z
Si Si1 0.341749 0.132601 0.405919
Si Si2 0.757782 0.479025 0.740160
Si Si3 0.547228 0.402030 0.441335
Si Si4 0.643772 0.825957 0.264087
Si Si5 0.287383 0.630606 0.506029
Si Si6 0.999059 0.849803 0.042813
Si Si7 0.496054 0.552965 0.809526
Si Si8 0.250000 0.250000 0.060828
O O1 0.351471 0.253243 0.351100
O O2 0.415262 0.117697 0.473547
O O3 0.270722 0.143934 0.483893
O O4 0.327556 0.044738 0.306185
O O5 0.697103 0.571851 0.757102
O O6 0.766218 0.424072 0.867476
O O7 0.737252 0.410165 0.623510
O O8 0.500000 0.500000 0.500000
O O9 0.626214 0.383698 0.493785
O O10 0.511040 0.280070 0.446374
O O11 0.550298 0.436756 0.305883
O O12 0.565463 0.872239 0.282545
O O13 0.679127 0.744237 0.360632
O O14 0.250000 0.750000 0.515404
O O15 0.037533 0.893348 0.926300
O O16 0.017805 0.927171 0.154348
#
# Coordination Sequence:
#
# PCOD9433711 Si02
#       8
#     8   8   8   8   8   8   8   4
#     4  12  23  41  70 115 149 191 241 318 389 465
#     4  12  26  47  77 109 154 199 257 317 392 471
#     4  12  29  52  79 111 155 209 266 328 396 469
#     4  12  23  39  73 112 151 190 244 315 393 460
#     4  12  31  52  78 110 154 211 269 324 392 478
#     4  11  27  45  77 107 151 200 259 313 387 472
#     4  11  26  47  72 111 150 203 250 323 386 469
#     4  12  20  38  64 110 160 186 244 312 390 470
#
# _framework density 23.199394999999999
#
# number of rings (size 3 to 8) (size 9 to 14) (size 15 to 20)
#    0.000    0.267    5.333    2.800    3.733    4.267 
#    0.000    0.000    0.000    0.000    0.000    0.000 
#    0.000    0.000    0.000    0.000    0.000    0.000 
#
# Total GULP energy -334782.878304 kJ/mol
# GULP energy per Si atom -5579.714638 kJ/mol
# Density = 2.314659 g / cm^3
# Si number density = 23.199395 Si / 1000 Ang^3
#
#
#
# Elastic Constant Matrix: (Units=GPa)
#
#
# Indices 1 2 3 4 5 6 
#
# 1 97.8598 44.3737 22.0954 0.0000 0.0000 0.0000
# 2 44.3737 159.7381 71.4497 0.0000 0.0000 0.0000
# 3 22.0954 71.4497 125.8656 0.0000 0.0000 0.0000
# 4 0.0000 0.0000 0.0000 45.8746 0.0000 0.0000
# 5 0.0000 0.0000 0.0000 0.0000 28.4719 0.0000
# 6 0.0000 0.0000 0.0000 0.0000 0.0000 30.3637
#
#
#
# Elastic Compliance Matrix: (Units=1/GPa)
#
#
# Indices 1 2 3 4 5 6 
#
# 1 0.011699 -0.003125 -0.000280 0.000000 0.000000 0.000000
# 2 -0.003125 0.009225 -0.004688 0.000000 0.000000 0.000000
# 3 -0.000280 -0.004688 0.010656 0.000000 0.000000 0.000000
# 4 0.000000 0.000000 0.000000 0.021799 0.000000 0.000000
# 5 0.000000 0.000000 0.000000 0.000000 0.035122 0.000000
# 6 0.000000 0.000000 0.000000 0.000000 0.000000 0.032934
#
#
# Mechanical properties :
#
#
# Convention : Reuss Voigt Hill
#
# Bulk Modulus (GPa) = 64.96142 73.25567 69.10854
# Shear Modulus (GPa) = 35.02586 37.31169 36.16878
#
# Velocity S-wave (km/s) = 3.88980 4.01472 3.95275
# Velocity P-wave (km/s) = 6.94523 7.28942 7.11941
#
# Compressibility (1/GPa) = 0.01539375
#
# Stress axis : x y z
#
# Youngs Moduli (GPa) = 85.47945 108.39749 93.84763
#
# Poissons Ratio (x) = 0.33869 0.02627
# Poissons Ratio (y) = 0.26709 0.43999
# Poissons Ratio (z) = 0.02393 0.50821
#
# Static dielectric constant tensor:
#      x y z
#    x 1.961650 0.000000 0.000000 
#    y 0.000000 1.872020 0.000000 
#    z 0.000000 0.000000 1.979550 
# 
# From -- ./inp_files/8678.got.cif
#   From: 2010.05.17/outbox.cif.g08.bks.cpg/sg56_5_cif.got.tgz:8678.got - 2010.06.03 13:42:01.
