data_PCOD9433557
_publ_section_title
;
Structure prediction by ZEFSAII (Michael W. Deem and Ramdas Pophale) SiO2 
 PCOD9433557
Probable space group: P C C N
;
_chemical_formula_sum "Si O2"
_cell_formula_units_Z 40
_cell_length_a 7.927539
_cell_length_b 9.005841
_cell_length_c 25.213238
_cell_angle_alpha 90.000000
_cell_angle_beta 90.000000
_cell_angle_gamma 90.000000
_cell_volume 1800.077841
_symmetry_space_group_name_H-M "P C C N"
_symmetry_group_IT_number 56
_symmetry_cell_setting 'orthorhombic'
loop_
_space_group_symop_operation_xyz
x,y,z
1/2-x,1/2-y,z
1/2+x,-y,1/2-z
-x,1/2+y,1/2-z
-x,-y,-z
1/2+x,1/2+y,-z
1/2-x,y,1/2+z
x,1/2-y,1/2+z
loop_
_atom_site_type_symbol
_atom_site_label
_atom_site_fract_x
_atom_site_fract_y
_atom_site_fract_z
Si Si1 0.184856 0.585057 0.628863
Si Si2 0.317971 0.411387 0.727018
Si Si3 0.185120 0.925623 0.515461
Si Si4 0.313463 0.588428 0.322382
Si Si5 0.188979 0.086288 0.917418
O O1 0.250000 0.750000 0.643427
O O2 0.210301 0.479091 0.678736
O O3 0.285740 0.532133 0.576676
O O4 0.992575 0.591014 0.609956
O O5 0.250000 0.250000 0.742501
O O6 0.505689 0.401632 0.704834
O O7 0.305919 0.517316 0.777657
O O8 0.250000 0.750000 0.514486
O O9 0.307061 0.997568 0.471926
O O10 0.000000 0.000000 0.500000
O O11 0.250000 0.750000 0.338148
O O12 0.312378 0.487417 0.374338
O O13 0.250000 0.250000 0.929468
#
# Coordination Sequence:
#
# PCOD9433557 Si02
#       5
#     8   8   8   8   8
#     4  11  24  43  64  94 131 172 215 267 325 390
#     4  12  25  43  66  95 127 167 213 267 325 388
#     4  11  24  44  68  99 135 175 222 277 335 399
#     4  12  25  44  66  94 129 169 215 267 325 392
#     4  12  24  42  68  98 131 173 220 272 328 391
#
# _framework density 22.221260999999998
#
# number of rings (size 3 to 8) (size 9 to 14) (size 15 to 20)
#    0.000    0.400    0.000   10.800    0.000    2.400 
#    0.000    0.000    0.000    0.000    0.000    0.000 
#    0.000    0.000    0.000    0.000    0.000    0.000 
#
# Total GULP energy -223805.973834 kJ/mol
# GULP energy per Si atom -5595.149346 kJ/mol
# Density = 2.217068 g / cm^3
# Si number density = 22.221261 Si / 1000 Ang^3
#
#
#
# Elastic Constant Matrix: (Units=GPa)
#
#
# Indices 1 2 3 4 5 6 
#
# 1 94.7721 -2.1058 -21.4759 0.0000 0.0000 0.0000
# 2 -2.1058 84.0936 33.0340 0.0000 0.0000 0.0000
# 3 -21.4759 33.0340 92.9458 0.0000 0.0000 0.0000
# 4 0.0000 0.0000 0.0000 31.8413 0.0000 0.0000
# 5 0.0000 0.0000 0.0000 0.0000 770.5350 0.0000
# 6 0.0000 0.0000 0.0000 0.0000 0.0000 23.6527
#
#
#
# Elastic Compliance Matrix: (Units=1/GPa)
#
#
# Indices 1 2 3 4 5 6 
#
# 1 0.011187 -0.000855 0.002889 0.000000 0.000000 0.000000
# 2 -0.000855 0.013886 -0.005133 0.000000 0.000000 0.000000
# 3 0.002889 -0.005133 0.013251 0.000000 0.000000 0.000000
# 4 0.000000 0.000000 0.000000 0.031406 0.000000 0.000000
# 5 0.000000 0.000000 0.000000 0.000000 0.001298 0.000000
# 6 0.000000 0.000000 0.000000 0.000000 0.000000 0.042278
#
#
# Mechanical properties :
#
#
# Convention : Reuss Voigt Hill
#
# Bulk Modulus (GPa) = 31.12675 32.30179 31.71427
# Shear Modulus (GPa) = 38.39869 182.69642 110.54755
#
# Velocity S-wave (km/s) = 4.16145 9.07719 7.06092
# Velocity P-wave (km/s) = 6.09330 11.15476 8.98768
#
# Compressibility (1/GPa) = 0.03212671
#
# Stress axis : x y z
#
# Youngs Moduli (GPa) = 89.38769 72.01283 75.46781
#
# Poissons Ratio (x) = 0.06154 -0.21800
# Poissons Ratio (y) = 0.07639 0.38737
# Poissons Ratio (z) = -0.25821 0.36963
#
# Static dielectric constant tensor:
#      x y z
#    x 1.876930 0.000000 0.000000 
#    y 0.000000 1.804130 0.000000 
#    z 0.000000 0.000000 1.745750 
# 
# From -- ./inp_files/20331.got.cif
#   From: 2010.05.17/outbox.cif.g08.bks.cpg/sg56_11_cif.got.tgz:20331.got - 2010.06.03 13:42:01.
