data_PCOD9433361
_publ_section_title
;
Structure prediction by ZEFSAII (Michael W. Deem and Ramdas Pophale) SiO2 
 PCOD9433361
Probable space group: P C C N
;
_chemical_formula_sum "Si O2"
_cell_formula_units_Z 48
_cell_length_a 10.852659
_cell_length_b 8.431583
_cell_length_c 22.186977
_cell_angle_alpha 90.000000
_cell_angle_beta 90.000000
_cell_angle_gamma 90.000000
_cell_volume 2030.221441
_symmetry_space_group_name_H-M "P C C N"
_symmetry_group_IT_number 56
_symmetry_cell_setting 'orthorhombic'
loop_
_space_group_symop_operation_xyz
x,y,z
1/2-x,1/2-y,z
1/2+x,-y,1/2-z
-x,1/2+y,1/2-z
-x,-y,-z
1/2+x,1/2+y,-z
1/2-x,y,1/2+z
x,1/2-y,1/2+z
loop_
_atom_site_type_symbol
_atom_site_label
_atom_site_fract_x
_atom_site_fract_y
_atom_site_fract_z
Si Si1 0.458200 0.000816 0.688281
Si Si2 0.201080 0.496803 0.119956
Si Si3 0.963215 0.352155 0.179711
Si Si4 0.788398 0.919783 0.610998
Si Si5 0.680634 0.081308 0.501390
Si Si6 0.514849 0.237083 0.414793
O O1 0.472642 0.929052 0.754349
O O2 0.512178 0.879569 0.640045
O O3 0.314260 0.017091 0.667215
O O4 0.533971 0.163664 0.685030
O O5 0.259541 0.478925 0.053343
O O6 0.132497 0.666129 0.111670
O O7 0.087231 0.389331 0.141207
O O8 0.844429 0.440133 0.151392
O O9 0.750000 0.750000 0.640356
O O10 0.908501 0.862102 0.573205
O O11 0.693261 0.986048 0.562551
O O12 0.750000 0.250000 0.511247
O O13 0.552941 0.143116 0.474085
#
# Coordination Sequence:
#
# PCOD9433361 Si02
#       6
#     8   8   8   8   8   8
#     4  11  22  41  66  93 128 169 215 261 320 388
#     4   9  20  42  67  90 122 168 218 263 315 386
#     4  11  24  39  65  98 128 166 213 269 324 378
#     4  11  25  42  61  92 133 168 210 266 318 371
#     4   9  20  40  66  92 123 168 214 257 314 383
#     4   9  21  42  67  92 124 169 216 257 312 387
#
# _framework density 23.642741999999998
#
# number of rings (size 3 to 8) (size 9 to 14) (size 15 to 20)
#    0.000    2.000    0.000    4.000    0.000   13.333 
#    0.000    3.333    0.000    3.000    0.000    0.000 
#    0.000    0.000    0.000    0.000    0.000    0.000 
#
# Total GULP energy -268029.776559 kJ/mol
# GULP energy per Si atom -5583.953678 kJ/mol
# Density = 2.358893 g / cm^3
# Si number density = 23.642742 Si / 1000 Ang^3
#
#
#
# Elastic Constant Matrix: (Units=GPa)
#
#
# Indices 1 2 3 4 5 6 
#
# 1 90.6318 19.8887 21.8061 0.0000 0.0000 0.0000
# 2 19.8887 113.5511 33.1341 0.0000 0.0000 0.0000
# 3 21.8061 33.1341 78.1402 0.0000 0.0000 0.0000
# 4 0.0000 0.0000 0.0000 31.8368 0.0000 0.0000
# 5 0.0000 0.0000 0.0000 0.0000 -0.7704 0.0000
# 6 0.0000 0.0000 0.0000 0.0000 0.0000 18.6324
#
#
#
# Elastic Compliance Matrix: (Units=1/GPa)
#
#
# Indices 1 2 3 4 5 6 
#
# 1 0.011989 -0.001282 -0.002802 0.000000 0.000000 0.000000
# 2 -0.001282 0.010187 -0.003962 0.000000 0.000000 0.000000
# 3 -0.002802 -0.003962 0.015259 0.000000 0.000000 0.000000
# 4 0.000000 0.000000 0.000000 0.031410 0.000000 0.000000
# 5 0.000000 0.000000 0.000000 0.000000 -1.297947 0.000000
# 6 0.000000 0.000000 0.000000 0.000000 0.000000 0.053670
#
#
# Mechanical properties :
#
#
# Convention : Reuss Voigt Hill
#
# Bulk Modulus (GPa) = 46.85272 47.99787 47.42529
# Shear Modulus (GPa) = -4.33943 23.77269 9.71663
#
# Velocity S-wave (km/s) = -1.35625 3.17440 2.02946
# Velocity P-wave (km/s) = 4.17222 5.81215 5.05908
#
# Compressibility (1/GPa) = 0.02134348
#
# Stress axis : x y z
#
# Youngs Moduli (GPa) = 83.40830 98.16153 65.53319
#
# Poissons Ratio (x) = 0.12587 0.18363
# Poissons Ratio (y) = 0.10696 0.25964
# Poissons Ratio (z) = 0.23371 0.38891
#
# Static dielectric constant tensor:
#      x y z
#    x 2.056350 0.000000 0.000000 
#    y 0.000000 2.086010 0.000000 
#    z 0.000000 0.000000 1.822900 
# 
# From -- ./inp_files/20915.got.cif
#   From: 2010.05.17/outbox.cif.g08.bks.cpg/sg56_11_cif.got.tgz:20915.got - 2010.06.03 13:42:01.
