data_PCOD9433317
_publ_section_title
;
Structure prediction by ZEFSAII (Michael W. Deem and Ramdas Pophale) SiO2 
 PCOD9433317
Probable space group: P C C N
;
_chemical_formula_sum "Si O2"
_cell_formula_units_Z 40
_cell_length_a 14.622453
_cell_length_b 7.069044
_cell_length_c 14.380183
_cell_angle_alpha 90.000000
_cell_angle_beta 90.000000
_cell_angle_gamma 90.000000
_cell_volume 1486.432977
_symmetry_space_group_name_H-M "P C C N"
_symmetry_group_IT_number 56
_symmetry_cell_setting 'orthorhombic'
loop_
_space_group_symop_operation_xyz
x,y,z
1/2-x,1/2-y,z
1/2+x,-y,1/2-z
-x,1/2+y,1/2-z
-x,-y,-z
1/2+x,1/2+y,-z
1/2-x,y,1/2+z
x,1/2-y,1/2+z
loop_
_atom_site_type_symbol
_atom_site_label
_atom_site_fract_x
_atom_site_fract_y
_atom_site_fract_z
Si Si1 0.727968 0.521089 0.101980
Si Si2 0.482762 0.530670 0.889294
Si Si3 0.265029 0.026823 0.105695
Si Si4 0.023911 0.472908 0.107480
Si Si5 0.621342 0.052273 0.238095
O O1 0.750000 0.750000 0.111345
O O2 0.623726 0.496550 0.135704
O O3 0.811333 0.407055 0.148935
O O4 0.729118 0.462452 0.993856
O O5 0.509298 0.749625 0.870796
O O6 0.548756 0.409182 0.823124
O O7 0.500000 0.500000 0.000000
O O8 0.250000 0.250000 0.100492
O O9 0.370602 0.979677 0.120406
O O10 0.207049 0.971899 0.193495
O O11 0.951030 0.567663 0.175573
O O12 0.000000 0.500000 0.000000
#
# Coordination Sequence:
#
# PCOD9433317 Si02
#       5
#     8   8   8   8   8
#     4  11  24  45  77 104 149 200 251 308 380 458
#     4  12  26  48  77 112 151 201 260 314 389 466
#     4  11  21  48  73 104 144 199 247 300 377 457
#     4  12  27  48  76 114 155 194 255 325 386 463
#     4  12  25  42  76 105 148 195 252 314 377 460
#
# _framework density 26.910060000000001
#
# number of rings (size 3 to 8) (size 9 to 14) (size 15 to 20)
#    0.000    0.400    6.000    3.000    2.800    0.800 
#    0.000    2.000    0.000    0.000    0.000    0.000 
#    0.000    0.000    0.000    0.000    0.000    0.000 
#
# Total GULP energy -223078.193082 kJ/mol
# GULP energy per Si atom -5576.954827 kJ/mol
# Density = 2.684881 g / cm^3
# Si number density = 26.910060 Si / 1000 Ang^3
#
#
#
# Elastic Constant Matrix: (Units=GPa)
#
#
# Indices 1 2 3 4 5 6 
#
# 1 232.1716 -8.6271 50.4404 0.0000 0.0000 0.0000
# 2 -8.6271 98.2824 -27.1439 0.0000 0.0000 0.0000
# 3 50.4404 -27.1439 189.3010 0.0000 0.0000 0.0000
# 4 0.0000 0.0000 0.0000 -1.2690 0.0000 0.0000
# 5 0.0000 0.0000 0.0000 0.0000 70.4328 0.0000
# 6 0.0000 0.0000 0.0000 0.0000 0.0000 30.8021
#
#
#
# Elastic Compliance Matrix: (Units=1/GPa)
#
#
# Indices 1 2 3 4 5 6 
#
# 1 0.004572 0.000068 -0.001209 0.000000 0.000000 0.000000
# 2 0.000068 0.010595 0.001501 0.000000 0.000000 0.000000
# 3 -0.001209 0.001501 0.005820 0.000000 0.000000 0.000000
# 4 0.000000 0.000000 0.000000 -0.788028 0.000000 0.000000
# 5 0.000000 0.000000 0.000000 0.000000 0.014198 0.000000
# 6 0.000000 0.000000 0.000000 0.000000 0.000000 0.032465
#
#
# Mechanical properties :
#
#
# Convention : Reuss Voigt Hill
#
# Bulk Modulus (GPa) = 46.06626 61.01040 53.53833
# Shear Modulus (GPa) = -7.00415 53.66556 23.33070
#
# Velocity S-wave (km/s) = -1.61507 4.47055 2.94766
# Velocity P-wave (km/s) = 3.69836 7.02631 5.61457
#
# Compressibility (1/GPa) = 0.02170786
#
# Stress axis : x y z
#
# Youngs Moduli (GPa) = 218.71083 94.38134 171.82423
#
# Poissons Ratio (x) = -0.00638 0.20767
# Poissons Ratio (y) = -0.01477 -0.25795
# Poissons Ratio (z) = 0.26434 -0.14169
#
# Static dielectric constant tensor:
#      x y z
#    x 2.024770 0.000000 0.000000 
#    y 0.000000 2.324180 0.000000 
#    z 0.000000 0.000000 2.082320 
# 
# From -- ./inp_files/12070.got.cif
#   From: 2010.05.17/outbox.cif.g08.bks.cpg/sg56_7_cif.got.tgz:12070.got - 2010.06.03 13:42:01.
