data_PCOD9433781
_publ_section_title
;
Structure prediction by ZEFSAII (Michael W. Deem and Ramdas Pophale) SiO2 
 PCOD9433781
Probable space group: P C C N
;
_chemical_formula_sum "Si O2"
_cell_formula_units_Z 48
_cell_length_a 11.441532
_cell_length_b 8.170862
_cell_length_c 23.474510
_cell_angle_alpha 90.000000
_cell_angle_beta 90.000000
_cell_angle_gamma 90.000000
_cell_volume 2194.565719
_symmetry_space_group_name_H-M "P C C N"
_symmetry_group_IT_number 56
_symmetry_cell_setting 'orthorhombic'
loop_
_space_group_symop_operation_xyz
x,y,z
1/2-x,1/2-y,z
1/2+x,-y,1/2-z
-x,1/2+y,1/2-z
-x,-y,-z
1/2+x,1/2+y,-z
1/2-x,y,1/2+z
x,1/2-y,1/2+z
loop_
_atom_site_type_symbol
_atom_site_label
_atom_site_fract_x
_atom_site_fract_y
_atom_site_fract_z
Si Si1 0.384063 0.717371 0.591970
Si Si2 0.046820 0.392866 0.327779
Si Si3 0.022107 0.914567 0.381118
Si Si4 0.743972 0.919458 0.581275
Si Si5 0.936286 0.343648 0.527253
Si Si6 0.607484 0.264520 0.230539
O O1 0.250000 0.750000 0.601235
O O2 0.456334 0.866467 0.620314
O O3 0.416764 0.542237 0.618867
O O4 0.411506 0.721540 0.524863
O O5 0.168345 0.372919 0.362335
O O6 0.071604 0.559088 0.294021
O O7 0.981247 0.276091 0.282160
O O8 0.003559 0.758486 0.422043
O O9 0.070660 0.857185 0.320429
O O10 0.126754 0.022556 0.406562
O O11 0.750000 0.750000 0.546269
O O12 0.679007 0.072617 0.553373
O O13 0.000000 0.500000 0.500000
O O14 0.750000 0.250000 0.241421
#
# Coordination Sequence:
#
# PCOD9433781 Si02
#       6
#     8   8   8   8   8   8
#     4  12  26  45  67 104 149 185 233 298 365 422
#     4  12  25  45  69 106 140 183 240 294 364 422
#     4  12  23  46  73 104 137 196 242 291 356 431
#     4  12  23  44  73 105 138 186 246 291 346 434
#     4  12  23  44  71 107 146 184 239 294 355 430
#     4  12  25  46  73 102 144 184 240 299 360 429
#
# _framework density 21.872208000000001
#
# number of rings (size 3 to 8) (size 9 to 14) (size 15 to 20)
#    0.000    0.000    6.667    3.500    0.000    1.333 
#    0.000    4.167    0.000    0.000    0.000    0.000 
#    0.000    0.000    0.000    0.000    0.000    0.000 
#
# Total GULP energy -267855.669893 kJ/mol
# GULP energy per Si atom -5580.326456 kJ/mol
# Density = 2.182243 g / cm^3
# Si number density = 21.872208 Si / 1000 Ang^3
#
#
#
# Elastic Constant Matrix: (Units=GPa)
#
#
# Indices 1 2 3 4 5 6 
#
# 1 85.9569 17.7674 15.7547 0.0000 0.0000 0.0000
# 2 17.7674 86.1525 18.4773 0.0000 0.0000 0.0000
# 3 15.7547 18.4773 84.6635 0.0000 0.0000 0.0000
# 4 0.0000 0.0000 0.0000 -58.9379 0.0000 0.0000
# 5 0.0000 0.0000 0.0000 0.0000 -6.4996 0.0000
# 6 0.0000 0.0000 0.0000 0.0000 0.0000 34.4899
#
#
#
# Elastic Compliance Matrix: (Units=1/GPa)
#
#
# Indices 1 2 3 4 5 6 
#
# 1 0.012419 -0.002167 -0.001838 0.000000 0.000000 0.000000
# 2 -0.002167 0.012555 -0.002337 0.000000 0.000000 0.000000
# 3 -0.001838 -0.002337 0.012664 0.000000 0.000000 0.000000
# 4 0.000000 0.000000 0.000000 -0.016967 0.000000 0.000000
# 5 0.000000 0.000000 0.000000 0.000000 -0.153855 0.000000
# 6 0.000000 0.000000 0.000000 0.000000 0.000000 0.028994
#
#
# Mechanical properties :
#
#
# Convention : Reuss Voigt Hill
#
# Bulk Modulus (GPa) = 40.07402 40.08574 40.07988
# Shear Modulus (GPa) = -60.10421 7.46204 -26.32109
#
# Velocity S-wave (km/s) = -5.24780 1.84907 -3.47277
# Velocity P-wave (km/s) = 4.28457 4.78809 1.51134
#
# Compressibility (1/GPa) = 0.02495382
#
# Stress axis : x y z
#
# Youngs Moduli (GPa) = 80.52496 79.64696 78.96702
#
# Poissons Ratio (x) = 0.17259 0.14514
# Poissons Ratio (y) = 0.17449 0.18454
# Poissons Ratio (z) = 0.14800 0.18613
#
# Static dielectric constant tensor:
#      x y z
#    x 1.825730 0.000000 0.000000 
#    y 0.000000 1.865270 0.000000 
#    z 0.000000 0.000000 1.876090 
# 
# From -- ./inp_files/20912.got.cif
#   From: 2010.05.17/outbox.cif.g08.bks.cpg/sg56_11_cif.got.tgz:20912.got - 2010.06.03 13:42:01.
