data_PCOD9433471
_publ_section_title
;
Structure prediction by ZEFSAII (Michael W. Deem and Ramdas Pophale) SiO2 
 PCOD9433471
Probable space group: P C C N
;
_chemical_formula_sum "Si O2"
_cell_formula_units_Z 48
_cell_length_a 17.381044
_cell_length_b 6.708070
_cell_length_c 21.019507
_cell_angle_alpha 90.000000
_cell_angle_beta 90.000000
_cell_angle_gamma 90.000000
_cell_volume 2450.732841
_symmetry_space_group_name_H-M "P C C N"
_symmetry_group_IT_number 56
_symmetry_cell_setting 'orthorhombic'
loop_
_space_group_symop_operation_xyz
x,y,z
1/2-x,1/2-y,z
1/2+x,-y,1/2-z
-x,1/2+y,1/2-z
-x,-y,-z
1/2+x,1/2+y,-z
1/2-x,y,1/2+z
x,1/2-y,1/2+z
loop_
_atom_site_type_symbol
_atom_site_label
_atom_site_fract_x
_atom_site_fract_y
_atom_site_fract_z
Si Si1 0.304749 0.560388 0.064816
Si Si2 0.105129 0.109537 0.380198
Si Si3 0.104879 0.371406 0.252227
Si Si4 0.750000 0.750000 0.040223
Si Si5 0.960722 0.284145 0.671648
Si Si6 0.982343 0.400166 0.432585
Si Si7 0.250000 0.250000 0.670012
O O1 0.250000 0.750000 0.061225
O O2 0.391744 0.636723 0.069431
O O3 0.284614 0.422506 0.125208
O O4 0.290143 0.416234 0.004353
O O5 0.107514 0.223291 0.312572
O O6 0.184116 0.149707 0.417045
O O7 0.035197 0.208108 0.419969
O O8 0.087003 0.880773 0.366198
O O9 0.092220 0.592546 0.279585
O O10 0.181804 0.340690 0.212238
O O11 0.030464 0.318197 0.209773
O O12 0.995809 0.443182 0.622591
O O13 0.000000 0.500000 0.500000
#
# Coordination Sequence:
#
# PCOD9433471 Si02
#       7
#     8   8   8   4   8   8   4
#     4  11  26  42  67  98 137 176 224 282 342 409
#     4  11  25  42  70  96 135 177 225 282 338 411
#     4  11  23  43  66  98 132 173 224 276 338 412
#     4  11  25  46  62  98 137 177 224 284 342 407
#     4  11  24  42  73  96 135 178 224 282 341 410
#     4  11  24  45  67 103 130 179 232 277 339 414
#     4  11  25  44  66  96 139 173 218 282 342 403
#
# _framework density 19.585978999999998
#
# number of rings (size 3 to 8) (size 9 to 14) (size 15 to 20)
#    0.000    1.000    5.000    0.500    4.667    2.000 
#    0.000    3.333    0.000    0.000    0.000    0.000 
#    0.000    0.000    0.000    0.000    0.000    0.000 
#
# Total GULP energy -268538.534095 kJ/mol
# GULP energy per Si atom -5594.552794 kJ/mol
# Density = 1.954140 g / cm^3
# Si number density = 19.585979 Si / 1000 Ang^3
#
#
#
# Elastic Constant Matrix: (Units=GPa)
#
#
# Indices 1 2 3 4 5 6 
#
# 1 161.2114 54.3765 48.8054 0.0000 0.0000 0.0000
# 2 54.3765 102.2538 25.3204 0.0000 0.0000 0.0000
# 3 48.8054 25.3204 88.3220 0.0000 0.0000 0.0000
# 4 0.0000 0.0000 0.0000 21.9611 0.0000 0.0000
# 5 0.0000 0.0000 0.0000 0.0000 33.1604 0.0000
# 6 0.0000 0.0000 0.0000 0.0000 0.0000 28.8063
#
#
#
# Elastic Compliance Matrix: (Units=1/GPa)
#
#
# Indices 1 2 3 4 5 6 
#
# 1 0.008542 -0.003631 -0.003679 0.000000 0.000000 0.000000
# 2 -0.003631 0.012071 -0.001454 0.000000 0.000000 0.000000
# 3 -0.003679 -0.001454 0.013772 0.000000 0.000000 0.000000
# 4 0.000000 0.000000 0.000000 0.045535 0.000000 0.000000
# 5 0.000000 0.000000 0.000000 0.000000 0.030156 0.000000
# 6 0.000000 0.000000 0.000000 0.000000 0.000000 0.034715
#
#
# Mechanical properties :
#
#
# Convention : Reuss Voigt Hill
#
# Bulk Modulus (GPa) = 59.32593 67.64355 63.48474
# Shear Modulus (GPa) = 29.77305 31.67123 30.72214
#
# Velocity S-wave (km/s) = 3.90310 4.02560 3.96482
# Velocity P-wave (km/s) = 7.11815 7.49793 7.31051
#
# Compressibility (1/GPa) = 0.01685604
#
# Stress axis : x y z
#
# Youngs Moduli (GPa) = 117.07358 82.84567 72.61146
#
# Poissons Ratio (x) = 0.30084 0.26713
# Poissons Ratio (y) = 0.42513 0.10557
# Poissons Ratio (z) = 0.43071 0.12045
#
# Static dielectric constant tensor:
#      x y z
#    x 1.657420 0.000000 0.000000 
#    y 0.000000 1.677430 0.000000 
#    z 0.000000 0.000000 1.677560 
# 
# From -- ./inp_files/21251.got.cif
#   From: 2010.05.17/outbox.cif.g08.bks.cpg/sg56_11_cif.got.tgz:21251.got - 2010.06.03 13:42:01.
