data_PCOD9433413
_publ_section_title
;
Structure prediction by ZEFSAII (Michael W. Deem and Ramdas Pophale) SiO2 
 PCOD9433413
Probable space group: P C C N
;
_chemical_formula_sum "Si O2"
_cell_formula_units_Z 36
_cell_length_a 4.873241
_cell_length_b 11.414130
_cell_length_c 25.775626
_cell_angle_alpha 90.000000
_cell_angle_beta 90.000000
_cell_angle_gamma 90.000000
_cell_volume 1433.738428
_symmetry_space_group_name_H-M "P C C N"
_symmetry_group_IT_number 56
_symmetry_cell_setting 'orthorhombic'
loop_
_space_group_symop_operation_xyz
x,y,z
1/2-x,1/2-y,z
1/2+x,-y,1/2-z
-x,1/2+y,1/2-z
-x,-y,-z
1/2+x,1/2+y,-z
1/2-x,y,1/2+z
x,1/2-y,1/2+z
loop_
_atom_site_type_symbol
_atom_site_label
_atom_site_fract_x
_atom_site_fract_y
_atom_site_fract_z
Si Si1 0.532630 0.023585 0.283029
Si Si2 0.280614 0.554958 0.039550
Si Si3 0.250000 0.750000 0.112212
Si Si4 0.146559 0.128136 0.116779
Si Si5 0.750000 0.250000 0.533993
Si Si6 0.250000 0.250000 0.823383
O O1 0.404239 0.150191 0.292239
O O2 0.834349 0.034107 0.259473
O O3 0.533812 0.950038 0.336407
O O4 0.403020 0.649686 0.079418
O O5 0.168488 0.457631 0.079998
O O6 0.500000 0.500000 0.000000
O O7 0.114657 0.649123 0.003648
O O8 0.500153 0.805726 0.143595
O O9 0.250000 0.250000 0.141143
O O10 0.945573 0.180613 0.072912
#
# Coordination Sequence:
#
# PCOD9433413 Si02
#       6
#     8   8   4   8   4   4
#     4  12  30  52  80 115 150 205 269 332 403 470
#     4   9  20  46  66 115 151 203 253 303 385 462
#     4  11  22  46  77 104 150 199 252 306 379 462
#     4  11  25  45  73 111 156 201 254 328 388 468
#     4   9  22  42  77 104 162 199 254 314 389 470
#     4  12  26  50  78 106 146 200 250 326 388 468
#
# _framework density 25.109183000000002
#
# number of rings (size 3 to 8) (size 9 to 14) (size 15 to 20)
#    0.000    1.333    2.222    1.333    4.667    0.889 
#   18.000    0.000    0.000    0.000    0.000    0.000 
#    0.000    0.000    0.000    0.000    0.000    0.000 
#
# Total GULP energy -200662.328700 kJ/mol
# GULP energy per Si atom -5573.953575 kJ/mol
# Density = 2.505203 g / cm^3
# Si number density = 25.109183 Si / 1000 Ang^3
#
#
#
# Elastic Constant Matrix: (Units=GPa)
#
#
# Indices 1 2 3 4 5 6 
#
# 1 55.3243 10.8627 25.8527 0.0000 0.0000 0.0000
# 2 10.8627 156.9003 77.2457 0.0000 0.0000 0.0000
# 3 25.8527 77.2457 120.4698 0.0000 0.0000 0.0000
# 4 0.0000 0.0000 0.0000 49.0274 0.0000 0.0000
# 5 0.0000 0.0000 0.0000 0.0000 44.7591 0.0000
# 6 0.0000 0.0000 0.0000 0.0000 0.0000 30.2237
#
#
#
# Elastic Compliance Matrix: (Units=1/GPa)
#
#
# Indices 1 2 3 4 5 6 
#
# 1 0.020213 0.001076 -0.005028 0.000000 0.000000 0.000000
# 2 0.001076 0.009371 -0.006239 0.000000 0.000000 0.000000
# 3 -0.005028 -0.006239 0.013381 0.000000 0.000000 0.000000
# 4 0.000000 0.000000 0.000000 0.020397 0.000000 0.000000
# 5 0.000000 0.000000 0.000000 0.000000 0.022342 0.000000
# 6 0.000000 0.000000 0.000000 0.000000 0.000000 0.033087
#
#
# Mechanical properties :
#
#
# Convention : Reuss Voigt Hill
#
# Bulk Modulus (GPa) = 44.28273 62.29074 53.28674
# Shear Modulus (GPa) = 34.08319 39.38425 36.73372
#
# Velocity S-wave (km/s) = 3.68829 3.96475 3.82902
# Velocity P-wave (km/s) = 5.98434 6.76911 6.38878
#
# Compressibility (1/GPa) = 0.02258217
#
# Stress axis : x y z
#
# Youngs Moduli (GPa) = 49.47226 106.71403 74.73555
#
# Poissons Ratio (x) = -0.11480 0.37574
# Poissons Ratio (y) = -0.05322 0.46631
# Poissons Ratio (z) = 0.24872 0.66584
#
# Static dielectric constant tensor:
#      x y z
#    x 1.967190 0.000000 0.000000 
#    y 0.000000 2.088550 0.000000 
#    z 0.000000 0.000000 2.052260 
# 
# From -- ./inp_files/19923.got.cif
#   From: 2010.05.17/outbox.cif.g08.bks.cpg/sg56_10_cif.got.tgz:19923.got - 2010.06.03 13:42:01.
