data_PCOD9433121
_publ_section_title
;
Structure prediction by ZEFSAII (Michael W. Deem and Ramdas Pophale) SiO2 
 PCOD9433121
Probable space group: P C C N
;
_chemical_formula_sum "Si O2"
_cell_formula_units_Z 40
_cell_length_a 14.666479
_cell_length_b 9.854636
_cell_length_c 9.979219
_cell_angle_alpha 90.000000
_cell_angle_beta 90.000000
_cell_angle_gamma 90.000000
_cell_volume 1442.324583
_symmetry_space_group_name_H-M "P C C N"
_symmetry_group_IT_number 56
_symmetry_cell_setting 'orthorhombic'
loop_
_space_group_symop_operation_xyz
x,y,z
1/2-x,1/2-y,z
1/2+x,-y,1/2-z
-x,1/2+y,1/2-z
-x,-y,-z
1/2+x,1/2+y,-z
1/2-x,y,1/2+z
x,1/2-y,1/2+z
loop_
_atom_site_type_symbol
_atom_site_label
_atom_site_fract_x
_atom_site_fract_y
_atom_site_fract_z
Si Si1 0.928831 0.198131 0.703460
Si Si2 0.435231 0.450193 0.882660
Si Si3 0.247788 0.961371 0.763412
Si Si4 0.161715 0.326449 0.944819
Si Si5 0.407816 0.589377 0.576002
O O1 0.002129 0.086375 0.753384
O O2 0.827090 0.147885 0.735470
O O3 0.947413 0.331206 0.793077
O O4 0.090679 0.060374 0.504352
O O5 0.341117 0.534742 0.861204
O O6 0.397267 0.303607 0.917748
O O7 0.500000 0.500000 0.000000
O O8 0.198108 0.939998 0.622288
O O9 0.298088 0.099119 0.812134
O O10 0.250000 0.250000 0.015092
O O11 0.923282 0.303612 0.043367
#
# Coordination Sequence:
#
# PCOD9433121 Si02
#       5
#     8   8   8   8   8
#     4  11  28  48  85 122 174 227 299 361 451 522
#     4  11  27  51  85 132 179 233 297 372 446 552
#     4  10  25  49  80 118 173 233 291 360 443 527
#     4   9  23  49  80 121 167 230 290 358 445 534
#     4  11  26  50  81 121 170 231 291 364 440 533
#
# _framework density 27.733011000000001
#
# number of rings (size 3 to 8) (size 9 to 14) (size 15 to 20)
#    0.000    1.600    0.000    0.600   11.200   12.000 
#    7.200    0.000    0.000    0.000    0.000    0.000 
#    0.000    0.000    0.000    0.000    0.000    0.000 
#
# Total GULP energy -222817.431166 kJ/mol
# GULP energy per Si atom -5570.435779 kJ/mol
# Density = 2.766989 g / cm^3
# Si number density = 27.733011 Si / 1000 Ang^3
#
#
#
# Elastic Constant Matrix: (Units=GPa)
#
#
# Indices 1 2 3 4 5 6 
#
# 1 44.9837 32.0384 -2.7098 0.0000 0.0000 0.0000
# 2 32.0384 187.2163 41.9521 0.0000 0.0000 0.0000
# 3 -2.7098 41.9521 129.2396 0.0000 0.0000 0.0000
# 4 0.0000 0.0000 0.0000 18.5593 0.0000 0.0000
# 5 0.0000 0.0000 0.0000 0.0000 -84.3242 0.0000
# 6 0.0000 0.0000 0.0000 0.0000 0.0000 87.7777
#
#
#
# Elastic Compliance Matrix: (Units=1/GPa)
#
#
# Indices 1 2 3 4 5 6 
#
# 1 0.025850 -0.004902 0.002133 0.000000 0.000000 0.000000
# 2 -0.004902 0.006690 -0.002274 0.000000 0.000000 0.000000
# 3 0.002133 -0.002274 0.008521 0.000000 0.000000 0.000000
# 4 0.000000 0.000000 0.000000 0.053881 0.000000 0.000000
# 5 0.000000 0.000000 0.000000 0.000000 -0.011859 0.000000
# 6 0.000000 0.000000 0.000000 0.000000 0.000000 0.011392
#
#
# Mechanical properties :
#
#
# Convention : Reuss Voigt Hill
#
# Bulk Modulus (GPa) = 32.28464 56.00011 44.14238
# Shear Modulus (GPa) = 43.52143 23.74647 33.63395
#
# Velocity S-wave (km/s) = 3.96574 2.92935 3.48627
# Velocity P-wave (km/s) = 5.71279 5.62831 5.67071
#
# Compressibility (1/GPa) = 0.03097448
#
# Stress axis : x y z
#
# Youngs Moduli (GPa) = 38.68487 149.47922 117.36306
#
# Poissons Ratio (x) = 0.73270 -0.25035
# Poissons Ratio (y) = 0.18962 0.26693
# Poissons Ratio (z) = -0.08252 0.33997
#
# Static dielectric constant tensor:
#      x y z
#    x 2.241490 0.000000 0.000000 
#    y 0.000000 0.856120 0.000000 
#    z 0.000000 0.000000 2.344240 
# 
# From -- ./inp_files/11440.got.cif
#   From: 2010.05.17/outbox.cif.g08.bks.cpg/sg56_6_cif.got.tgz:11440.got - 2010.06.03 13:42:01.
