data_PCOD9433297
_publ_section_title
;
Structure prediction by ZEFSAII (Michael W. Deem and Ramdas Pophale) SiO2 
 PCOD9433297
Probable space group: P C C N
;
_chemical_formula_sum "Si O2"
_cell_formula_units_Z 60
_cell_length_a 9.104513
_cell_length_b 11.076780
_cell_length_c 26.743499
_cell_angle_alpha 90.000000
_cell_angle_beta 90.000000
_cell_angle_gamma 90.000000
_cell_volume 2697.046774
_symmetry_space_group_name_H-M "P C C N"
_symmetry_group_IT_number 56
_symmetry_cell_setting 'orthorhombic'
loop_
_space_group_symop_operation_xyz
x,y,z
1/2-x,1/2-y,z
1/2+x,-y,1/2-z
-x,1/2+y,1/2-z
-x,-y,-z
1/2+x,1/2+y,-z
1/2-x,y,1/2+z
x,1/2-y,1/2+z
loop_
_atom_site_type_symbol
_atom_site_label
_atom_site_fract_x
_atom_site_fract_y
_atom_site_fract_z
Si Si1 0.414138 0.272532 0.187811
Si Si2 0.250000 0.250000 0.506638
Si Si3 0.387126 0.419681 0.086217
Si Si4 0.051960 0.425063 0.952006
Si Si5 0.291972 0.893179 0.408406
Si Si6 0.814811 0.118238 0.365824
Si Si7 0.991018 0.029555 0.712354
Si Si8 0.848095 0.038962 0.205709
O O1 0.250000 0.250000 0.208952
O O2 0.389168 0.331142 0.133928
O O3 0.493636 0.146921 0.178064
O O4 0.533599 0.352532 0.218148
O O5 0.209753 0.361131 0.542892
O O6 0.377391 0.301155 0.471724
O O7 0.552617 0.420146 0.065034
O O8 0.319235 0.538060 0.111918
O O9 0.167955 0.517494 0.927707
O O10 0.931611 0.389964 0.910951
O O11 0.000000 0.500000 0.000000
O O12 0.250000 0.750000 0.410381
O O13 0.327539 0.938375 0.352420
O O14 0.750000 0.250000 0.355086
O O15 0.902145 0.063708 0.317420
O O16 0.818940 0.016337 0.722317
O O17 0.062578 0.064361 0.765899
#
# Coordination Sequence:
#
# PCOD9433297 Si02
#       8
#     8   4   8   8   8   8   8   8
#     4  11  21  42  77 105 141 187 251 307 366 447
#     4  12  24  44  74 104 146 190 248 308 358 452
#     4  11  23  45  76 104 136 196 253 302 370 442
#     4  12  27  48  73 107 149 195 248 307 376 446
#     4  11  25  46  76 109 145 189 248 313 369 452
#     4  12  28  48  72 106 155 199 244 315 382 453
#     4  12  24  47  70 110 148 191 249 311 376 447
#     4  11  25  42  74 110 145 193 245 306 373 442
#
# _framework density 22.246555000000001
#
# number of rings (size 3 to 8) (size 9 to 14) (size 15 to 20)
#    0.000    0.533    4.667    3.600    3.733    3.733 
#    0.000    0.000    0.000    0.000    0.000    0.000 
#    0.000    0.000    0.000    0.000    0.000    0.000 
#
# Total GULP energy -334433.512413 kJ/mol
# GULP energy per Si atom -5573.891874 kJ/mol
# Density = 2.219592 g / cm^3
# Si number density = 22.246555 Si / 1000 Ang^3
#
#
#
# Elastic Constant Matrix: (Units=GPa)
#
#
# Indices 1 2 3 4 5 6 
#
# 1 126.7962 11.4129 29.0820 0.0000 0.0000 0.0000
# 2 11.4129 58.7197 17.4942 0.0000 0.0000 0.0000
# 3 29.0820 17.4942 62.1011 0.0000 0.0000 0.0000
# 4 0.0000 0.0000 0.0000 -355.8360 0.0000 0.0000
# 5 0.0000 0.0000 0.0000 0.0000 39.1054 0.0000
# 6 0.0000 0.0000 0.0000 0.0000 0.0000 51.3302
#
#
#
# Elastic Compliance Matrix: (Units=1/GPa)
#
#
# Indices 1 2 3 4 5 6 
#
# 1 0.008851 -0.000530 -0.003996 0.000000 0.000000 0.000000
# 2 -0.000530 0.018622 -0.004998 0.000000 0.000000 0.000000
# 3 -0.003996 -0.004998 0.019382 0.000000 0.000000 0.000000
# 4 0.000000 0.000000 0.000000 -0.002810 0.000000 0.000000
# 5 0.000000 0.000000 0.000000 0.000000 0.025572 0.000000
# 6 0.000000 0.000000 0.000000 0.000000 0.000000 0.019482
#
#
# Mechanical properties :
#
#
# Convention : Reuss Voigt Hill
#
# Bulk Modulus (GPa) = 35.96065 40.39947 38.18006
# Shear Modulus (GPa) = 42.58441 -40.43823 1.07309
#
# Velocity S-wave (km/s) = 4.37991 -4.26811 0.69528
# Velocity P-wave (km/s) = 6.46357 2.46773 4.22422
#
# Compressibility (1/GPa) = 0.02780817
#
# Stress axis : x y z
#
# Youngs Moduli (GPa) = 112.98426 53.69980 51.59472
#
# Poissons Ratio (x) = 0.02845 0.20615
# Poissons Ratio (y) = 0.05987 0.25786
# Poissons Ratio (z) = 0.45144 0.26838
#
# Static dielectric constant tensor:
#      x y z
#    x 2.014090 0.000000 0.000000 
#    y 0.000000 1.729010 0.000000 
#    z 0.000000 0.000000 1.930870 
# 
# From -- ./inp_files/22111.got.cif
#   From: 2010.05.17/outbox.cif.g08.bks.cpg/sg56_12_cif.got.tgz:22111.got - 2010.06.03 13:42:01.
