data_PCOD9433679
_publ_section_title
;
Structure prediction by ZEFSAII (Michael W. Deem and Ramdas Pophale) SiO2 
 PCOD9433679
Probable space group: P C C N
;
_chemical_formula_sum "Si O2"
_cell_formula_units_Z 40
_cell_length_a 16.303552
_cell_length_b 10.811956
_cell_length_c 8.716782
_cell_angle_alpha 90.000000
_cell_angle_beta 90.000000
_cell_angle_gamma 90.000000
_cell_volume 1536.535814
_symmetry_space_group_name_H-M "P C C N"
_symmetry_group_IT_number 56
_symmetry_cell_setting 'orthorhombic'
loop_
_space_group_symop_operation_xyz
x,y,z
1/2-x,1/2-y,z
1/2+x,-y,1/2-z
-x,1/2+y,1/2-z
-x,-y,-z
1/2+x,1/2+y,-z
1/2-x,y,1/2+z
x,1/2-y,1/2+z
loop_
_atom_site_type_symbol
_atom_site_label
_atom_site_fract_x
_atom_site_fract_y
_atom_site_fract_z
Si Si1 0.206284 0.455525 0.281025
Si Si2 0.505809 0.138657 0.880524
Si Si3 0.287714 0.884348 0.562903
Si Si4 0.939344 0.378065 0.202396
Si Si5 0.166672 0.213140 0.419290
O O1 0.183048 0.561865 0.401226
O O2 0.217903 0.519220 0.119731
O O3 0.151840 0.336671 0.318591
O O4 0.295293 0.394310 0.315965
O O5 0.521852 0.251048 0.766380
O O6 0.420691 0.168626 0.972288
O O7 0.490599 0.008195 0.793568
O O8 0.571080 0.136316 0.018650
O O9 0.250000 0.750000 0.547956
O O10 0.358135 0.886152 0.692149
O O11 0.250000 0.250000 0.515575
#
# Coordination Sequence:
#
# PCOD9433679 Si02
#       5
#     8   8   8   8   8
#     4   9  23  40  70  97 127 166 232 282 333 397
#     4  11  25  48  68 102 143 187 228 295 345 432
#     4  12  25  43  65  99 136 175 224 279 347 411
#     4  11  28  45  69  99 147 183 236 280 363 417
#     4   8  20  43  74  95 126 170 234 285 329 397
#
# _framework density 26.032584
#
# number of rings (size 3 to 8) (size 9 to 14) (size 15 to 20)
#    1.200    0.400    2.000    0.600    8.400    7.200 
#    0.000    0.000    0.000    0.000    0.000    0.000 
#    0.000    0.000    0.000    0.000    0.000    0.000 
#
# Total GULP energy -223317.317512 kJ/mol
# GULP energy per Si atom -5582.932938 kJ/mol
# Density = 2.597333 g / cm^3
# Si number density = 26.032584 Si / 1000 Ang^3
#
#
#
# Elastic Constant Matrix: (Units=GPa)
#
#
# Indices 1 2 3 4 5 6 
#
# 1 79.0014 43.6976 35.9428 0.0000 0.0000 0.0000
# 2 43.6976 227.4130 62.6197 0.0000 0.0000 0.0000
# 3 35.9428 62.6197 79.1795 0.0000 0.0000 0.0000
# 4 0.0000 0.0000 0.0000 43.9132 0.0000 0.0000
# 5 0.0000 0.0000 0.0000 0.0000 30.8550 0.0000
# 6 0.0000 0.0000 0.0000 0.0000 0.0000 32.0203
#
#
#
# Elastic Compliance Matrix: (Units=1/GPa)
#
#
# Indices 1 2 3 4 5 6 
#
# 1 0.016293 -0.001399 -0.006290 0.000000 0.000000 0.000000
# 2 -0.001399 0.005742 -0.003906 0.000000 0.000000 0.000000
# 3 -0.006290 -0.003906 0.018574 0.000000 0.000000 0.000000
# 4 0.000000 0.000000 0.000000 0.022772 0.000000 0.000000
# 5 0.000000 0.000000 0.000000 0.000000 0.032410 0.000000
# 6 0.000000 0.000000 0.000000 0.000000 0.000000 0.031230
#
#
# Mechanical properties :
#
#
# Convention : Reuss Voigt Hill
#
# Bulk Modulus (GPa) = 57.40673 74.45713 65.93193
# Shear Modulus (GPa) = 32.04791 37.57997 34.81394
#
# Velocity S-wave (km/s) = 3.51247 3.80356 3.66091
# Velocity P-wave (km/s) = 6.20884 6.92481 6.57658
#
# Compressibility (1/GPa) = 0.01741956
#
# Stress axis : x y z
#
# Youngs Moduli (GPa) = 61.37439 174.16908 53.83951
#
# Poissons Ratio (x) = 0.24363 0.33865
# Poissons Ratio (y) = 0.08585 0.21028
# Poissons Ratio (z) = 0.38604 0.68026
#
# Static dielectric constant tensor:
#      x y z
#    x 2.062140 0.000000 0.000000 
#    y 0.000000 2.038420 0.000000 
#    z 0.000000 0.000000 2.003470 
# 
# From -- ./inp_files/3895.got.cif
#   From: 2010.05.17/outbox.cif.g08.bks.cpg/sg56_2_cif.got.tgz:3895.got - 2010.06.03 13:42:01.
