data_PCOD9433699
_publ_section_title
;
Structure prediction by ZEFSAII (Michael W. Deem and Ramdas Pophale) SiO2 
 PCOD9433699
Probable space group: P C C N
;
_chemical_formula_sum "Si O2"
_cell_formula_units_Z 28
_cell_length_a 4.980515
_cell_length_b 7.967903
_cell_length_c 30.819411
_cell_angle_alpha 90.000000
_cell_angle_beta 90.000000
_cell_angle_gamma 90.000000
_cell_volume 1223.045532
_symmetry_space_group_name_H-M "P C C N"
_symmetry_group_IT_number 56
_symmetry_cell_setting 'orthorhombic'
loop_
_space_group_symop_operation_xyz
x,y,z
1/2-x,1/2-y,z
1/2+x,-y,1/2-z
-x,1/2+y,1/2-z
-x,-y,-z
1/2+x,1/2+y,-z
1/2-x,y,1/2+z
x,1/2-y,1/2+z
loop_
_atom_site_type_symbol
_atom_site_label
_atom_site_fract_x
_atom_site_fract_y
_atom_site_fract_z
Si Si1 0.432377 0.582504 0.311756
Si Si2 0.111346 0.932492 0.045321
Si Si3 0.610994 0.429366 0.590194
Si Si4 0.750000 0.750000 0.733653
O O1 0.250000 0.750000 0.316220
O O2 0.519067 0.558850 0.361582
O O3 0.349634 0.395678 0.298061
O O4 0.590539 0.638524 0.268819
O O5 0.250000 0.750000 0.042881
O O6 0.361021 0.047951 0.058887
O O7 0.859211 0.945345 0.078866
O O8 0.000000 0.000000 0.000000
O O9 0.750000 0.250000 0.585000
#
# Coordination Sequence:
#
# PCOD9433699 Si02
#       4
#     8   8   8   4
#     4  11  26  44  71 109 151 197 254 307 377 440
#     4  12  27  50  76 110 149 194 247 307 379 454
#     4  11  27  48  76 110 152 196 247 311 371 446
#     4  12  24  46  70 104 150 202 252 312 372 444
#
# _framework density 22.893671000000001
#
# number of rings (size 3 to 8) (size 9 to 14) (size 15 to 20)
#    0.000    0.571    2.857    3.429   12.000    2.286 
#    0.000    0.000    0.000    0.000    0.000    0.000 
#    0.000    0.000    0.000    0.000    0.000    0.000 
#
# Total GULP energy -155971.614284 kJ/mol
# GULP energy per Si atom -5570.414796 kJ/mol
# Density = 2.284156 g / cm^3
# Si number density = 22.893671 Si / 1000 Ang^3
#
#
#
# Elastic Constant Matrix: (Units=GPa)
#
#
# Indices 1 2 3 4 5 6 
#
# 1 91.6219 39.3472 48.6288 0.0000 0.0000 0.0000
# 2 39.3472 186.7813 56.8856 0.0000 0.0000 0.0000
# 3 48.6288 56.8856 137.3187 0.0000 0.0000 0.0000
# 4 0.0000 0.0000 0.0000 35.0907 0.0000 0.0000
# 5 0.0000 0.0000 0.0000 0.0000 48.9869 0.0000
# 6 0.0000 0.0000 0.0000 0.0000 0.0000 44.1444
#
#
#
# Elastic Compliance Matrix: (Units=1/GPa)
#
#
# Indices 1 2 3 4 5 6 
#
# 1 0.013862 -0.001631 -0.004233 0.000000 0.000000 0.000000
# 2 -0.001631 0.006319 -0.002040 0.000000 0.000000 0.000000
# 3 -0.004233 -0.002040 0.009627 0.000000 0.000000 0.000000
# 4 0.000000 0.000000 0.000000 0.028498 0.000000 0.000000
# 5 0.000000 0.000000 0.000000 0.000000 0.020414 0.000000
# 6 0.000000 0.000000 0.000000 0.000000 0.000000 0.022653
#
#
# Mechanical properties :
#
#
# Convention : Reuss Voigt Hill
#
# Bulk Modulus (GPa) = 71.43548 78.38276 74.90912
# Shear Modulus (GPa) = 41.03560 43.70176 42.36868
#
# Velocity S-wave (km/s) = 4.23832 4.37384 4.30661
# Velocity P-wave (km/s) = 7.43115 7.73430 7.58424
#
# Compressibility (1/GPa) = 0.01399865
#
# Stress axis : x y z
#
# Youngs Moduli (GPa) = 72.14181 158.25995 103.87913
#
# Poissons Ratio (x) = 0.25809 0.43975
# Poissons Ratio (y) = 0.11765 0.21192
# Poissons Ratio (z) = 0.30539 0.32286
#
# Static dielectric constant tensor:
#      x y z
#    x 1.953310 0.000000 0.000000 
#    y 0.000000 1.815470 0.000000 
#    z 0.000000 0.000000 1.882930 
# 
# From -- ./inp_files/21897.got.cif
#   From: 2010.05.17/outbox.cif.g08.bks.cpg/sg56_11_cif.got.tgz:21897.got - 2010.06.03 13:42:01.
