data_PCOD9433950
_publ_section_title
;
Structure prediction by ZEFSAII (Michael W. Deem and Ramdas Pophale) SiO2 
 PCOD9433950
Probable space group: P C C N
;
_chemical_formula_sum "Si O2"
_cell_formula_units_Z 48
_cell_length_a 15.000000
_cell_length_b 9.000000
_cell_length_c 18.000000
_cell_angle_alpha 90.000000
_cell_angle_beta 90.000000
_cell_angle_gamma 90.000000
_cell_volume 2430.000000
_symmetry_space_group_name_H-M "P C C N"
_symmetry_group_IT_number 56
_symmetry_cell_setting 'orthorhombic'
loop_
_space_group_symop_operation_xyz
x,y,z
1/2-x,1/2-y,z
1/2+x,-y,1/2-z
-x,1/2+y,1/2-z
-x,-y,-z
1/2+x,1/2+y,-z
1/2-x,y,1/2+z
x,1/2-y,1/2+z
loop_
_atom_site_type_symbol
_atom_site_label
_atom_site_fract_x
_atom_site_fract_y
_atom_site_fract_z
Si Si1 0.004546 0.857700 0.349391
Si Si2 0.498533 0.799922 0.193011
Si Si3 0.849398 0.676039 0.436843
Si Si4 0.706763 0.408798 0.670606
Si Si5 0.325406 0.620794 0.159850
Si Si6 0.837462 0.651199 0.606383
O O1 0.928583 0.784193 0.403449
O O2 0.004779 0.743939 0.279813
O O3 0.110132 0.888053 0.371047
O O4 0.981206 0.025338 0.321818
O O5 0.418005 0.708655 0.157237
O O6 0.590198 0.734700 0.158024
O O7 0.750000 0.750000 0.433494
O O8 0.834868 0.520166 0.393983
O O9 0.873565 0.638908 0.522546
O O10 0.750000 0.250000 0.674831
O O11 0.685777 0.447966 0.756730
O O12 0.788618 0.506048 0.638861
O O13 0.250000 0.750000 0.147011
O O14 0.750000 0.750000 0.599993
#
# Coordination Sequence:
#
# PCOD9433950 Si02
#       6
#     8   8   8   8   8   8
#     4  11  23  43  67 100 131 173 227 282 331 398
#     4  11  24  40  71  98 131 174 225 277 335 398
#     4  11  26  43  65  98 134 174 222 274 340 403
#     4  10  23  41  68  94 132 176 223 274 330 400
#     4  10  23  43  66 101 130 177 227 279 329 391
#     4  11  25  45  63  98 133 179 220 264 347 404
#
# _framework density 19.753086
#
# number of rings (size 3 to 8) (size 9 to 14) (size 15 to 20)
#    0.000    1.333    1.667    3.000   11.667    2.000 
#    3.000    0.000    0.000    0.000    0.000    0.000 
#    0.000    0.000    0.000    0.000    0.000    0.000 
#
# Total GULP energy -267468.052413 kJ/mol
# GULP energy per Si atom -5572.251092 kJ/mol
# Density = 1.970813 g / cm^3
# Si number density = 19.753086 Si / 1000 Ang^3
#
#
#
# Elastic Constant Matrix: (Units=GPa)
#
#
# Indices 1 2 3 4 5 6 
#
# 1 108.3916 10.2409 20.5150 0.0000 0.0000 0.0000
# 2 10.2409 88.5616 45.7970 0.0000 0.0000 0.0000
# 3 20.5150 45.7970 57.4922 0.0000 0.0000 0.0000
# 4 0.0000 0.0000 0.0000 15.5862 0.0000 0.0000
# 5 0.0000 0.0000 0.0000 0.0000 26.4759 0.0000
# 6 0.0000 0.0000 0.0000 0.0000 0.0000 45.2841
#
#
#
# Elastic Compliance Matrix: (Units=1/GPa)
#
#
# Indices 1 2 3 4 5 6 
#
# 1 0.009964 0.001167 -0.004485 0.000000 0.000000 0.000000
# 2 0.001167 0.019338 -0.015821 0.000000 0.000000 0.000000
# 3 -0.004485 -0.015821 0.031597 0.000000 0.000000 0.000000
# 4 0.000000 0.000000 0.000000 0.064159 0.000000 0.000000
# 5 0.000000 0.000000 0.000000 0.000000 0.037770 0.000000
# 6 0.000000 0.000000 0.000000 0.000000 0.000000 0.022083
#
#
# Mechanical properties :
#
#
# Convention : Reuss Voigt Hill
#
# Bulk Modulus (GPa) = 44.20616 45.28346 44.74481
# Shear Modulus (GPa) = 21.67043 29.32873 25.49958
#
# Velocity S-wave (km/s) = 3.31579 3.85745 3.59683
# Velocity P-wave (km/s) = 6.08993 6.54327 6.32067
#
# Compressibility (1/GPa) = 0.02262128
#
# Stress axis : x y z
#
# Youngs Moduli (GPa) = 100.35660 51.71233 31.64902
#
# Poissons Ratio (x) = -0.06036 0.14196
# Poissons Ratio (y) = -0.11714 0.50071
# Poissons Ratio (z) = 0.45014 0.81812
#
# Static dielectric constant tensor:
#      x y z
#    x 1.675330 0.000000 0.000000 
#    y 0.000000 1.639220 0.000000 
#    z 0.000000 0.000000 1.759140 
# 
# From -- ./inp_files/16146.got.cif
#   From: 2010.05.17/outbox.ucp.g08.bks.cvg/sg56_9_cif.got.tgz:16146.got - 2010.06.11 16:37:52.
