data_PCOD9433976
_publ_section_title
;
Structure prediction by ZEFSAII (Michael W. Deem and Ramdas Pophale) SiO2 
 PCOD9433976
Probable space group: P B C M
;
_chemical_formula_sum "Si O2"
_cell_formula_units_Z 56
_cell_length_a 18.594597
_cell_length_b 8.197041
_cell_length_c 21.571343
_cell_angle_alpha 90.000000
_cell_angle_beta 90.000000
_cell_angle_gamma 90.000000
_cell_volume 3287.918639
_symmetry_space_group_name_H-M "P B C M"
_symmetry_group_IT_number 57
_symmetry_cell_setting 'orthorhombic'
loop_
_space_group_symop_operation_xyz
x,y,z
-x,-y,1/2+z
x,1/2-y,-z
-x,1/2+y,1/2-z
-x,-y,-z
x,y,1/2-z
-x,1/2+y,z
x,1/2-y,1/2+z
loop_
_atom_site_type_symbol
_atom_site_label
_atom_site_fract_x
_atom_site_fract_y
_atom_site_fract_z
Si Si1 0.846244 0.082038 0.433097
Si Si2 0.536732 0.563507 0.141624
Si Si3 0.606678 0.257073 0.817555
Si Si4 0.562729 0.650505 0.940001
Si Si5 0.917067 0.100009 0.570513
Si Si6 0.919733 0.731757 0.572382
Si Si7 0.677428 0.375073 0.555691
O O1 0.889499 0.084482 0.499026
O O2 0.869313 0.253128 0.401697
O O3 0.761742 0.085620 0.444878
O O4 0.871196 0.914436 0.400902
O O5 0.583434 0.432276 0.177838
O O6 0.467313 0.637981 0.176347
O O7 0.578654 0.717085 0.113601
O O8 0.502049 0.459738 0.085228
O O9 0.639208 0.290513 0.750000
O O10 0.653632 0.302387 0.877610
O O11 0.629929 0.536172 0.953635
O O12 0.540312 0.750000 0.000000
O O13 0.998589 0.165366 0.572924
O O14 0.913715 0.916573 0.597696
O O15 0.898894 0.750000 0.500000
O O16 0.661865 0.250000 0.500000
#
# Coordination Sequence:
#
# PCOD9433976 Si02
#       7
#     8   8   8   8   8   8   8
#     4  10  18  28  40  63 100 135 166 203 251 305
#     4   9  19  34  53  77  93 124 173 226 258 299
#     4  10  20  36  57  76  98 129 171 217 265 311
#     4  10  19  31  50  73 105 134 165 206 264 318
#     4  10  15  25  42  62  93 134 169 211 252 298
#     4  10  15  23  42  65  89 135 169 212 256 297
#     4  11  22  35  48  73 109 141 168 205 257 324
#
# _framework density 17.032052
#
# number of rings (size 3 to 8) (size 9 to 14) (size 15 to 20)
#    0.000    2.000    4.286    2.571    0.000    5.714 
#    2.571    0.714    0.000    0.000    0.000    0.000 
#    0.000    1.143    0.000    0.000    0.000    0.286 
#
# Total GULP energy -311854.731176 kJ/mol
# GULP energy per Si atom -5568.834485 kJ/mol
# Density = 1.699329 g / cm^3
# Si number density = 17.032052 Si / 1000 Ang^3
#
#
#
# Elastic Constant Matrix: (Units=GPa)
#
#
# Indices 1 2 3 4 5 6 
#
# 1 59.1020 34.2340 17.9565 0.0000 0.0000 0.0000
# 2 34.2340 152.0871 21.5053 0.0000 0.0000 0.0000
# 3 17.9565 21.5053 65.0942 0.0000 0.0000 0.0000
# 4 0.0000 0.0000 0.0000 4.2586 0.0000 0.0000
# 5 0.0000 0.0000 0.0000 0.0000 -1.2411 0.0000
# 6 0.0000 0.0000 0.0000 0.0000 0.0000 18.4451
#
#
#
# Elastic Compliance Matrix: (Units=1/GPa)
#
#
# Indices 1 2 3 4 5 6 
#
# 1 0.020566 -0.004015 -0.004347 0.000000 0.000000 0.000000
# 2 -0.004015 0.007681 -0.001430 0.000000 0.000000 0.000000
# 3 -0.004347 -0.001430 0.017034 0.000000 0.000000 0.000000
# 4 0.000000 0.000000 0.000000 0.234820 0.000000 0.000000
# 5 0.000000 0.000000 0.000000 0.000000 -0.805769 0.000000
# 6 0.000000 0.000000 0.000000 0.000000 0.000000 0.054215
#
#
# Mechanical properties :
#
#
# Convention : Reuss Voigt Hill
#
# Bulk Modulus (GPa) = 38.91407 47.07499 42.99453
# Shear Modulus (GPa) = -11.27895 17.79836 3.25971
#
# Velocity S-wave (km/s) = -2.57615 3.23614 1.38493
# Velocity P-wave (km/s) = 3.74812 6.45465 5.27783
#
# Compressibility (1/GPa) = 0.02569765
#
# Stress axis : x y z
#
# Youngs Moduli (GPa) = 48.62395 130.19004 58.70635
#
# Poissons Ratio (x) = 0.52267 0.25519
# Poissons Ratio (y) = 0.19521 0.08396
# Poissons Ratio (z) = 0.21136 0.18619
#
# Static dielectric constant tensor:
#      x y z
#    x 1.563990 0.000000 0.000000 
#    y 0.000000 1.666370 0.000000 
#    z 0.000000 0.000000 1.579830 
# 
# From -- ./inp_files/25569.got.cif
#   From: 2010.05.17/outbox.cif.g08.bks.cpg/sg57_13_cif.got.tgz:25569.got - 2010.06.03 13:58:18.
