data_PCOD9433453
_publ_section_title
;
Structure prediction by ZEFSAII (Michael W. Deem and Ramdas Pophale) SiO2 
 PCOD9433453
Probable space group: P C C N
;
_chemical_formula_sum "Si O2"
_cell_formula_units_Z 32
_cell_length_a 28.649951
_cell_length_b 4.954931
_cell_length_c 8.924960
_cell_angle_alpha 90.000000
_cell_angle_beta 90.000000
_cell_angle_gamma 90.000000
_cell_volume 1266.974205
_symmetry_space_group_name_H-M "P C C N"
_symmetry_group_IT_number 56
_symmetry_cell_setting 'orthorhombic'
loop_
_space_group_symop_operation_xyz
x,y,z
1/2-x,1/2-y,z
1/2+x,-y,1/2-z
-x,1/2+y,1/2-z
-x,-y,-z
1/2+x,1/2+y,-z
1/2-x,y,1/2+z
x,1/2-y,1/2+z
loop_
_atom_site_type_symbol
_atom_site_label
_atom_site_fract_x
_atom_site_fract_y
_atom_site_fract_z
Si Si1 0.434486 0.922121 0.846928
Si Si2 0.666917 0.374288 0.601021
Si Si3 0.698369 0.873594 0.418482
Si Si4 0.026823 0.210288 0.106021
O O1 0.386494 0.775633 0.876162
O O2 0.481627 0.777719 0.792363
O O3 0.429981 0.127012 0.709809
O O4 0.451674 0.065272 0.997372
O O5 0.668243 0.621574 0.481979
O O6 0.684428 0.499087 0.758171
O O7 0.695197 0.119885 0.537332
O O8 0.750000 0.750000 0.408441
O O9 0.000000 0.000000 0.000000
#
# Coordination Sequence:
#
# PCOD9433453 Si02
#       4
#     8   8   8   8
#     4  11  25  40  71 102 147 201 249 298 368 432
#     4  12  28  48  83 114 156 200 264 317 379 483
#     4  12  28  53  79 116 150 198 251 330 403 463
#     4  11  23  42  64 102 152 196 240 303 355 431
#
# _framework density 25.257027000000001
#
# number of rings (size 3 to 8) (size 9 to 14) (size 15 to 20)
#    0.000    0.500    2.500    4.500    7.000    2.000 
#    0.000    1.250    0.000    0.000    0.000    0.000 
#    0.000    0.000    0.000    0.000    0.000    0.000 
#
# Total GULP energy -178896.175383 kJ/mol
# GULP energy per Si atom -5590.505481 kJ/mol
# Density = 2.519954 g / cm^3
# Si number density = 25.257027 Si / 1000 Ang^3
#
#
#
# Elastic Constant Matrix: (Units=GPa)
#
#
# Indices 1 2 3 4 5 6 
#
# 1 130.8192 31.1128 32.1068 0.0000 0.0000 0.0000
# 2 31.1128 100.7736 28.4177 0.0000 0.0000 0.0000
# 3 32.1068 28.4177 116.5449 0.0000 0.0000 0.0000
# 4 0.0000 0.0000 0.0000 50.8576 0.0000 0.0000
# 5 0.0000 0.0000 0.0000 0.0000 26.7619 0.0000
# 6 0.0000 0.0000 0.0000 0.0000 0.0000 29.7748
#
#
#
# Elastic Compliance Matrix: (Units=1/GPa)
#
#
# Indices 1 2 3 4 5 6 
#
# 1 0.008606 -0.002135 -0.001850 0.000000 0.000000 0.000000
# 2 -0.002135 0.011186 -0.002139 0.000000 0.000000 0.000000
# 3 -0.001850 -0.002139 0.009612 0.000000 0.000000 0.000000
# 4 0.000000 0.000000 0.000000 0.019663 0.000000 0.000000
# 5 0.000000 0.000000 0.000000 0.000000 0.037367 0.000000
# 6 0.000000 0.000000 0.000000 0.000000 0.000000 0.033585
#
#
# Mechanical properties :
#
#
# Convention : Reuss Voigt Hill
#
# Bulk Modulus (GPa) = 58.29522 59.04582 58.67052
# Shear Modulus (GPa) = 36.23563 38.57889 37.40726
#
# Velocity S-wave (km/s) = 3.79182 3.91250 3.85263
# Velocity P-wave (km/s) = 6.50395 6.62110 6.56279
#
# Compressibility (1/GPa) = 0.01715406
#
# Stress axis : x y z
#
# Youngs Moduli (GPa) = 116.19704 89.39954 104.03965
#
# Poissons Ratio (x) = 0.19089 0.19250
# Poissons Ratio (y) = 0.24811 0.22256
# Poissons Ratio (z) = 0.21499 0.19125
#
# Static dielectric constant tensor:
#      x y z
#    x 2.031870 0.000000 0.000000 
#    y 0.000000 2.720540 0.000000 
#    z 0.000000 0.000000 2.104380 
# 
# From -- ./inp_files/1580.got.cif
#   From: 2010.05.17/outbox.cif.g08.bks.cpg/sg56_1_cif.got.tgz:1580.got - 2010.06.03 13:42:01.
