data_PCOD9433910
_publ_section_title
;
Structure prediction by ZEFSAII (Michael W. Deem and Ramdas Pophale) SiO2 
 PCOD9433910
Probable space group: P C C N
;
_chemical_formula_sum "Si O2"
_cell_formula_units_Z 56
_cell_length_a 9.000000
_cell_length_b 15.000000
_cell_length_c 21.000000
_cell_angle_alpha 90.000000
_cell_angle_beta 90.000000
_cell_angle_gamma 90.000000
_cell_volume 2835.000000
_symmetry_space_group_name_H-M "P C C N"
_symmetry_group_IT_number 56
_symmetry_cell_setting 'orthorhombic'
loop_
_space_group_symop_operation_xyz
x,y,z
1/2-x,1/2-y,z
1/2+x,-y,1/2-z
-x,1/2+y,1/2-z
-x,-y,-z
1/2+x,1/2+y,-z
1/2-x,y,1/2+z
x,1/2-y,1/2+z
loop_
_atom_site_type_symbol
_atom_site_label
_atom_site_fract_x
_atom_site_fract_y
_atom_site_fract_z
Si Si1 0.074510 0.223181 0.741206
Si Si2 0.975016 0.884459 0.388238
Si Si3 0.415003 0.210281 0.982164
Si Si4 0.323292 0.053913 0.890088
Si Si5 0.992048 0.639748 0.619173
Si Si6 0.270269 0.508889 0.163008
Si Si7 0.507333 0.915643 0.239932
O O1 0.250000 0.250000 0.735120
O O2 0.026800 0.162740 0.681253
O O3 0.045275 0.180016 0.810556
O O4 0.982737 0.314589 0.739328
O O5 0.974692 0.816608 0.447880
O O6 0.821489 0.942970 0.383758
O O7 0.111155 0.954252 0.395814
O O8 0.250000 0.250000 0.991483
O O9 0.399357 0.118964 0.941761
O O10 0.492375 0.283330 0.935294
O O11 0.146858 0.072595 0.894756
O O12 0.381674 0.085214 0.820782
O O13 0.148397 0.588478 0.625406
O O14 0.144510 0.541011 0.213758
O O15 0.403566 0.464404 0.203651
#
# Coordination Sequence:
#
# PCOD9433910 Si02
#       7
#     8   8   8   8   8   8   8
#     4  12  20  37  65  94 131 173 216 268 327 395
#     4  11  23  38  66  99 130 172 220 269 327 391
#     4  10  21  39  66  92 128 179 220 258 324 403
#     4  10  19  39  64  89 123 175 216 261 325 389
#     4  11  21  41  66  93 128 172 223 267 326 394
#     4  11  24  38  65 100 132 163 220 280 332 392
#     4  11  21  39  63  99 129 169 214 272 334 385
#
# _framework density 19.753086
#
# number of rings (size 3 to 8) (size 9 to 14) (size 15 to 20)
#    0.000    1.143    4.286    3.857    0.000    0.571 
#    0.000    2.857    3.143    6.857   14.857    0.000 
#    0.000    0.000    0.000    0.000    0.000    0.000 
#
# Total GULP energy -312861.959079 kJ/mol
# GULP energy per Si atom -5586.820698 kJ/mol
# Density = 1.970813 g / cm^3
# Si number density = 19.753086 Si / 1000 Ang^3
#
#
#
# Elastic Constant Matrix: (Units=GPa)
#
#
# Indices 1 2 3 4 5 6 
#
# 1 71.2105 35.5394 17.1504 0.0000 0.0000 0.0000
# 2 35.5394 109.7237 56.0882 0.0000 0.0000 0.0000
# 3 17.1504 56.0882 117.9811 0.0000 0.0000 0.0000
# 4 0.0000 0.0000 0.0000 41.2857 0.0000 0.0000
# 5 0.0000 0.0000 0.0000 0.0000 19.4708 0.0000
# 6 0.0000 0.0000 0.0000 0.0000 0.0000 37.5697
#
#
#
# Elastic Compliance Matrix: (Units=1/GPa)
#
#
# Indices 1 2 3 4 5 6 
#
# 1 0.016754 -0.005524 0.000191 0.000000 0.000000 0.000000
# 2 -0.005524 0.013861 -0.005786 0.000000 0.000000 0.000000
# 3 0.000191 -0.005786 0.011199 0.000000 0.000000 0.000000
# 4 0.000000 0.000000 0.000000 0.024221 0.000000 0.000000
# 5 0.000000 0.000000 0.000000 0.000000 0.051359 0.000000
# 6 0.000000 0.000000 0.000000 0.000000 0.000000 0.026617
#
#
# Mechanical properties :
#
#
# Convention : Reuss Voigt Hill
#
# Bulk Modulus (GPa) = 51.08754 57.38573 54.23664
# Shear Modulus (GPa) = 28.93923 32.34107 30.64015
#
# Velocity S-wave (km/s) = 3.83175 4.05070 3.94275
# Velocity P-wave (km/s) = 6.74504 7.14088 6.94578
#
# Compressibility (1/GPa) = 0.01957424
#
# Stress axis : x y z
#
# Youngs Moduli (GPa) = 59.68769 72.14513 89.29285
#
# Poissons Ratio (x) = 0.39853 -0.01703
# Poissons Ratio (y) = 0.32972 0.51669
# Poissons Ratio (z) = -0.01138 0.41747
#
# Static dielectric constant tensor:
#      x y z
#    x 1.690540 0.000000 0.000000 
#    y 0.000000 1.750920 0.000000 
#    z 0.000000 0.000000 1.688150 
# 
# From -- ./inp_files/18217.got.cif
#   From: 2010.05.17/outbox.ucp.g08.bks.cvg/sg56_10_cif.got.tgz:18217.got - 2010.06.11 16:37:52.
