data_PCOD9433399
_publ_section_title
;
Structure prediction by ZEFSAII (Michael W. Deem and Ramdas Pophale) SiO2 
 PCOD9433399
Probable space group: P C C N
;
_chemical_formula_sum "Si O2"
_cell_formula_units_Z 40
_cell_length_a 13.724660
_cell_length_b 5.123636
_cell_length_c 27.089586
_cell_angle_alpha 90.000000
_cell_angle_beta 90.000000
_cell_angle_gamma 90.000000
_cell_volume 1904.944078
_symmetry_space_group_name_H-M "P C C N"
_symmetry_group_IT_number 56
_symmetry_cell_setting 'orthorhombic'
loop_
_space_group_symop_operation_xyz
x,y,z
1/2-x,1/2-y,z
1/2+x,-y,1/2-z
-x,1/2+y,1/2-z
-x,-y,-z
1/2+x,1/2+y,-z
1/2-x,y,1/2+z
x,1/2-y,1/2+z
loop_
_atom_site_type_symbol
_atom_site_label
_atom_site_fract_x
_atom_site_fract_y
_atom_site_fract_z
Si Si1 0.468448 0.122960 0.304644
Si Si2 0.006580 0.996479 0.941538
Si Si3 0.138312 0.243862 0.704617
Si Si4 0.315054 0.000581 0.378359
Si Si5 0.951564 0.477662 0.881708
O O1 0.426831 0.137117 0.249894
O O2 0.472227 0.381065 0.339024
O O3 0.578089 0.010134 0.305676
O O4 0.391811 0.947118 0.334482
O O5 0.117007 0.061574 0.925209
O O6 0.982826 0.716812 0.916711
O O7 0.941289 0.222215 0.915855
O O8 0.000000 0.000000 0.000000
O O9 0.250000 0.250000 0.720826
O O10 0.133866 0.081053 0.653771
O O11 0.250000 0.750000 0.387345
O O12 0.250000 0.250000 0.365692
#
# Coordination Sequence:
#
# PCOD9433399 Si02
#       5
#     8   8   8   8   8
#     4  11  24  43  69  99 148 182 229 291 338 408
#     4  11  24  45  74  97 136 184 226 298 355 398
#     4  12  25  42  70 105 143 194 232 275 355 432
#     4  11  23  41  71 102 131 178 233 283 342 407
#     4  11  22  45  69  98 140 183 224 283 352 403
#
# _framework density 20.997990999999999
#
# number of rings (size 3 to 8) (size 9 to 14) (size 15 to 20)
#    0.000    0.800    6.000    3.600    0.000    2.400 
#    0.000    3.000    0.000    0.000    0.000    0.000 
#    0.000    0.000    0.000    0.000    0.000    0.000 
#
# Total GULP energy -223081.435084 kJ/mol
# GULP energy per Si atom -5577.035877 kJ/mol
# Density = 2.095020 g / cm^3
# Si number density = 20.997991 Si / 1000 Ang^3
#
#
#
# Elastic Constant Matrix: (Units=GPa)
#
#
# Indices 1 2 3 4 5 6 
#
# 1 82.6246 33.4016 16.8440 0.0000 0.0000 0.0000
# 2 33.4016 121.4906 52.0941 0.0000 0.0000 0.0000
# 3 16.8440 52.0941 168.8742 0.0000 0.0000 0.0000
# 4 0.0000 0.0000 0.0000 33.6666 0.0000 0.0000
# 5 0.0000 0.0000 0.0000 0.0000 19.1972 0.0000
# 6 0.0000 0.0000 0.0000 0.0000 0.0000 24.4857
#
#
#
# Elastic Compliance Matrix: (Units=1/GPa)
#
#
# Indices 1 2 3 4 5 6 
#
# 1 0.013624 -0.003645 -0.000234 0.000000 0.000000 0.000000
# 2 -0.003645 0.010461 -0.002863 0.000000 0.000000 0.000000
# 3 -0.000234 -0.002863 0.006828 0.000000 0.000000 0.000000
# 4 0.000000 0.000000 0.000000 0.029703 0.000000 0.000000
# 5 0.000000 0.000000 0.000000 0.000000 0.052091 0.000000
# 6 0.000000 0.000000 0.000000 0.000000 0.000000 0.040840
#
#
# Mechanical properties :
#
#
# Convention : Reuss Voigt Hill
#
# Bulk Modulus (GPa) = 57.38073 64.18542 60.78308
# Shear Modulus (GPa) = 28.92794 33.51321 31.22057
#
# Velocity S-wave (km/s) = 3.71570 3.99936 3.86013
# Velocity P-wave (km/s) = 6.76718 7.20834 6.99124
#
# Compressibility (1/GPa) = 0.01742745
#
# Stress axis : x y z
#
# Youngs Moduli (GPa) = 73.39807 95.59228 146.45009
#
# Poissons Ratio (x) = 0.34846 0.03434
# Poissons Ratio (y) = 0.26755 0.41935
# Poissons Ratio (z) = 0.01721 0.27372
#
# Static dielectric constant tensor:
#      x y z
#    x 1.807780 0.000000 0.000000 
#    y 0.000000 1.869240 0.000000 
#    z 0.000000 0.000000 1.760890 
# 
# From -- ./inp_files/22187.got.cif
#   From: 2010.05.17/outbox.cif.g08.bks.cpg/sg56_12_cif.got.tgz:22187.got - 2010.06.03 13:42:01.
