data_PCOD9434742
_publ_section_title
;
Structure prediction by ZEFSAII (Michael W. Deem and Ramdas Pophale) SiO2 
 PCOD9434742
Probable space group: P B C M
;
_chemical_formula_sum "Si O2"
_cell_formula_units_Z 64
_cell_length_a 18.277687
_cell_length_b 10.058919
_cell_length_c 14.406071
_cell_angle_alpha 90.000000
_cell_angle_beta 90.000000
_cell_angle_gamma 90.000000
_cell_volume 2648.610508
_symmetry_space_group_name_H-M "P B C M"
_symmetry_group_IT_number 57
_symmetry_cell_setting 'orthorhombic'
loop_
_space_group_symop_operation_xyz
x,y,z
-x,-y,1/2+z
x,1/2-y,-z
-x,1/2+y,1/2-z
-x,-y,-z
x,y,1/2-z
-x,1/2+y,z
x,1/2-y,1/2+z
loop_
_atom_site_type_symbol
_atom_site_label
_atom_site_fract_x
_atom_site_fract_y
_atom_site_fract_z
Si Si1 0.033324 0.191915 0.863646
Si Si2 0.279182 0.821837 0.864088
Si Si3 0.917048 0.980982 0.863636
Si Si4 0.317689 0.255593 0.862124
Si Si5 0.519872 0.672178 0.908366
Si Si6 0.749990 0.023606 0.863493
Si Si7 0.564206 0.406206 0.852647
Si Si8 0.814867 0.936656 0.136890
O O1 0.032485 0.193301 0.750000
O O2 0.043396 0.344487 0.892929
O O3 0.105615 0.110827 0.893379
O O4 0.961967 0.110826 0.893225
O O5 0.281806 0.820083 0.750000
O O6 0.270515 0.670708 0.895183
O O7 0.355845 0.885310 0.895441
O O8 0.212467 0.917522 0.890791
O O9 0.916763 0.979825 0.750000
O O10 0.832454 0.985725 0.891923
O O11 0.318916 0.254552 0.750000
O O12 0.394190 0.198405 0.895042
O O13 0.304457 0.406932 0.893045
O O14 0.248201 0.167287 0.890774
O O15 0.511762 0.514843 0.899911
O O16 0.471862 0.762342 0.841376
O O17 0.496967 0.750000 0.000000
O O18 0.749454 0.025327 0.750000
O O19 0.575969 0.465419 0.750000
O O20 0.816692 0.935036 0.250000
#
# Coordination Sequence:
#
# PCOD9434742 Si02
#       8
#     8   8   8   8   8   8   8   8
#     4   9  16  23  34  56  92 139 179 219 279 343
#     4   9  18  30  49  75  99 130 181 239 275 316
#     4   9  16  24  34  57  97 142 182 220 277 344
#     4  10  18  34  57  76 102 146 194 235 275 336
#     4  12  26  42  60  88 123 153 185 239 305 354
#     4   9  17  28  45  72 102 136 186 238 279 329
#     4  11  23  42  64  87 113 152 201 238 281 355
#     4   9  15  27  45  66  94 135 185 232 274 325
#
# _framework density 24.163613000000002
#
# number of rings (size 3 to 8) (size 9 to 14) (size 15 to 20)
#    0.000    2.250    2.500    1.500    3.500    0.000 
#    0.000    0.000    0.000    0.000    0.000    0.000 
#    0.000    1.000    0.250    0.000    0.500    0.000 
#
# Total GULP energy -357894.616476 kJ/mol
# GULP energy per Si atom -5592.103382 kJ/mol
# Density = 2.410862 g / cm^3
# Si number density = 24.163613 Si / 1000 Ang^3
#
#
#
# Elastic Constant Matrix: (Units=GPa)
#
#
# Indices 1 2 3 4 5 6 
#
# 1 38.7147 -6.6713 -1.5799 0.0000 0.0000 0.0000
# 2 -6.6713 124.0355 -5.9185 0.0000 0.0000 0.0000
# 3 -1.5799 -5.9185 55.0262 0.0000 0.0000 0.0000
# 4 0.0000 0.0000 0.0000 78.8768 0.0000 0.0000
# 5 0.0000 0.0000 0.0000 0.0000 19.1559 0.0000
# 6 0.0000 0.0000 0.0000 0.0000 0.0000 44.6963
#
#
#
# Elastic Compliance Matrix: (Units=1/GPa)
#
#
# Indices 1 2 3 4 5 6 
#
# 1 0.026116 0.001448 0.000906 0.000000 0.000000 0.000000
# 2 0.001448 0.008184 0.000922 0.000000 0.000000 0.000000
# 3 0.000906 0.000922 0.018298 0.000000 0.000000 0.000000
# 4 0.000000 0.000000 0.000000 0.012678 0.000000 0.000000
# 5 0.000000 0.000000 0.000000 0.000000 0.052203 0.000000
# 6 0.000000 0.000000 0.000000 0.000000 0.000000 0.022373
#
#
# Mechanical properties :
#
#
# Convention : Reuss Voigt Hill
#
# Bulk Modulus (GPa) = 16.90634 21.04855 18.97745
# Shear Modulus (GPa) = 32.67565 44.00888 38.34226
#
# Velocity S-wave (km/s) = 3.68131 4.27228 3.98776
# Velocity P-wave (km/s) = 5.00811 5.75033 5.39201
#
# Compressibility (1/GPa) = 0.05914941
#
# Stress axis : x y z
#
# Youngs Moduli (GPa) = 38.29006 122.18856 54.64985
#
# Poissons Ratio (x) = -0.17692 -0.04949
# Poissons Ratio (y) = -0.05544 -0.05038
# Poissons Ratio (z) = -0.03467 -0.11264
#
# Static dielectric constant tensor:
#      x y z
#    x 1.845250 0.000000 0.000000 
#    y 0.000000 1.893010 0.000000 
#    z 0.000000 0.000000 2.104850 
# 
# From -- ./inp_files/23069.got.cif
#   From: 2010.05.17/outbox.cif.g08.bks.cpg/sg57_12_cif.got.tgz:23069.got - 2010.06.03 13:58:18.
