data_PCOD9434632
_publ_section_title
;
Structure prediction by ZEFSAII (Michael W. Deem and Ramdas Pophale) SiO2 
 PCOD9434632
Probable space group: P B C M
;
_chemical_formula_sum "Si O2"
_cell_formula_units_Z 56
_cell_length_a 22.283984
_cell_length_b 14.959875
_cell_length_c 8.651422
_cell_angle_alpha 90.000000
_cell_angle_beta 90.000000
_cell_angle_gamma 90.000000
_cell_volume 2884.086617
_symmetry_space_group_name_H-M "P B C M"
_symmetry_group_IT_number 57
_symmetry_cell_setting 'orthorhombic'
loop_
_space_group_symop_operation_xyz
x,y,z
-x,-y,1/2+z
x,1/2-y,-z
-x,1/2+y,1/2-z
-x,-y,-z
x,y,1/2-z
-x,1/2+y,z
x,1/2-y,1/2+z
loop_
_atom_site_type_symbol
_atom_site_label
_atom_site_fract_x
_atom_site_fract_y
_atom_site_fract_z
Si Si1 0.358488 0.849338 0.065768
Si Si2 0.288232 0.024304 0.064158
Si Si3 0.484267 0.851481 0.565442
Si Si4 0.950520 0.650856 0.063552
Si Si5 0.152401 0.015133 0.436709
Si Si6 0.608506 0.649274 0.566138
Si Si7 0.086404 0.651034 0.435088
O O1 0.365720 0.841600 0.250000
O O2 0.307430 0.921905 0.031530
O O3 0.347130 0.750000 0.000000
O O4 0.420816 0.886763 0.995444
O O5 0.292772 0.036720 0.250000
O O6 0.219717 0.040257 0.015536
O O7 0.335359 0.089969 0.984671
O O8 0.484470 0.750000 0.500000
O O9 0.485196 0.851282 0.750000
O O10 0.546196 0.890721 0.501050
O O11 0.949122 0.653605 0.250000
O O12 0.898567 0.584428 0.009679
O O13 0.018247 0.623433 0.017592
O O14 0.940396 0.750000 0.000000
O O15 0.151619 0.013130 0.250000
O O16 0.133308 0.918827 0.498383
O O17 0.615280 0.750000 0.500000
O O18 0.603490 0.654238 0.750000
O O19 0.096317 0.750000 0.500000
O O20 0.089102 0.652612 0.250000
#
# Coordination Sequence:
#
# PCOD9434632 Si02
#       7
#     8   8   8   8   8   8   8
#     4  10  20  36  57  80 109 143 181 228 278 329
#     4  10  23  40  56  79 112 150 190 228 271 326
#     4  10  18  32  56  83 110 139 177 226 279 332
#     4   9  19  35  57  84 113 144 181 227 277 328
#     4  10  21  38  57  80 113 149 185 229 276 323
#     4  11  22  38  60  83 111 145 183 229 278 330
#     4  10  20  35  57  85 113 144 183 227 276 329
#
# _framework density 19.416892000000001
#
# number of rings (size 3 to 8) (size 9 to 14) (size 15 to 20)
#    0.000    2.000    0.000    5.571    0.000    4.571 
#    0.000    2.857    0.000    0.000    0.000    0.000 
#    0.000    0.000    0.000    0.000    0.000    0.000 
#
# Total GULP energy -312783.985019 kJ/mol
# GULP energy per Si atom -5585.428304 kJ/mol
# Density = 1.937270 g / cm^3
# Si number density = 19.416892 Si / 1000 Ang^3
#
#
#
# Elastic Constant Matrix: (Units=GPa)
#
#
# Indices 1 2 3 4 5 6 
#
# 1 45.3975 -4.9077 12.4133 0.0000 0.0000 0.0000
# 2 -4.9077 30.9796 6.9451 0.0000 0.0000 0.0000
# 3 12.4133 6.9451 55.7654 0.0000 0.0000 0.0000
# 4 0.0000 0.0000 0.0000 25.7189 0.0000 0.0000
# 5 0.0000 0.0000 0.0000 0.0000 41.3239 0.0000
# 6 0.0000 0.0000 0.0000 0.0000 0.0000 9.2178
#
#
#
# Elastic Compliance Matrix: (Units=1/GPa)
#
#
# Indices 1 2 3 4 5 6 
#
# 1 0.024242 0.005195 -0.006043 0.000000 0.000000 0.000000
# 2 0.005195 0.034320 -0.005431 0.000000 0.000000 0.000000
# 3 -0.006043 -0.005431 0.019954 0.000000 0.000000 0.000000
# 4 0.000000 0.000000 0.000000 0.038882 0.000000 0.000000
# 5 0.000000 0.000000 0.000000 0.000000 0.024199 0.000000
# 6 0.000000 0.000000 0.000000 0.000000 0.000000 0.108486
#
#
# Mechanical properties :
#
#
# Convention : Reuss Voigt Hill
#
# Bulk Modulus (GPa) = 15.16121 17.89376 16.52748
# Shear Modulus (GPa) = 17.56694 23.09824 20.33259
#
# Velocity S-wave (km/s) = 3.01113 3.45279 3.23950
# Velocity P-wave (km/s) = 4.46255 5.01311 4.74582
#
# Compressibility (1/GPa) = 0.06595781
#
# Stress axis : x y z
#
# Youngs Moduli (GPa) = 41.25120 29.13772 50.11572
#
# Poissons Ratio (x) = -0.15137 0.30286
# Poissons Ratio (y) = -0.21430 0.27216
# Poissons Ratio (z) = 0.24929 0.15824
#
# Static dielectric constant tensor:
#      x y z
#    x 1.692890 0.000000 0.000000 
#    y 0.000000 1.582480 0.000000 
#    z 0.000000 0.000000 1.648440 
# 
# From -- ./inp_files/8083.got.cif
#   From: 2010.05.17/outbox.cif.g08.bks.cpg/sg57_5_cif.got.tgz:8083.got - 2010.06.03 13:58:18.
