data_PCOD9434417
_publ_section_title
;
Structure prediction by ZEFSAII (Michael W. Deem and Ramdas Pophale) SiO2 
 PCOD9434417
Probable space group: P B C M
;
_chemical_formula_sum "Si O2"
_cell_formula_units_Z 64
_cell_length_a 10.823477
_cell_length_b 34.273143
_cell_length_c 9.036286
_cell_angle_alpha 90.000000
_cell_angle_beta 90.000000
_cell_angle_gamma 90.000000
_cell_volume 3352.051633
_symmetry_space_group_name_H-M "P B C M"
_symmetry_group_IT_number 57
_symmetry_cell_setting 'orthorhombic'
loop_
_space_group_symop_operation_xyz
x,y,z
-x,-y,1/2+z
x,1/2-y,-z
-x,1/2+y,1/2-z
-x,-y,-z
x,y,1/2-z
-x,1/2+y,z
x,1/2-y,1/2+z
loop_
_atom_site_type_symbol
_atom_site_label
_atom_site_fract_x
_atom_site_fract_y
_atom_site_fract_z
Si Si1 0.798367 0.867682 0.078642
Si Si2 0.677118 0.514644 0.077399
Si Si3 0.068282 0.436348 0.577874
Si Si4 0.321495 0.874408 0.926874
Si Si5 0.455132 0.082113 0.919923
Si Si6 0.408989 0.709474 0.426951
Si Si7 0.298979 0.208866 0.072618
Si Si8 0.819974 0.440166 0.073336
O O1 0.832843 0.862099 0.250000
O O2 0.669253 0.891791 0.076450
O O3 0.895067 0.895093 0.994557
O O4 0.774628 0.827021 0.997171
O O5 0.638748 0.515338 0.250000
O O6 0.809366 0.537062 0.068461
O O7 0.712292 0.470891 0.031172
O O8 0.583504 0.539494 0.978712
O O9 0.036932 0.432000 0.750000
O O10 0.951189 0.452969 0.491387
O O11 0.308966 0.876270 0.750000
O O12 0.335469 0.829243 0.972498
O O13 0.446324 0.896332 0.977654
O O14 0.213881 0.898356 0.006158
O O15 0.499684 0.080290 0.750000
O O16 0.369382 0.750000 0.500000
O O17 0.400211 0.713114 0.250000
O O18 0.554611 0.703251 0.462114
O O19 0.285921 0.209897 0.250000
O O20 0.262656 0.250000 0.000000
O O21 0.825717 0.439430 0.250000
#
# Coordination Sequence:
#
# PCOD9434417 Si02
#       8
#     8   8   8   8   8   8   8   8
#     4  10  19  32  52  79 109 140 174 219 269 322
#     4   9  20  37  57  79 107 140 178 224 274 324
#     4  10  20  36  58  80 103 138 179 225 274 322
#     4  11  22  37  55  78 111 148 182 220 266 323
#     4  10  20  33  53  80 108 141 180 220 270 321
#     4   9  19  33  53  79 108 141 177 217 261 311
#     4  10  18  30  49  78 111 142 174 215 265 322
#     4  11  23  38  55  79 107 141 184 228 269 316
#
# _framework density 19.092784000000002
#
# number of rings (size 3 to 8) (size 9 to 14) (size 15 to 20)
#    0.000    2.000    1.250    2.625    0.000    4.500 
#    0.000    0.000    0.000    0.750    0.000    3.500 
#    0.000    0.000    0.000    0.000    0.000    0.000 
#
# Total GULP energy -357544.750505 kJ/mol
# GULP energy per Si atom -5586.636727 kJ/mol
# Density = 1.904933 g / cm^3
# Si number density = 19.092784 Si / 1000 Ang^3
#
#
#
# Elastic Constant Matrix: (Units=GPa)
#
#
# Indices 1 2 3 4 5 6 
#
# 1 33.5556 7.0785 13.0090 0.0000 0.0000 0.0000
# 2 7.0785 132.2595 41.5076 0.0000 0.0000 0.0000
# 3 13.0090 41.5076 69.2922 0.0000 0.0000 0.0000
# 4 0.0000 0.0000 0.0000 31.6684 0.0000 0.0000
# 5 0.0000 0.0000 0.0000 0.0000 26.3850 0.0000
# 6 0.0000 0.0000 0.0000 0.0000 0.0000 22.9439
#
#
#
# Elastic Compliance Matrix: (Units=1/GPa)
#
#
# Indices 1 2 3 4 5 6 
#
# 1 0.032145 0.000214 -0.006163 0.000000 0.000000 0.000000
# 2 0.000214 0.009313 -0.005619 0.000000 0.000000 0.000000
# 3 -0.006163 -0.005619 0.018954 0.000000 0.000000 0.000000
# 4 0.000000 0.000000 0.000000 0.031577 0.000000 0.000000
# 5 0.000000 0.000000 0.000000 0.000000 0.037900 0.000000
# 6 0.000000 0.000000 0.000000 0.000000 0.000000 0.043585
#
#
# Mechanical properties :
#
#
# Convention : Reuss Voigt Hill
#
# Bulk Modulus (GPa) = 26.82643 39.81084 33.31863
# Shear Modulus (GPa) = 23.91928 27.76696 25.84312
#
# Velocity S-wave (km/s) = 3.54332 3.81769 3.68306
# Velocity P-wave (km/s) = 5.55169 6.35055 5.96451
#
# Compressibility (1/GPa) = 0.03727667
#
# Stress axis : x y z
#
# Youngs Moduli (GPa) = 31.10856 107.37904 52.75802
#
# Poissons Ratio (x) = -0.02296 0.32515
# Poissons Ratio (y) = -0.00665 0.29643
# Poissons Ratio (z) = 0.19173 0.60333
#
# Static dielectric constant tensor:
#      x y z
#    x 1.677900 0.000000 0.000000 
#    y 0.000000 1.663770 0.000000 
#    z 0.000000 0.000000 1.632390 
# 
# From -- ./inp_files/3919.got.cif
#   From: 2010.05.17/outbox.cif.g08.bks.cpg/sg57_2_cif.got.tgz:3919.got - 2010.06.03 13:58:18.
