data_PCOD9434137
_publ_section_title
;
Structure prediction by ZEFSAII (Michael W. Deem and Ramdas Pophale) SiO2 
 PCOD9434137
Probable space group: P B C M
;
_chemical_formula_sum "Si O2"
_cell_formula_units_Z 64
_cell_length_a 10.195884
_cell_length_b 21.111182
_cell_length_c 18.355714
_cell_angle_alpha 90.000000
_cell_angle_beta 90.000000
_cell_angle_gamma 90.000000
_cell_volume 3951.015359
_symmetry_space_group_name_H-M "P B C M"
_symmetry_group_IT_number 57
_symmetry_cell_setting 'orthorhombic'
loop_
_space_group_symop_operation_xyz
x,y,z
-x,-y,1/2+z
x,1/2-y,-z
-x,1/2+y,1/2-z
-x,-y,-z
x,y,1/2-z
-x,1/2+y,z
x,1/2-y,1/2+z
loop_
_atom_site_type_symbol
_atom_site_label
_atom_site_fract_x
_atom_site_fract_y
_atom_site_fract_z
Si Si1 0.339935 0.000116 0.581032
Si Si2 0.502995 0.679556 0.521573
Si Si3 0.063175 0.554749 0.052735
Si Si4 0.397976 0.067016 0.430549
Si Si5 0.778685 0.106322 0.832966
Si Si6 0.808374 0.176840 0.523062
Si Si7 0.531387 0.613062 0.834057
Si Si8 0.844343 0.962387 0.664327
O O1 0.355422 0.018747 0.495350
O O2 0.374869 0.059331 0.632463
O O3 0.195022 0.973895 0.587992
O O4 0.457487 0.951594 0.595989
O O5 0.530778 0.750000 0.500000
O O6 0.587887 0.632643 0.472648
O O7 0.347665 0.666741 0.507579
O O8 0.534021 0.668607 0.606572
O O9 0.957517 0.567115 0.115262
O O10 0.107351 0.620702 0.014564
O O11 0.000000 0.500000 0.000000
O O12 0.292961 0.062679 0.367185
O O13 0.805411 0.125817 0.750000
O O14 0.817224 0.159753 0.890976
O O15 0.621941 0.092005 0.837829
O O16 0.846280 0.038788 0.847550
O O17 0.839122 0.250000 0.500000
O O18 0.560857 0.627612 0.750000
O O19 0.856942 0.950918 0.750000
#
# Coordination Sequence:
#
# PCOD9434137 Si02
#       8
#     8   8   8   8   8   8   8   8
#     4  10  18  29  54  81 105 134 177 224 282 325
#     4   9  18  32  54  81 110 142 189 231 273 334
#     4  12  21  35  55  83 115 147 184 232 281 330
#     4  10  17  32  53  79 104 136 177 226 278 331
#     4   9  16  30  52  80 107 139 181 228 280 334
#     4  10  19  34  55  83 110 149 192 230 275 336
#     4   9  17  29  51  79 109 137 174 230 282 324
#     4  11  22  35  54  80 112 147 185 229 283 337
#
# _framework density 16.198367999999999
#
# number of rings (size 3 to 8) (size 9 to 14) (size 15 to 20)
#    0.000    2.000    5.000    0.000    0.000    0.500 
#    0.000    1.875    0.000    1.500    0.000    0.000 
#    0.000    0.000    0.000    0.000    0.000    0.000 
#
# Total GULP energy -356406.596029 kJ/mol
# GULP energy per Si atom -5568.853063 kJ/mol
# Density = 1.616150 g / cm^3
# Si number density = 16.198368 Si / 1000 Ang^3
#
#
#
# Elastic Constant Matrix: (Units=GPa)
#
#
# Indices 1 2 3 4 5 6 
#
# 1 78.9750 33.6850 44.3663 0.0000 0.0000 0.0000
# 2 33.6850 81.5459 57.9523 0.0000 0.0000 0.0000
# 3 44.3663 57.9523 119.8024 0.0000 0.0000 0.0000
# 4 0.0000 0.0000 0.0000 15.3741 0.0000 0.0000
# 5 0.0000 0.0000 0.0000 0.0000 22.8414 0.0000
# 6 0.0000 0.0000 0.0000 0.0000 0.0000 16.0647
#
#
#
# Elastic Compliance Matrix: (Units=1/GPa)
#
#
# Indices 1 2 3 4 5 6 
#
# 1 0.016736 -0.003823 -0.004348 0.000000 0.000000 0.000000
# 2 -0.003823 0.019560 -0.008046 0.000000 0.000000 0.000000
# 3 -0.004348 -0.008046 0.013850 0.000000 0.000000 0.000000
# 4 0.000000 0.000000 0.000000 0.065045 0.000000 0.000000
# 5 0.000000 0.000000 0.000000 0.000000 0.043780 0.000000
# 6 0.000000 0.000000 0.000000 0.000000 0.000000 0.062248
#
#
# Mechanical properties :
#
#
# Convention : Reuss Voigt Hill
#
# Bulk Modulus (GPa) = 56.46344 61.37005 58.91674
# Shear Modulus (GPa) = 19.26355 20.47735 19.87045
#
# Velocity S-wave (km/s) = 3.45226 3.55936 3.50622
# Velocity P-wave (km/s) = 7.12909 7.40681 7.26928
#
# Compressibility (1/GPa) = 0.01771058
#
# Stress axis : x y z
#
# Youngs Moduli (GPa) = 59.75268 51.12351 72.20358
#
# Poissons Ratio (x) = 0.19544 0.31398
# Poissons Ratio (y) = 0.22842 0.58097
# Poissons Ratio (z) = 0.25983 0.41136
#
# Static dielectric constant tensor:
#      x y z
#    x 1.548250 0.000000 0.000000 
#    y 0.000000 1.539830 0.000000 
#    z 0.000000 0.000000 1.547570 
# 
# From -- ./inp_files/21400.got.cif
#   From: 2010.05.17/outbox.cif.g08.bks.cpg/sg57_11_cif.got.tgz:21400.got - 2010.06.03 13:58:18.
