data_PCOD9434659
_publ_section_title
;
Structure prediction by ZEFSAII (Michael W. Deem and Ramdas Pophale) SiO2 
 PCOD9434659
Probable space group: P B C M
;
_chemical_formula_sum "Si O2"
_cell_formula_units_Z 64
_cell_length_a 15.251064
_cell_length_b 30.633913
_cell_length_c 8.588655
_cell_angle_alpha 90.000000
_cell_angle_beta 90.000000
_cell_angle_gamma 90.000000
_cell_volume 4012.617621
_symmetry_space_group_name_H-M "P B C M"
_symmetry_group_IT_number 57
_symmetry_cell_setting 'orthorhombic'
loop_
_space_group_symop_operation_xyz
x,y,z
-x,-y,1/2+z
x,1/2-y,-z
-x,1/2+y,1/2-z
-x,-y,-z
x,y,1/2-z
-x,1/2+y,z
x,1/2-y,1/2+z
loop_
_atom_site_type_symbol
_atom_site_label
_atom_site_fract_x
_atom_site_fract_y
_atom_site_fract_z
Si Si1 0.498017 0.796479 0.937535
Si Si2 0.328174 0.035984 0.562780
Si Si3 0.788741 0.386449 0.938821
Si Si4 0.294075 0.704052 0.062808
Si Si5 0.126870 0.029821 0.937032
Si Si6 0.541938 0.892567 0.562787
Si Si7 0.044654 0.563154 0.062834
Si Si8 0.371468 0.557712 0.564349
O O1 0.499504 0.794789 0.750000
O O2 0.395769 0.800471 0.987570
O O3 0.543820 0.841627 0.986173
O O4 0.531578 0.750000 0.000000
O O5 0.330662 0.033120 0.750000
O O6 0.226343 0.037424 0.510954
O O7 0.381033 0.078112 0.506976
O O8 0.371603 0.992083 0.494763
O O9 0.781689 0.389746 0.750000
O O10 0.759845 0.338193 0.987511
O O11 0.887642 0.399071 0.982307
O O12 0.719409 0.420422 0.009192
O O13 0.293700 0.705092 0.250000
O O14 0.260366 0.750000 0.000000
O O15 0.127416 0.030010 0.750000
O O16 0.092341 0.982007 0.987628
O O17 0.052744 0.063107 0.995041
O O18 0.544963 0.894050 0.750000
O O19 0.450686 0.914421 0.508538
O O20 0.038045 0.562322 0.250000
O O21 0.378610 0.558598 0.750000
#
# Coordination Sequence:
#
# PCOD9434659 Si02
#       8
#     8   8   8   8   8   8   8   8
#     4   9  18  32  51  71  96 127 159 201 245 289
#     4  11  22  37  52  69  98 135 170 207 248 290
#     4  10  18  33  51  70  99 135 165 198 244 290
#     4   9  17  30  48  69  96 128 160 196 242 290
#     4   9  18  32  49  69  96 126 157 199 244 283
#     4  11  22  37  52  71  99 133 168 205 247 291
#     4   9  17  30  50  71  94 125 160 197 238 287
#     4  12  23  33  48  72  99 134 172 206 238 286
#
# _framework density 15.949688
#
# number of rings (size 3 to 8) (size 9 to 14) (size 15 to 20)
#    0.000    2.000    2.500    2.250    0.000    3.000 
#    0.000    0.000    0.000    0.000    0.000    0.875 
#    0.000    2.000    0.000    0.000    0.000    0.000 
#
# Total GULP energy -357016.686168 kJ/mol
# GULP energy per Si atom -5578.385721 kJ/mol
# Density = 1.591339 g / cm^3
# Si number density = 15.949688 Si / 1000 Ang^3
#
#
#
# Elastic Constant Matrix: (Units=GPa)
#
#
# Indices 1 2 3 4 5 6 
#
# 1 56.8691 32.4616 7.0944 0.0000 0.0000 0.0000
# 2 32.4616 122.7907 15.1255 0.0000 0.0000 0.0000
# 3 7.0944 15.1255 21.4036 0.0000 0.0000 0.0000
# 4 0.0000 0.0000 0.0000 23.9970 0.0000 0.0000
# 5 0.0000 0.0000 0.0000 0.0000 23.2287 0.0000
# 6 0.0000 0.0000 0.0000 0.0000 0.0000 21.6410
#
#
#
# Elastic Compliance Matrix: (Units=1/GPa)
#
#
# Indices 1 2 3 4 5 6 
#
# 1 0.020922 -0.005123 -0.003315 0.000000 0.000000 0.000000
# 2 -0.005123 0.010175 -0.005492 0.000000 0.000000 0.000000
# 3 -0.003315 -0.005492 0.051701 0.000000 0.000000 0.000000
# 4 0.000000 0.000000 0.000000 0.041672 0.000000 0.000000
# 5 0.000000 0.000000 0.000000 0.000000 0.043050 0.000000
# 6 0.000000 0.000000 0.000000 0.000000 0.000000 0.046209
#
#
# Mechanical properties :
#
#
# Convention : Reuss Voigt Hill
#
# Bulk Modulus (GPa) = 18.20220 34.49182 26.34701
# Shear Modulus (GPa) = 19.23813 23.53212 21.38513
#
# Velocity S-wave (km/s) = 3.47677 3.84526 3.66565
# Velocity P-wave (km/s) = 5.24922 6.43327 5.87117
#
# Compressibility (1/GPa) = 0.05493841
#
# Stress axis : x y z
#
# Youngs Moduli (GPa) = 47.79691 98.28246 19.34196
#
# Poissons Ratio (x) = 0.50347 0.06411
# Poissons Ratio (y) = 0.24485 0.10623
# Poissons Ratio (z) = 0.15843 0.53980
#
# Static dielectric constant tensor:
#      x y z
#    x 1.526150 0.000000 0.000000 
#    y 0.000000 1.535030 0.000000 
#    z 0.000000 0.000000 1.541680 
# 
# From -- ./inp_files/5969.got.cif
#   From: 2010.05.17/outbox.cif.g08.bks.cpg/sg57_3_cif.got.tgz:5969.got - 2010.06.03 13:58:18.
