data_PCOD9434034
_publ_section_title
;
Structure prediction by ZEFSAII (Michael W. Deem and Ramdas Pophale) SiO2 
 PCOD9434034
Probable space group: P B C M
;
_chemical_formula_sum "Si O2"
_cell_formula_units_Z 48
_cell_length_a 15.871187
_cell_length_b 22.117364
_cell_length_c 8.568040
_cell_angle_alpha 90.000000
_cell_angle_beta 90.000000
_cell_angle_gamma 90.000000
_cell_volume 3007.628971
_symmetry_space_group_name_H-M "P B C M"
_symmetry_group_IT_number 57
_symmetry_cell_setting 'orthorhombic'
loop_
_space_group_symop_operation_xyz
x,y,z
-x,-y,1/2+z
x,1/2-y,-z
-x,1/2+y,1/2-z
-x,-y,-z
x,y,1/2-z
-x,1/2+y,z
x,1/2-y,1/2+z
loop_
_atom_site_type_symbol
_atom_site_label
_atom_site_fract_x
_atom_site_fract_y
_atom_site_fract_z
Si Si1 0.307564 0.317656 0.061400
Si Si2 0.021282 0.566851 0.561890
Si Si3 0.201130 0.960821 0.062954
Si Si4 0.158341 0.094927 0.939052
Si Si5 0.553302 0.586842 0.938243
Si Si6 0.618443 0.454007 0.936349
O O1 0.307498 0.316512 0.250000
O O2 0.223577 0.353748 0.010453
O O3 0.387749 0.357960 0.011256
O O4 0.310274 0.250000 0.000000
O O5 0.021464 0.565993 0.750000
O O6 0.117957 0.577211 0.512560
O O7 0.000000 0.500000 0.500000
O O8 0.939381 0.605452 0.513791
O O9 0.203907 0.962171 0.250000
O O10 0.289868 0.937713 0.999647
O O11 0.187167 0.029497 0.002347
O O12 0.162077 0.091385 0.750000
O O13 0.549820 0.586648 0.750000
O O14 0.596349 0.523141 0.986838
O O15 0.458899 0.586138 0.003181
O O16 0.620006 0.453125 0.750000
#
# Coordination Sequence:
#
# PCOD9434034 Si02
#       6
#     8   8   8   8   8   8
#     4  10  20  33  48  66  90 121 155 189 226 269
#     4   8  15  25  40  61  87 117 146 176 215 261
#     4  10  17  25  41  68  94 118 148 182 222 273
#     4   9  16  30  45  60  88 122 152 184 221 265
#     4   9  18  32  45  63  89 118 152 189 228 270
#     4  10  18  29  46  66  90 121 151 183 231 281
#
# _framework density 15.959415999999999
#
# number of rings (size 3 to 8) (size 9 to 14) (size 15 to 20)
#    0.000    2.667    1.667    1.000    0.000    2.667 
#    0.000    0.000    0.000    0.000    0.000    1.167 
#    0.000    2.667    0.000    0.000    0.000    0.000 
#
# Total GULP energy -267249.095509 kJ/mol
# GULP energy per Si atom -5567.689490 kJ/mol
# Density = 1.592309 g / cm^3
# Si number density = 15.959416 Si / 1000 Ang^3
#
#
#
# Elastic Constant Matrix: (Units=GPa)
#
#
# Indices 1 2 3 4 5 6 
#
# 1 200.2796 61.5130 29.8093 0.0000 0.0000 0.0000
# 2 61.5130 68.9025 13.9749 0.0000 0.0000 0.0000
# 3 29.8093 13.9749 9.9045 0.0000 0.0000 0.0000
# 4 0.0000 0.0000 0.0000 17.5294 0.0000 0.0000
# 5 0.0000 0.0000 0.0000 0.0000 21.1607 0.0000
# 6 0.0000 0.0000 0.0000 0.0000 0.0000 15.0834
#
#
#
# Elastic Compliance Matrix: (Units=1/GPa)
#
#
# Indices 1 2 3 4 5 6 
#
# 1 0.009721 -0.003845 -0.023832 0.000000 0.000000 0.000000
# 2 -0.003845 0.021852 -0.019261 0.000000 0.000000 0.000000
# 3 -0.023832 -0.019261 0.199868 0.000000 0.000000 0.000000
# 4 0.000000 0.000000 0.000000 0.057047 0.000000 0.000000
# 5 0.000000 0.000000 0.000000 0.000000 0.047257 0.000000
# 6 0.000000 0.000000 0.000000 0.000000 0.000000 0.066298
#
#
# Mechanical properties :
#
#
# Convention : Reuss Voigt Hill
#
# Bulk Modulus (GPa) = 7.26930 54.40898 30.83914
# Shear Modulus (GPa) = 9.22893 22.34067 15.78480
#
# Velocity S-wave (km/s) = 2.40734 3.74551 3.14834
# Velocity P-wave (km/s) = 3.50597 7.27126 5.70802
#
# Compressibility (1/GPa) = 0.13756477
#
# Stress axis : x y z
#
# Youngs Moduli (GPa) = 102.86968 45.76177 5.00331
#
# Poissons Ratio (x) = 0.17595 0.11924
# Poissons Ratio (y) = 0.39552 0.09637
# Poissons Ratio (z) = 2.45161 0.88142
#
# Static dielectric constant tensor:
#      x y z
#    x 1.589620 0.000000 0.000000 
#    y 0.000000 1.487490 0.000000 
#    z 0.000000 0.000000 1.627850 
# 
# From -- ./inp_files/4863.got.cif
#   From: 2010.05.17/outbox.cif.g08.bks.cpg/sg57_3_cif.got.tgz:4863.got - 2010.06.03 13:58:18.
