data_PCOD9434851
_publ_section_title
;
Structure prediction by ZEFSAII (Michael W. Deem and Ramdas Pophale) SiO2 
 PCOD9434851
Probable space group: P B C M
;
_chemical_formula_sum "Si O2"
_cell_formula_units_Z 36
_cell_length_a 9.205648
_cell_length_b 13.949361
_cell_length_c 13.998181
_cell_angle_alpha 90.000000
_cell_angle_beta 90.000000
_cell_angle_gamma 90.000000
_cell_volume 1797.547118
_symmetry_space_group_name_H-M "P B C M"
_symmetry_group_IT_number 57
_symmetry_cell_setting 'orthorhombic'
loop_
_space_group_symop_operation_xyz
x,y,z
-x,-y,1/2+z
x,1/2-y,-z
-x,1/2+y,1/2-z
-x,-y,-z
x,y,1/2-z
-x,1/2+y,z
x,1/2-y,1/2+z
loop_
_atom_site_type_symbol
_atom_site_label
_atom_site_fract_x
_atom_site_fract_y
_atom_site_fract_z
Si Si1 0.847064 0.036501 0.039441
Si Si2 0.662133 0.605341 0.645196
Si Si3 0.672819 0.067373 0.854545
Si Si4 0.304244 0.702726 0.138335
Si Si5 0.555218 0.750000 0.000000
O O1 0.821121 0.143005 0.083696
O O2 0.787129 0.968980 0.122937
O O3 0.742027 0.023565 0.948093
O O4 0.000000 0.000000 0.000000
O O5 0.677156 0.648822 0.750000
O O6 0.501423 0.558439 0.642057
O O7 0.654184 0.683946 0.564208
O O8 0.722192 0.031986 0.750000
O O9 0.711414 0.181543 0.859580
O O10 0.320352 0.673081 0.250000
O O11 0.448440 0.691664 0.072256
#
# Coordination Sequence:
#
# PCOD9434851 Si02
#       5
#     8   8   8   8   4
#     4  12  23  37  57  86 131 161 196 242 306 363
#     4  10  21  39  63  90 118 152 202 259 301 347
#     4   9  19  38  63  86 113 155 208 252 293 355
#     4  10  19  36  63  88 115 157 201 243 300 363
#     4  10  18  38  66  90 120 154 208 254 304 350
#
# _framework density 20.027290000000001
#
# number of rings (size 3 to 8) (size 9 to 14) (size 15 to 20)
#    0.000    1.778    4.444    3.333    0.000    1.778 
#    4.000    1.111    0.000    0.000    0.000    0.000 
#    0.000    0.000    0.000    0.000    0.000    0.000 
#
# Total GULP energy -200659.167645 kJ/mol
# GULP energy per Si atom -5573.865768 kJ/mol
# Density = 1.998171 g / cm^3
# Si number density = 20.027290 Si / 1000 Ang^3
#
#
#
# Elastic Constant Matrix: (Units=GPa)
#
#
# Indices 1 2 3 4 5 6 
#
# 1 56.0569 25.4370 11.8746 0.0000 0.0000 0.0000
# 2 25.4370 33.5954 7.4930 0.0000 0.0000 0.0000
# 3 11.8746 7.4930 131.5554 0.0000 0.0000 0.0000
# 4 0.0000 0.0000 0.0000 33.0060 0.0000 0.0000
# 5 0.0000 0.0000 0.0000 0.0000 -10.9972 0.0000
# 6 0.0000 0.0000 0.0000 0.0000 0.0000 11.9975
#
#
#
# Elastic Compliance Matrix: (Units=1/GPa)
#
#
# Indices 1 2 3 4 5 6 
#
# 1 0.027396 -0.020452 -0.001308 0.000000 0.000000 0.000000
# 2 -0.020452 0.045416 -0.000741 0.000000 0.000000 0.000000
# 3 -0.001308 -0.000741 0.007762 0.000000 0.000000 0.000000
# 4 0.000000 0.000000 0.000000 0.030298 0.000000 0.000000
# 5 0.000000 0.000000 0.000000 0.000000 -0.090932 0.000000
# 6 0.000000 0.000000 0.000000 0.000000 0.000000 0.083350
#
#
# Mechanical properties :
#
#
# Convention : Reuss Voigt Hill
#
# Bulk Modulus (GPa) = 28.11079 34.53520 31.32300
# Shear Modulus (GPa) = 31.22091 18.56147 24.89119
#
# Velocity S-wave (km/s) = 3.95260 3.04766 3.52925
# Velocity P-wave (km/s) = 5.90740 5.44663 5.68169
#
# Compressibility (1/GPa) = 0.03557352
#
# Stress axis : x y z
#
# Youngs Moduli (GPa) = 36.50106 22.01849 128.83912
#
# Poissons Ratio (x) = 0.45032 0.16852
# Poissons Ratio (y) = 0.74651 0.09544
# Poissons Ratio (z) = 0.04774 0.01631
#
# Static dielectric constant tensor:
#      x y z
#    x 1.683840 0.000000 0.000000 
#    y 0.000000 1.792880 0.000000 
#    z 0.000000 0.000000 1.727090 
# 
# From -- ./inp_files/15785.got.cif
#   From: 2010.05.17/outbox.cif.g08.bks.cpg/sg57_8_cif.got.tgz:15785.got - 2010.06.03 13:58:18.
