data_PCOD9434920
_publ_section_title
;
Structure prediction by ZEFSAII (Michael W. Deem and Ramdas Pophale) SiO2 
 PCOD9434920
Probable space group: P B C M
;
_chemical_formula_sum "Si O2"
_cell_formula_units_Z 48
_cell_length_a 12.404773
_cell_length_b 26.377631
_cell_length_c 8.717598
_cell_angle_alpha 90.000000
_cell_angle_beta 90.000000
_cell_angle_gamma 90.000000
_cell_volume 2852.472382
_symmetry_space_group_name_H-M "P B C M"
_symmetry_group_IT_number 57
_symmetry_cell_setting 'orthorhombic'
loop_
_space_group_symop_operation_xyz
x,y,z
-x,-y,1/2+z
x,1/2-y,-z
-x,1/2+y,1/2-z
-x,-y,-z
x,y,1/2-z
-x,1/2+y,z
x,1/2-y,1/2+z
loop_
_atom_site_type_symbol
_atom_site_label
_atom_site_fract_x
_atom_site_fract_y
_atom_site_fract_z
Si Si1 0.647807 0.531069 0.072400
Si Si2 0.486987 0.618262 0.063968
Si Si3 0.171720 0.117961 0.428318
Si Si4 0.338270 0.306051 0.068204
Si Si5 0.967910 0.055386 0.063191
Si Si6 0.274550 0.571845 0.432903
O O1 0.631514 0.515757 0.250000
O O2 0.547823 0.565726 0.021340
O O3 0.749108 0.569329 0.067300
O O4 0.675451 0.482784 0.972262
O O5 0.492453 0.621562 0.250000
O O6 0.362941 0.612908 0.013277
O O7 0.558303 0.663294 0.996380
O O8 0.163073 0.133689 0.250000
O O9 0.232649 0.161879 0.519226
O O10 0.056781 0.097098 0.482978
O O11 0.345231 0.303882 0.250000
O O12 0.334393 0.250000 0.000000
O O13 0.969624 0.052442 0.250000
O O14 0.848220 0.071142 0.009769
O O15 0.000000 0.000000 0.000000
O O16 0.268576 0.577397 0.250000
#
# Coordination Sequence:
#
# PCOD9434920 Si02
#       6
#     8   8   8   8   8   8
#     4   9  16  27  44  66 100 141 171 206 249 287
#     4   9  19  34  48  70 104 134 166 209 255 301
#     4   9  18  33  50  73 106 139 171 213 256 294
#     4  11  22  37  59  81  98 123 162 212 266 317
#     4  10  19  31  48  72 106 145 180 211 247 292
#     4  10  19  29  46  71 102 141 177 206 242 293
#
# _framework density 16.827507000000001
#
# number of rings (size 3 to 8) (size 9 to 14) (size 15 to 20)
#    0.000    2.333    1.667    3.000    0.000    4.000 
#    0.000    0.000    0.000    1.000    0.000    0.000 
#    0.000    0.000    0.000    0.000    0.000    0.000 
#
# Total GULP energy -267588.355948 kJ/mol
# GULP energy per Si atom -5574.757416 kJ/mol
# Density = 1.678921 g / cm^3
# Si number density = 16.827507 Si / 1000 Ang^3
#
#
#
# Elastic Constant Matrix: (Units=GPa)
#
#
# Indices 1 2 3 4 5 6 
#
# 1 162.1120 70.2846 37.1989 0.0000 0.0000 0.0000
# 2 70.2846 88.1366 25.4403 0.0000 0.0000 0.0000
# 3 37.1989 25.4403 25.5819 0.0000 0.0000 0.0000
# 4 0.0000 0.0000 0.0000 26.6374 0.0000 0.0000
# 5 0.0000 0.0000 0.0000 0.0000 16.9490 0.0000
# 6 0.0000 0.0000 0.0000 0.0000 0.0000 7.7186
#
#
#
# Elastic Compliance Matrix: (Units=1/GPa)
#
#
# Indices 1 2 3 4 5 6 
#
# 1 0.011064 -0.005862 -0.010259 0.000000 0.000000 0.000000
# 2 -0.005862 0.019020 -0.010391 0.000000 0.000000 0.000000
# 3 -0.010259 -0.010391 0.064341 0.000000 0.000000 0.000000
# 4 0.000000 0.000000 0.000000 0.037541 0.000000 0.000000
# 5 0.000000 0.000000 0.000000 0.000000 0.059000 0.000000
# 6 0.000000 0.000000 0.000000 0.000000 0.000000 0.129556
#
#
# Mechanical properties :
#
#
# Convention : Reuss Voigt Hill
#
# Bulk Modulus (GPa) = 24.15354 60.18646 42.17000
# Shear Modulus (GPa) = 12.90832 19.78812 16.34822
#
# Velocity S-wave (km/s) = 2.77266 3.43292 3.12030
# Velocity P-wave (km/s) = 4.96336 7.18036 6.17222
#
# Compressibility (1/GPa) = 0.04140181
#
# Stress axis : x y z
#
# Youngs Moduli (GPa) = 90.38244 52.57677 15.54215
#
# Poissons Ratio (x) = 0.30820 0.15945
# Poissons Ratio (y) = 0.52981 0.16149
# Poissons Ratio (z) = 0.92724 0.54631
#
# Static dielectric constant tensor:
#      x y z
#    x 1.620170 0.000000 0.000000 
#    y 0.000000 1.529990 0.000000 
#    z 0.000000 0.000000 1.575330 
# 
# From -- ./inp_files/3112.got.cif
#   From: 2010.05.17/outbox.cif.g08.bks.cpg/sg57_2_cif.got.tgz:3112.got - 2010.06.03 13:58:18.
