data_PCOD9434823
_publ_section_title
;
Structure prediction by ZEFSAII (Michael W. Deem and Ramdas Pophale) SiO2 
 PCOD9434823
Probable space group: P B C M
;
_chemical_formula_sum "Si O2"
_cell_formula_units_Z 44
_cell_length_a 11.823445
_cell_length_b 8.398432
_cell_length_c 17.703729
_cell_angle_alpha 90.000000
_cell_angle_beta 90.000000
_cell_angle_gamma 90.000000
_cell_volume 1757.951943
_symmetry_space_group_name_H-M "P B C M"
_symmetry_group_IT_number 57
_symmetry_cell_setting 'orthorhombic'
loop_
_space_group_symop_operation_xyz
x,y,z
-x,-y,1/2+z
x,1/2-y,-z
-x,1/2+y,1/2-z
-x,-y,-z
x,y,1/2-z
-x,1/2+y,z
x,1/2-y,1/2+z
loop_
_atom_site_type_symbol
_atom_site_label
_atom_site_fract_x
_atom_site_fract_y
_atom_site_fract_z
Si Si1 0.247079 0.041461 0.991831
Si Si2 0.332457 0.191206 0.122472
Si Si3 0.846523 0.187887 0.379475
Si Si4 0.449406 0.108011 0.750000
Si Si5 0.160843 0.384935 0.750000
Si Si6 0.058526 0.459486 0.250000
Si Si7 0.676090 0.247438 0.250000
Si Si8 0.968533 0.750000 0.000000
O O1 0.287213 0.166051 0.929028
O O2 0.228583 0.881740 0.947168
O O3 0.338760 0.052609 0.059121
O O4 0.119516 0.103365 0.012643
O O5 0.419424 0.281000 0.177452
O O6 0.236583 0.128504 0.177248
O O7 0.895172 0.048515 0.324501
O O8 0.755640 0.264675 0.323029
O O9 0.952470 0.265274 0.424936
O O10 0.584544 0.110118 0.750000
O O11 0.383541 0.935183 0.750000
O O12 0.074799 0.527127 0.750000
O O13 0.089424 0.222767 0.750000
#
# Coordination Sequence:
#
# PCOD9434823 Si02
#       8
#     8   8   8   4   4   4   4   4
#     4  10  18  36  62  93 126 170 202 239 313 390
#     4   9  18  36  62  83 115 159 215 248 299 385
#     4  11  21  41  58  91 131 169 204 264 318 368
#     4  11  21  47  68  89 115 166 221 276 329 362
#     4  11  19  35  52  88 116 165 210 251 296 364
#     4  11  21  33  58  80 124 165 207 241 304 373
#     4  11  25  45  72  87 123 168 218 274 325 367
#     4  10  22  32  60  96 136 166 200 246 310 386
#
# _framework density 25.029126999999999
#
# number of rings (size 3 to 8) (size 9 to 14) (size 15 to 20)
#    0.000    1.818    3.636    3.818    0.000    0.000 
#    3.273    4.545    0.000    0.000    0.000    0.000 
#    0.000    0.000    0.000    0.000    0.000    0.000 
#
# Total GULP energy -245689.508902 kJ/mol
# GULP energy per Si atom -5583.852475 kJ/mol
# Density = 2.497216 g / cm^3
# Si number density = 25.029127 Si / 1000 Ang^3
#
#
#
# Elastic Constant Matrix: (Units=GPa)
#
#
# Indices 1 2 3 4 5 6 
#
# 1 81.6247 25.3938 37.6387 0.0000 0.0000 0.0000
# 2 25.3938 81.9225 40.6762 0.0000 0.0000 0.0000
# 3 37.6387 40.6762 157.8020 0.0000 0.0000 0.0000
# 4 0.0000 0.0000 0.0000 41.9656 0.0000 0.0000
# 5 0.0000 0.0000 0.0000 0.0000 364.6326 0.0000
# 6 0.0000 0.0000 0.0000 0.0000 0.0000 37.6784
#
#
#
# Elastic Compliance Matrix: (Units=1/GPa)
#
#
# Indices 1 2 3 4 5 6 
#
# 1 0.014451 -0.003174 -0.002629 0.000000 0.000000 0.000000
# 2 -0.003174 0.014695 -0.003031 0.000000 0.000000 0.000000
# 3 -0.002629 -0.003031 0.007745 0.000000 0.000000 0.000000
# 4 0.000000 0.000000 0.000000 0.023829 0.000000 0.000000
# 5 0.000000 0.000000 0.000000 0.000000 0.002742 0.000000
# 6 0.000000 0.000000 0.000000 0.000000 0.000000 0.026540
#
#
# Mechanical properties :
#
#
# Convention : Reuss Voigt Hill
#
# Bulk Modulus (GPa) = 52.01785 58.75184 55.38484
# Shear Modulus (GPa) = 43.82932 103.36470 73.59701
#
# Velocity S-wave (km/s) = 4.18919 6.43331 5.42848
# Velocity P-wave (km/s) = 6.65035 8.87173 7.84011
#
# Compressibility (1/GPa) = 0.01922417
#
# Stress axis : x y z
#
# Youngs Moduli (GPa) = 69.20040 68.04811 129.11075
#
# Poissons Ratio (x) = 0.21600 0.33938
# Poissons Ratio (y) = 0.21966 0.39132
# Poissons Ratio (z) = 0.18190 0.20625
#
# Static dielectric constant tensor:
#      x y z
#    x 1.978300 0.000000 0.000000 
#    y 0.000000 2.094520 0.000000 
#    z 0.000000 0.000000 2.010150 
# 
# From -- ./inp_files/21775.got.cif
#   From: 2010.05.17/outbox.cif.g08.bks.cpg/sg57_11_cif.got.tgz:21775.got - 2010.06.03 13:58:18.
