data_PCOD9434383
_publ_section_title
;
Structure prediction by ZEFSAII (Michael W. Deem and Ramdas Pophale) SiO2 
 PCOD9434383
Probable space group: P B C M
;
_chemical_formula_sum "Si O2"
_cell_formula_units_Z 64
_cell_length_a 12.395236
_cell_length_b 33.050550
_cell_length_c 7.955718
_cell_angle_alpha 90.000000
_cell_angle_beta 90.000000
_cell_angle_gamma 90.000000
_cell_volume 3259.213959
_symmetry_space_group_name_H-M "P B C M"
_symmetry_group_IT_number 57
_symmetry_cell_setting 'orthorhombic'
loop_
_space_group_symop_operation_xyz
x,y,z
-x,-y,1/2+z
x,1/2-y,-z
-x,1/2+y,1/2-z
-x,-y,-z
x,y,1/2-z
-x,1/2+y,z
x,1/2-y,1/2+z
loop_
_atom_site_type_symbol
_atom_site_label
_atom_site_fract_x
_atom_site_fract_y
_atom_site_fract_z
Si Si1 0.123931 0.501650 0.950798
Si Si2 0.131993 0.086755 0.453633
Si Si3 0.924796 0.794519 0.047063
Si Si4 0.488479 0.547607 0.949617
Si Si5 0.648348 0.619416 0.050026
Si Si6 0.928059 0.366702 0.052201
Si Si7 0.743181 0.421647 0.457067
Si Si8 0.677344 0.794523 0.050209
O O1 0.130699 0.504080 0.750000
O O2 0.169181 0.458200 0.000918
O O3 0.187980 0.539718 0.016890
O O4 0.000000 0.500000 0.000000
O O5 0.120757 0.088954 0.250000
O O6 0.228374 0.115180 0.514362
O O7 0.017175 0.097884 0.531258
O O8 0.920042 0.798488 0.250000
O O9 0.007441 0.828291 0.979830
O O10 0.801195 0.797350 0.981346
O O11 0.963850 0.750000 0.000000
O O12 0.480784 0.546184 0.750000
O O13 0.377843 0.568777 0.013757
O O14 0.500000 0.500000 0.000000
O O15 0.581061 0.580170 0.993982
O O16 0.652465 0.617192 0.250000
O O17 0.613589 0.664962 0.002705
O O18 0.912581 0.359017 0.250000
O O19 0.813106 0.382737 0.986364
O O20 0.742663 0.420506 0.250000
O O21 0.683227 0.795065 0.250000
O O22 0.635234 0.750000 0.000000
#
# Coordination Sequence:
#
# PCOD9434383 Si02
#       8
#     8   8   8   8   8   8   8   8
#     4  10  18  30  47  70 100 134 168 207 257 314
#     4  10  20  31  47  75 109 140 173 216 270 322
#     4   9  18  30  49  77 111 144 176 211 260 324
#     4  11  23  41  61  81 107 148 196 243 292 345
#     4  11  22  37  57  81 112 150 189 236 284 332
#     4  10  18  32  53  77 104 138 177 217 262 326
#     4   9  19  35  55  75 104 140 178 224 274 325
#     4  10  19  33  54  85 118 150 185 228 281 339
#
# _framework density 19.636637
#
# number of rings (size 3 to 8) (size 9 to 14) (size 15 to 20)
#    0.000    2.000    2.500    1.875    0.000    3.500 
#    0.000    3.750    0.000    0.750    0.000    1.750 
#    0.000    0.000    0.000    0.000    0.000    0.000 
#
# Total GULP energy -356626.908024 kJ/mol
# GULP energy per Si atom -5572.295438 kJ/mol
# Density = 1.959194 g / cm^3
# Si number density = 19.636637 Si / 1000 Ang^3
#
#
#
# Elastic Constant Matrix: (Units=GPa)
#
#
# Indices 1 2 3 4 5 6 
#
# 1 77.4453 27.4715 0.0751 0.0000 0.0000 0.0000
# 2 27.4715 124.9115 6.7588 0.0000 0.0000 0.0000
# 3 0.0751 6.7588 22.5949 0.0000 0.0000 0.0000
# 4 0.0000 0.0000 0.0000 25.6161 0.0000 0.0000
# 5 0.0000 0.0000 0.0000 0.0000 13.3138 0.0000
# 6 0.0000 0.0000 0.0000 0.0000 0.0000 27.1296
#
#
#
# Elastic Compliance Matrix: (Units=1/GPa)
#
#
# Indices 1 2 3 4 5 6 
#
# 1 0.014023 -0.003132 0.000890 0.000000 0.000000 0.000000
# 2 -0.003132 0.008837 -0.002633 0.000000 0.000000 0.000000
# 3 0.000890 -0.002633 0.045042 0.000000 0.000000 0.000000
# 4 0.000000 0.000000 0.000000 0.039038 0.000000 0.000000
# 5 0.000000 0.000000 0.000000 0.000000 0.075110 0.000000
# 6 0.000000 0.000000 0.000000 0.000000 0.000000 0.036860
#
#
# Mechanical properties :
#
#
# Convention : Reuss Voigt Hill
#
# Bulk Modulus (GPa) = 17.19622 32.61804 24.90713
# Shear Modulus (GPa) = 20.15777 25.92167 23.03972
#
# Velocity S-wave (km/s) = 3.20744 3.63721 3.42907
# Velocity P-wave (km/s) = 4.74269 5.85542 5.32818
#
# Compressibility (1/GPa) = 0.05815231
#
# Stress axis : x y z
#
# Youngs Moduli (GPa) = 71.31394 113.16093 22.20131
#
# Poissons Ratio (x) = 0.35443 -0.01977
# Poissons Ratio (y) = 0.22336 0.05846
# Poissons Ratio (z) = -0.06349 0.29795
#
# Static dielectric constant tensor:
#      x y z
#    x 1.713380 0.000000 0.000000 
#    y 0.000000 1.755110 0.000000 
#    z 0.000000 0.000000 1.689360 
# 
# From -- ./inp_files/3833.got.cif
#   From: 2010.05.17/outbox.cif.g08.bks.cpg/sg57_2_cif.got.tgz:3833.got - 2010.06.03 13:58:18.
