data_PCOD9434466
_publ_section_title
;
Structure prediction by ZEFSAII (Michael W. Deem and Ramdas Pophale) SiO2 
 PCOD9434466
Probable space group: P B C M
;
_chemical_formula_sum "Si O2"
_cell_formula_units_Z 64
_cell_length_a 17.609236
_cell_length_b 26.160949
_cell_length_c 8.667810
_cell_angle_alpha 90.000000
_cell_angle_beta 90.000000
_cell_angle_gamma 90.000000
_cell_volume 3993.037520
_symmetry_space_group_name_H-M "P B C M"
_symmetry_group_IT_number 57
_symmetry_cell_setting 'orthorhombic'
loop_
_space_group_symop_operation_xyz
x,y,z
-x,-y,1/2+z
x,1/2-y,-z
-x,1/2+y,1/2-z
-x,-y,-z
x,y,1/2-z
-x,1/2+y,z
x,1/2-y,1/2+z
loop_
_atom_site_type_symbol
_atom_site_label
_atom_site_fract_x
_atom_site_fract_y
_atom_site_fract_z
Si Si1 0.910512 0.305937 0.565175
Si Si2 0.818388 0.099057 0.565233
Si Si3 0.914945 0.998228 0.564536
Si Si4 0.176811 0.098569 0.935672
Si Si5 0.912937 0.694173 0.065233
Si Si6 0.337727 0.560520 0.434995
Si Si7 0.503667 0.057790 0.564483
Si Si8 0.662372 0.941006 0.437014
O O1 0.891009 0.250000 0.500000
O O2 0.905510 0.305178 0.750000
O O3 0.857853 0.350219 0.498616
O O4 0.998798 0.316296 0.522287
O O5 0.815301 0.101139 0.750000
O O6 0.869309 0.049680 0.521113
O O7 0.734366 0.090410 0.499225
O O8 0.916885 0.994657 0.750000
O O9 0.871396 0.949454 0.496661
O O10 0.000000 0.000000 0.500000
O O11 0.174696 0.098607 0.750000
O O12 0.263885 0.089908 0.988148
O O13 0.140021 0.150224 0.998052
O O14 0.908166 0.694707 0.250000
O O15 0.893545 0.750000 0.000000
O O16 0.337877 0.561495 0.250000
O O17 0.418893 0.580254 0.496419
O O18 0.330285 0.500643 0.485160
O O19 0.508511 0.056832 0.750000
O O20 0.420964 0.079661 0.518414
O O21 0.500000 0.000000 0.500000
O O22 0.663351 0.941633 0.250000
#
# Coordination Sequence:
#
# PCOD9434466 Si02
#       8
#     8   8   8   8   8   8   8   8
#     4  10  21  37  56  74  97 128 167 214 259 301
#     4  11  22  34  50  74 102 133 170 209 251 300
#     4  11  23  35  48  70 100 136 172 207 250 304
#     4  11  20  33  52  74 102 136 169 208 253 301
#     4  10  21  37  55  76  99 130 171 216 260 301
#     4  10  18  31  48  70 100 135 170 206 250 299
#     4   9  16  28  45  68  97 132 170 205 246 297
#     4   8  16  29  46  69  99 134 167 201 246 298
#
# _framework density 16.027898
#
# number of rings (size 3 to 8) (size 9 to 14) (size 15 to 20)
#    0.000    2.000    1.250    4.125    0.000    5.000 
#    0.000    1.875    0.000    0.000    0.000    0.875 
#    0.000    2.000    0.000    0.000    0.000    0.000 
#
# Total GULP energy -357071.810072 kJ/mol
# GULP energy per Si atom -5579.247032 kJ/mol
# Density = 1.599142 g / cm^3
# Si number density = 16.027898 Si / 1000 Ang^3
#
#
#
# Elastic Constant Matrix: (Units=GPa)
#
#
# Indices 1 2 3 4 5 6 
#
# 1 175.9664 88.9859 49.0711 0.0000 0.0000 0.0000
# 2 88.9859 105.0161 38.8052 0.0000 0.0000 0.0000
# 3 49.0711 38.8052 53.1650 0.0000 0.0000 0.0000
# 4 0.0000 0.0000 0.0000 26.1391 0.0000 0.0000
# 5 0.0000 0.0000 0.0000 0.0000 26.4518 0.0000
# 6 0.0000 0.0000 0.0000 0.0000 0.0000 15.1776
#
#
#
# Elastic Compliance Matrix: (Units=1/GPa)
#
#
# Indices 1 2 3 4 5 6 
#
# 1 0.010659 -0.007390 -0.004445 0.000000 0.000000 0.000000
# 2 -0.007390 0.018162 -0.006436 0.000000 0.000000 0.000000
# 3 -0.004445 -0.006436 0.027609 0.000000 0.000000 0.000000
# 4 0.000000 0.000000 0.000000 0.038257 0.000000 0.000000
# 5 0.000000 0.000000 0.000000 0.000000 0.037805 0.000000
# 6 0.000000 0.000000 0.000000 0.000000 0.000000 0.065887
#
#
# Mechanical properties :
#
#
# Convention : Reuss Voigt Hill
#
# Bulk Modulus (GPa) = 50.27605 76.43022 63.35314
# Shear Modulus (GPa) = 20.69960 24.03939 22.36950
#
# Velocity S-wave (km/s) = 3.59761 3.87699 3.73991
# Velocity P-wave (km/s) = 6.97803 8.23594 7.63294
#
# Compressibility (1/GPa) = 0.01989019
#
# Stress axis : x y z
#
# Youngs Moduli (GPa) = 93.81324 55.05878 36.21960
#
# Poissons Ratio (x) = 0.40688 0.16099
# Poissons Ratio (y) = 0.69328 0.23310
# Poissons Ratio (z) = 0.41697 0.35435
#
# Static dielectric constant tensor:
#      x y z
#    x 1.558140 0.000000 0.000000 
#    y 0.000000 1.505520 0.000000 
#    z 0.000000 0.000000 1.539570 
# 
# From -- ./inp_files/7130.got.cif
#   From: 2010.05.17/outbox.cif.g08.bks.cpg/sg57_4_cif.got.tgz:7130.got - 2010.06.03 13:58:18.
