data_PCOD9434561
_publ_section_title
;
Structure prediction by ZEFSAII (Michael W. Deem and Ramdas Pophale) SiO2 
 PCOD9434561
Probable space group: P B C M
;
_chemical_formula_sum "Si O2"
_cell_formula_units_Z 40
_cell_length_a 25.341595
_cell_length_b 8.709691
_cell_length_c 9.975455
_cell_angle_alpha 90.000000
_cell_angle_beta 90.000000
_cell_angle_gamma 90.000000
_cell_volume 2201.757109
_symmetry_space_group_name_H-M "P B C M"
_symmetry_group_IT_number 57
_symmetry_cell_setting 'orthorhombic'
loop_
_space_group_symop_operation_xyz
x,y,z
-x,-y,1/2+z
x,1/2-y,-z
-x,1/2+y,1/2-z
-x,-y,-z
x,y,1/2-z
-x,1/2+y,z
x,1/2-y,1/2+z
loop_
_atom_site_type_symbol
_atom_site_label
_atom_site_fract_x
_atom_site_fract_y
_atom_site_fract_z
Si Si1 0.432000 0.524694 0.750000
Si Si2 0.262900 0.599554 0.406759
Si Si3 0.452214 0.892025 0.750000
Si Si4 0.957842 0.903655 0.412259
Si Si5 0.146810 0.604714 0.403371
Si Si6 0.624904 0.063503 0.014767
O O1 0.445718 0.707332 0.750000
O O2 0.486892 0.435741 0.750000
O O3 0.396485 0.493899 0.621238
O O4 0.260823 0.750000 0.500000
O O5 0.269081 0.642393 0.250000
O O6 0.204643 0.528388 0.424281
O O7 0.316388 0.511406 0.445506
O O8 0.420401 0.958714 0.624133
O O9 0.953185 0.750000 0.500000
O O10 0.970864 0.884604 0.250000
O O11 0.901979 0.991156 0.417570
O O12 0.000000 0.000000 0.500000
O O13 0.140719 0.750000 0.500000
O O14 0.146794 0.662280 0.250000
O O15 0.628718 0.250000 0.000000
#
# Coordination Sequence:
#
# PCOD9434561 Si02
#       6
#     4   8   4   8   8   8
#     4  10  20  30  48  66  98 120 165 200 251 302
#     4   9  16  28  48  74 102 129 166 211 258 303
#     4  10  18  32  46  70  90 128 157 206 249 302
#     4  11  23  39  60  84 116 152 190 230 274 323
#     4   9  19  34  54  82 111 141 176 223 272 322
#     4   9  17  28  46  69  95 125 160 205 252 298
#
# _framework density 18.167307999999998
#
# number of rings (size 3 to 8) (size 9 to 14) (size 15 to 20)
#    0.000    2.400    1.000    1.800    4.200    3.200 
#    0.000    0.000    0.000    2.400    0.000    0.000 
#    0.000    0.000    0.000    0.000    0.000    0.000 
#
# Total GULP energy -222685.011618 kJ/mol
# GULP energy per Si atom -5567.125290 kJ/mol
# Density = 1.812596 g / cm^3
# Si number density = 18.167308 Si / 1000 Ang^3
#
#
#
# Elastic Constant Matrix: (Units=GPa)
#
#
# Indices 1 2 3 4 5 6 
#
# 1 163.3871 32.3462 82.6437 0.0000 0.0000 0.0000
# 2 32.3462 32.6423 36.0980 0.0000 0.0000 0.0000
# 3 82.6437 36.0980 151.8223 0.0000 0.0000 0.0000
# 4 0.0000 0.0000 0.0000 11.2661 0.0000 0.0000
# 5 0.0000 0.0000 0.0000 0.0000 31.1334 0.0000
# 6 0.0000 0.0000 0.0000 0.0000 0.0000 11.1594
#
#
#
# Elastic Compliance Matrix: (Units=1/GPa)
#
#
# Indices 1 2 3 4 5 6 
#
# 1 0.008953 -0.004724 -0.003750 0.000000 0.000000 0.000000
# 2 -0.004724 0.044057 -0.007903 0.000000 0.000000 0.000000
# 3 -0.003750 -0.007903 0.010507 0.000000 0.000000 0.000000
# 4 0.000000 0.000000 0.000000 0.088762 0.000000 0.000000
# 5 0.000000 0.000000 0.000000 0.000000 0.032120 0.000000
# 6 0.000000 0.000000 0.000000 0.000000 0.000000 0.089611
#
#
# Mechanical properties :
#
#
# Convention : Reuss Voigt Hill
#
# Bulk Modulus (GPa) = 32.50895 72.22529 52.36712
# Shear Modulus (GPa) = 15.77199 23.82938 19.80069
#
# Velocity S-wave (km/s) = 2.94964 3.62562 3.30496
# Velocity P-wave (km/s) = 5.43448 7.57422 6.59175
#
# Compressibility (1/GPa) = 0.03076076
#
# Stress axis : x y z
#
# Youngs Moduli (GPa) = 111.70046 22.69801 95.17377
#
# Poissons Ratio (x) = 0.10723 0.35690
# Poissons Ratio (y) = 0.52771 0.75220
# Poissons Ratio (z) = 0.41887 0.17939
#
# Static dielectric constant tensor:
#      x y z
#    x 1.653640 0.000000 0.000000 
#    y 0.000000 1.617650 0.000000 
#    z 0.000000 0.000000 1.623840 
# 
# From -- ./inp_files/8941.got.cif
#   From: 2010.05.17/outbox.cif.g08.bks.cpg/sg57_5_cif.got.tgz:8941.got - 2010.06.03 13:58:18.
