data_PCOD9434054
_publ_section_title
;
Structure prediction by ZEFSAII (Michael W. Deem and Ramdas Pophale) SiO2 
 PCOD9434054
Probable space group: P B C M
;
_chemical_formula_sum "Si O2"
_cell_formula_units_Z 48
_cell_length_a 9.178770
_cell_length_b 32.220587
_cell_length_c 8.799172
_cell_angle_alpha 90.000000
_cell_angle_beta 90.000000
_cell_angle_gamma 90.000000
_cell_volume 2602.314267
_symmetry_space_group_name_H-M "P B C M"
_symmetry_group_IT_number 57
_symmetry_cell_setting 'orthorhombic'
loop_
_space_group_symop_operation_xyz
x,y,z
-x,-y,1/2+z
x,1/2-y,-z
-x,1/2+y,1/2-z
-x,-y,-z
x,y,1/2-z
-x,1/2+y,z
x,1/2-y,1/2+z
loop_
_atom_site_type_symbol
_atom_site_label
_atom_site_fract_x
_atom_site_fract_y
_atom_site_fract_z
Si Si1 0.074577 0.883808 0.068450
Si Si2 0.915359 0.208591 0.931864
Si Si3 0.419026 0.622549 0.931615
Si Si4 0.588020 0.208033 0.069203
Si Si5 0.410624 0.461638 0.067550
Si Si6 0.088592 0.461531 0.930768
O O1 0.059179 0.890969 0.250000
O O2 0.019977 0.836882 0.035667
O O3 0.247744 0.884866 0.033170
O O4 0.990987 0.919083 0.978637
O O5 0.901888 0.212571 0.750000
O O6 0.987451 0.250000 0.000000
O O7 0.753422 0.207101 0.003835
O O8 0.427145 0.629650 0.750000
O O9 0.474313 0.664035 0.014359
O O10 0.508981 0.581576 0.970426
O O11 0.590852 0.210797 0.250000
O O12 0.519843 0.250000 0.000000
O O13 0.594676 0.534951 0.750000
O O14 0.249677 0.461750 0.999813
O O15 0.500000 0.500000 0.000000
O O16 0.094652 0.465577 0.750000
O O17 0.000000 0.500000 0.000000
#
# Coordination Sequence:
#
# PCOD9434054 Si02
#       6
#     8   8   8   8   8   8
#     4   9  18  34  55  81 112 144 181 226 275 324
#     4   9  16  27  46  73 107 142 178 222 268 316
#     4   9  19  35  55  80 110 143 179 223 273 322
#     4  10  17  26  45  73 107 143 180 222 265 313
#     4  11  23  40  62  85 112 144 179 223 274 329
#     4  12  25  40  59  82 110 144 184 228 274 328
#
# _framework density 18.445119999999999
#
# number of rings (size 3 to 8) (size 9 to 14) (size 15 to 20)
#    0.000    2.000    0.000    7.000    0.000    6.000 
#    0.000    0.000    0.000    1.000    0.000    4.667 
#    0.000    0.000    0.000    0.000    0.000    0.000 
#
# Total GULP energy -267898.684276 kJ/mol
# GULP energy per Si atom -5581.222589 kJ/mol
# Density = 1.840314 g / cm^3
# Si number density = 18.445120 Si / 1000 Ang^3
#
#
#
# Elastic Constant Matrix: (Units=GPa)
#
#
# Indices 1 2 3 4 5 6 
#
# 1 71.1439 71.7961 42.6610 0.0000 0.0000 0.0000
# 2 71.7961 211.0254 101.4014 0.0000 0.0000 0.0000
# 3 42.6610 101.4014 104.6309 0.0000 0.0000 0.0000
# 4 0.0000 0.0000 0.0000 39.3014 0.0000 0.0000
# 5 0.0000 0.0000 0.0000 0.0000 23.1698 0.0000
# 6 0.0000 0.0000 0.0000 0.0000 0.0000 17.1659
#
#
#
# Elastic Compliance Matrix: (Units=1/GPa)
#
#
# Indices 1 2 3 4 5 6 
#
# 1 0.021966 -0.005932 -0.003207 0.000000 0.000000 0.000000
# 2 -0.005932 0.010471 -0.007729 0.000000 0.000000 0.000000
# 3 -0.003207 -0.007729 0.018355 0.000000 0.000000 0.000000
# 4 0.000000 0.000000 0.000000 0.025444 0.000000 0.000000
# 5 0.000000 0.000000 0.000000 0.000000 0.043160 0.000000
# 6 0.000000 0.000000 0.000000 0.000000 0.000000 0.058255
#
#
# Mechanical properties :
#
#
# Convention : Reuss Voigt Hill
#
# Bulk Modulus (GPa) = 58.63131 90.94635 74.78883
# Shear Modulus (GPa) = 23.03373 27.32352 25.17862
#
# Velocity S-wave (km/s) = 3.53763 3.85300 3.69867
# Velocity P-wave (km/s) = 6.96723 8.31911 7.67300
#
# Compressibility (1/GPa) = 0.01705573
#
# Stress axis : x y z
#
# Youngs Moduli (GPa) = 45.52553 95.50139 54.47992
#
# Poissons Ratio (x) = 0.56655 0.17471
# Poissons Ratio (y) = 0.27007 0.42108
# Poissons Ratio (z) = 0.14599 0.73814
#
# Static dielectric constant tensor:
#      x y z
#    x 1.614790 0.000000 0.000000 
#    y 0.000000 1.676880 0.000000 
#    z 0.000000 0.000000 1.613470 
# 
# From -- ./inp_files/2061.got.cif
#   From: 2010.05.17/outbox.cif.g08.bks.cpg/sg57_2_cif.got.tgz:2061.got - 2010.06.03 13:58:18.
