data_PCOD9434473
_publ_section_title
;
Structure prediction by ZEFSAII (Michael W. Deem and Ramdas Pophale) SiO2 
 PCOD9434473
Probable space group: P B C M
;
_chemical_formula_sum "Si O2"
_cell_formula_units_Z 64
_cell_length_a 18.307754
_cell_length_b 23.230443
_cell_length_c 8.084070
_cell_angle_alpha 90.000000
_cell_angle_beta 90.000000
_cell_angle_gamma 90.000000
_cell_volume 3438.132625
_symmetry_space_group_name_H-M "P B C M"
_symmetry_group_IT_number 57
_symmetry_cell_setting 'orthorhombic'
loop_
_space_group_symop_operation_xyz
x,y,z
-x,-y,1/2+z
x,1/2-y,-z
-x,1/2+y,1/2-z
-x,-y,-z
x,y,1/2-z
-x,1/2+y,z
x,1/2-y,1/2+z
loop_
_atom_site_type_symbol
_atom_site_label
_atom_site_fract_x
_atom_site_fract_y
_atom_site_fract_z
Si Si1 0.090374 0.651938 0.952455
Si Si2 0.929595 0.686923 0.553048
Si Si3 0.490932 0.433536 0.550723
Si Si4 0.650049 0.417859 0.551949
Si Si5 0.751912 0.187838 0.947069
Si Si6 0.080026 0.979505 0.050805
Si Si7 0.667087 0.550921 0.449676
Si Si8 0.176763 0.415499 0.550385
O O1 0.089799 0.653955 0.750000
O O2 0.164508 0.682009 0.011195
O O3 0.094076 0.585281 0.004862
O O4 0.012518 0.676418 0.011044
O O5 0.905099 0.750000 0.500000
O O6 0.933308 0.684006 0.750000
O O7 0.873788 0.637940 0.496411
O O8 0.500000 0.500000 0.500000
O O9 0.490028 0.428690 0.750000
O O10 0.566526 0.404705 0.492832
O O11 0.408918 0.420631 0.489809
O O12 0.649433 0.420313 0.750000
O O13 0.704966 0.367556 0.499923
O O14 0.669622 0.482580 0.491896
O O15 0.754942 0.186722 0.750000
O O16 0.721774 0.250000 0.000000
O O17 0.083403 0.978802 0.250000
O O18 0.137672 0.026231 0.989357
O O19 0.000000 0.000000 0.000000
O O20 0.666239 0.553729 0.250000
O O21 0.739920 0.582713 0.509760
O O22 0.178448 0.417615 0.750000
#
# Coordination Sequence:
#
# PCOD9434473 Si02
#       8
#     8   8   8   8   8   8   8   8
#     4   9  19  35  54  74 100 132 168 210 255 303
#     4  11  22  37  55  72  96 130 172 216 257 300
#     4   8  15  28  49  76 105 134 163 197 241 296
#     4  10  19  32  51  79 110 137 169 208 253 309
#     4  11  22  37  54  73 101 138 178 219 260 307
#     4  10  18  31  49  73 102 131 163 202 248 299
#     4   9  17  32  54  79 107 139 170 207 257 308
#     4  10  20  33  52  77 105 135 170 208 252 303
#
# _framework density 18.614754999999999
#
# number of rings (size 3 to 8) (size 9 to 14) (size 15 to 20)
#    0.000    2.250    1.250    2.250    0.000    3.000 
#    0.000    4.375    0.000    0.750    0.000    0.000 
#    0.000    0.000    0.000    0.000    0.000    0.000 
#
# Total GULP energy -356839.217375 kJ/mol
# GULP energy per Si atom -5575.612771 kJ/mol
# Density = 1.857239 g / cm^3
# Si number density = 18.614755 Si / 1000 Ang^3
#
#
#
# Elastic Constant Matrix: (Units=GPa)
#
#
# Indices 1 2 3 4 5 6 
#
# 1 148.3823 37.5106 9.8291 0.0000 0.0000 0.0000
# 2 37.5106 78.8718 -2.1499 0.0000 0.0000 0.0000
# 3 9.8291 -2.1499 12.0044 0.0000 0.0000 0.0000
# 4 0.0000 0.0000 0.0000 20.3559 0.0000 0.0000
# 5 0.0000 0.0000 0.0000 0.0000 17.7847 0.0000
# 6 0.0000 0.0000 0.0000 0.0000 0.0000 12.7720
#
#
#
# Elastic Compliance Matrix: (Units=1/GPa)
#
#
# Indices 1 2 3 4 5 6 
#
# 1 0.008286 -0.004146 -0.007527 0.000000 0.000000 0.000000
# 2 -0.004146 0.014815 0.006048 0.000000 0.000000 0.000000
# 3 -0.007527 0.006048 0.090549 0.000000 0.000000 0.000000
# 4 0.000000 0.000000 0.000000 0.049126 0.000000 0.000000
# 5 0.000000 0.000000 0.000000 0.000000 0.056228 0.000000
# 6 0.000000 0.000000 0.000000 0.000000 0.000000 0.078296
#
#
# Mechanical properties :
#
#
# Convention : Reuss Voigt Hill
#
# Bulk Modulus (GPa) = 9.76557 36.62644 23.19601
# Shear Modulus (GPa) = 14.59069 23.12044 18.85557
#
# Velocity S-wave (km/s) = 2.80272 3.52810 3.18612
# Velocity P-wave (km/s) = 3.96626 6.02622 5.10130
#
# Compressibility (1/GPa) = 0.10240062
#
# Stress axis : x y z
#
# Youngs Moduli (GPa) = 120.68498 67.49723 11.04373
#
# Poissons Ratio (x) = 0.27984 0.08313
# Poissons Ratio (y) = 0.50035 -0.06679
# Poissons Ratio (z) = 0.90840 -0.40822
#
# Static dielectric constant tensor:
#      x y z
#    x 1.703810 0.000000 0.000000 
#    y 0.000000 -0.855610 0.000000 
#    z 0.000000 0.000000 1.657860 
# 
# From -- ./inp_files/7117.got.cif
#   From: 2010.05.17/outbox.cif.g08.bks.cpg/sg57_4_cif.got.tgz:7117.got - 2010.06.03 13:58:18.
