data_PCOD9434396
_publ_section_title
;
Structure prediction by ZEFSAII (Michael W. Deem and Ramdas Pophale) SiO2 
 PCOD9434396
Probable space group: P B C M
;
_chemical_formula_sum "Si O2"
_cell_formula_units_Z 40
_cell_length_a 10.950076
_cell_length_b 22.395105
_cell_length_c 9.096658
_cell_angle_alpha 90.000000
_cell_angle_beta 90.000000
_cell_angle_gamma 90.000000
_cell_volume 2230.756174
_symmetry_space_group_name_H-M "P B C M"
_symmetry_group_IT_number 57
_symmetry_cell_setting 'orthorhombic'
loop_
_space_group_symop_operation_xyz
x,y,z
-x,-y,1/2+z
x,1/2-y,-z
-x,1/2+y,1/2-z
-x,-y,-z
x,y,1/2-z
-x,1/2+y,z
x,1/2-y,1/2+z
loop_
_atom_site_type_symbol
_atom_site_label
_atom_site_fract_x
_atom_site_fract_y
_atom_site_fract_z
Si Si1 0.691691 0.502543 0.083543
Si Si2 0.392177 0.311600 0.424959
Si Si3 0.103710 0.187022 0.573789
Si Si4 0.077874 0.053373 0.572857
Si Si5 0.543064 0.087688 0.083782
O O1 0.737931 0.492810 0.250000
O O2 0.565547 0.538928 0.095098
O O3 0.786684 0.539922 0.987627
O O4 0.656491 0.442000 0.999749
O O5 0.427271 0.250000 0.500000
O O6 0.401332 0.309274 0.250000
O O7 0.248469 0.320912 0.461218
O O8 0.480824 0.360921 0.489960
O O9 0.064260 0.250000 0.500000
O O10 0.092340 0.193650 0.750000
O O11 0.044984 0.122500 0.532775
O O12 0.074526 0.049251 0.750000
O O13 0.000000 0.000000 0.500000
O O14 0.574375 0.105991 0.250000
#
# Coordination Sequence:
#
# PCOD9434396 Si02
#       5
#     8   8   8   8   8
#     4  10  20  33  51  75 103 138 174 212 261 314
#     4  10  18  30  48  74 106 139 174 216 263 317
#     4   9  19  33  52  76 106 138 175 220 269 319
#     4  11  22  37  55  80 110 143 182 228 273 324
#     4  10  19  31  50  75 105 138 171 211 259 315
#
# _framework density 17.931141
#
# number of rings (size 3 to 8) (size 9 to 14) (size 15 to 20)
#    0.000    2.000    2.000    2.400    0.000    4.000 
#    0.000    0.000    0.000    1.200    0.000    5.600 
#    0.000    0.000    0.000    0.000    0.000    0.000 
#
# Total GULP energy -222861.196776 kJ/mol
# GULP energy per Si atom -5571.529919 kJ/mol
# Density = 1.789033 g / cm^3
# Si number density = 17.931141 Si / 1000 Ang^3
#
#
#
# Elastic Constant Matrix: (Units=GPa)
#
#
# Indices 1 2 3 4 5 6 
#
# 1 13.9356 23.3612 14.7686 0.0000 0.0000 0.0000
# 2 23.3612 136.5802 57.3977 0.0000 0.0000 0.0000
# 3 14.7686 57.3977 88.2874 0.0000 0.0000 0.0000
# 4 0.0000 0.0000 0.0000 33.4672 0.0000 0.0000
# 5 0.0000 0.0000 0.0000 0.0000 17.8346 0.0000
# 6 0.0000 0.0000 0.0000 0.0000 0.0000 31.8458
#
#
#
# Elastic Compliance Matrix: (Units=1/GPa)
#
#
# Indices 1 2 3 4 5 6 
#
# 1 0.104627 -0.014503 -0.008073 0.000000 0.000000 0.000000
# 2 -0.014503 0.012084 -0.005430 0.000000 0.000000 0.000000
# 3 -0.008073 -0.005430 0.016207 0.000000 0.000000 0.000000
# 4 0.000000 0.000000 0.000000 0.029880 0.000000 0.000000
# 5 0.000000 0.000000 0.000000 0.000000 0.056071 0.000000
# 6 0.000000 0.000000 0.000000 0.000000 0.000000 0.031401
#
#
# Mechanical properties :
#
#
# Convention : Reuss Voigt Hill
#
# Bulk Modulus (GPa) = 13.00291 47.76200 30.38246
# Shear Modulus (GPa) = 15.06392 26.18123 20.62257
#
# Velocity S-wave (km/s) = 2.90159 3.82527 3.39499
# Velocity P-wave (km/s) = 4.30034 6.79738 5.68759
#
# Compressibility (1/GPa) = 0.07690589
#
# Stress axis : x y z
#
# Youngs Moduli (GPa) = 9.55778 82.75100 61.69998
#
# Poissons Ratio (x) = 1.20014 0.49811
# Poissons Ratio (y) = 0.13862 0.33505
# Poissons Ratio (z) = 0.07716 0.44936
#
# Static dielectric constant tensor:
#      x y z
#    x 1.616640 0.000000 0.000000 
#    y 0.000000 1.607450 0.000000 
#    z 0.000000 0.000000 1.614170 
# 
# From -- ./inp_files/2684.got.cif
#   From: 2010.05.17/outbox.cif.g08.bks.cpg/sg57_2_cif.got.tgz:2684.got - 2010.06.03 13:58:18.
