data_PCOD9434644
_publ_section_title
;
Structure prediction by ZEFSAII (Michael W. Deem and Ramdas Pophale) SiO2 
 PCOD9434644
Probable space group: P B C M
;
_chemical_formula_sum "Si O2"
_cell_formula_units_Z 32
_cell_length_a 12.647231
_cell_length_b 14.832251
_cell_length_c 8.673478
_cell_angle_alpha 90.000000
_cell_angle_beta 90.000000
_cell_angle_gamma 90.000000
_cell_volume 1627.030891
_symmetry_space_group_name_H-M "P B C M"
_symmetry_group_IT_number 57
_symmetry_cell_setting 'orthorhombic'
loop_
_space_group_symop_operation_xyz
x,y,z
-x,-y,1/2+z
x,1/2-y,-z
-x,1/2+y,1/2-z
-x,-y,-z
x,y,1/2-z
-x,1/2+y,z
x,1/2-y,1/2+z
loop_
_atom_site_type_symbol
_atom_site_label
_atom_site_fract_x
_atom_site_fract_y
_atom_site_fract_z
Si Si1 0.998503 0.647796 0.934151
Si Si2 0.382516 0.006147 0.934448
Si Si3 0.217918 0.850392 0.933931
Si Si4 0.778700 0.851218 0.566063
O O1 0.995416 0.648201 0.750000
O O2 0.999893 0.750000 0.000000
O O3 0.889345 0.609591 0.000275
O O4 0.109779 0.610236 0.993670
O O5 0.385041 0.018003 0.750000
O O6 0.315733 0.915515 0.967981
O O7 0.500000 0.000000 0.000000
O O8 0.317540 0.087676 0.009989
O O9 0.203632 0.844228 0.750000
O O10 0.234791 0.750000 0.000000
O O11 0.767197 0.750000 0.500000
O O12 0.784566 0.847354 0.750000
#
# Coordination Sequence:
#
# PCOD9434644 Si02
#       4
#     8   8   8   8
#     4  10  18  32  57  88 121 153 189 235 288 350
#     4  11  25  43  61  85 117 155 202 249 293 346
#     4  10  21  38  61  88 119 154 192 238 291 348
#     4  11  22  39  63  89 120 156 194 241 295 351
#
# _framework density 19.667726999999999
#
# number of rings (size 3 to 8) (size 9 to 14) (size 15 to 20)
#    0.000    1.500    0.000    9.000    0.000    6.000 
#    0.000    2.500    0.000    0.000    0.000    0.000 
#    0.000    0.000    0.000    0.000    0.000    0.000 
#
# Total GULP energy -178900.543169 kJ/mol
# GULP energy per Si atom -5590.641974 kJ/mol
# Density = 1.962296 g / cm^3
# Si number density = 19.667727 Si / 1000 Ang^3
#
#
#
# Elastic Constant Matrix: (Units=GPa)
#
#
# Indices 1 2 3 4 5 6 
#
# 1 218.8608 78.3322 107.2397 0.0000 0.0000 0.0000
# 2 78.3322 108.2832 67.6387 0.0000 0.0000 0.0000
# 3 107.2397 67.6387 164.2637 0.0000 0.0000 0.0000
# 4 0.0000 0.0000 0.0000 23.3395 0.0000 0.0000
# 5 0.0000 0.0000 0.0000 0.0000 41.1018 0.0000
# 6 0.0000 0.0000 0.0000 0.0000 0.0000 34.4774
#
#
#
# Elastic Compliance Matrix: (Units=1/GPa)
#
#
# Indices 1 2 3 4 5 6 
#
# 1 0.007444 -0.003163 -0.003558 0.000000 0.000000 0.000000
# 2 -0.003163 0.013777 -0.003608 0.000000 0.000000 0.000000
# 3 -0.003558 -0.003608 0.009896 0.000000 0.000000 0.000000
# 4 0.000000 0.000000 0.000000 0.042846 0.000000 0.000000
# 5 0.000000 0.000000 0.000000 0.000000 0.024330 0.000000
# 6 0.000000 0.000000 0.000000 0.000000 0.000000 0.029004
#
#
# Mechanical properties :
#
#
# Convention : Reuss Voigt Hill
#
# Bulk Modulus (GPa) = 95.60122 110.86988 103.23555
# Shear Modulus (GPa) = 33.01610 35.66354 34.33982
#
# Velocity S-wave (km/s) = 4.10163 4.26291 4.18305
# Velocity P-wave (km/s) = 8.43474 8.98464 8.71403
#
# Compressibility (1/GPa) = 0.01046012
#
# Stress axis : x y z
#
# Youngs Moduli (GPa) = 134.32905 72.58558 101.05085
#
# Poissons Ratio (x) = 0.22959 0.35950
# Poissons Ratio (y) = 0.42489 0.36458
# Poissons Ratio (z) = 0.47790 0.26188
#
# Static dielectric constant tensor:
#      x y z
#    x 1.697650 0.000000 0.000000 
#    y 0.000000 1.409000 0.000000 
#    z 0.000000 0.000000 1.652580 
# 
# From -- ./inp_files/2385.got.cif
#   From: 2010.05.17/outbox.cif.g08.bks.cpg/sg57_2_cif.got.tgz:2385.got - 2010.06.03 13:58:18.
