data_PCOD9434067
_publ_section_title
;
Structure prediction by ZEFSAII (Michael W. Deem and Ramdas Pophale) SiO2 
 PCOD9434067
Probable space group: P B C M
;
_chemical_formula_sum "Si O2"
_cell_formula_units_Z 48
_cell_length_a 15.799981
_cell_length_b 21.995860
_cell_length_c 8.724315
_cell_angle_alpha 90.000000
_cell_angle_beta 90.000000
_cell_angle_gamma 90.000000
_cell_volume 3031.997573
_symmetry_space_group_name_H-M "P B C M"
_symmetry_group_IT_number 57
_symmetry_cell_setting 'orthorhombic'
loop_
_space_group_symop_operation_xyz
x,y,z
-x,-y,1/2+z
x,1/2-y,-z
-x,1/2+y,1/2-z
-x,-y,-z
x,y,1/2-z
-x,1/2+y,z
x,1/2-y,1/2+z
loop_
_atom_site_type_symbol
_atom_site_label
_atom_site_fract_x
_atom_site_fract_y
_atom_site_fract_z
Si Si1 0.304347 0.317291 0.933576
Si Si2 0.019622 0.566607 0.934229
Si Si3 0.200297 0.961806 0.066261
Si Si4 0.161342 0.096254 0.934417
Si Si5 0.560167 0.583219 0.065494
Si Si6 0.622734 0.455564 0.932695
O O1 0.300065 0.314834 0.750000
O O2 0.386640 0.357471 0.976814
O O3 0.308014 0.250000 0.000000
O O4 0.223475 0.354038 0.995940
O O5 0.017979 0.563714 0.750000
O O6 0.117250 0.577740 0.978261
O O7 0.937653 0.605924 0.979231
O O8 0.000000 0.500000 0.000000
O O9 0.202363 0.967974 0.250000
O O10 0.289320 0.936529 0.008323
O O11 0.187869 0.029337 0.995257
O O12 0.168250 0.096408 0.750000
O O13 0.566359 0.575069 0.250000
O O14 0.460764 0.583163 0.025442
O O15 0.601349 0.524032 0.987821
O O16 0.632014 0.455228 0.750000
#
# Coordination Sequence:
#
# PCOD9434067 Si02
#       6
#     8   8   8   8   8   8
#     4  11  22  35  50  68  92 124 159 196 237 281
#     4   8  16  27  41  62  91 122 151 182 222 268
#     4  10  17  27  43  67  97 127 152 183 229 280
#     4  10  18  30  46  66  91 122 158 195 229 272
#     4   9  19  33  46  64  92 123 155 194 238 281
#     4  10  18  28  46  69  93 123 156 191 234 285
#
# _framework density 15.831146
#
# number of rings (size 3 to 8) (size 9 to 14) (size 15 to 20)
#    0.000    2.333    1.667    2.000    0.000    2.667 
#    0.000    0.000    0.000    0.000    0.000    1.167 
#    0.000    5.333    0.000    0.000    0.000    0.000 
#
# Total GULP energy -267375.230211 kJ/mol
# GULP energy per Si atom -5570.317296 kJ/mol
# Density = 1.579511 g / cm^3
# Si number density = 15.831146 Si / 1000 Ang^3
#
#
#
# Elastic Constant Matrix: (Units=GPa)
#
#
# Indices 1 2 3 4 5 6 
#
# 1 186.5313 58.4433 45.8444 0.0000 0.0000 0.0000
# 2 58.4433 70.0521 25.1507 0.0000 0.0000 0.0000
# 3 45.8444 25.1507 34.7760 0.0000 0.0000 0.0000
# 4 0.0000 0.0000 0.0000 15.5936 0.0000 0.0000
# 5 0.0000 0.0000 0.0000 0.0000 25.6127 0.0000
# 6 0.0000 0.0000 0.0000 0.0000 0.0000 14.3912
#
#
#
# Elastic Compliance Matrix: (Units=1/GPa)
#
#
# Indices 1 2 3 4 5 6 
#
# 1 0.008790 -0.004286 -0.008488 0.000000 0.000000 0.000000
# 2 -0.004286 0.021371 -0.009806 0.000000 0.000000 0.000000
# 3 -0.008488 -0.009806 0.047037 0.000000 0.000000 0.000000
# 4 0.000000 0.000000 0.000000 0.064129 0.000000 0.000000
# 5 0.000000 0.000000 0.000000 0.000000 0.039043 0.000000
# 6 0.000000 0.000000 0.000000 0.000000 0.000000 0.069487
#
#
# Mechanical properties :
#
#
# Convention : Reuss Voigt Hill
#
# Bulk Modulus (GPa) = 31.21273 61.13737 46.17505
# Shear Modulus (GPa) = 16.35605 21.91424 19.13514
#
# Velocity S-wave (km/s) = 3.21776 3.72458 3.48041
# Velocity P-wave (km/s) = 5.79346 7.56300 6.73658
#
# Compressibility (1/GPa) = 0.03203821
#
# Stress axis : x y z
#
# Youngs Moduli (GPa) = 113.76570 46.79130 21.25980
#
# Poissons Ratio (x) = 0.20054 0.18045
# Poissons Ratio (y) = 0.48759 0.20848
# Poissons Ratio (z) = 0.96564 0.45885
#
# Static dielectric constant tensor:
#      x y z
#    x 1.595450 0.000000 0.000000 
#    y 0.000000 1.474180 0.000000 
#    z 0.000000 0.000000 1.530320 
# 
# From -- ./inp_files/4876.got.cif
#   From: 2010.05.17/outbox.cif.g08.bks.cpg/sg57_3_cif.got.tgz:4876.got - 2010.06.03 13:58:18.
