data_PCOD9434612
_publ_section_title
;
Structure prediction by ZEFSAII (Michael W. Deem and Ramdas Pophale) SiO2 
 PCOD9434612
Probable space group: P B C M
;
_chemical_formula_sum "Si O2"
_cell_formula_units_Z 64
_cell_length_a 12.608572
_cell_length_b 15.878566
_cell_length_c 17.956723
_cell_angle_alpha 90.000000
_cell_angle_beta 90.000000
_cell_angle_gamma 90.000000
_cell_volume 3595.044451
_symmetry_space_group_name_H-M "P B C M"
_symmetry_group_IT_number 57
_symmetry_cell_setting 'orthorhombic'
loop_
_space_group_symop_operation_xyz
x,y,z
-x,-y,1/2+z
x,1/2-y,-z
-x,1/2+y,1/2-z
-x,-y,-z
x,y,1/2-z
-x,1/2+y,z
x,1/2-y,1/2+z
loop_
_atom_site_type_symbol
_atom_site_label
_atom_site_fract_x
_atom_site_fract_y
_atom_site_fract_z
Si Si1 0.578715 0.483980 0.430343
Si Si2 0.257424 0.551790 0.045809
Si Si3 0.955671 0.929775 0.836933
Si Si4 0.923771 0.924826 0.424101
Si Si5 0.283542 0.110704 0.161278
Si Si6 0.065917 0.663245 0.456994
Si Si7 0.779602 0.699292 0.662605
Si Si8 0.611168 0.549155 0.663522
O O1 0.500000 0.500000 0.500000
O O2 0.676005 0.437634 0.470579
O O3 0.628599 0.565849 0.389744
O O4 0.505786 0.437858 0.369903
O O5 0.175505 0.473610 0.039351
O O6 0.183921 0.631616 0.060382
O O7 0.332333 0.523633 0.114307
O O8 0.975539 0.919125 0.750000
O O9 0.829389 0.936723 0.847729
O O10 0.997845 0.848932 0.882403
O O11 0.021086 0.009988 0.867195
O O12 0.874508 0.842994 0.383932
O O13 0.008677 0.900052 0.485532
O O14 0.311288 0.108461 0.250000
O O15 0.259145 0.207789 0.140016
O O16 0.065284 0.750000 0.500000
O O17 0.809576 0.704340 0.750000
O O18 0.682846 0.632690 0.656123
O O19 0.607464 0.526076 0.750000
#
# Coordination Sequence:
#
# PCOD9434612 Si02
#       8
#     8   8   8   8   8   8   8   8
#     4  10  19  34  52  72  98 130 171 215 259 313
#     4   9  19  33  50  73 101 133 169 209 252 307
#     4  10  20  34  55  80 107 144 184 220 266 325
#     4  10  18  32  54  78 107 141 176 213 259 320
#     4  10  19  32  52  78 107 134 167 218 270 312
#     4  11  21  33  51  76 110 146 177 214 259 314
#     4   9  18  32  51  79 109 133 168 221 271 313
#     4   9  18  34  56  76  95 129 173 216 265 316
#
# _framework density 17.802282999999999
#
# number of rings (size 3 to 8) (size 9 to 14) (size 15 to 20)
#    0.000    2.250    0.000    4.500    0.000    3.000 
#    0.000    9.375    0.000    1.500    0.000    0.000 
#    0.000    0.000    0.000    0.000    0.000    0.000 
#
# Total GULP energy -356678.832698 kJ/mol
# GULP energy per Si atom -5573.106761 kJ/mol
# Density = 1.776176 g / cm^3
# Si number density = 17.802283 Si / 1000 Ang^3
#
#
#
# Elastic Constant Matrix: (Units=GPa)
#
#
# Indices 1 2 3 4 5 6 
#
# 1 78.9203 21.1625 48.3551 0.0000 0.0000 0.0000
# 2 21.1625 42.3091 32.2948 0.0000 0.0000 0.0000
# 3 48.3551 32.2948 104.6696 0.0000 0.0000 0.0000
# 4 0.0000 0.0000 0.0000 24.7084 0.0000 0.0000
# 5 0.0000 0.0000 0.0000 0.0000 35.5385 0.0000
# 6 0.0000 0.0000 0.0000 0.0000 0.0000 18.3137
#
#
#
# Elastic Compliance Matrix: (Units=1/GPa)
#
#
# Indices 1 2 3 4 5 6 
#
# 1 0.018058 -0.003485 -0.007267 0.000000 0.000000 0.000000
# 2 -0.003485 0.031590 -0.008136 0.000000 0.000000 0.000000
# 3 -0.007267 -0.008136 0.015422 0.000000 0.000000 0.000000
# 4 0.000000 0.000000 0.000000 0.040472 0.000000 0.000000
# 5 0.000000 0.000000 0.000000 0.000000 0.028139 0.000000
# 6 0.000000 0.000000 0.000000 0.000000 0.000000 0.054604
#
#
# Mechanical properties :
#
#
# Convention : Reuss Voigt Hill
#
# Bulk Modulus (GPa) = 36.64175 47.72488 42.18332
# Shear Modulus (GPa) = 21.26222 23.98457 22.62339
#
# Velocity S-wave (km/s) = 3.45969 3.67451 3.56872
# Velocity P-wave (km/s) = 6.04868 6.69844 6.38184
#
# Compressibility (1/GPa) = 0.02729127
#
# Stress axis : x y z
#
# Youngs Moduli (GPa) = 55.37634 31.65604 64.84437
#
# Poissons Ratio (x) = 0.11034 0.47123
# Poissons Ratio (y) = 0.19301 0.52760
# Poissons Ratio (z) = 0.40243 0.25757
#
# Static dielectric constant tensor:
#      x y z
#    x 1.624720 0.000000 0.000000 
#    y 0.000000 1.614090 0.000000 
#    z 0.000000 0.000000 1.583880 
# 
# From -- ./inp_files/22036.got.cif
#   From: 2010.05.17/outbox.cif.g08.bks.cpg/sg57_12_cif.got.tgz:22036.got - 2010.06.03 13:58:18.
