data_PCOD9434593
_publ_section_title
;
Structure prediction by ZEFSAII (Michael W. Deem and Ramdas Pophale) SiO2 
 PCOD9434593
Probable space group: P B C M
;
_chemical_formula_sum "Si O2"
_cell_formula_units_Z 48
_cell_length_a 25.553596
_cell_length_b 5.407364
_cell_length_c 14.362687
_cell_angle_alpha 90.000000
_cell_angle_beta 90.000000
_cell_angle_gamma 90.000000
_cell_volume 1984.601549
_symmetry_space_group_name_H-M "P B C M"
_symmetry_group_IT_number 57
_symmetry_cell_setting 'orthorhombic'
loop_
_space_group_symop_operation_xyz
x,y,z
-x,-y,1/2+z
x,1/2-y,-z
-x,1/2+y,1/2-z
-x,-y,-z
x,y,1/2-z
-x,1/2+y,z
x,1/2-y,1/2+z
loop_
_atom_site_type_symbol
_atom_site_label
_atom_site_fract_x
_atom_site_fract_y
_atom_site_fract_z
Si Si1 0.851654 0.026575 0.899916
Si Si2 0.306892 0.285812 0.388882
Si Si3 0.470907 0.888778 0.362959
Si Si4 0.351029 0.716198 0.894024
Si Si5 0.969498 0.375906 0.362972
Si Si6 0.810505 0.529528 0.888991
O O1 0.823275 0.258046 0.852185
O O2 0.912308 0.092605 0.906134
O O3 0.845859 0.756854 0.855050
O O4 0.824125 0.998031 0.000854
O O5 0.314549 0.250000 0.500000
O O6 0.344007 0.508055 0.354398
O O7 0.248489 0.383573 0.373514
O O8 0.319022 0.012415 0.351607
O O9 0.470387 0.889035 0.250000
O O10 0.502743 0.645278 0.393248
O O11 0.411199 0.864201 0.394379
O O12 0.331797 0.750000 0.000000
O O13 0.963456 0.378287 0.250000
O O14 0.995590 0.114412 0.388346
#
# Coordination Sequence:
#
# PCOD9434593 Si02
#       6
#     8   8   8   8   8   8
#     4  10  19  32  54  79 103 137 173 216 260 312
#     4  10  18  32  52  78 109 139 176 208 264 321
#     4  10  21  38  58  78 108 147 181 221 275 322
#     4  10  21  32  54  85 106 142 183 222 264 317
#     4  10  21  38  56  74 102 142 183 219 261 313
#     4  10  19  32  52  80 106 138 167 216 264 321
#
# _framework density 24.186214
#
# number of rings (size 3 to 8) (size 9 to 14) (size 15 to 20)
#    0.000    2.000    1.667    3.000    4.667    0.667 
#    0.000   10.000    0.000    6.000    0.000    0.000 
#    0.000    0.000    0.000    0.000    0.000    0.000 
#
# Total GULP energy -268390.605673 kJ/mol
# GULP energy per Si atom -5591.470952 kJ/mol
# Density = 2.413116 g / cm^3
# Si number density = 24.186214 Si / 1000 Ang^3
#
#
#
# Elastic Constant Matrix: (Units=GPa)
#
#
# Indices 1 2 3 4 5 6 
#
# 1 117.5853 64.2781 -3.4912 0.0000 0.0000 0.0000
# 2 64.2781 243.8180 23.0987 0.0000 0.0000 0.0000
# 3 -3.4912 23.0987 91.8355 0.0000 0.0000 0.0000
# 4 0.0000 0.0000 0.0000 30.4767 0.0000 0.0000
# 5 0.0000 0.0000 0.0000 0.0000 471.5561 0.0000
# 6 0.0000 0.0000 0.0000 0.0000 0.0000 56.1507
#
#
#
# Elastic Compliance Matrix: (Units=1/GPa)
#
#
# Indices 1 2 3 4 5 6 
#
# 1 0.010039 -0.002748 0.001073 0.000000 0.000000 0.000000
# 2 -0.002748 0.004954 -0.001350 0.000000 0.000000 0.000000
# 3 0.001073 -0.001350 0.011269 0.000000 0.000000 0.000000
# 4 0.000000 0.000000 0.000000 0.032812 0.000000 0.000000
# 5 0.000000 0.000000 0.000000 0.000000 0.002121 0.000000
# 6 0.000000 0.000000 0.000000 0.000000 0.000000 0.017809
#
#
# Mechanical properties :
#
#
# Convention : Reuss Voigt Hill
#
# Bulk Modulus (GPa) = 49.47948 69.00111 59.24030
# Shear Modulus (GPa) = 54.47092 136.26024 95.36558
#
# Velocity S-wave (km/s) = 4.75083 7.51401 6.28612
# Velocity P-wave (km/s) = 7.11308 10.19173 8.78827
#
# Compressibility (1/GPa) = 0.02021040
#
# Stress axis : x y z
#
# Youngs Moduli (GPa) = 99.61563 201.86305 88.73515
#
# Poissons Ratio (x) = 0.55475 -0.09520
# Poissons Ratio (y) = 0.27376 0.11983
# Poissons Ratio (z) = -0.10687 0.27261
#
# Static dielectric constant tensor:
#      x y z
#    x 1.845740 0.000000 0.000000 
#    y 0.000000 1.978530 0.000000 
#    z 0.000000 0.000000 1.953310 
# 
# From -- ./inp_files/25692.got.cif
#   From: 2010.05.17/outbox.cif.g08.bks.cpg/sg57_13_cif.got.tgz:25692.got - 2010.06.03 13:58:18.
