data_PCOD9434558
_publ_section_title
;
Structure prediction by ZEFSAII (Michael W. Deem and Ramdas Pophale) SiO2 
 PCOD9434558
Probable space group: P B C M
;
_chemical_formula_sum "Si O2"
_cell_formula_units_Z 40
_cell_length_a 9.171019
_cell_length_b 17.565058
_cell_length_c 13.805042
_cell_angle_alpha 90.000000
_cell_angle_beta 90.000000
_cell_angle_gamma 90.000000
_cell_volume 2223.847046
_symmetry_space_group_name_H-M "P B C M"
_symmetry_group_IT_number 57
_symmetry_cell_setting 'orthorhombic'
loop_
_space_group_symop_operation_xyz
x,y,z
-x,-y,1/2+z
x,1/2-y,-z
-x,1/2+y,1/2-z
-x,-y,-z
x,y,1/2-z
-x,1/2+y,z
x,1/2-y,1/2+z
loop_
_atom_site_type_symbol
_atom_site_label
_atom_site_fract_x
_atom_site_fract_y
_atom_site_fract_z
Si Si1 0.158529 0.631857 0.061195
Si Si2 0.886940 0.293840 0.139895
Si Si3 0.670018 0.991842 0.016024
Si Si4 0.848036 0.613119 0.859596
Si Si5 0.083650 0.475098 0.637660
O O1 0.158060 0.706350 0.127533
O O2 0.274220 0.564840 0.077883
O O3 0.003559 0.590695 0.080425
O O4 0.180405 0.661882 0.951477
O O5 0.854113 0.319966 0.250000
O O6 0.060602 0.309487 0.124208
O O7 0.721320 0.915100 0.070388
O O8 0.500000 0.000000 0.000000
O O9 0.767645 0.992364 0.918445
O O10 0.792540 0.613982 0.750000
O O11 0.974927 0.547873 0.865354
O O12 0.104769 0.455125 0.750000
#
# Coordination Sequence:
#
# PCOD9434558 Si02
#       5
#     8   8   8   8   8
#     4  10  19  34  55  82 106 136 187 233 274 323
#     4  10  18  31  58  82 102 133 180 235 276 315
#     4  11  21  34  52  81 115 148 180 225 284 343
#     4   9  17  33  56  79 102 136 186 233 271 322
#     4  10  18  33  54  77 104 138 186 235 273 317
#
# _framework density 17.986847999999998
#
# number of rings (size 3 to 8) (size 9 to 14) (size 15 to 20)
#    0.000    2.000    4.000    1.800    0.000    1.600 
#    0.000    0.000    8.800    0.000    0.000    0.000 
#    0.000    0.000    0.000    0.000    0.000    0.000 
#
# Total GULP energy -222707.169498 kJ/mol
# GULP energy per Si atom -5567.679237 kJ/mol
# Density = 1.794591 g / cm^3
# Si number density = 17.986848 Si / 1000 Ang^3
#
#
#
# Elastic Constant Matrix: (Units=GPa)
#
#
# Indices 1 2 3 4 5 6 
#
# 1 98.8349 6.3031 12.7787 0.0000 0.0000 0.0000
# 2 6.3031 56.4968 5.3536 0.0000 0.0000 0.0000
# 3 12.7787 5.3536 83.6674 0.0000 0.0000 0.0000
# 4 0.0000 0.0000 0.0000 22.3516 0.0000 0.0000
# 5 0.0000 0.0000 0.0000 0.0000 10.2543 0.0000
# 6 0.0000 0.0000 0.0000 0.0000 0.0000 14.6844
#
#
#
# Elastic Compliance Matrix: (Units=1/GPa)
#
#
# Indices 1 2 3 4 5 6 
#
# 1 0.010379 -0.001014 -0.001520 0.000000 0.000000 0.000000
# 2 -0.001014 0.017907 -0.000991 0.000000 0.000000 0.000000
# 3 -0.001520 -0.000991 0.012248 0.000000 0.000000 0.000000
# 4 0.000000 0.000000 0.000000 0.044739 0.000000 0.000000
# 5 0.000000 0.000000 0.000000 0.000000 0.097520 0.000000
# 6 0.000000 0.000000 0.000000 0.000000 0.000000 0.068099
#
#
# Mechanical properties :
#
#
# Convention : Reuss Voigt Hill
#
# Bulk Modulus (GPa) = 29.86540 31.98553 30.92547
# Shear Modulus (GPa) = 18.58014 23.76231 21.17122
#
# Velocity S-wave (km/s) = 3.21749 3.63863 3.43452
# Velocity P-wave (km/s) = 5.51753 5.95602 5.74096
#
# Compressibility (1/GPa) = 0.03348357
#
# Stress axis : x y z
#
# Youngs Moduli (GPa) = 96.34730 55.84363 81.64799
#
# Poissons Ratio (x) = 0.05662 0.12413
# Poissons Ratio (y) = 0.09769 0.08091
# Poissons Ratio (z) = 0.14648 0.05534
#
# Static dielectric constant tensor:
#      x y z
#    x 1.582280 0.000000 0.000000 
#    y 0.000000 1.683860 0.000000 
#    z 0.000000 0.000000 1.675360 
# 
# From -- ./inp_files/16100.got.cif
#   From: 2010.05.17/outbox.cif.g08.bks.cpg/sg57_9_cif.got.tgz:16100.got - 2010.06.03 13:58:18.
