data_PCOD9434422
_publ_section_title
;
Structure prediction by ZEFSAII (Michael W. Deem and Ramdas Pophale) SiO2 
 PCOD9434422
Probable space group: P B C M
;
_chemical_formula_sum "Si O2"
_cell_formula_units_Z 40
_cell_length_a 11.236507
_cell_length_b 21.406447
_cell_length_c 9.344498
_cell_angle_alpha 90.000000
_cell_angle_beta 90.000000
_cell_angle_gamma 90.000000
_cell_volume 2247.666600
_symmetry_space_group_name_H-M "P B C M"
_symmetry_group_IT_number 57
_symmetry_cell_setting 'orthorhombic'
loop_
_space_group_symop_operation_xyz
x,y,z
-x,-y,1/2+z
x,1/2-y,-z
-x,1/2+y,1/2-z
-x,-y,-z
x,y,1/2-z
-x,1/2+y,z
x,1/2-y,1/2+z
loop_
_atom_site_type_symbol
_atom_site_label
_atom_site_fract_x
_atom_site_fract_y
_atom_site_fract_z
Si Si1 0.566827 0.056892 0.920480
Si Si2 0.607873 0.183656 0.078656
Si Si3 0.183543 0.491624 0.906129
Si Si4 0.892217 0.313113 0.583036
Si Si5 0.035250 0.087183 0.908428
O O1 0.538017 0.060761 0.750000
O O2 0.705371 0.036595 0.931339
O O3 0.550345 0.123429 0.000190
O O4 0.500000 0.000000 0.000000
O O5 0.581809 0.186152 0.250000
O O6 0.751105 0.174004 0.063745
O O7 0.580398 0.250000 0.000000
O O8 0.201488 0.461257 0.750000
O O9 0.064818 0.533273 0.897124
O O10 0.155827 0.442217 0.029382
O O11 0.917610 0.250000 0.500000
O O12 0.913323 0.305872 0.750000
O O13 0.976608 0.365336 0.518123
O O14 0.051337 0.113997 0.750000
#
# Coordination Sequence:
#
# PCOD9434422 Si02
#       5
#     8   8   8   8   8
#     4  11  22  37  56  80 111 144 184 230 273 323
#     4  10  20  34  54  79 108 142 179 223 274 325
#     4   9  19  33  49  72 103 137 171 210 258 308
#     4  10  19  30  48  74 106 139 174 214 262 317
#     4  10  18  30  50  74 103 135 170 210 256 311
#
# _framework density 17.796233999999998
#
# number of rings (size 3 to 8) (size 9 to 14) (size 15 to 20)
#    0.000    2.000    2.000    2.400    0.000    4.000 
#    0.000    0.000    0.000    1.200    0.000    0.000 
#    0.000    0.000    0.000    0.000    0.000    0.000 
#
# Total GULP energy -222836.923384 kJ/mol
# GULP energy per Si atom -5570.923085 kJ/mol
# Density = 1.775573 g / cm^3
# Si number density = 17.796234 Si / 1000 Ang^3
#
#
#
# Elastic Constant Matrix: (Units=GPa)
#
#
# Indices 1 2 3 4 5 6 
#
# 1 16.5682 16.5128 27.0893 0.0000 0.0000 0.0000
# 2 16.5128 112.1011 88.8893 0.0000 0.0000 0.0000
# 3 27.0893 88.8893 147.6829 0.0000 0.0000 0.0000
# 4 0.0000 0.0000 0.0000 37.6793 0.0000 0.0000
# 5 0.0000 0.0000 0.0000 0.0000 6.7965 0.0000
# 6 0.0000 0.0000 0.0000 0.0000 0.0000 18.0902
#
#
#
# Elastic Compliance Matrix: (Units=1/GPa)
#
#
# Indices 1 2 3 4 5 6 
#
# 1 0.086218 -0.000306 -0.015631 0.000000 0.000000 0.000000
# 2 -0.000306 0.017066 -0.010216 0.000000 0.000000 0.000000
# 3 -0.015631 -0.010216 0.015787 0.000000 0.000000 0.000000
# 4 0.000000 0.000000 0.000000 0.026540 0.000000 0.000000
# 5 0.000000 0.000000 0.000000 0.000000 0.147135 0.000000
# 6 0.000000 0.000000 0.000000 0.000000 0.000000 0.055279
#
#
# Mechanical properties :
#
#
# Convention : Reuss Voigt Hill
#
# Bulk Modulus (GPa) = 14.97763 60.14834 37.56298
# Shear Modulus (GPa) = 11.83193 22.10392 16.96792
#
# Velocity S-wave (km/s) = 2.58128 3.52810 3.09116
# Velocity P-wave (km/s) = 4.16154 7.10411 5.82181
#
# Compressibility (1/GPa) = 0.06676625
#
# Stress axis : x y z
#
# Youngs Moduli (GPa) = 11.59852 58.59551 63.34224
#
# Poissons Ratio (x) = 0.01793 0.99008
# Poissons Ratio (y) = 0.00355 0.64710
# Poissons Ratio (z) = 0.18129 0.59860
#
# Static dielectric constant tensor:
#      x y z
#    x 1.595110 0.000000 0.000000 
#    y 0.000000 1.657560 0.000000 
#    z 0.000000 0.000000 1.509840 
# 
# From -- ./inp_files/2873.got.cif
#   From: 2010.05.17/outbox.cif.g08.bks.cpg/sg57_2_cif.got.tgz:2873.got - 2010.06.03 13:58:18.
