data_PCOD9434898
_publ_section_title
;
Structure prediction by ZEFSAII (Michael W. Deem and Ramdas Pophale) SiO2 
 PCOD9434898
Probable space group: P B C M
;
_chemical_formula_sum "Si O2"
_cell_formula_units_Z 64
_cell_length_a 14.071384
_cell_length_b 32.825586
_cell_length_c 9.027656
_cell_angle_alpha 90.000000
_cell_angle_beta 90.000000
_cell_angle_gamma 90.000000
_cell_volume 4169.887177
_symmetry_space_group_name_H-M "P B C M"
_symmetry_group_IT_number 57
_symmetry_cell_setting 'orthorhombic'
loop_
_space_group_symop_operation_xyz
x,y,z
-x,-y,1/2+z
x,1/2-y,-z
-x,1/2+y,1/2-z
-x,-y,-z
x,y,1/2-z
-x,1/2+y,z
x,1/2-y,1/2+z
loop_
_atom_site_type_symbol
_atom_site_label
_atom_site_fract_x
_atom_site_fract_y
_atom_site_fract_z
Si Si1 0.732480 0.474694 0.922634
Si Si2 0.650437 0.933683 0.420447
Si Si3 0.784666 0.872883 0.919721
Si Si4 0.065926 0.535735 0.927782
Si Si5 0.986700 0.378004 0.923027
Si Si6 0.790857 0.709042 0.579487
Si Si7 0.977868 0.292552 0.078241
Si Si8 0.529249 0.456960 0.927027
O O1 0.757576 0.466369 0.750000
O O2 0.691651 0.520539 0.930448
O O3 0.639340 0.448119 0.965635
O O4 0.824896 0.471332 0.023290
O O5 0.628176 0.925676 0.250000
O O6 0.733573 0.905592 0.479687
O O7 0.554301 0.928253 0.514577
O O8 0.755474 0.877939 0.750000
O O9 0.898490 0.876780 0.926576
O O10 0.758777 0.829035 0.983623
O O11 0.054955 0.534451 0.750000
O O12 0.041179 0.580769 0.990710
O O13 0.000000 0.500000 0.000000
O O14 0.957429 0.380201 0.750000
O O15 0.952624 0.335090 0.995663
O O16 0.759404 0.750000 0.500000
O O17 0.760903 0.706458 0.750000
O O18 0.906523 0.708687 0.578553
O O19 0.947203 0.293474 0.250000
O O20 0.947327 0.250000 0.000000
O O21 0.525514 0.460915 0.750000
O O22 0.500000 0.500000 0.000000
#
# Coordination Sequence:
#
# PCOD9434898 Si02
#       8
#     8   8   8   8   8   8   8   8
#     4   9  19  34  49  65  87 116 149 185 225 266
#     4  10  19  30  46  67  90 115 145 183 224 265
#     4  10  19  29  43  63  87 117 151 185 222 263
#     4  12  24  35  48  65  89 123 160 195 229 270
#     4  10  20  33  47  64  89 121 157 195 231 270
#     4   9  16  26  40  58  83 114 146 179 216 261
#     4   9  16  27  44  65  88 115 148 186 229 274
#     4   9  17  30  48  67  87 111 140 178 221 263
#
# _framework density 15.348136999999999
#
# number of rings (size 3 to 8) (size 9 to 14) (size 15 to 20)
#    0.000    2.250    0.000    4.875    0.000    9.500 
#    0.000    0.000    0.000    0.000    0.000    0.000 
#    0.000    1.000    0.000    3.750    0.000    5.750 
#
# Total GULP energy -356488.505579 kJ/mol
# GULP energy per Si atom -5570.132900 kJ/mol
# Density = 1.531320 g / cm^3
# Si number density = 15.348137 Si / 1000 Ang^3
#
#
#
# Elastic Constant Matrix: (Units=GPa)
#
#
# Indices 1 2 3 4 5 6 
#
# 1 45.8382 17.5654 41.7033 0.0000 0.0000 0.0000
# 2 17.5654 77.3168 51.7753 0.0000 0.0000 0.0000
# 3 41.7033 51.7753 105.2325 0.0000 0.0000 0.0000
# 4 0.0000 0.0000 0.0000 27.7007 0.0000 0.0000
# 5 0.0000 0.0000 0.0000 0.0000 21.4748 0.0000
# 6 0.0000 0.0000 0.0000 0.0000 0.0000 11.5194
#
#
#
# Elastic Compliance Matrix: (Units=1/GPa)
#
#
# Indices 1 2 3 4 5 6 
#
# 1 0.034313 0.001955 -0.014560 0.000000 0.000000 0.000000
# 2 0.001955 0.019400 -0.010320 0.000000 0.000000 0.000000
# 3 -0.014560 -0.010320 0.020350 0.000000 0.000000 0.000000
# 4 0.000000 0.000000 0.000000 0.036100 0.000000 0.000000
# 5 0.000000 0.000000 0.000000 0.000000 0.046566 0.000000
# 6 0.000000 0.000000 0.000000 0.000000 0.000000 0.086810
#
#
# Mechanical properties :
#
#
# Convention : Reuss Voigt Hill
#
# Bulk Modulus (GPa) = 35.44376 50.05283 42.74830
# Shear Modulus (GPa) = 16.73384 19.96186 18.34785
#
# Velocity S-wave (km/s) = 3.30553 3.61030 3.46127
# Velocity P-wave (km/s) = 6.14101 7.07542 6.62471
#
# Compressibility (1/GPa) = 0.02821371
#
# Stress axis : x y z
#
# Youngs Moduli (GPa) = 29.14314 51.54543 49.13954
#
# Poissons Ratio (x) = -0.10075 0.71547
# Poissons Ratio (y) = -0.05696 0.50711
# Poissons Ratio (z) = 0.42432 0.53193
#
# Static dielectric constant tensor:
#      x y z
#    x 1.518790 0.000000 0.000000 
#    y 0.000000 1.536750 0.000000 
#    z 0.000000 0.000000 1.519600 
# 
# From -- ./inp_files/6060.got.cif
#   From: 2010.05.17/outbox.cif.g08.bks.cpg/sg57_4_cif.got.tgz:6060.got - 2010.06.03 13:58:18.
