data_PCOD9434423
_publ_section_title
;
Structure prediction by ZEFSAII (Michael W. Deem and Ramdas Pophale) SiO2 
 PCOD9434423
Probable space group: P B C M
;
_chemical_formula_sum "Si O2"
_cell_formula_units_Z 64
_cell_length_a 20.975765
_cell_length_b 20.763996
_cell_length_c 8.924236
_cell_angle_alpha 90.000000
_cell_angle_beta 90.000000
_cell_angle_gamma 90.000000
_cell_volume 3886.867999
_symmetry_space_group_name_H-M "P B C M"
_symmetry_group_IT_number 57
_symmetry_cell_setting 'orthorhombic'
loop_
_space_group_symop_operation_xyz
x,y,z
-x,-y,1/2+z
x,1/2-y,-z
-x,1/2+y,1/2-z
-x,-y,-z
x,y,1/2-z
-x,1/2+y,z
x,1/2-y,1/2+z
loop_
_atom_site_type_symbol
_atom_site_label
_atom_site_fract_x
_atom_site_fract_y
_atom_site_fract_z
Si Si1 0.951277 0.448870 0.570945
Si Si2 0.840851 0.652197 0.074946
Si Si3 0.286874 0.334856 0.082076
Si Si4 0.824860 0.497165 0.076790
Si Si5 0.555681 0.956309 0.432003
Si Si6 0.303562 0.011029 0.918906
Si Si7 0.581469 0.816817 0.571881
Si Si8 0.984534 0.684007 0.069774
O O1 0.955748 0.453833 0.750000
O O2 0.879977 0.463618 0.518044
O O3 0.974737 0.378019 0.525178
O O4 0.000000 0.500000 0.500000
O O5 0.832224 0.669475 0.250000
O O6 0.837035 0.574306 0.066406
O O7 0.910795 0.673128 0.023608
O O8 0.783276 0.679667 0.977335
O O9 0.299153 0.309698 0.250000
O O10 0.290245 0.412406 0.090737
O O11 0.343091 0.317145 0.968734
O O12 0.831119 0.479160 0.250000
O O13 0.753463 0.483771 0.018591
O O14 0.553208 0.952948 0.250000
O O15 0.623480 0.989971 0.473167
O O16 0.555778 0.883278 0.497416
O O17 0.500000 0.000000 0.500000
O O18 0.300111 0.984515 0.750000
O O19 0.555950 0.750000 0.500000
O O20 0.571881 0.817893 0.750000
O O21 0.984875 0.687771 0.250000
O O22 0.008316 0.750000 0.000000
#
# Coordination Sequence:
#
# PCOD9434423 Si02
#       8
#     8   8   8   8   8   8   8   8
#     4  11  21  35  53  74  98 126 166 213 259 308
#     4   9  17  31  46  65  96 130 166 206 247 295
#     4   9  17  29  45  68  96 130 171 209 248 295
#     4  10  18  30  50  75 100 128 166 212 256 300
#     4  10  20  35  55  81 111 143 179 215 258 311
#     4   8  16  30  47  72 104 135 168 206 248 298
#     4  11  21  34  51  72 101 139 179 220 260 301
#     4  10  22  37  49  67  95 127 164 208 257 311
#
# _framework density 16.465699000000001
#
# number of rings (size 3 to 8) (size 9 to 14) (size 15 to 20)
#    0.000    2.250    1.250    3.375    0.000    6.000 
#    0.000    1.250    0.000    0.000    0.000    0.875 
#    0.000    4.000    0.000    0.000    0.000    0.000 
#
# Total GULP energy -356948.227100 kJ/mol
# GULP energy per Si atom -5577.316048 kJ/mol
# Density = 1.642822 g / cm^3
# Si number density = 16.465699 Si / 1000 Ang^3
#
#
#
# Elastic Constant Matrix: (Units=GPa)
#
#
# Indices 1 2 3 4 5 6 
#
# 1 103.2306 52.0058 43.3947 0.0000 0.0000 0.0000
# 2 52.0058 85.5614 42.8444 0.0000 0.0000 0.0000
# 3 43.3947 42.8444 76.0475 0.0000 0.0000 0.0000
# 4 0.0000 0.0000 0.0000 23.0647 0.0000 0.0000
# 5 0.0000 0.0000 0.0000 0.0000 24.5508 0.0000
# 6 0.0000 0.0000 0.0000 0.0000 0.0000 10.6384
#
#
#
# Elastic Compliance Matrix: (Units=1/GPa)
#
#
# Indices 1 2 3 4 5 6 
#
# 1 0.015128 -0.006787 -0.004808 0.000000 0.000000 0.000000
# 2 -0.006787 0.019325 -0.007015 0.000000 0.000000 0.000000
# 3 -0.004808 -0.007015 0.019846 0.000000 0.000000 0.000000
# 4 0.000000 0.000000 0.000000 0.043356 0.000000 0.000000
# 5 0.000000 0.000000 0.000000 0.000000 0.040732 0.000000
# 6 0.000000 0.000000 0.000000 0.000000 0.000000 0.093999
#
#
# Mechanical properties :
#
#
# Convention : Reuss Voigt Hill
#
# Bulk Modulus (GPa) = 58.55521 60.14770 59.35146
# Shear Modulus (GPa) = 18.16207 20.09043 19.12625
#
# Velocity S-wave (km/s) = 3.32478 3.49684 3.41190
# Velocity P-wave (km/s) = 7.09775 7.27408 7.18646
#
# Compressibility (1/GPa) = 0.01707790
#
# Stress axis : x y z
#
# Youngs Moduli (GPa) = 66.10461 51.74518 50.38886
#
# Poissons Ratio (x) = 0.35119 0.24229
# Poissons Ratio (y) = 0.44865 0.35347
# Poissons Ratio (z) = 0.31786 0.36299
#
# Static dielectric constant tensor:
#      x y z
#    x 1.547190 0.000000 0.000000 
#    y 0.000000 1.558450 0.000000 
#    z 0.000000 0.000000 1.570720 
# 
# From -- ./inp_files/8712.got.cif
#   From: 2010.05.17/outbox.cif.g08.bks.cpg/sg57_5_cif.got.tgz:8712.got - 2010.06.03 13:58:18.
