data_PCOD9434283
_publ_section_title
;
Structure prediction by ZEFSAII (Michael W. Deem and Ramdas Pophale) SiO2 
 PCOD9434283
Probable space group: P B C M
;
_chemical_formula_sum "Si O2"
_cell_formula_units_Z 48
_cell_length_a 15.673833
_cell_length_b 21.811986
_cell_length_c 8.842921
_cell_angle_alpha 90.000000
_cell_angle_beta 90.000000
_cell_angle_gamma 90.000000
_cell_volume 3023.195069
_symmetry_space_group_name_H-M "P B C M"
_symmetry_group_IT_number 57
_symmetry_cell_setting 'orthorhombic'
loop_
_space_group_symop_operation_xyz
x,y,z
-x,-y,1/2+z
x,1/2-y,-z
-x,1/2+y,1/2-z
-x,-y,-z
x,y,1/2-z
-x,1/2+y,z
x,1/2-y,1/2+z
loop_
_atom_site_type_symbol
_atom_site_label
_atom_site_fract_x
_atom_site_fract_y
_atom_site_fract_z
Si Si1 0.381896 0.047750 0.069665
Si Si2 0.016672 0.067427 0.568217
Si Si3 0.202094 0.041582 0.930814
Si Si4 0.447792 0.912609 0.431623
Si Si5 0.698238 0.317537 0.431996
Si Si6 0.153683 0.599666 0.068539
O O1 0.382799 0.050406 0.250000
O O2 0.404104 0.977373 0.022965
O O3 0.288416 0.062912 0.008900
O O4 0.458768 0.088163 0.003993
O O5 0.008570 0.065605 0.750000
O O6 0.116007 0.079195 0.531058
O O7 0.941637 0.107807 0.497184
O O8 0.000000 0.000000 0.500000
O O9 0.212880 0.043697 0.750000
O O10 0.184174 0.969920 0.970838
O O11 0.456182 0.913255 0.250000
O O12 0.385065 0.857616 0.474372
O O13 0.693472 0.250000 0.500000
O O14 0.703398 0.315473 0.250000
O O15 0.780006 0.353226 0.497164
O O16 0.152264 0.604293 0.250000
#
# Coordination Sequence:
#
# PCOD9434283 Si02
#       6
#     8   8   8   8   8   8
#     4  10  18  28  47  71  95 126 161 198 243 295
#     4   9  17  28  43  66  95 128 160 193 234 282
#     4   9  17  28  44  68  98 129 158 191 237 289
#     4   9  19  33  46  66  95 127 160 199 246 292
#     4  11  22  36  52  71  96 129 167 206 245 290
#     4  10  19  31  47  68  95 129 163 200 241 287
#
# _framework density 15.877242000000001
#
# number of rings (size 3 to 8) (size 9 to 14) (size 15 to 20)
#    0.000    2.333    1.667    3.000    0.000    5.333 
#    0.000    0.000    0.000    0.000    0.000    1.167 
#    0.000    5.333    0.000    0.000    0.000    0.000 
#
# Total GULP energy -267549.299227 kJ/mol
# GULP energy per Si atom -5573.943734 kJ/mol
# Density = 1.584110 g / cm^3
# Si number density = 15.877242 Si / 1000 Ang^3
#
#
#
# Elastic Constant Matrix: (Units=GPa)
#
#
# Indices 1 2 3 4 5 6 
#
# 1 186.7355 58.4819 60.0537 0.0000 0.0000 0.0000
# 2 58.4819 65.9003 30.8376 0.0000 0.0000 0.0000
# 3 60.0537 30.8376 45.7741 0.0000 0.0000 0.0000
# 4 0.0000 0.0000 0.0000 18.2450 0.0000 0.0000
# 5 0.0000 0.0000 0.0000 0.0000 30.9107 0.0000
# 6 0.0000 0.0000 0.0000 0.0000 0.0000 14.6060
#
#
#
# Elastic Compliance Matrix: (Units=1/GPa)
#
#
# Indices 1 2 3 4 5 6 
#
# 1 0.009926 -0.003965 -0.010351 0.000000 0.000000 0.000000
# 2 -0.003965 0.023744 -0.010795 0.000000 0.000000 0.000000
# 3 -0.010351 -0.010795 0.042699 0.000000 0.000000 0.000000
# 4 0.000000 0.000000 0.000000 0.054809 0.000000 0.000000
# 5 0.000000 0.000000 0.000000 0.000000 0.032351 0.000000
# 6 0.000000 0.000000 0.000000 0.000000 0.000000 0.068465
#
#
# Mechanical properties :
#
#
# Convention : Reuss Voigt Hill
#
# Bulk Modulus (GPa) = 38.24424 66.35069 52.29747
# Shear Modulus (GPa) = 17.18615 22.68812 19.93714
#
# Velocity S-wave (km/s) = 3.29361 3.78427 3.54744
# Velocity P-wave (km/s) = 6.21318 7.80864 7.05615
#
# Compressibility (1/GPa) = 0.02614773
#
# Stress axis : x y z
#
# Youngs Moduli (GPa) = 100.74824 42.11574 23.41970
#
# Poissons Ratio (x) = 0.16697 0.24242
# Poissons Ratio (y) = 0.39943 0.25281
# Poissons Ratio (z) = 1.04287 0.45463
#
# Static dielectric constant tensor:
#      x y z
#    x 1.554690 0.000000 0.000000 
#    y 0.000000 1.515160 0.000000 
#    z 0.000000 0.000000 1.525690 
# 
# From -- ./inp_files/4833.got.cif
#   From: 2010.05.17/outbox.cif.g08.bks.cpg/sg57_3_cif.got.tgz:4833.got - 2010.06.03 13:58:18.
