data_PCOD9434369
_publ_section_title
;
Structure prediction by ZEFSAII (Michael W. Deem and Ramdas Pophale) SiO2 
 PCOD9434369
Probable space group: P B C M
;
_chemical_formula_sum "Si O2"
_cell_formula_units_Z 56
_cell_length_a 18.390800
_cell_length_b 22.401660
_cell_length_c 8.711014
_cell_angle_alpha 90.000000
_cell_angle_beta 90.000000
_cell_angle_gamma 90.000000
_cell_volume 3588.802301
_symmetry_space_group_name_H-M "P B C M"
_symmetry_group_IT_number 57
_symmetry_cell_setting 'orthorhombic'
loop_
_space_group_symop_operation_xyz
x,y,z
-x,-y,1/2+z
x,1/2-y,-z
-x,1/2+y,1/2-z
-x,-y,-z
x,y,1/2-z
-x,1/2+y,z
x,1/2-y,1/2+z
loop_
_atom_site_type_symbol
_atom_site_label
_atom_site_fract_x
_atom_site_fract_y
_atom_site_fract_z
Si Si1 0.843544 0.183881 0.435098
Si Si2 0.261031 0.032526 0.432537
Si Si3 0.038830 0.912758 0.934720
Si Si4 0.563513 0.080242 0.932924
Si Si5 0.591721 0.552138 0.934188
Si Si6 0.710863 0.099841 0.433829
Si Si7 0.893298 0.541998 0.932817
O O1 0.846303 0.250000 0.500000
O O2 0.843938 0.186212 0.250000
O O3 0.912070 0.143099 0.482509
O O4 0.770233 0.148669 0.480992
O O5 0.267276 0.032194 0.250000
O O6 0.328791 0.068678 0.504924
O O7 0.182652 0.055405 0.485912
O O8 0.268207 0.964338 0.494459
O O9 0.029959 0.911749 0.750000
O O10 0.082359 0.973916 0.971882
O O11 0.960408 0.917569 0.012567
O O12 0.572470 0.083881 0.750000
O O13 0.478852 0.092605 0.970495
O O14 0.628989 0.115157 0.013504
O O15 0.576245 0.011897 0.987009
O O16 0.593840 0.544178 0.750000
O O17 0.712993 0.093207 0.250000
O O18 0.884191 0.545222 0.750000
#
# Coordination Sequence:
#
# PCOD9434369 Si02
#       7
#     8   8   8   8   8   8   8
#     4  10  21  35  49  66  90 119 153 193 231 271
#     4  11  19  26  41  64  89 118 152 184 220 269
#     4   9  18  33  47  64  89 115 149 188 230 274
#     4   9  16  25  38  58  81 111 148 181 213 256
#     4   9  16  25  37  55  84 116 145 178 215 253
#     4  10  18  30  44  60  85 117 150 187 228 265
#     4  10  18  30  47  66  90 117 149 186 229 278
#
# _framework density 15.604091
#
# number of rings (size 3 to 8) (size 9 to 14) (size 15 to 20)
#    0.000    2.286    1.429    4.714    0.000    4.000 
#    0.000    0.000    0.000    0.000    0.000    0.000 
#    0.000    1.143    0.000    5.714    0.000    5.857 
#
# Total GULP energy -312021.771978 kJ/mol
# GULP energy per Si atom -5571.817357 kJ/mol
# Density = 1.556858 g / cm^3
# Si number density = 15.604091 Si / 1000 Ang^3
#
#
#
# Elastic Constant Matrix: (Units=GPa)
#
#
# Indices 1 2 3 4 5 6 
#
# 1 142.5007 41.4892 25.1611 0.0000 0.0000 0.0000
# 2 41.4892 51.4435 14.0810 0.0000 0.0000 0.0000
# 3 25.1611 14.0810 33.4414 0.0000 0.0000 0.0000
# 4 0.0000 0.0000 0.0000 16.2824 0.0000 0.0000
# 5 0.0000 0.0000 0.0000 0.0000 28.2424 0.0000
# 6 0.0000 0.0000 0.0000 0.0000 0.0000 11.7124
#
#
#
# Elastic Compliance Matrix: (Units=1/GPa)
#
#
# Indices 1 2 3 4 5 6 
#
# 1 0.009747 -0.006616 -0.004548 0.000000 0.000000 0.000000
# 2 -0.006616 0.026462 -0.006164 0.000000 0.000000 0.000000
# 3 -0.004548 -0.006164 0.035920 0.000000 0.000000 0.000000
# 4 0.000000 0.000000 0.000000 0.061416 0.000000 0.000000
# 5 0.000000 0.000000 0.000000 0.000000 0.035408 0.000000
# 6 0.000000 0.000000 0.000000 0.000000 0.000000 0.085379
#
#
# Mechanical properties :
#
#
# Convention : Reuss Voigt Hill
#
# Bulk Modulus (GPa) = 26.68592 43.20536 34.94564
# Shear Modulus (GPa) = 16.58492 21.02441 18.80467
#
# Velocity S-wave (km/s) = 3.26369 3.67463 3.47524
# Velocity P-wave (km/s) = 5.59832 6.76406 6.20861
#
# Compressibility (1/GPa) = 0.03747294
#
# Stress axis : x y z
#
# Youngs Moduli (GPa) = 102.59854 37.79019 27.83947
#
# Poissons Ratio (x) = 0.25002 0.12660
# Poissons Ratio (y) = 0.67879 0.17161
# Poissons Ratio (z) = 0.46658 0.23295
#
# Static dielectric constant tensor:
#      x y z
#    x 1.579390 0.000000 0.000000 
#    y 0.000000 1.476410 0.000000 
#    z 0.000000 0.000000 1.522100 
# 
# From -- ./inp_files/7010.got.cif
#   From: 2010.05.17/outbox.cif.g08.bks.cpg/sg57_4_cif.got.tgz:7010.got - 2010.06.03 13:58:18.
