data_PCOD9434617
_publ_section_title
;
Structure prediction by ZEFSAII (Michael W. Deem and Ramdas Pophale) SiO2 
 PCOD9434617
Probable space group: P B C M
;
_chemical_formula_sum "Si O2"
_cell_formula_units_Z 40
_cell_length_a 26.725343
_cell_length_b 9.182792
_cell_length_c 8.606188
_cell_angle_alpha 90.000000
_cell_angle_beta 90.000000
_cell_angle_gamma 90.000000
_cell_volume 2112.072704
_symmetry_space_group_name_H-M "P B C M"
_symmetry_group_IT_number 57
_symmetry_cell_setting 'orthorhombic'
loop_
_space_group_symop_operation_xyz
x,y,z
-x,-y,1/2+z
x,1/2-y,-z
-x,1/2+y,1/2-z
-x,-y,-z
x,y,1/2-z
-x,1/2+y,z
x,1/2-y,1/2+z
loop_
_atom_site_type_symbol
_atom_site_label
_atom_site_fract_x
_atom_site_fract_y
_atom_site_fract_z
Si Si1 0.651802 0.915950 0.435928
Si Si2 0.148343 0.586769 0.063079
Si Si3 0.047626 0.086691 0.563881
Si Si4 0.243558 0.085068 0.064247
Si Si5 0.452322 0.085218 0.063929
O O1 0.652149 0.750000 0.500000
O O2 0.650986 0.914541 0.250000
O O3 0.704153 0.977936 0.497836
O O4 0.600177 0.980283 0.501545
O O5 0.152369 0.588287 0.250000
O O6 0.098651 0.496480 0.019722
O O7 0.144180 0.750000 0.000000
O O8 0.196809 0.508801 0.992145
O O9 0.048066 0.250000 0.500000
O O10 0.044861 0.090818 0.750000
O O11 0.000000 0.000000 0.500000
O O12 0.246148 0.090919 0.250000
O O13 0.237806 0.250000 0.000000
O O14 0.451766 0.087032 0.250000
O O15 0.455309 0.250000 0.000000
O O16 0.500000 0.000000 0.000000
#
# Coordination Sequence:
#
# PCOD9434617 Si02
#       5
#     8   8   8   8   8
#     4  10  18  32  54  81 111 146 187 234 283 338
#     4  11  24  41  60  86 118 155 193 236 286 342
#     4  11  24  41  64  91 122 156 196 240 288 340
#     4  11  21  36  59  86 114 148 189 237 285 338
#     4  11  21  36  56  82 113 149 190 235 286 342
#
# _framework density 18.938742999999999
#
# number of rings (size 3 to 8) (size 9 to 14) (size 15 to 20)
#    0.000    1.200    0.000   10.200    0.000    6.400 
#    0.000    1.000    0.000    0.000    0.000    0.000 
#    0.000    0.000    0.000    0.000    0.000    0.000 
#
# Total GULP energy -223619.395588 kJ/mol
# GULP energy per Si atom -5590.484890 kJ/mol
# Density = 1.889564 g / cm^3
# Si number density = 18.938743 Si / 1000 Ang^3
#
#
#
# Elastic Constant Matrix: (Units=GPa)
#
#
# Indices 1 2 3 4 5 6 
#
# 1 235.2204 91.1147 96.4669 0.0000 0.0000 0.0000
# 2 91.1147 106.6621 49.7606 0.0000 0.0000 0.0000
# 3 96.4669 49.7606 171.9038 0.0000 0.0000 0.0000
# 4 0.0000 0.0000 0.0000 31.1649 0.0000 0.0000
# 5 0.0000 0.0000 0.0000 0.0000 35.7855 0.0000
# 6 0.0000 0.0000 0.0000 0.0000 0.0000 34.0137
#
#
#
# Elastic Compliance Matrix: (Units=1/GPa)
#
#
# Indices 1 2 3 4 5 6 
#
# 1 0.007257 -0.004970 -0.002633 0.000000 0.000000 0.000000
# 2 -0.004970 0.014244 -0.001334 0.000000 0.000000 0.000000
# 3 -0.002633 -0.001334 0.007681 0.000000 0.000000 0.000000
# 4 0.000000 0.000000 0.000000 0.032087 0.000000 0.000000
# 5 0.000000 0.000000 0.000000 0.000000 0.027944 0.000000
# 6 0.000000 0.000000 0.000000 0.000000 0.000000 0.029400
#
#
# Mechanical properties :
#
#
# Convention : Reuss Voigt Hill
#
# Bulk Modulus (GPa) = 88.44840 109.83012 99.13926
# Shear Modulus (GPa) = 35.64891 38.62243 37.13567
#
# Velocity S-wave (km/s) = 4.34329 4.52080 4.43293
# Velocity P-wave (km/s) = 8.48268 9.23950 8.86917
#
# Compressibility (1/GPa) = 0.01130603
#
# Stress axis : x y z
#
# Youngs Moduli (GPa) = 137.80480 70.20745 130.18935
#
# Poissons Ratio (x) = 0.34895 0.34285
# Poissons Ratio (y) = 0.68493 0.17365
# Poissons Ratio (z) = 0.36290 0.09365
#
# Static dielectric constant tensor:
#      x y z
#    x 1.682490 0.000000 0.000000 
#    y 0.000000 1.579600 0.000000 
#    z 0.000000 0.000000 1.630440 
# 
# From -- ./inp_files/8923.got.cif
#   From: 2010.05.17/outbox.cif.g08.bks.cpg/sg57_5_cif.got.tgz:8923.got - 2010.06.03 13:58:18.
