data_PCOD9434401
_publ_section_title
;
Structure prediction by ZEFSAII (Michael W. Deem and Ramdas Pophale) SiO2 
 PCOD9434401
Probable space group: P B C M
;
_chemical_formula_sum "Si O2"
_cell_formula_units_Z 48
_cell_length_a 12.228625
_cell_length_b 26.361877
_cell_length_c 8.955809
_cell_angle_alpha 90.000000
_cell_angle_beta 90.000000
_cell_angle_gamma 90.000000
_cell_volume 2887.079742
_symmetry_space_group_name_H-M "P B C M"
_symmetry_group_IT_number 57
_symmetry_cell_setting 'orthorhombic'
loop_
_space_group_symop_operation_xyz
x,y,z
-x,-y,1/2+z
x,1/2-y,-z
-x,1/2+y,1/2-z
-x,-y,-z
x,y,1/2-z
-x,1/2+y,z
x,1/2-y,1/2+z
loop_
_atom_site_type_symbol
_atom_site_label
_atom_site_fract_x
_atom_site_fract_y
_atom_site_fract_z
Si Si1 0.779601 0.569210 0.928497
Si Si2 0.978571 0.612504 0.428596
Si Si3 0.527807 0.554804 0.569694
Si Si4 0.674607 0.379710 0.077571
Si Si5 0.860636 0.034177 0.922726
Si Si6 0.839429 0.194888 0.428125
O O1 0.790888 0.570139 0.750000
O O2 0.651241 0.571449 0.966461
O O3 0.822632 0.515929 0.993393
O O4 0.858254 0.611287 0.000982
O O5 0.972932 0.609123 0.250000
O O6 0.042560 0.563713 0.494172
O O7 0.054699 0.660497 0.469199
O O8 0.500000 0.500000 0.500000
O O9 0.518822 0.550000 0.750000
O O10 0.439374 0.596958 0.521816
O O11 0.662071 0.363125 0.250000
O O12 0.758974 0.426872 0.076547
O O13 0.733015 0.335687 0.984959
O O14 0.889645 0.023545 0.750000
O O15 0.845310 0.250000 0.500000
O O16 0.836402 0.198729 0.250000
#
# Coordination Sequence:
#
# PCOD9434401 Si02
#       6
#     8   8   8   8   8   8
#     4  11  21  31  47  72 105 142 177 210 250 300
#     4  10  21  35  50  72 102 133 171 213 257 310
#     4  10  20  33  50  74 106 144 181 215 251 299
#     4   9  18  33  52  76 105 137 174 215 257 302
#     4  10  18  30  49  71 101 139 175 212 253 299
#     4  10  21  37  59  82 101 127 164 215 270 317
#
# _framework density 16.625796000000001
#
# number of rings (size 3 to 8) (size 9 to 14) (size 15 to 20)
#    0.000    2.000    1.667    2.500    0.000    4.000 
#    0.000    0.000    0.000    1.000    0.000    2.333 
#    0.000    0.000    0.000    0.000    0.000    0.000 
#
# Total GULP energy -267870.561715 kJ/mol
# GULP energy per Si atom -5580.636702 kJ/mol
# Density = 1.658795 g / cm^3
# Si number density = 16.625796 Si / 1000 Ang^3
#
#
#
# Elastic Constant Matrix: (Units=GPa)
#
#
# Indices 1 2 3 4 5 6 
#
# 1 150.2432 64.1315 55.3910 0.0000 0.0000 0.0000
# 2 64.1315 95.6417 41.8251 0.0000 0.0000 0.0000
# 3 55.3910 41.8251 61.7626 0.0000 0.0000 0.0000
# 4 0.0000 0.0000 0.0000 25.3835 0.0000 0.0000
# 5 0.0000 0.0000 0.0000 0.0000 24.9397 0.0000
# 6 0.0000 0.0000 0.0000 0.0000 0.0000 10.0499
#
#
#
# Elastic Compliance Matrix: (Units=1/GPa)
#
#
# Indices 1 2 3 4 5 6 
#
# 1 0.011106 -0.004392 -0.006986 0.000000 0.000000 0.000000
# 2 -0.004392 0.016592 -0.007297 0.000000 0.000000 0.000000
# 3 -0.006986 -0.007297 0.027398 0.000000 0.000000 0.000000
# 4 0.000000 0.000000 0.000000 0.039396 0.000000 0.000000
# 5 0.000000 0.000000 0.000000 0.000000 0.040097 0.000000
# 6 0.000000 0.000000 0.000000 0.000000 0.000000 0.099503
#
#
# Mechanical properties :
#
#
# Convention : Reuss Voigt Hill
#
# Bulk Modulus (GPa) = 56.35188 70.03810 63.19499
# Shear Modulus (GPa) = 18.02730 21.82795 19.92763
#
# Velocity S-wave (km/s) = 3.29644 3.62732 3.46583
# Velocity P-wave (km/s) = 6.96107 7.73052 7.35586
#
# Compressibility (1/GPa) = 0.01774564
#
# Stress axis : x y z
#
# Youngs Moduli (GPa) = 90.03905 60.27109 36.49909
#
# Poissons Ratio (x) = 0.26471 0.25499
# Poissons Ratio (y) = 0.39545 0.26633
# Poissons Ratio (z) = 0.62904 0.43979
#
# Static dielectric constant tensor:
#      x y z
#    x 1.590570 0.000000 0.000000 
#    y 0.000000 1.532330 0.000000 
#    z 0.000000 0.000000 1.560020 
# 
# From -- ./inp_files/3163.got.cif
#   From: 2010.05.17/outbox.cif.g08.bks.cpg/sg57_2_cif.got.tgz:3163.got - 2010.06.03 13:58:18.
