data_PCOD9434155
_publ_section_title
;
Structure prediction by ZEFSAII (Michael W. Deem and Ramdas Pophale) SiO2 
 PCOD9434155
Probable space group: P B C M
;
_chemical_formula_sum "Si O2"
_cell_formula_units_Z 64
_cell_length_a 12.407515
_cell_length_b 14.374143
_cell_length_c 17.292268
_cell_angle_alpha 90.000000
_cell_angle_beta 90.000000
_cell_angle_gamma 90.000000
_cell_volume 3084.030949
_symmetry_space_group_name_H-M "P B C M"
_symmetry_group_IT_number 57
_symmetry_cell_setting 'orthorhombic'
loop_
_space_group_symop_operation_xyz
x,y,z
-x,-y,1/2+z
x,1/2-y,-z
-x,1/2+y,1/2-z
-x,-y,-z
x,y,1/2-z
-x,1/2+y,z
x,1/2-y,1/2+z
loop_
_atom_site_type_symbol
_atom_site_label
_atom_site_fract_x
_atom_site_fract_y
_atom_site_fract_z
Si Si1 0.714722 0.535736 0.907213
Si Si2 0.367769 0.333323 0.840084
Si Si3 0.155472 0.584836 0.660124
Si Si4 0.364515 0.982517 0.429552
Si Si5 0.038675 0.973290 0.911406
Si Si6 0.950092 0.254600 0.907804
Si Si7 0.527814 0.870758 0.164319
Si Si8 0.820414 0.728414 0.586840
O O1 0.834771 0.495336 0.896707
O O2 0.628588 0.556431 0.840112
O O3 0.743498 0.641843 0.927101
O O4 0.655629 0.488310 0.979247
O O5 0.368615 0.361292 0.750000
O O6 0.402664 0.418081 0.894662
O O7 0.434291 0.236389 0.845978
O O8 0.247217 0.304545 0.867384
O O9 0.180975 0.578848 0.750000
O O10 0.249878 0.539591 0.609631
O O11 0.138779 0.692224 0.634259
O O12 0.046242 0.528365 0.640915
O O13 0.446699 0.903987 0.401477
O O14 0.032422 0.863677 0.894982
O O15 0.000000 0.000000 0.000000
O O16 0.063091 0.209300 0.878198
O O17 0.927361 0.250000 0.000000
O O18 0.478779 0.878352 0.250000
O O19 0.852796 0.750000 0.500000
#
# Coordination Sequence:
#
# PCOD9434155 Si02
#       8
#     8   8   8   8   8   8   8   8
#     4  11  21  38  67  93 124 167 217 264 317 393
#     4  10  21  36  61  89 116 164 213 256 327 386
#     4  12  26  40  64 101 135 172 221 276 331 387
#     4  12  22  43  67  91 129 169 219 271 330 390
#     4  12  21  42  68  95 134 177 217 264 327 397
#     4  11  21  37  63  90 129 176 214 258 325 391
#     4  10  24  42  61  91 126 164 215 278 333 380
#     4  10  17  33  58  90 121 157 204 266 302 363
#
# _framework density 20.752061999999999
#
# number of rings (size 3 to 8) (size 9 to 14) (size 15 to 20)
#    0.000    1.000    5.000    3.000    0.000    1.500 
#    2.250    0.000    0.000    0.000    0.000    0.000 
#    0.000    0.000    0.000    0.000    0.000    0.000 
#
# Total GULP energy -356796.769306 kJ/mol
# GULP energy per Si atom -5574.949520 kJ/mol
# Density = 2.070483 g / cm^3
# Si number density = 20.752062 Si / 1000 Ang^3
#
#
#
# Elastic Constant Matrix: (Units=GPa)
#
#
# Indices 1 2 3 4 5 6 
#
# 1 57.5232 12.7319 2.8335 0.0000 0.0000 0.0000
# 2 12.7319 82.4667 14.8190 0.0000 0.0000 0.0000
# 3 2.8335 14.8190 48.4622 0.0000 0.0000 0.0000
# 4 0.0000 0.0000 0.0000 19.4809 0.0000 0.0000
# 5 0.0000 0.0000 0.0000 0.0000 -25.4531 0.0000
# 6 0.0000 0.0000 0.0000 0.0000 0.0000 31.5511
#
#
#
# Elastic Compliance Matrix: (Units=1/GPa)
#
#
# Indices 1 2 3 4 5 6 
#
# 1 0.018001 -0.002741 -0.000214 0.000000 0.000000 0.000000
# 2 -0.002741 0.013248 -0.003891 0.000000 0.000000 0.000000
# 3 -0.000214 -0.003891 0.021837 0.000000 0.000000 0.000000
# 4 0.000000 0.000000 0.000000 0.051332 0.000000 0.000000
# 5 0.000000 0.000000 0.000000 0.000000 -0.039288 0.000000
# 6 0.000000 0.000000 0.000000 0.000000 0.000000 0.031695
#
#
# Mechanical properties :
#
#
# Convention : Reuss Voigt Hill
#
# Bulk Modulus (GPa) = 25.38411 27.69121 26.53766
# Shear Modulus (GPa) = 40.43684 15.65361 28.04523
#
# Velocity S-wave (km/s) = 4.41905 2.74946 3.68019
# Velocity P-wave (km/s) = 6.18837 4.84275 5.55644
#
# Compressibility (1/GPa) = 0.03939472
#
# Stress axis : x y z
#
# Youngs Moduli (GPa) = 55.55105 75.48067 45.79396
#
# Poissons Ratio (x) = 0.20687 0.00982
# Poissons Ratio (y) = 0.15225 0.17818
# Poissons Ratio (z) = 0.01191 0.29369
#
# Static dielectric constant tensor:
#      x y z
#    x 1.851280 0.000000 0.000000 
#    y 0.000000 1.786730 0.000000 
#    z 0.000000 0.000000 1.837350 
# 
# From -- ./inp_files/22003.got.cif
#   From: 2010.05.17/outbox.cif.g08.bks.cpg/sg57_12_cif.got.tgz:22003.got - 2010.06.03 13:58:18.
