data_PCOD9434591
_publ_section_title
;
Structure prediction by ZEFSAII (Michael W. Deem and Ramdas Pophale) SiO2 
 PCOD9434591
Probable space group: P B C M
;
_chemical_formula_sum "Si O2"
_cell_formula_units_Z 48
_cell_length_a 12.041086
_cell_length_b 10.053136
_cell_length_c 24.264457
_cell_angle_alpha 90.000000
_cell_angle_beta 90.000000
_cell_angle_gamma 90.000000
_cell_volume 2937.228902
_symmetry_space_group_name_H-M "P B C M"
_symmetry_group_IT_number 57
_symmetry_cell_setting 'orthorhombic'
loop_
_space_group_symop_operation_xyz
x,y,z
-x,-y,1/2+z
x,1/2-y,-z
-x,1/2+y,1/2-z
-x,-y,-z
x,y,1/2-z
-x,1/2+y,z
x,1/2-y,1/2+z
loop_
_atom_site_type_symbol
_atom_site_label
_atom_site_fract_x
_atom_site_fract_y
_atom_site_fract_z
Si Si1 0.427337 0.669578 0.365757
Si Si2 0.575064 0.612031 0.470163
Si Si3 0.217396 0.721326 0.435189
Si Si4 0.589077 0.033466 0.814830
Si Si5 0.226817 0.017472 0.098118
Si Si6 0.979153 0.874628 0.960417
O O1 0.512444 0.661429 0.415962
O O2 0.310236 0.650450 0.397639
O O3 0.426314 0.816283 0.338467
O O4 0.478332 0.555091 0.326564
O O5 0.596336 0.750000 0.500000
O O6 0.500000 0.500000 0.500000
O O7 0.689761 0.546379 0.452410
O O8 0.250205 0.750000 0.500000
O O9 0.100064 0.649540 0.435054
O O10 0.196919 0.863686 0.407447
O O11 0.610052 0.038372 0.750000
O O12 0.695076 0.970276 0.847728
O O13 0.116347 0.100521 0.084898
O O14 0.951050 0.750000 0.000000
O O15 0.000000 0.000000 0.000000
#
# Coordination Sequence:
#
# PCOD9434591 Si02
#       6
#     8   8   8   8   8   8
#     4  10  20  34  54  80 106 143 180 219 277 331
#     4  11  20  31  51  79 117 144 172 216 270 342
#     4  10  18  32  52  76 113 144 171 211 263 332
#     4  10  21  38  58  76 104 140 187 241 279 317
#     4  10  20  34  50  78 104 142 182 213 272 324
#     4  11  20  34  53  79 112 146 174 212 262 332
#
# _framework density 16.341933000000001
#
# number of rings (size 3 to 8) (size 9 to 14) (size 15 to 20)
#    0.000    1.667    3.333    5.500    0.000    0.000 
#    6.000    0.000    0.000    5.000    0.000    0.000 
#    0.000    0.000    0.000    0.000    0.000    0.000 
#
# Total GULP energy -267202.177103 kJ/mol
# GULP energy per Si atom -5566.712023 kJ/mol
# Density = 1.630474 g / cm^3
# Si number density = 16.341933 Si / 1000 Ang^3
#
#
#
# Elastic Constant Matrix: (Units=GPa)
#
#
# Indices 1 2 3 4 5 6 
#
# 1 122.6784 56.5625 46.1712 0.0000 0.0000 0.0000
# 2 56.5625 80.5668 39.8004 0.0000 0.0000 0.0000
# 3 46.1712 39.8004 90.7643 0.0000 0.0000 0.0000
# 4 0.0000 0.0000 0.0000 21.1241 0.0000 0.0000
# 5 0.0000 0.0000 0.0000 0.0000 17.1949 0.0000
# 6 0.0000 0.0000 0.0000 0.0000 0.0000 34.1310
#
#
#
# Elastic Compliance Matrix: (Units=1/GPa)
#
#
# Indices 1 2 3 4 5 6 
#
# 1 0.012772 -0.007349 -0.003275 0.000000 0.000000 0.000000
# 2 -0.007349 0.020073 -0.005064 0.000000 0.000000 0.000000
# 3 -0.003275 -0.005064 0.014904 0.000000 0.000000 0.000000
# 4 0.000000 0.000000 0.000000 0.047339 0.000000 0.000000
# 5 0.000000 0.000000 0.000000 0.000000 0.058157 0.000000
# 6 0.000000 0.000000 0.000000 0.000000 0.000000 0.029299
#
#
# Mechanical properties :
#
#
# Convention : Reuss Voigt Hill
#
# Bulk Modulus (GPa) = 61.07114 64.34195 62.70654
# Shear Modulus (GPa) = 22.79185 24.58837 23.69011
#
# Velocity S-wave (km/s) = 3.73860 3.88315 3.81156
# Velocity P-wave (km/s) = 7.48920 7.71770 7.60431
#
# Compressibility (1/GPa) = 0.01637435
#
# Stress axis : x y z
#
# Youngs Moduli (GPa) = 78.29482 49.81798 67.09759
#
# Poissons Ratio (x) = 0.36612 0.21971
# Poissons Ratio (y) = 0.57541 0.33975
# Poissons Ratio (z) = 0.25638 0.25226
#
# Static dielectric constant tensor:
#      x y z
#    x 1.665120 0.000000 0.000000 
#    y 0.000000 1.686660 0.000000 
#    z 0.000000 0.000000 1.468020 
# 
# From -- ./inp_files/27099.got.cif
#   From: 2010.05.17/outbox.cif.g08.bks.cpg/sg57_14_cif.got.tgz:27099.got - 2010.06.03 13:58:18.
