data_PCOD9434952
_publ_section_title
;
Structure prediction by ZEFSAII (Michael W. Deem and Ramdas Pophale) SiO2 
 PCOD9434952
Probable space group: P B C M
;
_chemical_formula_sum "Si O2"
_cell_formula_units_Z 48
_cell_length_a 24.590756
_cell_length_b 14.140419
_cell_length_c 8.712886
_cell_angle_alpha 90.000000
_cell_angle_beta 90.000000
_cell_angle_gamma 90.000000
_cell_volume 3029.676029
_symmetry_space_group_name_H-M "P B C M"
_symmetry_group_IT_number 57
_symmetry_cell_setting 'orthorhombic'
loop_
_space_group_symop_operation_xyz
x,y,z
-x,-y,1/2+z
x,1/2-y,-z
-x,1/2+y,1/2-z
-x,-y,-z
x,y,1/2-z
-x,1/2+y,z
x,1/2-y,1/2+z
loop_
_atom_site_type_symbol
_atom_site_label
_atom_site_fract_x
_atom_site_fract_y
_atom_site_fract_z
Si Si1 0.523510 0.145792 0.933324
Si Si2 0.416263 0.471404 0.435116
Si Si3 0.810783 0.645593 0.935202
Si Si4 0.312400 0.354488 0.435425
Si Si5 0.978202 0.147517 0.066294
Si Si6 0.081642 0.458284 0.064640
O O1 0.525524 0.149495 0.750000
O O2 0.465009 0.100681 0.978426
O O3 0.529623 0.250000 0.000000
O O4 0.568214 0.072109 0.994395
O O5 0.416459 0.479587 0.250000
O O6 0.358899 0.427417 0.484739
O O7 0.811532 0.650618 0.750000
O O8 0.749239 0.619227 0.982000
O O9 0.858379 0.574378 0.983416
O O10 0.822179 0.750000 0.000000
O O11 0.323765 0.250000 0.500000
O O12 0.314008 0.349555 0.250000
O O13 0.980082 0.152455 0.250000
O O14 0.935892 0.064604 0.020989
O O15 0.965079 0.250000 0.000000
O O16 0.036512 0.111757 0.004663
O O17 0.078303 0.452136 0.250000
#
# Coordination Sequence:
#
# PCOD9434952 Si02
#       6
#     8   8   8   8   8   8
#     4  10  19  30  46  67  91 118 148 183 221 262
#     4   9  18  31  46  66  91 119 149 180 218 262
#     4   9  17  29  45  66  90 116 145 177 216 259
#     4   9  17  29  46  67  91 118 146 179 218 260
#     4  10  19  30  45  65  89 116 146 181 220 261
#     4   9  18  31  46  65  89 117 148 180 216 259
#
# _framework density 15.843278
#
# number of rings (size 3 to 8) (size 9 to 14) (size 15 to 20)
#    0.000    2.667    0.000    2.000    0.000    4.000 
#    0.000    0.000    0.000    1.000    0.000    2.333 
#    0.000    0.000    0.000    0.000    0.000    0.000 
#
# Total GULP energy -267582.826291 kJ/mol
# GULP energy per Si atom -5574.642214 kJ/mol
# Density = 1.580722 g / cm^3
# Si number density = 15.843278 Si / 1000 Ang^3
#
#
#
# Elastic Constant Matrix: (Units=GPa)
#
#
# Indices 1 2 3 4 5 6 
#
# 1 127.4412 89.6308 27.6364 0.0000 0.0000 0.0000
# 2 89.6308 140.9072 31.1225 0.0000 0.0000 0.0000
# 3 27.6364 31.1225 12.1767 0.0000 0.0000 0.0000
# 4 0.0000 0.0000 0.0000 27.2116 0.0000 0.0000
# 5 0.0000 0.0000 0.0000 0.0000 17.3706 0.0000
# 6 0.0000 0.0000 0.0000 0.0000 0.0000 23.8831
#
#
#
# Elastic Compliance Matrix: (Units=1/GPa)
#
#
# Indices 1 2 3 4 5 6 
#
# 1 0.016996 -0.005261 -0.025127 0.000000 0.000000 0.000000
# 2 -0.005261 0.017926 -0.033875 0.000000 0.000000 0.000000
# 3 -0.025127 -0.033875 0.225735 0.000000 0.000000 0.000000
# 4 0.000000 0.000000 0.000000 0.036749 0.000000 0.000000
# 5 0.000000 0.000000 0.000000 0.000000 0.057568 0.000000
# 6 0.000000 0.000000 0.000000 0.000000 0.000000 0.041871
#
#
# Mechanical properties :
#
#
# Convention : Reuss Voigt Hill
#
# Bulk Modulus (GPa) = 7.56835 64.14496 35.85666
# Shear Modulus (GPa) = 8.78095 22.50211 15.64153
#
# Velocity S-wave (km/s) = 2.35678 3.77277 3.14549
# Velocity P-wave (km/s) = 3.49189 7.71709 5.98944
#
# Compressibility (1/GPa) = 0.13212921
#
# Stress axis : x y z
#
# Youngs Moduli (GPa) = 58.83735 55.78592 4.42998
#
# Poissons Ratio (x) = 0.29350 0.11131
# Poissons Ratio (y) = 0.30956 0.15007
# Poissons Ratio (z) = 1.47841 1.88977
#
# Static dielectric constant tensor:
#      x y z
#    x 1.538320 0.000000 0.000000 
#    y 0.000000 1.502630 0.000000 
#    z 0.000000 0.000000 1.530330 
# 
# From -- ./inp_files/7863.got.cif
#   From: 2010.05.17/outbox.cif.g08.bks.cpg/sg57_4_cif.got.tgz:7863.got - 2010.06.03 13:58:18.
