data_PCOD9434136
_publ_section_title
;
Structure prediction by ZEFSAII (Michael W. Deem and Ramdas Pophale) SiO2 
 PCOD9434136
Probable space group: P B C M
;
_chemical_formula_sum "Si O2"
_cell_formula_units_Z 44
_cell_length_a 19.688627
_cell_length_b 5.205402
_cell_length_c 25.917640
_cell_angle_alpha 90.000000
_cell_angle_beta 90.000000
_cell_angle_gamma 90.000000
_cell_volume 2656.226830
_symmetry_space_group_name_H-M "P B C M"
_symmetry_group_IT_number 57
_symmetry_cell_setting 'orthorhombic'
loop_
_space_group_symop_operation_xyz
x,y,z
-x,-y,1/2+z
x,1/2-y,-z
-x,1/2+y,1/2-z
-x,-y,-z
x,y,1/2-z
-x,1/2+y,z
x,1/2-y,1/2+z
loop_
_atom_site_type_symbol
_atom_site_label
_atom_site_fract_x
_atom_site_fract_y
_atom_site_fract_z
Si Si1 0.544460 0.823054 0.750000
Si Si2 0.282998 0.279859 0.557906
Si Si3 0.962307 0.251707 0.438303
Si Si4 0.340518 0.233043 0.832468
Si Si5 0.804030 0.218465 0.084916
Si Si6 0.255072 0.734323 0.807382
O O1 0.486188 0.607683 0.750000
O O2 0.590725 0.780372 0.699056
O O3 0.310994 0.250000 0.500000
O O4 0.336723 0.257026 0.605135
O O5 0.242339 0.548039 0.563586
O O6 0.229035 0.048899 0.566516
O O7 0.972462 0.250000 0.500000
O O8 0.881923 0.245379 0.430155
O O9 0.998915 0.503843 0.417173
O O10 0.289206 0.455267 0.813227
O O11 0.311797 0.953714 0.817263
O O12 0.797777 0.230551 0.146728
O O13 0.227773 0.765697 0.750000
#
# Coordination Sequence:
#
# PCOD9434136 Si02
#       6
#     4   8   8   8   8   8
#     4  12  22  34  54  76 106 134 162 200 232 280
#     4  10  19  32  52  75 101 127 158 208 253 292
#     4  10  19  30  44  62  92 129 161 200 242 290
#     4  10  20  33  51  76 102 129 161 199 245 288
#     4  10  20  30  49  75  96 128 166 202 250 299
#     4  10  17  32  53  72 100 125 156 209 251 286
#
# _framework density 16.564848999999999
#
# number of rings (size 3 to 8) (size 9 to 14) (size 15 to 20)
#    0.000    1.818    1.818    3.818    0.000    1.455 
#    0.000    0.000    0.000    2.182    0.000    0.000 
#    0.000    0.000    0.000    0.000    0.000    0.000 
#
# Total GULP energy -245334.974460 kJ/mol
# GULP energy per Si atom -5575.794874 kJ/mol
# Density = 1.652715 g / cm^3
# Si number density = 16.564849 Si / 1000 Ang^3
#
#
#
# Elastic Constant Matrix: (Units=GPa)
#
#
# Indices 1 2 3 4 5 6 
#
# 1 37.6627 1.5041 7.1306 0.0000 0.0000 0.0000
# 2 1.5041 55.2867 6.8724 0.0000 0.0000 0.0000
# 3 7.1306 6.8724 103.2405 0.0000 0.0000 0.0000
# 4 0.0000 0.0000 0.0000 10.6696 0.0000 0.0000
# 5 0.0000 0.0000 0.0000 0.0000 28.1632 0.0000
# 6 0.0000 0.0000 0.0000 0.0000 0.0000 19.9998
#
#
#
# Elastic Compliance Matrix: (Units=1/GPa)
#
#
# Indices 1 2 3 4 5 6 
#
# 1 0.026917 -0.000505 -0.001825 0.000000 0.000000 0.000000
# 2 -0.000505 0.018248 -0.001180 0.000000 0.000000 0.000000
# 3 -0.001825 -0.001180 0.009891 0.000000 0.000000 0.000000
# 4 0.000000 0.000000 0.000000 0.093725 0.000000 0.000000
# 5 0.000000 0.000000 0.000000 0.000000 0.035507 0.000000
# 6 0.000000 0.000000 0.000000 0.000000 0.000000 0.050001
#
#
# Mechanical properties :
#
#
# Convention : Reuss Voigt Hill
#
# Bulk Modulus (GPa) = 20.81830 25.24489 23.03160
# Shear Modulus (GPa) = 19.43096 23.81203 21.62149
#
# Velocity S-wave (km/s) = 3.42866 3.79556 3.61676
# Velocity P-wave (km/s) = 5.31689 5.87209 5.60137
#
# Compressibility (1/GPa) = 0.04803465
#
# Stress axis : x y z
#
# Youngs Moduli (GPa) = 37.15085 54.80075 101.10469
#
# Poissons Ratio (x) = 0.02769 0.18456
# Poissons Ratio (y) = 0.01878 0.11928
# Poissons Ratio (z) = 0.06782 0.06465
#
# Static dielectric constant tensor:
#      x y z
#    x 1.506320 0.000000 0.000000 
#    y 0.000000 1.560410 0.000000 
#    z 0.000000 0.000000 1.589280 
# 
# From -- ./inp_files/27534.got.cif
#   From: 2010.05.17/outbox.cif.g08.bks.cpg/sg57_14_cif.got.tgz:27534.got - 2010.06.03 13:58:18.
