data_PCOD9434641
_publ_section_title
;
Structure prediction by ZEFSAII (Michael W. Deem and Ramdas Pophale) SiO2 
 PCOD9434641
Probable space group: P B C M
;
_chemical_formula_sum "Si O2"
_cell_formula_units_Z 64
_cell_length_a 12.460325
_cell_length_b 15.584944
_cell_length_c 17.593582
_cell_angle_alpha 90.000000
_cell_angle_beta 90.000000
_cell_angle_gamma 90.000000
_cell_volume 3416.558692
_symmetry_space_group_name_H-M "P B C M"
_symmetry_group_IT_number 57
_symmetry_cell_setting 'orthorhombic'
loop_
_space_group_symop_operation_xyz
x,y,z
-x,-y,1/2+z
x,1/2-y,-z
-x,1/2+y,1/2-z
-x,-y,-z
x,y,1/2-z
-x,1/2+y,z
x,1/2-y,1/2+z
loop_
_atom_site_type_symbol
_atom_site_label
_atom_site_fract_x
_atom_site_fract_y
_atom_site_fract_z
Si Si1 0.360873 0.135647 0.340681
Si Si2 0.417620 0.323812 0.160304
Si Si3 0.856603 0.598035 0.415133
Si Si4 0.244168 0.538857 0.017489
Si Si5 0.010193 0.942460 0.161774
Si Si6 0.753572 0.960579 0.165557
Si Si7 0.559954 0.464353 0.425460
Si Si8 0.949886 0.342276 0.010893
O O1 0.369564 0.132046 0.250000
O O2 0.414569 0.225372 0.367186
O O3 0.234825 0.139694 0.363587
O O4 0.410506 0.048189 0.375193
O O5 0.445466 0.323289 0.250000
O O6 0.299477 0.367326 0.154213
O O7 0.494156 0.390615 0.117049
O O8 0.790062 0.552573 0.482776
O O9 0.921022 0.524324 0.368075
O O10 0.944255 0.654531 0.458495
O O11 0.290004 0.523118 0.100722
O O12 0.328996 0.575010 0.957967
O O13 0.134555 0.590045 0.020890
O O14 0.038428 0.922943 0.250000
O O15 0.029789 0.869457 0.098129
O O16 0.882335 0.959434 0.160102
O O17 0.722805 0.989133 0.250000
O O18 0.500000 0.500000 0.500000
O O19 0.900155 0.250000 0.000000
#
# Coordination Sequence:
#
# PCOD9434641 Si02
#       8
#     8   8   8   8   8   8   8   8
#     4  10  23  40  61  93 124 153 201 261 310 365
#     4  10  22  40  61  91 122 154 203 262 314 355
#     4  10  19  35  61  84 116 155 197 247 298 363
#     4  10  19  39  55  82 115 151 208 239 292 359
#     4  10  19  35  58  84 116 163 202 237 302 372
#     4  10  18  32  57  84 118 155 193 246 300 353
#     4  11  22  39  64  87 115 162 206 249 309 369
#     4  11  22  36  55  85 124 160 191 249 302 359
#
# _framework density 18.732299000000001
#
# number of rings (size 3 to 8) (size 9 to 14) (size 15 to 20)
#    0.000    1.750    3.750    1.500    1.750    0.500 
#    2.250    1.875    0.000    0.000    0.000    0.000 
#    0.000    0.000    0.000    0.000    0.000    0.000 
#
# Total GULP energy -356679.812157 kJ/mol
# GULP energy per Si atom -5573.122065 kJ/mol
# Density = 1.868966 g / cm^3
# Si number density = 18.732299 Si / 1000 Ang^3
#
#
#
# Elastic Constant Matrix: (Units=GPa)
#
#
# Indices 1 2 3 4 5 6 
#
# 1 64.6673 26.1774 22.1907 0.0000 0.0000 0.0000
# 2 26.1774 79.4450 55.2665 0.0000 0.0000 0.0000
# 3 22.1907 55.2665 110.3731 0.0000 0.0000 0.0000
# 4 0.0000 0.0000 0.0000 17.4905 0.0000 0.0000
# 5 0.0000 0.0000 0.0000 0.0000 25.6892 0.0000
# 6 0.0000 0.0000 0.0000 0.0000 0.0000 9.2469
#
#
#
# Elastic Compliance Matrix: (Units=1/GPa)
#
#
# Indices 1 2 3 4 5 6 
#
# 1 0.017914 -0.005213 -0.000991 0.000000 0.000000 0.000000
# 2 -0.005213 0.020833 -0.009383 0.000000 0.000000 0.000000
# 3 -0.000991 -0.009383 0.013958 0.000000 0.000000 0.000000
# 4 0.000000 0.000000 0.000000 0.057174 0.000000 0.000000
# 5 0.000000 0.000000 0.000000 0.000000 0.038927 0.000000
# 6 0.000000 0.000000 0.000000 0.000000 0.000000 0.108145
#
#
# Mechanical properties :
#
#
# Convention : Reuss Voigt Hill
#
# Bulk Modulus (GPa) = 46.44850 51.30607 48.87729
# Shear Modulus (GPa) = 16.93180 20.54204 18.73692
#
# Velocity S-wave (km/s) = 3.00973 3.31510 3.16610
# Velocity P-wave (km/s) = 6.07682 6.48859 6.28607
#
# Compressibility (1/GPa) = 0.02152922
#
# Stress axis : x y z
#
# Youngs Moduli (GPa) = 55.82151 48.00158 71.64379
#
# Poissons Ratio (x) = 0.25024 0.07102
# Poissons Ratio (y) = 0.29101 0.67226
# Poissons Ratio (z) = 0.05534 0.45041
#
# Static dielectric constant tensor:
#      x y z
#    x 1.683160 0.000000 0.000000 
#    y 0.000000 1.653410 0.000000 
#    z 0.000000 0.000000 1.673020 
# 
# From -- ./inp_files/22045.got.cif
#   From: 2010.05.17/outbox.cif.g08.bks.cpg/sg57_12_cif.got.tgz:22045.got - 2010.06.03 13:58:18.
