data_PCOD9434529
_publ_section_title
;
Structure prediction by ZEFSAII (Michael W. Deem and Ramdas Pophale) SiO2 
 PCOD9434529
Probable space group: P B C M
;
_chemical_formula_sum "Si O2"
_cell_formula_units_Z 56
_cell_length_a 8.702062
_cell_length_b 22.934783
_cell_length_c 16.025858
_cell_angle_alpha 90.000000
_cell_angle_beta 90.000000
_cell_angle_gamma 90.000000
_cell_volume 3198.439195
_symmetry_space_group_name_H-M "P B C M"
_symmetry_group_IT_number 57
_symmetry_cell_setting 'orthorhombic'
loop_
_space_group_symop_operation_xyz
x,y,z
-x,-y,1/2+z
x,1/2-y,-z
-x,1/2+y,1/2-z
-x,-y,-z
x,y,1/2-z
-x,1/2+y,z
x,1/2-y,1/2+z
loop_
_atom_site_type_symbol
_atom_site_label
_atom_site_fract_x
_atom_site_fract_y
_atom_site_fract_z
Si Si1 0.371868 0.405580 0.514870
Si Si2 0.646339 0.555457 0.658337
Si Si3 0.885333 0.508806 0.078300
Si Si4 0.956221 0.380669 0.842974
Si Si5 0.395181 0.583409 0.158599
Si Si6 0.908663 0.681006 0.500776
Si Si7 0.002801 0.396936 0.346063
O O1 0.433560 0.417436 0.422250
O O2 0.270854 0.462279 0.543683
O O3 0.499696 0.395940 0.583642
O O4 0.254202 0.352033 0.508022
O O5 0.593386 0.575277 0.750000
O O6 0.625939 0.486278 0.653650
O O7 0.827650 0.572103 0.651745
O O8 0.960326 0.557676 0.137948
O O9 0.883349 0.446877 0.124638
O O10 0.000000 0.500000 0.000000
O O11 0.000376 0.360677 0.750000
O O12 0.774631 0.390770 0.845215
O O13 0.000745 0.338991 0.918449
O O14 0.463588 0.596844 0.250000
O O15 0.894277 0.750000 0.500000
O O16 0.986028 0.653824 0.584517
O O17 0.976229 0.378905 0.250000
#
# Coordination Sequence:
#
# PCOD9434529 Si02
#       7
#     8   8   8   8   8   8   8
#     4  10  20  31  52  77 110 137 168 220 272 316
#     4   9  16  28  47  73 105 139 168 197 252 329
#     4  11  16  30  51  81 108 134 166 210 267 326
#     4  10  19  33  56  78 104 139 174 214 263 319
#     4  10  19  31  49  79 109 136 168 205 260 326
#     4  10  22  38  54  75 101 137 189 230 262 309
#     4  10  18  31  53  76 104 137 170 214 270 324
#
# _framework density 17.508541000000001
#
# number of rings (size 3 to 8) (size 9 to 14) (size 15 to 20)
#    0.000    2.000    5.714    0.857    0.000    3.429 
#    0.000    0.714    0.000    0.000    0.000    0.000 
#    0.000    0.000    0.000    0.000    0.000    0.000 
#
# Total GULP energy -312281.903587 kJ/mol
# GULP energy per Si atom -5576.462564 kJ/mol
# Density = 1.746869 g / cm^3
# Si number density = 17.508541 Si / 1000 Ang^3
#
#
#
# Elastic Constant Matrix: (Units=GPa)
#
#
# Indices 1 2 3 4 5 6 
#
# 1 21.1415 12.0804 37.0821 0.0000 0.0000 0.0000
# 2 12.0804 97.0583 60.1008 0.0000 0.0000 0.0000
# 3 37.0821 60.1008 189.3972 0.0000 0.0000 0.0000
# 4 0.0000 0.0000 0.0000 9.0870 0.0000 0.0000
# 5 0.0000 0.0000 0.0000 0.0000 24.7885 0.0000
# 6 0.0000 0.0000 0.0000 0.0000 0.0000 6.9369
#
#
#
# Elastic Compliance Matrix: (Units=1/GPa)
#
#
# Indices 1 2 3 4 5 6 
#
# 1 0.072046 -0.000289 -0.014014 0.000000 0.000000 0.000000
# 2 -0.000289 0.012824 -0.004013 0.000000 0.000000 0.000000
# 3 -0.014014 -0.004013 0.009297 0.000000 0.000000 0.000000
# 4 0.000000 0.000000 0.000000 0.110047 0.000000 0.000000
# 5 0.000000 0.000000 0.000000 0.000000 0.040341 0.000000
# 6 0.000000 0.000000 0.000000 0.000000 0.000000 0.144156
#
#
# Mechanical properties :
#
#
# Convention : Reuss Voigt Hill
#
# Bulk Modulus (GPa) = 17.38077 58.45815 37.91946
# Shear Modulus (GPa) = 11.24802 21.38473 16.31638
#
# Velocity S-wave (km/s) = 2.53737 3.49863 3.05603
# Velocity P-wave (km/s) = 4.30499 7.05559 5.84441
#
# Compressibility (1/GPa) = 0.05753486
#
# Stress axis : x y z
#
# Youngs Moduli (GPa) = 13.87996 77.97965 107.56079
#
# Poissons Ratio (x) = 0.02257 1.50737
# Poissons Ratio (y) = 0.00402 0.43161
# Poissons Ratio (z) = 0.19452 0.31291
#
# Static dielectric constant tensor:
#      x y z
#    x 1.596210 0.000000 0.000000 
#    y 0.000000 1.563220 0.000000 
#    z 0.000000 0.000000 1.647010 
# 
# From -- ./inp_files/16719.got.cif
#   From: 2010.05.17/outbox.cif.g08.bks.cpg/sg57_9_cif.got.tgz:16719.got - 2010.06.03 13:58:18.
