data_PCOD9434891
_publ_section_title
;
Structure prediction by ZEFSAII (Michael W. Deem and Ramdas Pophale) SiO2 
 PCOD9434891
Probable space group: P B C M
;
_chemical_formula_sum "Si O2"
_cell_formula_units_Z 64
_cell_length_a 26.862769
_cell_length_b 18.889566
_cell_length_c 8.875757
_cell_angle_alpha 90.000000
_cell_angle_beta 90.000000
_cell_angle_gamma 90.000000
_cell_volume 4503.790297
_symmetry_space_group_name_H-M "P B C M"
_symmetry_group_IT_number 57
_symmetry_cell_setting 'orthorhombic'
loop_
_space_group_symop_operation_xyz
x,y,z
-x,-y,1/2+z
x,1/2-y,-z
-x,1/2+y,1/2-z
-x,-y,-z
x,y,1/2-z
-x,1/2+y,z
x,1/2-y,1/2+z
loop_
_atom_site_type_symbol
_atom_site_label
_atom_site_fract_x
_atom_site_fract_y
_atom_site_fract_z
Si Si1 0.548088 0.460658 0.068883
Si Si2 0.393376 0.080154 0.930946
Si Si3 0.807719 0.825839 0.929144
Si Si4 0.308521 0.326569 0.569405
Si Si5 0.955026 0.453954 0.568980
Si Si6 0.892628 0.583628 0.930107
Si Si7 0.509216 0.672882 0.930297
Si Si8 0.007064 0.327908 0.069249
O O1 0.548227 0.467660 0.250000
O O2 0.537085 0.378760 0.030746
O O3 0.500000 0.500000 0.000000
O O4 0.594016 0.503031 0.998401
O O5 0.391604 0.076692 0.750000
O O6 0.439735 0.132006 0.973985
O O7 0.344031 0.114716 0.998171
O O8 0.812053 0.820491 0.750000
O O9 0.749718 0.839327 0.966355
O O10 0.821707 0.750000 0.000000
O O11 0.844456 0.885478 0.990117
O O12 0.321859 0.250000 0.500000
O O13 0.314336 0.324336 0.750000
O O14 0.959693 0.450620 0.750000
O O15 0.907083 0.502403 0.533013
O O16 0.963150 0.377014 0.498075
O O17 0.000000 0.500000 0.500000
O O18 0.886369 0.588329 0.750000
O O19 0.940536 0.632893 0.968942
O O20 0.510409 0.679112 0.750000
O O21 0.506525 0.750000 0.000000
O O22 0.003388 0.325592 0.250000
O O23 0.006537 0.250000 0.000000
#
# Coordination Sequence:
#
# PCOD9434891 Si02
#       8
#     8   8   8   8   8   8   8   8
#     4   9  17  29  42  59  83 110 140 175 210 248
#     4  10  19  30  44  62  82 111 146 176 211 252
#     4  10  20  31  44  61  83 111 143 177 213 248
#     4  10  20  32  44  61  84 111 142 178 214 248
#     4   9  17  29  43  60  82 109 140 174 210 250
#     4   9  18  30  44  61  82 110 143 175 210 248
#     4   9  18  28  40  60  84 109 139 170 204 244
#     4  10  19  29  42  62  86 113 143 175 210 250
#
# _framework density 14.210254000000001
#
# number of rings (size 3 to 8) (size 9 to 14) (size 15 to 20)
#    0.000    2.500    0.000    4.500    0.000    9.500 
#    0.000    0.000    0.000    0.000    0.000    0.000 
#    0.000    1.000    0.000    5.500    0.000    4.250 
#
# Total GULP energy -356573.791815 kJ/mol
# GULP energy per Si atom -5571.465497 kJ/mol
# Density = 1.417791 g / cm^3
# Si number density = 14.210254 Si / 1000 Ang^3
#
#
#
# Elastic Constant Matrix: (Units=GPa)
#
#
# Indices 1 2 3 4 5 6 
#
# 1 54.8810 33.6086 28.0262 0.0000 0.0000 0.0000
# 2 33.6086 90.1372 34.2400 0.0000 0.0000 0.0000
# 3 28.0262 34.2400 43.9211 0.0000 0.0000 0.0000
# 4 0.0000 0.0000 0.0000 27.5448 0.0000 0.0000
# 5 0.0000 0.0000 0.0000 0.0000 21.8733 0.0000
# 6 0.0000 0.0000 0.0000 0.0000 0.0000 27.9211
#
#
#
# Elastic Compliance Matrix: (Units=1/GPa)
#
#
# Indices 1 2 3 4 5 6 
#
# 1 0.028721 -0.005324 -0.014177 0.000000 0.000000 0.000000
# 2 -0.005324 0.016749 -0.009660 0.000000 0.000000 0.000000
# 3 -0.014177 -0.009660 0.039345 0.000000 0.000000 0.000000
# 4 0.000000 0.000000 0.000000 0.036305 0.000000 0.000000
# 5 0.000000 0.000000 0.000000 0.000000 0.045718 0.000000
# 6 0.000000 0.000000 0.000000 0.000000 0.000000 0.035815
#
#
# Mechanical properties :
#
#
# Convention : Reuss Voigt Hill
#
# Bulk Modulus (GPa) = 37.74427 42.29875 40.02151
# Shear Modulus (GPa) = 18.53196 21.67214 20.10205
#
# Velocity S-wave (km/s) = 3.61519 3.90950 3.76522
# Velocity P-wave (km/s) = 6.63664 7.08589 6.86494
#
# Compressibility (1/GPa) = 0.02649409
#
# Stress axis : x y z
#
# Youngs Moduli (GPa) = 34.81758 59.70644 25.41620
#
# Poissons Ratio (x) = 0.31786 0.36032
# Poissons Ratio (y) = 0.18536 0.24552
# Poissons Ratio (z) = 0.49360 0.57675
#
# Static dielectric constant tensor:
#      x y z
#    x 1.468820 0.000000 0.000000 
#    y 0.000000 1.522920 0.000000 
#    z 0.000000 0.000000 1.469690 
# 
# From -- ./inp_files/9812.got.cif
#   From: 2010.05.17/outbox.cif.g08.bks.cpg/sg57_5_cif.got.tgz:9812.got - 2010.06.03 13:58:18.
