data_PCOD9434584
_publ_section_title
;
Structure prediction by ZEFSAII (Michael W. Deem and Ramdas Pophale) SiO2 
 PCOD9434584
Probable space group: P B C M
;
_chemical_formula_sum "Si O2"
_cell_formula_units_Z 56
_cell_length_a 13.137881
_cell_length_b 20.909626
_cell_length_c 11.190016
_cell_angle_alpha 90.000000
_cell_angle_beta 90.000000
_cell_angle_gamma 90.000000
_cell_volume 3073.988909
_symmetry_space_group_name_H-M "P B C M"
_symmetry_group_IT_number 57
_symmetry_cell_setting 'orthorhombic'
loop_
_space_group_symop_operation_xyz
x,y,z
-x,-y,1/2+z
x,1/2-y,-z
-x,1/2+y,1/2-z
-x,-y,-z
x,y,1/2-z
-x,1/2+y,z
x,1/2-y,1/2+z
loop_
_atom_site_type_symbol
_atom_site_label
_atom_site_fract_x
_atom_site_fract_y
_atom_site_fract_z
Si Si1 0.910835 0.058359 0.617031
Si Si2 0.290594 0.581589 0.025663
Si Si3 0.761069 0.211605 0.119885
Si Si4 0.513748 0.050220 0.889982
Si Si5 0.897401 0.914405 0.542929
Si Si6 0.006231 0.213233 0.121118
Si Si7 0.289453 0.435722 0.384950
O O1 0.903348 0.083089 0.750000
O O2 0.817805 0.084555 0.540202
O O3 0.018200 0.076314 0.560272
O O4 0.900082 0.981362 0.613239
O O5 0.291907 0.642539 0.110654
O O6 0.292748 0.512853 0.092102
O O7 0.381879 0.583888 0.929338
O O8 0.737128 0.241289 0.250000
O O9 0.884056 0.203321 0.116618
O O10 0.733112 0.250000 0.000000
O O11 0.522209 0.027194 0.750000
O O12 0.406222 0.087335 0.894319
O O13 0.500000 0.000000 0.000000
O O14 0.935181 0.853897 0.615889
O O15 0.787486 0.907696 0.481856
O O16 0.028245 0.245051 0.250000
O O17 0.034615 0.250000 0.000000
O O18 0.252907 0.424608 0.250000
#
# Coordination Sequence:
#
# PCOD9434584 Si02
#       7
#     8   8   8   8   8   8   8
#     4  10  19  28  45  74 104 134 166 207 258 310
#     4  10  18  32  51  76 105 139 174 216 264 317
#     4  10  21  36  53  76 106 141 178 218 264 318
#     4   9  18  32  51  76 106 139 175 213 255 306
#     4  10  19  32  47  73 103 137 169 211 254 312
#     4  10  21  37  54  75 104 141 179 217 260 312
#     4   9  18  31  50  76 106 140 177 213 258 314
#
# _framework density 18.217372999999998
#
# number of rings (size 3 to 8) (size 9 to 14) (size 15 to 20)
#    0.000    2.286    1.429    1.714    0.000    2.857 
#    0.000    0.714    0.000    0.857    0.000    0.000 
#    0.000    0.000    0.000    0.000    0.000    0.000 
#
# Total GULP energy -311812.344656 kJ/mol
# GULP energy per Si atom -5568.077583 kJ/mol
# Density = 1.817591 g / cm^3
# Si number density = 18.217373 Si / 1000 Ang^3
#
#
#
# Elastic Constant Matrix: (Units=GPa)
#
#
# Indices 1 2 3 4 5 6 
#
# 1 44.8465 -2.1989 8.9716 0.0000 0.0000 0.0000
# 2 -2.1989 28.9221 24.0018 0.0000 0.0000 0.0000
# 3 8.9716 24.0018 125.7569 0.0000 0.0000 0.0000
# 4 0.0000 0.0000 0.0000 6.1442 0.0000 0.0000
# 5 0.0000 0.0000 0.0000 0.0000 22.5245 0.0000
# 6 0.0000 0.0000 0.0000 0.0000 0.0000 8.1604
#
#
#
# Elastic Compliance Matrix: (Units=1/GPa)
#
#
# Indices 1 2 3 4 5 6 
#
# 1 0.022947 0.003687 -0.002341 0.000000 0.000000 0.000000
# 2 0.003687 0.041675 -0.008217 0.000000 0.000000 0.000000
# 3 -0.002341 -0.008217 0.009687 0.000000 0.000000 0.000000
# 4 0.000000 0.000000 0.000000 0.162756 0.000000 0.000000
# 5 0.000000 0.000000 0.000000 0.000000 0.044396 0.000000
# 6 0.000000 0.000000 0.000000 0.000000 0.000000 0.122543
#
#
# Mechanical properties :
#
#
# Convention : Reuss Voigt Hill
#
# Bulk Modulus (GPa) = 16.51026 29.00825 22.75925
# Shear Modulus (GPa) = 11.41721 18.61590 15.01655
#
# Velocity S-wave (km/s) = 2.50616 3.20015 2.87417
# Velocity P-wave (km/s) = 4.17816 5.44174 4.85127
#
# Compressibility (1/GPa) = 0.06056842
#
# Stress axis : x y z
#
# Youngs Moduli (GPa) = 43.57798 23.99508 103.22953
#
# Poissons Ratio (x) = -0.08848 0.24164
# Poissons Ratio (y) = -0.16068 0.84825
# Poissons Ratio (z) = 0.10201 0.19717
#
# Static dielectric constant tensor:
#      x y z
#    x 1.614190 0.000000 0.000000 
#    y 0.000000 1.648960 0.000000 
#    z 0.000000 0.000000 7.174490 
# 
# From -- ./inp_files/13098.got.cif
#   From: 2010.05.17/outbox.cif.g08.bks.cpg/sg57_7_cif.got.tgz:13098.got - 2010.06.03 13:58:18.
