data_PCOD9434296
_publ_section_title
;
Structure prediction by ZEFSAII (Michael W. Deem and Ramdas Pophale) SiO2 
 PCOD9434296
Probable space group: P B C M
;
_chemical_formula_sum "Si O2"
_cell_formula_units_Z 48
_cell_length_a 28.677531
_cell_length_b 8.155729
_cell_length_c 9.783700
_cell_angle_alpha 90.000000
_cell_angle_beta 90.000000
_cell_angle_gamma 90.000000
_cell_volume 2288.272133
_symmetry_space_group_name_H-M "P B C M"
_symmetry_group_IT_number 57
_symmetry_cell_setting 'orthorhombic'
loop_
_space_group_symop_operation_xyz
x,y,z
-x,-y,1/2+z
x,1/2-y,-z
-x,1/2+y,1/2-z
-x,-y,-z
x,y,1/2-z
-x,1/2+y,z
x,1/2-y,1/2+z
loop_
_atom_site_type_symbol
_atom_site_label
_atom_site_fract_x
_atom_site_fract_y
_atom_site_fract_z
Si Si1 0.609064 0.551997 0.521978
Si Si2 0.932937 0.065588 0.250000
Si Si3 0.288199 0.077362 0.913436
Si Si4 0.794176 0.919981 0.588559
Si Si5 0.539428 0.883450 0.250000
Si Si6 0.896828 0.556085 0.474482
Si Si7 0.435346 0.504660 0.750000
Si Si8 0.966139 0.433748 0.250000
O O1 0.611391 0.750000 0.500000
O O2 0.659994 0.502660 0.575120
O O3 0.565402 0.533469 0.622476
O O4 0.595656 0.465347 0.382321
O O5 0.953298 0.245258 0.250000
O O6 0.902882 0.033009 0.382683
O O7 0.978605 0.951367 0.250000
O O8 0.278314 0.096264 0.750000
O O9 0.291872 0.250000 0.000000
O O10 0.246418 0.991998 0.999526
O O11 0.799357 0.750000 0.500000
O O12 0.781728 0.898910 0.750000
O O13 0.846442 0.990840 0.586096
O O14 0.551752 0.690151 0.250000
O O15 0.484392 0.904141 0.250000
O O16 0.898233 0.750000 0.500000
O O17 0.940463 0.512510 0.379728
#
# Coordination Sequence:
#
# PCOD9434296 Si02
#       8
#     8   4   8   8   4   8   4   4
#     4   9  18  29  46  71 104 137 175 224 278 330
#     4  12  26  40  69  88 126 166 205 256 301 356
#     4  10  18  28  48  77 113 144 181 227 288 345
#     4  10  20  32  54  84 119 149 188 236 291 350
#     4  10  18  34  45  74  98 138 175 224 271 328
#     4  11  23  40  63  92 128 162 200 248 302 361
#     4  10  20  30  51  68 104 136 181 222 277 332
#     4  12  24  46  61  96 124 162 213 250 303 356
#
# _framework density 20.976527000000001
#
# number of rings (size 3 to 8) (size 9 to 14) (size 15 to 20)
#    0.000    1.667    1.667    5.000    9.333    0.000 
#    0.000    0.000    0.000    0.000    0.000    7.000 
#    0.000    0.000    0.000    0.000    0.000    0.000 
#
# Total GULP energy -267622.402802 kJ/mol
# GULP energy per Si atom -5575.466725 kJ/mol
# Density = 2.092878 g / cm^3
# Si number density = 20.976527 Si / 1000 Ang^3
#
#
#
# Elastic Constant Matrix: (Units=GPa)
#
#
# Indices 1 2 3 4 5 6 
#
# 1 109.6369 -2.2198 45.0459 0.0000 0.0000 0.0000
# 2 -2.2198 28.7545 1.8807 0.0000 0.0000 0.0000
# 3 45.0459 1.8807 176.4805 0.0000 0.0000 0.0000
# 4 0.0000 0.0000 0.0000 10.6960 0.0000 0.0000
# 5 0.0000 0.0000 0.0000 0.0000 39.9628 0.0000
# 6 0.0000 0.0000 0.0000 0.0000 0.0000 13.0291
#
#
#
# Elastic Compliance Matrix: (Units=1/GPa)
#
#
# Indices 1 2 3 4 5 6 
#
# 1 0.010216 0.000960 -0.002618 0.000000 0.000000 0.000000
# 2 0.000960 0.034892 -0.000617 0.000000 0.000000 0.000000
# 3 -0.002618 -0.000617 0.006341 0.000000 0.000000 0.000000
# 4 0.000000 0.000000 0.000000 0.093493 0.000000 0.000000
# 5 0.000000 0.000000 0.000000 0.000000 0.025023 0.000000
# 6 0.000000 0.000000 0.000000 0.000000 0.000000 0.076751
#
#
# Mechanical properties :
#
#
# Convention : Reuss Voigt Hill
#
# Bulk Modulus (GPa) = 21.32233 44.92061 33.12147
# Shear Modulus (GPa) = 18.73369 30.74859 24.74114
#
# Velocity S-wave (km/s) = 2.99168 3.83280 3.43806
# Velocity P-wave (km/s) = 4.70324 6.40690 5.62000
#
# Compressibility (1/GPa) = 0.04689920
#
# Stress axis : x y z
#
# Youngs Moduli (GPa) = 97.88542 28.66017 157.70109
#
# Poissons Ratio (x) = -0.02751 0.41283
# Poissons Ratio (y) = -0.09396 0.09728
# Poissons Ratio (z) = 0.25625 0.01768
#
# Static dielectric constant tensor:
#      x y z
#    x 1.800520 0.000000 0.000000 
#    y 0.000000 1.780880 0.000000 
#    z 0.000000 0.000000 1.660810 
# 
# From -- ./inp_files/10213.got.cif
#   From: 2010.05.17/outbox.cif.g08.bks.cpg/sg57_6_cif.got.tgz:10213.got - 2010.06.03 13:58:18.
