data_PCOD9434006
_publ_section_title
;
Structure prediction by ZEFSAII (Michael W. Deem and Ramdas Pophale) SiO2 
 PCOD9434006
Probable space group: P B C M
;
_chemical_formula_sum "Si O2"
_cell_formula_units_Z 64
_cell_length_a 20.442442
_cell_length_b 5.346479
_cell_length_c 31.705799
_cell_angle_alpha 90.000000
_cell_angle_beta 90.000000
_cell_angle_gamma 90.000000
_cell_volume 3465.288056
_symmetry_space_group_name_H-M "P B C M"
_symmetry_group_IT_number 57
_symmetry_cell_setting 'orthorhombic'
loop_
_space_group_symop_operation_xyz
x,y,z
-x,-y,1/2+z
x,1/2-y,-z
-x,1/2+y,1/2-z
-x,-y,-z
x,y,1/2-z
-x,1/2+y,z
x,1/2-y,1/2+z
loop_
_atom_site_type_symbol
_atom_site_label
_atom_site_fract_x
_atom_site_fract_y
_atom_site_fract_z
Si Si1 0.679640 0.000152 0.027599
Si Si2 0.326318 0.486549 0.325225
Si Si3 0.217116 0.492829 0.398854
Si Si4 0.728852 0.008173 0.795290
Si Si5 0.528900 0.000844 0.048765
Si Si6 0.043825 0.992365 0.201733
Si Si7 0.840001 0.496416 0.134524
Si Si8 0.539743 0.388266 0.799635
O O1 0.741537 0.997094 0.058420
O O2 0.607233 0.002950 0.048458
O O3 0.681064 0.750000 0.000000
O O4 0.682497 0.250000 0.000000
O O5 0.275933 0.485913 0.364142
O O6 0.301279 0.717210 0.297065
O O7 0.401514 0.552836 0.331614
O O8 0.321825 0.214594 0.304058
O O9 0.174020 0.741780 0.391191
O O10 0.172166 0.247092 0.392678
O O11 0.759480 0.961178 0.750000
O O12 0.782402 0.994511 0.831139
O O13 0.499382 0.249791 0.068588
O O14 0.500000 0.000000 0.000000
O O15 0.072150 0.991404 0.250000
O O16 0.095291 0.992799 0.163350
O O17 0.999948 0.742474 0.198612
O O18 0.561486 0.409845 0.750000
O O19 0.487216 0.609371 0.805144
#
# Coordination Sequence:
#
# PCOD9434006 Si02
#       8
#     8   8   8   8   8   8   8   8
#     4  12  21  35  58  79 107 136 184 237 283 348
#     4  10  20  34  47  66 100 123 169 217 262 319
#     4  10  23  37  53  78 106 148 175 219 283 327
#     4  10  18  29  51  73  93 134 176 209 250 299
#     4  10  16  30  49  75 102 129 167 219 271 351
#     4  10  20  34  57  90 124 160 198 229 258 301
#     4  10  20  37  53  76 120 149 177 220 262 321
#     4  10  19  30  46  63  85 120 164 217 267 306
#
# _framework density 18.468883999999999
#
# number of rings (size 3 to 8) (size 9 to 14) (size 15 to 20)
#    0.000    1.750    2.500    3.750    0.000    1.000 
#    0.000    5.000    0.000    0.000    0.000    0.000 
#    0.000   35.000    0.000    0.000    0.000    0.000 
#
# Total GULP energy -356832.609422 kJ/mol
# GULP energy per Si atom -5575.509522 kJ/mol
# Density = 1.842685 g / cm^3
# Si number density = 18.468884 Si / 1000 Ang^3
#
#
#
# Elastic Constant Matrix: (Units=GPa)
#
#
# Indices 1 2 3 4 5 6 
#
# 1 86.1792 40.6524 30.9721 0.0000 0.0000 0.0000
# 2 40.6524 148.9532 44.8470 0.0000 0.0000 0.0000
# 3 30.9721 44.8470 38.2808 0.0000 0.0000 0.0000
# 4 0.0000 0.0000 0.0000 6.5403 0.0000 0.0000
# 5 0.0000 0.0000 0.0000 0.0000 17.6897 0.0000
# 6 0.0000 0.0000 0.0000 0.0000 0.0000 22.4305
#
#
#
# Elastic Compliance Matrix: (Units=1/GPa)
#
#
# Indices 1 2 3 4 5 6 
#
# 1 0.016414 -0.000744 -0.012409 0.000000 0.000000 0.000000
# 2 -0.000744 0.010406 -0.011589 0.000000 0.000000 0.000000
# 3 -0.012409 -0.011589 0.049740 0.000000 0.000000 0.000000
# 4 0.000000 0.000000 0.000000 0.152898 0.000000 0.000000
# 5 0.000000 0.000000 0.000000 0.000000 0.056530 0.000000
# 6 0.000000 0.000000 0.000000 0.000000 0.000000 0.044582
#
#
# Mechanical properties :
#
#
# Convention : Reuss Voigt Hill
#
# Bulk Modulus (GPa) = 36.93315 56.26180 46.59747
# Shear Modulus (GPa) = 12.85089 19.79490 16.32289
#
# Velocity S-wave (km/s) = 2.64069 3.27738 2.97611
# Velocity P-wave (km/s) = 5.41651 6.69707 6.09054
#
# Compressibility (1/GPa) = 0.02707595
#
# Stress axis : x y z
#
# Youngs Moduli (GPa) = 60.92256 96.10157 20.10474
#
# Poissons Ratio (x) = 0.07146 0.24948
# Poissons Ratio (y) = 0.04530 0.23299
# Poissons Ratio (z) = 0.75600 1.11371
#
# Static dielectric constant tensor:
#      x y z
#    x 1.627000 0.000000 0.000000 
#    y 0.000000 1.684400 0.000000 
#    z 0.000000 0.000000 1.656990 
# 
# From -- ./inp_files/29956.got.cif
#   From: 2010.05.17/outbox.cif.g08.bks.cpg/sg57_15_cif.got.tgz:29956.got - 2010.06.03 13:58:18.
