data_PCOD9434636
_publ_section_title
;
Structure prediction by ZEFSAII (Michael W. Deem and Ramdas Pophale) SiO2 
 PCOD9434636
Probable space group: P B C M
;
_chemical_formula_sum "Si O2"
_cell_formula_units_Z 48
_cell_length_a 17.700432
_cell_length_b 15.802150
_cell_length_c 8.599624
_cell_angle_alpha 90.000000
_cell_angle_beta 90.000000
_cell_angle_gamma 90.000000
_cell_volume 2405.356812
_symmetry_space_group_name_H-M "P B C M"
_symmetry_group_IT_number 57
_symmetry_cell_setting 'orthorhombic'
loop_
_space_group_symop_operation_xyz
x,y,z
-x,-y,1/2+z
x,1/2-y,-z
-x,1/2+y,1/2-z
-x,-y,-z
x,y,1/2-z
-x,1/2+y,z
x,1/2-y,1/2+z
loop_
_atom_site_type_symbol
_atom_site_label
_atom_site_fract_x
_atom_site_fract_y
_atom_site_fract_z
Si Si1 0.663815 0.094380 0.937376
Si Si2 0.178168 0.160377 0.434690
Si Si3 0.499295 0.404006 0.062777
Si Si4 0.334692 0.401518 0.062756
Si Si5 0.915419 0.502281 0.563416
Si Si6 0.181383 0.838583 0.563913
O O1 0.667196 0.088512 0.750000
O O2 0.581292 0.131500 0.983319
O O3 0.734565 0.146264 0.998961
O O4 0.669506 0.999588 0.008013
O O5 0.151095 0.250000 0.500000
O O6 0.174402 0.160056 0.250000
O O7 0.264557 0.146246 0.488376
O O8 0.129293 0.083402 0.501142
O O9 0.497973 0.406568 0.250000
O O10 0.417928 0.367678 0.014086
O O11 0.500000 0.500000 0.000000
O O12 0.328134 0.398630 0.250000
O O13 0.916399 0.505023 0.750000
O O14 0.869916 0.417951 0.515353
O O15 0.000000 0.500000 0.500000
O O16 0.151477 0.750000 0.500000
O O17 0.184391 0.836324 0.750000
#
# Coordination Sequence:
#
# PCOD9434636 Si02
#       6
#     8   8   8   8   8   8
#     4  10  18  32  56  86 121 164 211 256 309 367
#     4  12  25  42  66  95 128 167 211 259 314 374
#     4   8  16  28  48  80 117 159 207 257 305 360
#     4  10  18  33  56  85 123 164 209 259 311 366
#     4  11  25  46  71  98 129 163 203 250 310 376
#     4  11  24  41  64  93 127 165 207 255 307 366
#
# _framework density 19.955458
#
# number of rings (size 3 to 8) (size 9 to 14) (size 15 to 20)
#    0.000    1.667    1.667    3.500    0.000    4.000 
#    0.000    2.500    0.000    0.000    0.000    0.000 
#    0.000    0.000    0.000    0.000    0.000    0.000 
#
# Total GULP energy -268126.614748 kJ/mol
# GULP energy per Si atom -5585.971141 kJ/mol
# Density = 1.991004 g / cm^3
# Si number density = 19.955458 Si / 1000 Ang^3
#
#
#
# Elastic Constant Matrix: (Units=GPa)
#
#
# Indices 1 2 3 4 5 6 
#
# 1 164.4767 73.7828 47.0495 0.0000 0.0000 0.0000
# 2 73.7828 132.8688 40.4627 0.0000 0.0000 0.0000
# 3 47.0495 40.4627 67.0231 0.0000 0.0000 0.0000
# 4 0.0000 0.0000 0.0000 28.2898 0.0000 0.0000
# 5 0.0000 0.0000 0.0000 0.0000 26.1737 0.0000
# 6 0.0000 0.0000 0.0000 0.0000 0.0000 -10.3323
#
#
#
# Elastic Compliance Matrix: (Units=1/GPa)
#
#
# Indices 1 2 3 4 5 6 
#
# 1 0.008892 -0.003721 -0.003996 0.000000 0.000000 0.000000
# 2 -0.003721 0.010779 -0.003895 0.000000 0.000000 0.000000
# 3 -0.003996 -0.003895 0.020077 0.000000 0.000000 0.000000
# 4 0.000000 0.000000 0.000000 0.035348 0.000000 0.000000
# 5 0.000000 0.000000 0.000000 0.000000 0.038206 0.000000
# 6 0.000000 0.000000 0.000000 0.000000 0.000000 -0.096784
#
#
# Mechanical properties :
#
#
# Convention : Reuss Voigt Hill
#
# Bulk Modulus (GPa) = 60.51881 76.32872 68.42376
# Shear Modulus (GPa) = 110.49632 22.36448 66.43040
#
# Velocity S-wave (km/s) = 7.44927 3.35135 5.77595
# Velocity P-wave (km/s) = 10.21674 7.30123 8.87946
#
# Compressibility (1/GPa) = 0.01652379
#
# Stress axis : x y z
#
# Youngs Moduli (GPa) = 112.45936 92.77554 49.80889
#
# Poissons Ratio (x) = 0.34522 0.19902
# Poissons Ratio (y) = 0.41846 0.19401
# Poissons Ratio (z) = 0.44936 0.36137
#
# Static dielectric constant tensor:
#      x y z
#    x 1.722120 0.000000 0.000000 
#    y 0.000000 1.704950 0.000000 
#    z 0.000000 0.000000 1.671370 
# 
# From -- ./inp_files/6559.got.cif
#   From: 2010.05.17/outbox.cif.g08.bks.cpg/sg57_4_cif.got.tgz:6559.got - 2010.06.03 13:58:18.
