data_PCOD9434311
_publ_section_title
;
Structure prediction by ZEFSAII (Michael W. Deem and Ramdas Pophale) SiO2 
 PCOD9434311
Probable space group: P B C M
;
_chemical_formula_sum "Si O2"
_cell_formula_units_Z 56
_cell_length_a 13.767969
_cell_length_b 28.987453
_cell_length_c 8.891587
_cell_angle_alpha 90.000000
_cell_angle_beta 90.000000
_cell_angle_gamma 90.000000
_cell_volume 3548.617739
_symmetry_space_group_name_H-M "P B C M"
_symmetry_group_IT_number 57
_symmetry_cell_setting 'orthorhombic'
loop_
_space_group_symop_operation_xyz
x,y,z
-x,-y,1/2+z
x,1/2-y,-z
-x,1/2+y,1/2-z
-x,-y,-z
x,y,1/2-z
-x,1/2+y,z
x,1/2-y,1/2+z
loop_
_atom_site_type_symbol
_atom_site_label
_atom_site_fract_x
_atom_site_fract_y
_atom_site_fract_z
Si Si1 0.512024 0.798273 0.569583
Si Si2 0.901259 0.518466 0.070687
Si Si3 0.703812 0.033119 0.570225
Si Si4 0.599120 0.551977 0.925740
Si Si5 0.580333 0.394318 0.929083
Si Si6 0.804866 0.895607 0.425315
Si Si7 0.726466 0.798960 0.068258
O O1 0.477840 0.750000 0.500000
O O2 0.523303 0.794418 0.750000
O O3 0.441290 0.840910 0.536394
O O4 0.618163 0.807301 0.497178
O O5 0.908265 0.517894 0.250000
O O6 0.810220 0.485632 0.026491
O O7 0.873304 0.569892 0.016459
O O8 0.000000 0.500000 0.000000
O O9 0.697010 0.033104 0.750000
O O10 0.673664 0.082425 0.504893
O O11 0.628115 0.995965 0.503003
O O12 0.575571 0.545015 0.750000
O O13 0.696146 0.583213 0.935139
O O14 0.512475 0.577883 0.008237
O O15 0.585892 0.399734 0.750000
O O16 0.833600 0.897025 0.250000
O O17 0.793929 0.842441 0.473201
O O18 0.720760 0.796663 0.250000
O O19 0.758675 0.750000 0.000000
#
# Coordination Sequence:
#
# PCOD9434311 Si02
#       7
#     8   8   8   8   8   8   8
#     4  10  20  31  45  65  93 129 169 205 238 279
#     4  10  21  36  55  75  96 122 156 198 247 297
#     4  10  21  34  48  69  94 123 159 195 233 284
#     4  10  18  30  46  65  95 131 163 196 233 275
#     4  11  21  31  45  67  95 129 164 199 236 277
#     4   9  18  31  48  70  97 130 165 198 238 285
#     4  10  18  29  45  68  97 131 167 201 238 280
#
# _framework density 15.780792
#
# number of rings (size 3 to 8) (size 9 to 14) (size 15 to 20)
#    0.000    2.000    1.429    3.857    0.000    5.143 
#    0.000    0.000    0.000    0.000    0.000    1.000 
#    0.000    6.857    0.000    0.000    0.000    0.000 
#
# Total GULP energy -312471.428179 kJ/mol
# GULP energy per Si atom -5579.846932 kJ/mol
# Density = 1.574487 g / cm^3
# Si number density = 15.780792 Si / 1000 Ang^3
#
#
#
# Elastic Constant Matrix: (Units=GPa)
#
#
# Indices 1 2 3 4 5 6 
#
# 1 59.6788 59.3767 32.3853 0.0000 0.0000 0.0000
# 2 59.3767 143.0878 57.8174 0.0000 0.0000 0.0000
# 3 32.3853 57.8174 61.1680 0.0000 0.0000 0.0000
# 4 0.0000 0.0000 0.0000 26.4881 0.0000 0.0000
# 5 0.0000 0.0000 0.0000 0.0000 22.9939 0.0000
# 6 0.0000 0.0000 0.0000 0.0000 0.0000 19.2411
#
#
#
# Elastic Compliance Matrix: (Units=1/GPa)
#
#
# Indices 1 2 3 4 5 6 
#
# 1 0.030142 -0.009804 -0.006692 0.000000 0.000000 0.000000
# 2 -0.009804 0.014496 -0.008511 0.000000 0.000000 0.000000
# 3 -0.006692 -0.008511 0.027937 0.000000 0.000000 0.000000
# 4 0.000000 0.000000 0.000000 0.037753 0.000000 0.000000
# 5 0.000000 0.000000 0.000000 0.000000 0.043490 0.000000
# 6 0.000000 0.000000 0.000000 0.000000 0.000000 0.051972
#
#
# Mechanical properties :
#
#
# Convention : Reuss Voigt Hill
#
# Bulk Modulus (GPa) = 44.32522 62.56595 53.44559
# Shear Modulus (GPa) = 18.98799 21.36829 20.17814
#
# Velocity S-wave (km/s) = 3.47253 3.68376 3.57970
# Velocity P-wave (km/s) = 6.65034 7.60437 7.14330
#
# Compressibility (1/GPa) = 0.02256052
#
# Stress axis : x y z
#
# Youngs Moduli (GPa) = 33.17618 68.98307 35.79542
#
# Poissons Ratio (x) = 0.67632 0.23953
# Poissons Ratio (y) = 0.32526 0.30467
# Poissons Ratio (z) = 0.22200 0.58715
#
# Static dielectric constant tensor:
#      x y z
#    x 1.504200 0.000000 0.000000 
#    y 0.000000 1.551080 0.000000 
#    z 0.000000 0.000000 1.527750 
# 
# From -- ./inp_files/5917.got.cif
#   From: 2010.05.17/outbox.cif.g08.bks.cpg/sg57_3_cif.got.tgz:5917.got - 2010.06.03 13:58:18.
