data_PCOD9434997
_publ_section_title
;
Structure prediction by ZEFSAII (Michael W. Deem and Ramdas Pophale) SiO2 
 PCOD9434997
Probable space group: P B C M
;
_chemical_formula_sum "Si O2"
_cell_formula_units_Z 64
_cell_length_a 24.295289
_cell_length_b 14.007318
_cell_length_c 8.475658
_cell_angle_alpha 90.000000
_cell_angle_beta 90.000000
_cell_angle_gamma 90.000000
_cell_volume 2884.366760
_symmetry_space_group_name_H-M "P B C M"
_symmetry_group_IT_number 57
_symmetry_cell_setting 'orthorhombic'
loop_
_space_group_symop_operation_xyz
x,y,z
-x,-y,1/2+z
x,1/2-y,-z
-x,1/2+y,1/2-z
-x,-y,-z
x,y,1/2-z
-x,1/2+y,z
x,1/2-y,1/2+z
loop_
_atom_site_type_symbol
_atom_site_label
_atom_site_fract_x
_atom_site_fract_y
_atom_site_fract_z
Si Si1 0.330137 0.150986 0.931651
Si Si2 0.685562 0.061160 0.939842
Si Si3 0.803937 0.044182 0.561634
Si Si4 0.027767 0.359405 0.061224
Si Si5 0.913540 0.357981 0.936797
Si Si6 0.151443 0.357535 0.060819
Si Si7 0.546884 0.900127 0.063780
Si Si8 0.430179 0.606107 0.566774
O O1 0.312934 0.140794 0.750000
O O2 0.396838 0.157793 0.936900
O O3 0.307237 0.250000 0.000000
O O4 0.318369 0.051482 0.018973
O O5 0.683735 0.069308 0.750000
O O6 0.631264 0.116111 0.004351
O O7 0.746410 0.090456 0.994461
O O8 0.806124 0.050718 0.750000
O O9 0.806886 0.933350 0.511518
O O10 0.857996 0.092053 0.491533
O O11 0.024723 0.360876 0.250000
O O12 0.089196 0.391801 0.015639
O O13 0.027045 0.250000 0.000000
O O14 0.971226 0.402814 0.995916
O O15 0.915849 0.357611 0.750000
O O16 0.911418 0.250000 0.000000
O O17 0.155020 0.358379 0.250000
O O18 0.158846 0.250000 0.000000
O O19 0.539490 0.928441 0.250000
O O20 0.489030 0.855244 0.007231
O O21 0.558933 0.992844 0.957443
O O22 0.426361 0.633558 0.750000
#
# Coordination Sequence:
#
# PCOD9434997 Si02
#       8
#     8   8   8   8   8   8   8   8
#     4  10  19  30  46  69  99 134 170 209 255 307
#     4   9  19  34  51  71  96 131 174 217 259 306
#     4  11  23  38  56  80 110 146 190 233 274 324
#     4   9  17  32  55  82 111 141 176 219 272 332
#     4  11  22  38  61  86 111 139 175 223 280 335
#     4  10  21  37  57  82 113 150 187 226 274 326
#     4   8  14  24  41  66  90 114 147 190 241 294
#     4   8  13  25  45  66  88 114 148 193 244 295
#
# _framework density 22.188579000000001
#
# number of rings (size 3 to 8) (size 9 to 14) (size 15 to 20)
#    0.000    2.500    0.000    3.375    0.000    4.000 
#    0.000    0.000    0.000    0.750    0.000    1.750 
#    0.000    0.000    0.000    0.000    0.000    0.000 
#
# Total GULP energy -356820.471425 kJ/mol
# GULP energy per Si atom -5575.319866 kJ/mol
# Density = 2.213808 g / cm^3
# Si number density = 22.188579 Si / 1000 Ang^3
#
#
#
# Elastic Constant Matrix: (Units=GPa)
#
#
# Indices 1 2 3 4 5 6 
#
# 1 165.0010 4.8299 21.5900 0.0000 0.0000 0.0000
# 2 4.8299 33.7715 -2.7233 0.0000 0.0000 0.0000
# 3 21.5900 -2.7233 37.7748 0.0000 0.0000 0.0000
# 4 0.0000 0.0000 0.0000 16.2587 0.0000 0.0000
# 5 0.0000 0.0000 0.0000 0.0000 0.7641 0.0000
# 6 0.0000 0.0000 0.0000 0.0000 0.0000 -4.6277
#
#
#
# Elastic Compliance Matrix: (Units=1/GPa)
#
#
# Indices 1 2 3 4 5 6 
#
# 1 0.006603 -0.001256 -0.003864 0.000000 0.000000 0.000000
# 2 -0.001256 0.030023 0.002882 0.000000 0.000000 0.000000
# 3 -0.003864 0.002882 0.028889 0.000000 0.000000 0.000000
# 4 0.000000 0.000000 0.000000 0.061506 0.000000 0.000000
# 5 0.000000 0.000000 0.000000 0.000000 1.308727 0.000000
# 6 0.000000 0.000000 0.000000 0.000000 0.000000 -0.216090
#
#
# Mechanical properties :
#
#
# Convention : Reuss Voigt Hill
#
# Bulk Modulus (GPa) = 16.38304 31.54894 23.96599
# Shear Modulus (GPa) = 4.01774 16.66907 10.34341
#
# Velocity S-wave (km/s) = 1.34709 2.74386 2.16141
# Velocity P-wave (km/s) = 3.13355 4.92826 4.12958
#
# Compressibility (1/GPa) = 0.06103875
#
# Stress axis : x y z
#
# Youngs Moduli (GPa) = 151.44664 33.30798 34.61502
#
# Poissons Ratio (x) = 0.04183 0.13377
# Poissons Ratio (y) = 0.19021 -0.09977
# Poissons Ratio (z) = 0.58526 -0.09600
#
# Static dielectric constant tensor:
#      x y z
#    x 1.928080 0.000000 0.000000 
#    y 0.000000 1.812380 0.000000 
#    z 0.000000 0.000000 1.756600 
# 
# From -- ./inp_files/9481.got.cif
#   From: 2010.05.17/outbox.cif.g08.bks.cpg/sg57_5_cif.got.tgz:9481.got - 2010.06.03 13:58:18.
