data_PCOD9434536
_publ_section_title
;
Structure prediction by ZEFSAII (Michael W. Deem and Ramdas Pophale) SiO2 
 PCOD9434536
Probable space group: P B C M
;
_chemical_formula_sum "Si O2"
_cell_formula_units_Z 64
_cell_length_a 21.682732
_cell_length_b 10.189376
_cell_length_c 17.085410
_cell_angle_alpha 90.000000
_cell_angle_beta 90.000000
_cell_angle_gamma 90.000000
_cell_volume 3774.739585
_symmetry_space_group_name_H-M "P B C M"
_symmetry_group_IT_number 57
_symmetry_cell_setting 'orthorhombic'
loop_
_space_group_symop_operation_xyz
x,y,z
-x,-y,1/2+z
x,1/2-y,-z
-x,1/2+y,1/2-z
-x,-y,-z
x,y,1/2-z
-x,1/2+y,z
x,1/2-y,1/2+z
loop_
_atom_site_type_symbol
_atom_site_label
_atom_site_fract_x
_atom_site_fract_y
_atom_site_fract_z
Si Si1 0.383653 0.022894 0.156475
Si Si2 0.996814 0.625399 0.055679
Si Si3 0.750784 0.518588 0.344726
Si Si4 0.114566 0.027844 0.343367
Si Si5 0.505396 0.875125 0.943763
Si Si6 0.112535 0.711173 0.156288
Si Si7 0.622735 0.226240 0.092549
Si Si8 0.249769 0.790735 0.843869
O O1 0.388247 0.033806 0.250000
O O2 0.315515 0.072570 0.130367
O O3 0.438059 0.099107 0.113866
O O4 0.385940 0.867963 0.133931
O O5 0.939332 0.602882 0.112990
O O6 0.058734 0.645159 0.106640
O O7 0.988886 0.750000 0.000000
O O8 0.000000 0.500000 0.000000
O O9 0.751773 0.524712 0.250000
O O10 0.816977 0.571206 0.371005
O O11 0.750053 0.364020 0.364742
O O12 0.110076 0.048000 0.250000
O O13 0.109584 0.869646 0.355862
O O14 0.440645 0.853662 0.898801
O O15 0.514651 0.750000 0.000000
O O16 0.500000 0.000000 0.000000
O O17 0.105371 0.689695 0.250000
O O18 0.181383 0.662416 0.132573
O O19 0.685755 0.158514 0.122003
O O20 0.629892 0.250000 0.000000
O O21 0.252635 0.800728 0.750000
#
# Coordination Sequence:
#
# PCOD9434536 Si02
#       8
#     8   8   8   8   8   8   8   8
#     4  10  19  34  57  83 106 141 187 230 265 317
#     4  12  23  36  50  79 116 141 173 222 267 316
#     4   7  13  28  52  78 102 129 176 224 259 308
#     4   9  17  34  57  78 102 142 182 215 263 325
#     4  11  21  38  53  76 114 149 180 217 272 329
#     4   9  18  35  56  78 105 142 182 222 270 319
#     4  10  18  31  53  79 114 142 176 216 276 320
#     4   8  15  29  51  79 105 132 179 232 265 307
#
# _framework density 16.954813000000001
#
# number of rings (size 3 to 8) (size 9 to 14) (size 15 to 20)
#    0.000    2.500    3.750    3.000    0.000    1.500 
#    2.250    0.625    0.000    0.000    0.000    3.500 
#    0.000    0.000    0.000    0.000    0.000    0.000 
#
# Total GULP energy -356324.653027 kJ/mol
# GULP energy per Si atom -5567.572704 kJ/mol
# Density = 1.691622 g / cm^3
# Si number density = 16.954813 Si / 1000 Ang^3
#
#
#
# Elastic Constant Matrix: (Units=GPa)
#
#
# Indices 1 2 3 4 5 6 
#
# 1 230.1075 45.8352 72.4446 0.0000 0.0000 0.0000
# 2 45.8352 58.0178 26.8925 0.0000 0.0000 0.0000
# 3 72.4446 26.8925 59.3887 0.0000 0.0000 0.0000
# 4 0.0000 0.0000 0.0000 21.7246 0.0000 0.0000
# 5 0.0000 0.0000 0.0000 0.0000 0.8616 0.0000
# 6 0.0000 0.0000 0.0000 0.0000 0.0000 27.0130
#
#
#
# Elastic Compliance Matrix: (Units=1/GPa)
#
#
# Indices 1 2 3 4 5 6 
#
# 1 0.007245 -0.002059 -0.007905 0.000000 0.000000 0.000000
# 2 -0.002059 0.022400 -0.007631 0.000000 0.000000 0.000000
# 3 -0.007905 -0.007631 0.029936 0.000000 0.000000 0.000000
# 4 0.000000 0.000000 0.000000 0.046031 0.000000 0.000000
# 5 0.000000 0.000000 0.000000 0.000000 1.160593 0.000000
# 6 0.000000 0.000000 0.000000 0.000000 0.000000 0.037019
#
#
# Mechanical properties :
#
#
# Convention : Reuss Voigt Hill
#
# Bulk Modulus (GPa) = 40.99951 70.87318 55.93634
# Shear Modulus (GPa) = 3.71320 23.40928 13.56124
#
# Velocity S-wave (km/s) = 1.48149 3.71979 2.83122
# Velocity P-wave (km/s) = 5.21158 7.76795 6.61444
#
# Compressibility (1/GPa) = 0.02439054
#
# Stress axis : x y z
#
# Youngs Moduli (GPa) = 138.03257 44.64231 33.40416
#
# Poissons Ratio (x) = 0.09194 0.26405
# Poissons Ratio (y) = 0.28426 0.25491
# Poissons Ratio (z) = 1.09112 0.34068
#
# Static dielectric constant tensor:
#      x y z
#    x 1.629610 0.000000 0.000000 
#    y 0.000000 1.546240 0.000000 
#    z 0.000000 0.000000 1.562060 
# 
# From -- ./inp_files/23017.got.cif
#   From: 2010.05.17/outbox.cif.g08.bks.cpg/sg57_12_cif.got.tgz:23017.got - 2010.06.03 13:58:18.
