data_PCOD9434402
_publ_section_title
;
Structure prediction by ZEFSAII (Michael W. Deem and Ramdas Pophale) SiO2 
 PCOD9434402
Probable space group: P B C M
;
_chemical_formula_sum "Si O2"
_cell_formula_units_Z 32
_cell_length_a 9.627316
_cell_length_b 23.848784
_cell_length_c 5.452408
_cell_angle_alpha 90.000000
_cell_angle_beta 90.000000
_cell_angle_gamma 90.000000
_cell_volume 1251.871676
_symmetry_space_group_name_H-M "P B C M"
_symmetry_group_IT_number 57
_symmetry_cell_setting 'orthorhombic'
loop_
_space_group_symop_operation_xyz
x,y,z
-x,-y,1/2+z
x,1/2-y,-z
-x,1/2+y,1/2-z
-x,-y,-z
x,y,1/2-z
-x,1/2+y,z
x,1/2-y,1/2+z
loop_
_atom_site_type_symbol
_atom_site_label
_atom_site_fract_x
_atom_site_fract_y
_atom_site_fract_z
Si Si1 0.857773 0.130872 0.750000
Si Si2 0.598481 0.024506 0.750000
Si Si3 0.965012 0.765978 0.250000
Si Si4 0.560736 0.715520 0.250000
Si Si5 0.308707 0.522834 0.250000
Si Si6 0.264801 0.400787 0.750000
Si Si7 0.894119 0.928966 0.250000
Si Si8 0.236865 0.685262 0.250000
O O1 0.787846 0.151144 0.499917
O O2 0.997872 0.169666 0.750000
O O3 0.938369 0.072184 0.750000
O O4 0.656162 0.051860 0.505064
O O5 0.648618 0.959580 0.750000
O O6 0.432598 0.024512 0.750000
O O7 0.891994 0.750000 0.500000
O O8 0.112256 0.731491 0.250000
O O9 0.590366 0.750000 0.500000
O O10 0.639298 0.654925 0.250000
O O11 0.392931 0.707143 0.250000
O O12 0.162007 0.493283 0.250000
O O13 0.171886 0.404431 0.503076
#
# Coordination Sequence:
#
# PCOD9434402 Si02
#       8
#     4   4   4   4   4   4   4   4
#     4  10  18  30  49  71  93 120 154 201 251 286
#     4   8  14  27  46  69  96 125 167 198 230 282
#     4   8  14  25  39  58  76  98 140 188 228 251
#     4  12  23  38  55  70  96 131 174 216 248 286
#     4   8  14  25  46  71  96 129 157 197 237 279
#     4  10  21  35  50  73 104 138 164 198 247 305
#     4  10  19  33  50  75 110 132 157 194 250 318
#     4  10  19  33  51  69  85 117 171 218 243 265
#
# _framework density 25.561727000000001
#
# number of rings (size 3 to 8) (size 9 to 14) (size 15 to 20)
#    0.000    2.500    0.000    4.500    0.000    0.000 
#    0.000   11.250    0.000    0.000    0.000    1.750 
#    0.000    0.000    0.000    0.000    0.000    0.000 
#
# Total GULP energy -178861.116999 kJ/mol
# GULP energy per Si atom -5589.409906 kJ/mol
# Density = 2.550355 g / cm^3
# Si number density = 25.561727 Si / 1000 Ang^3
#
#
#
# Elastic Constant Matrix: (Units=GPa)
#
#
# Indices 1 2 3 4 5 6 
#
# 1 115.4115 21.6907 34.1372 0.0000 0.0000 0.0000
# 2 21.6907 50.6414 17.8001 0.0000 0.0000 0.0000
# 3 34.1372 17.8001 277.9596 0.0000 0.0000 0.0000
# 4 0.0000 0.0000 0.0000 -462.5011 0.0000 0.0000
# 5 0.0000 0.0000 0.0000 0.0000 -22.6165 0.0000
# 6 0.0000 0.0000 0.0000 0.0000 0.0000 39.5587
#
#
#
# Elastic Compliance Matrix: (Units=1/GPa)
#
#
# Indices 1 2 3 4 5 6 
#
# 1 0.009659 -0.003806 -0.000943 0.000000 0.000000 0.000000
# 2 -0.003806 0.021701 -0.000922 0.000000 0.000000 0.000000
# 3 -0.000943 -0.000922 0.003772 0.000000 0.000000 0.000000
# 4 0.000000 0.000000 0.000000 -0.002162 0.000000 0.000000
# 5 0.000000 0.000000 0.000000 0.000000 -0.044216 0.000000
# 6 0.000000 0.000000 0.000000 0.000000 0.000000 0.025279
#
#
# Mechanical properties :
#
#
# Convention : Reuss Voigt Hill
#
# Bulk Modulus (GPa) = 42.03267 65.69651 53.86459
# Shear Modulus (GPa) = 150.12926 -64.41948 42.85489
#
# Velocity S-wave (km/s) = 7.67200 -5.02556 4.09898
# Velocity P-wave (km/s) = 9.74468 2.81391 6.59699
#
# Compressibility (1/GPa) = 0.02379102
#
# Stress axis : x y z
#
# Youngs Moduli (GPa) = 103.53373 46.08097 265.07896
#
# Poissons Ratio (x) = 0.17537 0.24984
# Poissons Ratio (y) = 0.39402 0.24448
# Poissons Ratio (z) = 0.09758 0.04250
#
# Static dielectric constant tensor:
#      x y z
#    x 2.006900 0.000000 0.000000 
#    y 0.000000 2.132340 0.000000 
#    z 0.000000 0.000000 2.069600 
# 
# From -- ./inp_files/224.got.cif
#   From: 2010.05.17/outbox.cif.g08.bks.cpg/sg57_1_cif.got.tgz:224.got - 2010.06.03 13:58:18.
