data_PCOD9434497
_publ_section_title
;
Structure prediction by ZEFSAII (Michael W. Deem and Ramdas Pophale) SiO2 
 PCOD9434497
Probable space group: P B C M
;
_chemical_formula_sum "Si O2"
_cell_formula_units_Z 48
_cell_length_a 29.597258
_cell_length_b 7.688313
_cell_length_c 10.204119
_cell_angle_alpha 90.000000
_cell_angle_beta 90.000000
_cell_angle_gamma 90.000000
_cell_volume 2321.977722
_symmetry_space_group_name_H-M "P B C M"
_symmetry_group_IT_number 57
_symmetry_cell_setting 'orthorhombic'
loop_
_space_group_symop_operation_xyz
x,y,z
-x,-y,1/2+z
x,1/2-y,-z
-x,1/2+y,1/2-z
-x,-y,-z
x,y,1/2-z
-x,1/2+y,z
x,1/2-y,1/2+z
loop_
_atom_site_type_symbol
_atom_site_label
_atom_site_fract_x
_atom_site_fract_y
_atom_site_fract_z
Si Si1 0.039499 0.580595 0.909884
Si Si2 0.293609 0.926687 0.250000
Si Si3 0.765627 0.463918 0.489300
Si Si4 0.282258 0.512120 0.250000
Si Si5 0.602803 0.985068 0.750000
Si Si6 0.611133 0.934292 0.250000
Si Si7 0.138887 0.917569 0.404151
Si Si8 0.552847 0.540847 0.995842
O O1 0.028917 0.603157 0.750000
O O2 0.089442 0.492970 0.912689
O O3 0.047006 0.750000 0.000000
O O4 0.000000 0.500000 0.000000
O O5 0.270033 0.005954 0.376684
O O6 0.283147 0.722093 0.250000
O O7 0.346643 0.949009 0.250000
O O8 0.766629 0.250000 0.500000
O O9 0.745983 0.539791 0.622537
O O10 0.816159 0.517883 0.448633
O O11 0.334994 0.461675 0.250000
O O12 0.605048 0.774603 0.750000
O O13 0.575659 0.039803 0.877108
O O14 0.584018 0.009642 0.373607
O O15 0.138177 0.750000 0.500000
O O16 0.144520 0.866407 0.250000
O O17 0.555768 0.750000 0.000000
O O18 0.500000 0.500000 0.000000
#
# Coordination Sequence:
#
# PCOD9434497 Si02
#       8
#     8   4   8   4   4   4   8   8
#     4  10  20  35  55  82 112 149 191 237 289 346
#     4  10  18  31  51  74  98 127 165 204 247 296
#     4   9  17  29  46  74 103 128 163 212 260 295
#     4  10  20  31  49  74 102 129 163 208 249 296
#     4  10  21  35  53  74  98 133 165 196 246 302
#     4  10  21  37  51  72 104 133 163 202 246 300
#     4   9  17  29  49  76 107 139 177 222 273 325
#     4  10  21  36  54  75  99 128 163 203 247 295
#
# _framework density 20.672032999999999
#
# number of rings (size 3 to 8) (size 9 to 14) (size 15 to 20)
#    0.000    2.333    0.833    2.000    3.500    2.000 
#    0.000    0.000    0.000    2.000    0.000    0.000 
#    0.000    0.000    0.000    0.000    0.000    0.000 
#
# Total GULP energy -267267.914856 kJ/mol
# GULP energy per Si atom -5568.081560 kJ/mol
# Density = 2.062498 g / cm^3
# Si number density = 20.672033 Si / 1000 Ang^3
#
#
#
# Elastic Constant Matrix: (Units=GPa)
#
#
# Indices 1 2 3 4 5 6 
#
# 1 221.9647 -1.0476 111.4501 0.0000 0.0000 0.0000
# 2 -1.0476 12.5580 4.8893 0.0000 0.0000 0.0000
# 3 111.4501 4.8893 208.4965 0.0000 0.0000 0.0000
# 4 0.0000 0.0000 0.0000 -7.2629 0.0000 0.0000
# 5 0.0000 0.0000 0.0000 0.0000 43.0808 0.0000
# 6 0.0000 0.0000 0.0000 0.0000 0.0000 21.2707
#
#
#
# Elastic Compliance Matrix: (Units=1/GPa)
#
#
# Indices 1 2 3 4 5 6 
#
# 1 0.006199 0.001824 -0.003356 0.000000 0.000000 0.000000
# 2 0.001824 0.080901 -0.002872 0.000000 0.000000 0.000000
# 3 -0.003356 -0.002872 0.006658 0.000000 0.000000 0.000000
# 4 0.000000 0.000000 0.000000 -0.137686 0.000000 0.000000
# 5 0.000000 0.000000 0.000000 0.000000 0.023212 0.000000
# 6 0.000000 0.000000 0.000000 0.000000 0.000000 0.047013
#
#
# Mechanical properties :
#
#
# Convention : Reuss Voigt Hill
#
# Bulk Modulus (GPa) = 11.77187 74.84475 43.30831
# Shear Modulus (GPa) = 78.83699 33.26623 56.05161
#
# Velocity S-wave (km/s) = 6.18222 4.01588 5.21283
# Velocity P-wave (km/s) = 7.52773 7.60181 7.56486
#
# Compressibility (1/GPa) = 0.08494828
#
# Stress axis : x y z
#
# Youngs Moduli (GPa) = 161.31280 12.36084 150.20049
#
# Poissons Ratio (x) = -0.02255 0.50414
# Poissons Ratio (y) = -0.29423 0.43139
# Poissons Ratio (z) = 0.54144 0.03550
#
# Static dielectric constant tensor:
#      x y z
#    x 1.810790 0.000000 0.000000 
#    y 0.000000 1.863950 0.000000 
#    z 0.000000 0.000000 1.758410 
# 
# From -- ./inp_files/10203.got.cif
#   From: 2010.05.17/outbox.cif.g08.bks.cpg/sg57_6_cif.got.tgz:10203.got - 2010.06.03 13:58:18.
