data_PCOD9434160
_publ_section_title
;
Structure prediction by ZEFSAII (Michael W. Deem and Ramdas Pophale) SiO2 
 PCOD9434160
Probable space group: P B C M
;
_chemical_formula_sum "Si O2"
_cell_formula_units_Z 36
_cell_length_a 12.011228
_cell_length_b 9.544044
_cell_length_c 16.523138
_cell_angle_alpha 90.000000
_cell_angle_beta 90.000000
_cell_angle_gamma 90.000000
_cell_volume 1894.141301
_symmetry_space_group_name_H-M "P B C M"
_symmetry_group_IT_number 57
_symmetry_cell_setting 'orthorhombic'
loop_
_space_group_symop_operation_xyz
x,y,z
-x,-y,1/2+z
x,1/2-y,-z
-x,1/2+y,1/2-z
-x,-y,-z
x,y,1/2-z
-x,1/2+y,z
x,1/2-y,1/2+z
loop_
_atom_site_type_symbol
_atom_site_label
_atom_site_fract_x
_atom_site_fract_y
_atom_site_fract_z
Si Si1 0.615893 0.920412 0.006344
Si Si2 0.806847 0.906749 0.606680
Si Si3 0.020495 0.615650 0.838120
Si Si4 0.230527 0.410489 0.340826
Si Si5 0.970526 0.750000 0.000000
O O1 0.684449 0.953831 0.088775
O O2 0.604255 0.750000 0.000000
O O3 0.694003 0.963818 0.931114
O O4 0.500000 0.000000 0.000000
O O5 0.783053 0.758135 0.648556
O O6 0.886999 0.871571 0.529902
O O7 0.878479 0.008425 0.660737
O O8 0.016667 0.688254 0.750000
O O9 0.898931 0.542315 0.848059
O O10 0.034215 0.707737 0.919025
O O11 0.269115 0.444240 0.250000
#
# Coordination Sequence:
#
# PCOD9434160 Si02
#       5
#     8   8   8   8   4
#     4  10  20  38  57  79 106 149 196 232 285 340
#     4  10  17  34  53  78 109 148 187 224 288 346
#     4  10  19  31  54  85 111 145 187 228 283 351
#     4   9  18  34  55  79 110 145 185 233 285 344
#     4  10  18  32  52  76 118 146 180 228 288 350
#
# _framework density 19.005973999999998
#
# number of rings (size 3 to 8) (size 9 to 14) (size 15 to 20)
#    0.000    2.222    5.556    1.333    0.000    0.889 
#    2.000    5.556    0.000    0.000    0.000    0.000 
#    0.000    0.000    0.000    0.000    0.000    0.000 
#
# Total GULP energy -200532.298339 kJ/mol
# GULP energy per Si atom -5570.341621 kJ/mol
# Density = 1.896272 g / cm^3
# Si number density = 19.005974 Si / 1000 Ang^3
#
#
#
# Elastic Constant Matrix: (Units=GPa)
#
#
# Indices 1 2 3 4 5 6 
#
# 1 131.5672 35.6051 48.3404 0.0000 0.0000 0.0000
# 2 35.6051 17.6625 22.4738 0.0000 0.0000 0.0000
# 3 48.3404 22.4738 135.6383 0.0000 0.0000 0.0000
# 4 0.0000 0.0000 0.0000 20.2598 0.0000 0.0000
# 5 0.0000 0.0000 0.0000 0.0000 15.9683 0.0000
# 6 0.0000 0.0000 0.0000 0.0000 0.0000 37.3191
#
#
#
# Elastic Compliance Matrix: (Units=1/GPa)
#
#
# Indices 1 2 3 4 5 6 
#
# 1 0.016749 -0.033159 -0.000475 0.000000 0.000000 0.000000
# 2 -0.033159 0.137389 -0.010946 0.000000 0.000000 0.000000
# 3 -0.000475 -0.010946 0.009356 0.000000 0.000000 0.000000
# 4 0.000000 0.000000 0.000000 0.049359 0.000000 0.000000
# 5 0.000000 0.000000 0.000000 0.000000 0.062624 0.000000
# 6 0.000000 0.000000 0.000000 0.000000 0.000000 0.026796
#
#
# Mechanical properties :
#
#
# Convention : Reuss Voigt Hill
#
# Bulk Modulus (GPa) = 13.45301 55.30075 34.37688
# Shear Modulus (GPa) = 12.01318 26.60602 19.30960
#
# Velocity S-wave (km/s) = 2.51684 3.74555 3.19089
# Velocity P-wave (km/s) = 3.94203 6.91847 5.63049
#
# Compressibility (1/GPa) = 0.07433283
#
# Stress axis : x y z
#
# Youngs Moduli (GPa) = 59.70606 7.27862 106.88832
#
# Poissons Ratio (x) = 0.24135 0.05078
# Poissons Ratio (y) = 1.97977 1.17004
# Poissons Ratio (z) = 0.02836 0.07967
#
# Static dielectric constant tensor:
#      x y z
#    x 1.656010 0.000000 0.000000 
#    y 0.000000 1.717260 0.000000 
#    z 0.000000 0.000000 1.770420 
# 
# From -- ./inp_files/21584.got.cif
#   From: 2010.05.17/outbox.cif.g08.bks.cpg/sg57_11_cif.got.tgz:21584.got - 2010.06.03 13:58:18.
