data_PCOD9434394
_publ_section_title
;
Structure prediction by ZEFSAII (Michael W. Deem and Ramdas Pophale) SiO2 
 PCOD9434394
Probable space group: P B C M
;
_chemical_formula_sum "Si O2"
_cell_formula_units_Z 40
_cell_length_a 9.193498
_cell_length_b 5.546639
_cell_length_c 30.804138
_cell_angle_alpha 90.000000
_cell_angle_beta 90.000000
_cell_angle_gamma 90.000000
_cell_volume 1570.795857
_symmetry_space_group_name_H-M "P B C M"
_symmetry_group_IT_number 57
_symmetry_cell_setting 'orthorhombic'
loop_
_space_group_symop_operation_xyz
x,y,z
-x,-y,1/2+z
x,1/2-y,-z
-x,1/2+y,1/2-z
-x,-y,-z
x,y,1/2-z
-x,1/2+y,z
x,1/2-y,1/2+z
loop_
_atom_site_type_symbol
_atom_site_label
_atom_site_fract_x
_atom_site_fract_y
_atom_site_fract_z
Si Si1 0.320386 0.821318 0.425379
Si Si2 0.004583 0.639239 0.881155
Si Si3 0.246238 0.321166 0.046364
Si Si4 0.642817 0.327962 0.668347
Si Si5 0.317999 0.171198 0.299585
O O1 0.321181 0.584185 0.455509
O O2 0.398632 0.744199 0.380724
O O3 0.152793 0.850844 0.409097
O O4 0.349526 0.091652 0.442433
O O5 0.875259 0.650206 0.916591
O O6 0.000778 0.389303 0.856170
O O7 0.179526 0.250000 0.000000
O O8 0.494016 0.350407 0.695427
O O9 0.716477 0.590706 0.672097
O O10 0.730066 0.095442 0.685562
O O11 0.278471 0.216777 0.250000
#
# Coordination Sequence:
#
# PCOD9434394 Si02
#       5
#     8   8   8   8   8
#     4  10  19  29  44  70  96 123 160 190 237 283
#     4   8  16  27  41  61  91 120 153 190 230 272
#     4  10  19  31  46  66  96 128 161 203 238 264
#     4  10  18  30  48  73 102 123 143 188 236 281
#     4  10  19  33  53  76  98 118 145 183 238 290
#
# _framework density 25.464798999999999
#
# number of rings (size 3 to 8) (size 9 to 14) (size 15 to 20)
#    0.000    2.400    0.000    4.800    0.000    7.200 
#    0.000    0.000    0.000    0.000    0.000   56.000 
#    0.000  244.800    0.000    0.000    0.000    0.000 
#
# Total GULP energy -223303.760255 kJ/mol
# GULP energy per Si atom -5582.594006 kJ/mol
# Density = 2.540684 g / cm^3
# Si number density = 25.464799 Si / 1000 Ang^3
#
#
#
# Elastic Constant Matrix: (Units=GPa)
#
#
# Indices 1 2 3 4 5 6 
#
# 1 68.0661 10.4612 -5.4486 0.0000 0.0000 0.0000
# 2 10.4612 274.7164 10.2846 0.0000 0.0000 0.0000
# 3 -5.4486 10.2846 71.4127 0.0000 0.0000 0.0000
# 4 0.0000 0.0000 0.0000 39.3660 0.0000 0.0000
# 5 0.0000 0.0000 0.0000 0.0000 -66.0727 0.0000
# 6 0.0000 0.0000 0.0000 0.0000 0.0000 8.3844
#
#
#
# Elastic Compliance Matrix: (Units=1/GPa)
#
#
# Indices 1 2 3 4 5 6 
#
# 1 0.014884 -0.000613 0.001224 0.000000 0.000000 0.000000
# 2 -0.000613 0.003685 -0.000577 0.000000 0.000000 0.000000
# 3 0.001224 -0.000577 0.014180 0.000000 0.000000 0.000000
# 4 0.000000 0.000000 0.000000 0.025403 0.000000 0.000000
# 5 0.000000 0.000000 0.000000 0.000000 -0.015135 0.000000
# 6 0.000000 0.000000 0.000000 0.000000 0.000000 0.119269
#
#
# Mechanical properties :
#
#
# Convention : Reuss Voigt Hill
#
# Bulk Modulus (GPa) = 30.47295 49.42104 39.94699
# Shear Modulus (GPa) = 28.87568 22.92875 25.90222
#
# Velocity S-wave (km/s) = 3.37106 3.00394 3.19278
# Velocity P-wave (km/s) = 5.21006 5.61082 5.41415
#
# Compressibility (1/GPa) = 0.03281599
#
# Stress axis : x y z
#
# Youngs Moduli (GPa) = 67.18749 271.36580 70.52362
#
# Poissons Ratio (x) = 0.16623 -0.08631
# Poissons Ratio (y) = 0.04116 0.04072
# Poissons Ratio (z) = -0.08222 0.15670
#
# Static dielectric constant tensor:
#      x y z
#    x 2.050760 0.000000 0.000000 
#    y 0.000000 2.154040 0.000000 
#    z 0.000000 0.000000 1.966340 
# 
# From -- ./inp_files/27343.got.cif
#   From: 2010.05.17/outbox.cif.g08.bks.cpg/sg57_14_cif.got.tgz:27343.got - 2010.06.03 13:58:18.
