data_PCOD9434498
_publ_section_title
;
Structure prediction by ZEFSAII (Michael W. Deem and Ramdas Pophale) SiO2 
 PCOD9434498
Probable space group: P B C M
;
_chemical_formula_sum "Si O2"
_cell_formula_units_Z 64
_cell_length_a 22.334529
_cell_length_b 19.425973
_cell_length_c 8.617364
_cell_angle_alpha 90.000000
_cell_angle_beta 90.000000
_cell_angle_gamma 90.000000
_cell_volume 3738.815351
_symmetry_space_group_name_H-M "P B C M"
_symmetry_group_IT_number 57
_symmetry_cell_setting 'orthorhombic'
loop_
_space_group_symop_operation_xyz
x,y,z
-x,-y,1/2+z
x,1/2-y,-z
-x,1/2+y,1/2-z
-x,-y,-z
x,y,1/2-z
-x,1/2+y,z
x,1/2-y,1/2+z
loop_
_atom_site_type_symbol
_atom_site_label
_atom_site_fract_x
_atom_site_fract_y
_atom_site_fract_z
Si Si1 0.265166 0.370138 0.067030
Si Si2 0.807213 0.429529 0.062461
Si Si3 0.016927 0.075207 0.935765
Si Si4 0.907801 0.326681 0.437724
Si Si5 0.560150 0.966850 0.564839
Si Si6 0.852983 0.582179 0.064738
Si Si7 0.607538 0.821934 0.436565
Si Si8 0.687835 0.487046 0.436777
O O1 0.257451 0.360123 0.250000
O O2 0.322379 0.326450 0.011933
O O3 0.200594 0.367146 0.986535
O O4 0.288622 0.446792 0.028835
O O5 0.810938 0.428436 0.250000
O O6 0.849207 0.368439 0.005611
O O7 0.834262 0.504020 0.015572
O O8 0.736532 0.428675 0.023757
O O9 0.016754 0.071423 0.750000
O O10 0.965950 0.129202 0.984604
O O11 0.082445 0.096707 0.993714
O O12 0.000000 0.000000 0.000000
O O13 0.909631 0.250000 0.500000
O O14 0.906730 0.324811 0.250000
O O15 0.556004 0.960564 0.750000
O O16 0.575181 0.891068 0.497254
O O17 0.500000 0.000000 0.500000
O O18 0.617533 0.016083 0.529342
O O19 0.856933 0.582453 0.250000
O O20 0.582371 0.750000 0.500000
O O21 0.606123 0.822712 0.250000
O O22 0.693467 0.500183 0.250000
#
# Coordination Sequence:
#
# PCOD9434498 Si02
#       8
#     8   8   8   8   8   8   8   8
#     4   9  17  29  46  73 103 129 161 207 256 302
#     4   8  14  29  50  71  95 122 157 205 254 299
#     4  11  21  34  52  75 101 130 171 219 264 316
#     4  10  21  36  51  71 100 131 165 209 262 316
#     4  10  19  32  52  80 111 145 184 223 266 314
#     4  10  18  31  51  74  99 128 166 211 258 306
#     4  10  20  34  53  77 108 143 181 224 269 322
#     4   8  15  28  49  73  98 130 165 204 253 303
#
# _framework density 17.117721
#
# number of rings (size 3 to 8) (size 9 to 14) (size 15 to 20)
#    0.000    2.500    1.250    2.625    0.000    3.000 
#    0.000    1.250    0.000    0.750    0.000    1.750 
#    0.000    0.000    0.000    0.000    0.000    0.000 
#
# Total GULP energy -356451.829825 kJ/mol
# GULP energy per Si atom -5569.559841 kJ/mol
# Density = 1.707876 g / cm^3
# Si number density = 17.117721 Si / 1000 Ang^3
#
#
#
# Elastic Constant Matrix: (Units=GPa)
#
#
# Indices 1 2 3 4 5 6 
#
# 1 157.4620 69.4149 36.5906 0.0000 0.0000 0.0000
# 2 69.4149 96.8910 23.1497 0.0000 0.0000 0.0000
# 3 36.5906 23.1497 29.7837 0.0000 0.0000 0.0000
# 4 0.0000 0.0000 0.0000 22.0533 0.0000 0.0000
# 5 0.0000 0.0000 0.0000 0.0000 25.6263 0.0000
# 6 0.0000 0.0000 0.0000 0.0000 0.0000 19.1933
#
#
#
# Elastic Compliance Matrix: (Units=1/GPa)
#
#
# Indices 1 2 3 4 5 6 
#
# 1 0.010961 -0.005693 -0.009042 0.000000 0.000000 0.000000
# 2 -0.005693 0.015631 -0.005156 0.000000 0.000000 0.000000
# 3 -0.009042 -0.005156 0.048691 0.000000 0.000000 0.000000
# 4 0.000000 0.000000 0.000000 0.045345 0.000000 0.000000
# 5 0.000000 0.000000 0.000000 0.000000 0.039022 0.000000
# 6 0.000000 0.000000 0.000000 0.000000 0.000000 0.052102
#
#
# Mechanical properties :
#
#
# Convention : Reuss Voigt Hill
#
# Bulk Modulus (GPa) = 28.16662 60.27190 44.21926
# Shear Modulus (GPa) = 18.98492 23.70669 21.34580
#
# Velocity S-wave (km/s) = 3.33390 3.72549 3.53512
# Velocity P-wave (km/s) = 5.59555 7.33433 6.52314
#
# Compressibility (1/GPa) = 0.03550302
#
# Stress axis : x y z
#
# Youngs Moduli (GPa) = 91.22933 63.97522 20.53764
#
# Poissons Ratio (x) = 0.36419 0.18570
# Poissons Ratio (y) = 0.51934 0.10589
# Poissons Ratio (z) = 0.82488 0.32984
#
# Static dielectric constant tensor:
#      x y z
#    x 1.612850 0.000000 0.000000 
#    y 0.000000 1.568280 0.000000 
#    z 0.000000 0.000000 1.577790 
# 
# From -- ./inp_files/8515.got.cif
#   From: 2010.05.17/outbox.cif.g08.bks.cpg/sg57_5_cif.got.tgz:8515.got - 2010.06.03 13:58:18.
