data_PCOD9434676
_publ_section_title
;
Structure prediction by ZEFSAII (Michael W. Deem and Ramdas Pophale) SiO2 
 PCOD9434676
Probable space group: P B C M
;
_chemical_formula_sum "Si O2"
_cell_formula_units_Z 48
_cell_length_a 9.291702
_cell_length_b 17.086838
_cell_length_c 16.744667
_cell_angle_alpha 90.000000
_cell_angle_beta 90.000000
_cell_angle_gamma 90.000000
_cell_volume 2658.480566
_symmetry_space_group_name_H-M "P B C M"
_symmetry_group_IT_number 57
_symmetry_cell_setting 'orthorhombic'
loop_
_space_group_symop_operation_xyz
x,y,z
-x,-y,1/2+z
x,1/2-y,-z
-x,1/2+y,1/2-z
-x,-y,-z
x,y,1/2-z
-x,1/2+y,z
x,1/2-y,1/2+z
loop_
_atom_site_type_symbol
_atom_site_label
_atom_site_fract_x
_atom_site_fract_y
_atom_site_fract_z
Si Si1 0.331442 0.562732 0.938581
Si Si2 0.495515 0.675884 0.446108
Si Si3 0.390921 0.440198 0.339701
Si Si4 0.088341 0.843151 0.505527
Si Si5 0.239327 0.393808 0.497914
Si Si6 0.726711 0.381654 0.660540
O O1 0.440526 0.557761 0.864702
O O2 0.433312 0.599519 0.007735
O O3 0.194918 0.620360 0.938701
O O4 0.271547 0.479199 0.965534
O O5 0.455364 0.750000 0.500000
O O6 0.666223 0.665697 0.448360
O O7 0.409920 0.672674 0.363797
O O8 0.374092 0.409294 0.250000
O O9 0.305024 0.393362 0.408245
O O10 0.328147 0.528521 0.340879
O O11 0.088667 0.750000 0.500000
O O12 0.156458 0.868384 0.591018
O O13 0.927841 0.875145 0.497496
O O14 0.777825 0.364440 0.750000
#
# Coordination Sequence:
#
# PCOD9434676 Si02
#       6
#     8   8   8   8   8   8
#     4  10  18  35  56  79 105 143 187 224 267 329
#     4  10  18  33  56  82 107 140 184 225 273 331
#     4  10  19  34  57  88 110 137 185 242 281 314
#     4  11  23  37  56  82 112 153 190 221 274 341
#     4  11  19  36  57  81 110 147 186 224 272 331
#     4  10  19  35  56  81 110 141 183 233 278 323
#
# _framework density 18.055426000000001
#
# number of rings (size 3 to 8) (size 9 to 14) (size 15 to 20)
#    0.000    1.667    5.000    4.000    0.000    0.000 
#    0.000   10.833    0.000    0.000    0.000    0.000 
#    0.000    0.000    0.000    0.000    0.000    0.000 
#
# Total GULP energy -267516.339248 kJ/mol
# GULP energy per Si atom -5573.257068 kJ/mol
# Density = 1.801433 g / cm^3
# Si number density = 18.055426 Si / 1000 Ang^3
#
#
#
# Elastic Constant Matrix: (Units=GPa)
#
#
# Indices 1 2 3 4 5 6 
#
# 1 160.5482 31.0109 46.5248 0.0000 0.0000 0.0000
# 2 31.0109 60.7817 10.5833 0.0000 0.0000 0.0000
# 3 46.5248 10.5833 96.7419 0.0000 0.0000 0.0000
# 4 0.0000 0.0000 0.0000 13.3781 0.0000 0.0000
# 5 0.0000 0.0000 0.0000 0.0000 15.9124 0.0000
# 6 0.0000 0.0000 0.0000 0.0000 0.0000 20.6961
#
#
#
# Elastic Compliance Matrix: (Units=1/GPa)
#
#
# Indices 1 2 3 4 5 6 
#
# 1 0.007880 -0.003426 -0.003415 0.000000 0.000000 0.000000
# 2 -0.003426 0.018261 -0.000350 0.000000 0.000000 0.000000
# 3 -0.003415 -0.000350 0.012017 0.000000 0.000000 0.000000
# 4 0.000000 0.000000 0.000000 0.074749 0.000000 0.000000
# 5 0.000000 0.000000 0.000000 0.000000 0.062844 0.000000
# 6 0.000000 0.000000 0.000000 0.000000 0.000000 0.048318
#
#
# Mechanical properties :
#
#
# Convention : Reuss Voigt Hill
#
# Bulk Modulus (GPa) = 42.05779 54.92330 48.49055
# Shear Modulus (GPa) = 20.29410 25.32751 22.81081
#
# Velocity S-wave (km/s) = 3.35623 3.74941 3.55826
# Velocity P-wave (km/s) = 6.19381 7.01637 6.61788
#
# Compressibility (1/GPa) = 0.02377681
#
# Stress axis : x y z
#
# Youngs Moduli (GPa) = 126.90460 54.76115 83.21308
#
# Poissons Ratio (x) = 0.18760 0.28416
# Poissons Ratio (y) = 0.43474 0.02914
# Poissons Ratio (z) = 0.43336 0.01918
#
# Static dielectric constant tensor:
#      x y z
#    x 1.650260 0.000000 0.000000 
#    y 0.000000 1.649460 0.000000 
#    z 0.000000 0.000000 1.643830 
# 
# From -- ./inp_files/21294.got.cif
#   From: 2010.05.17/outbox.cif.g08.bks.cpg/sg57_11_cif.got.tgz:21294.got - 2010.06.03 13:58:18.
