data_PCOD9434700
_publ_section_title
;
Structure prediction by ZEFSAII (Michael W. Deem and Ramdas Pophale) SiO2 
 PCOD9434700
Probable space group: P B C M
;
_chemical_formula_sum "Si O2"
_cell_formula_units_Z 48
_cell_length_a 10.339661
_cell_length_b 11.325402
_cell_length_c 16.916893
_cell_angle_alpha 90.000000
_cell_angle_beta 90.000000
_cell_angle_gamma 90.000000
_cell_volume 1980.981998
_symmetry_space_group_name_H-M "P B C M"
_symmetry_group_IT_number 57
_symmetry_cell_setting 'orthorhombic'
loop_
_space_group_symop_operation_xyz
x,y,z
-x,-y,1/2+z
x,1/2-y,-z
-x,1/2+y,1/2-z
-x,-y,-z
x,y,1/2-z
-x,1/2+y,z
x,1/2-y,1/2+z
loop_
_atom_site_type_symbol
_atom_site_label
_atom_site_fract_x
_atom_site_fract_y
_atom_site_fract_z
Si Si1 0.395046 0.203677 0.750000
Si Si2 0.333959 0.832469 0.601773
Si Si3 0.329291 0.004842 0.456229
Si Si4 0.954192 0.991500 0.592218
Si Si5 0.448358 0.946480 0.750000
Si Si6 0.435609 0.149569 0.587217
Si Si7 0.938982 0.245160 0.903780
O O1 0.449171 0.337620 0.750000
O O2 0.343297 0.179284 0.661934
O O3 0.490991 0.084799 0.750000
O O4 0.303179 0.906313 0.523568
O O5 0.357710 0.918005 0.674982
O O6 0.462181 0.756123 0.589214
O O7 0.213142 0.748207 0.616044
O O8 0.460287 0.961698 0.413476
O O9 0.201322 0.018233 0.406061
O O10 0.356103 0.120317 0.508912
O O11 0.008535 0.870209 0.626660
O O12 0.993199 0.119902 0.625553
O O13 0.000000 0.000000 0.500000
O O14 0.954521 0.250000 0.000000
#
# Coordination Sequence:
#
# PCOD9434700 Si02
#       7
#     4   8   8   8   4   8   8
#     4  10  20  38  54  83 115 159 197 226 284 360
#     4  11  18  36  57  82 116 158 193 239 293 357
#     4  11  19  34  57  86 120 146 199 239 292 336
#     4  10  19  33  57  88 110 151 184 246 290 348
#     4  10  22  34  62  77 111 157 205 226 296 350
#     4  10  21  32  57  85 117 155 188 238 287 352
#     4  10  18  33  59  80 113 144 194 233 297 340
#
# _framework density 24.230408000000001
#
# number of rings (size 3 to 8) (size 9 to 14) (size 15 to 20)
#    0.000    1.667    6.667    0.500    0.000    0.000 
#    0.000   10.000    3.667    2.000    0.000    0.000 
#    0.000    0.000    0.000    0.000    0.000    0.000 
#
# Total GULP energy -267602.221342 kJ/mol
# GULP energy per Si atom -5575.046278 kJ/mol
# Density = 2.417526 g / cm^3
# Si number density = 24.230408 Si / 1000 Ang^3
#
#
#
# Elastic Constant Matrix: (Units=GPa)
#
#
# Indices 1 2 3 4 5 6 
#
# 1 49.6136 26.8107 3.7451 0.0000 0.0000 0.0000
# 2 26.8107 190.9267 -12.9253 0.0000 0.0000 0.0000
# 3 3.7451 -12.9253 38.6624 0.0000 0.0000 0.0000
# 4 0.0000 0.0000 0.0000 14.7366 0.0000 0.0000
# 5 0.0000 0.0000 0.0000 0.0000 5.4604 0.0000
# 6 0.0000 0.0000 0.0000 0.0000 0.0000 35.4997
#
#
#
# Elastic Compliance Matrix: (Units=1/GPa)
#
#
# Indices 1 2 3 4 5 6 
#
# 1 0.022207 -0.003340 -0.003268 0.000000 0.000000 0.000000
# 2 -0.003340 0.005861 0.002283 0.000000 0.000000 0.000000
# 3 -0.003268 0.002283 0.026945 0.000000 0.000000 0.000000
# 4 0.000000 0.000000 0.000000 0.067858 0.000000 0.000000
# 5 0.000000 0.000000 0.000000 0.000000 0.183138 0.000000
# 6 0.000000 0.000000 0.000000 0.000000 0.000000 0.028169
#
#
# Mechanical properties :
#
#
# Convention : Reuss Voigt Hill
#
# Bulk Modulus (GPa) = 21.56829 34.94041 28.25435
# Shear Modulus (GPa) = 13.95550 28.57747 21.26649
#
# Velocity S-wave (km/s) = 2.40250 3.43797 2.96578
# Velocity P-wave (km/s) = 4.07635 5.49645 4.83878
#
# Compressibility (1/GPa) = 0.04636437
#
# Stress axis : x y z
#
# Youngs Moduli (GPa) = 45.03066 170.61573 37.11308
#
# Poissons Ratio (x) = 0.56979 0.12127
# Poissons Ratio (y) = 0.15039 -0.08473
# Poissons Ratio (z) = 0.14714 -0.38951
#
# Static dielectric constant tensor:
#      x y z
#    x 1.936010 0.000000 0.000000 
#    y 0.000000 2.164490 0.000000 
#    z 0.000000 0.000000 2.102490 
# 
# From -- ./inp_files/21856.got.cif
#   From: 2010.05.17/outbox.cif.g08.bks.cpg/sg57_11_cif.got.tgz:21856.got - 2010.06.03 13:58:18.
