data_PCOD9434963
_publ_section_title
;
Structure prediction by ZEFSAII (Michael W. Deem and Ramdas Pophale) SiO2 
 PCOD9434963
Probable space group: P B C M
;
_chemical_formula_sum "Si O2"
_cell_formula_units_Z 56
_cell_length_a 14.746789
_cell_length_b 27.008743
_cell_length_c 8.986127
_cell_angle_alpha 90.000000
_cell_angle_beta 90.000000
_cell_angle_gamma 90.000000
_cell_volume 3579.104599
_symmetry_space_group_name_H-M "P B C M"
_symmetry_group_IT_number 57
_symmetry_cell_setting 'orthorhombic'
loop_
_space_group_symop_operation_xyz
x,y,z
-x,-y,1/2+z
x,1/2-y,-z
-x,1/2+y,1/2-z
-x,-y,-z
x,y,1/2-z
-x,1/2+y,z
x,1/2-y,1/2+z
loop_
_atom_site_type_symbol
_atom_site_label
_atom_site_fract_x
_atom_site_fract_y
_atom_site_fract_z
Si Si1 0.114810 0.303841 0.070823
Si Si2 0.571648 0.566982 0.427118
Si Si3 0.013983 0.615185 0.072616
Si Si4 0.195047 0.566131 0.428843
Si Si5 0.728224 0.623412 0.922479
Si Si6 0.616654 0.453497 0.072297
Si Si7 0.884206 0.540312 0.923094
O O1 0.110237 0.302241 0.250000
O O2 0.210959 0.329766 0.030069
O O3 0.107275 0.250000 0.000000
O O4 0.036180 0.340040 0.010107
O O5 0.561166 0.568496 0.250000
O O6 0.641870 0.608227 0.481943
O O7 0.473971 0.570253 0.504392
O O8 0.611101 0.512276 0.467184
O O9 0.005415 0.621158 0.250000
O O10 0.119634 0.607322 0.035104
O O11 0.961045 0.565396 0.022818
O O12 0.207617 0.565355 0.250000
O O13 0.291750 0.569342 0.506755
O O14 0.150323 0.513293 0.470668
O O15 0.701481 0.629660 0.750000
O O16 0.799006 0.577690 0.929088
O O17 0.615608 0.449654 0.250000
O O18 0.914275 0.537961 0.750000
#
# Coordination Sequence:
#
# PCOD9434963 Si02
#       7
#     8   8   8   8   8   8   8
#     4  10  21  37  55  75  98 125 157 201 250 296
#     4  10  19  30  45  67  94 128 166 202 240 282
#     4  10  20  31  47  70  96 127 162 200 243 292
#     4  10  19  31  45  65  96 133 168 203 239 279
#     4   9  17  30  49  70  96 127 159 198 244 289
#     4  10  20  30  44  66  94 131 170 205 238 276
#     4   9  17  29  44  64  95 132 165 200 237 277
#
# _framework density 15.646372
#
# number of rings (size 3 to 8) (size 9 to 14) (size 15 to 20)
#    0.000    2.286    1.429    3.000    0.000    5.714 
#    0.000    0.000    0.000    0.000    0.000    1.000 
#    0.000    2.286    0.000    0.000    0.000    0.000 
#
# Total GULP energy -312323.949617 kJ/mol
# GULP energy per Si atom -5577.213386 kJ/mol
# Density = 1.561076 g / cm^3
# Si number density = 15.646372 Si / 1000 Ang^3
#
#
#
# Elastic Constant Matrix: (Units=GPa)
#
#
# Indices 1 2 3 4 5 6 
#
# 1 135.6690 47.0945 59.9415 0.0000 0.0000 0.0000
# 2 47.0945 63.4014 29.7003 0.0000 0.0000 0.0000
# 3 59.9415 29.7003 51.6755 0.0000 0.0000 0.0000
# 4 0.0000 0.0000 0.0000 18.8164 0.0000 0.0000
# 5 0.0000 0.0000 0.0000 0.0000 30.3179 0.0000
# 6 0.0000 0.0000 0.0000 0.0000 0.0000 11.4711
#
#
#
# Elastic Compliance Matrix: (Units=1/GPa)
#
#
# Indices 1 2 3 4 5 6 
#
# 1 0.015952 -0.004353 -0.016001 0.000000 0.000000 0.000000
# 2 -0.004353 0.022772 -0.008038 0.000000 0.000000 0.000000
# 3 -0.016001 -0.008038 0.042533 0.000000 0.000000 0.000000
# 4 0.000000 0.000000 0.000000 0.053145 0.000000 0.000000
# 5 0.000000 0.000000 0.000000 0.000000 0.032984 0.000000
# 6 0.000000 0.000000 0.000000 0.000000 0.000000 0.087176
#
#
# Mechanical properties :
#
#
# Convention : Reuss Voigt Hill
#
# Bulk Modulus (GPa) = 40.86647 58.24650 49.55649
# Shear Modulus (GPa) = 15.64930 19.72173 17.68551
#
# Velocity S-wave (km/s) = 3.16600 3.55416 3.36568
# Velocity P-wave (km/s) = 6.28811 7.35869 6.84436
#
# Compressibility (1/GPa) = 0.02446994
#
# Stress axis : x y z
#
# Youngs Moduli (GPa) = 62.68913 43.91437 23.51139
#
# Poissons Ratio (x) = 0.19116 0.37622
# Poissons Ratio (y) = 0.27289 0.18900
# Poissons Ratio (z) = 1.00312 0.35300
#
# Static dielectric constant tensor:
#      x y z
#    x 1.519810 0.000000 0.000000 
#    y 0.000000 1.507630 0.000000 
#    z 0.000000 0.000000 1.523490 
# 
# From -- ./inp_files/5897.got.cif
#   From: 2010.05.17/outbox.cif.g08.bks.cpg/sg57_3_cif.got.tgz:5897.got - 2010.06.03 13:58:18.
