data_PCOD9434213
_publ_section_title
;
Structure prediction by ZEFSAII (Michael W. Deem and Ramdas Pophale) SiO2 
 PCOD9434213
Probable space group: P B C M
;
_chemical_formula_sum "Si O2"
_cell_formula_units_Z 56
_cell_length_a 18.046061
_cell_length_b 21.853554
_cell_length_c 9.128779
_cell_angle_alpha 90.000000
_cell_angle_beta 90.000000
_cell_angle_gamma 90.000000
_cell_volume 3600.121764
_symmetry_space_group_name_H-M "P B C M"
_symmetry_group_IT_number 57
_symmetry_cell_setting 'orthorhombic'
loop_
_space_group_symop_operation_xyz
x,y,z
-x,-y,1/2+z
x,1/2-y,-z
-x,1/2+y,1/2-z
-x,-y,-z
x,y,1/2-z
-x,1/2+y,z
x,1/2-y,1/2+z
loop_
_atom_site_type_symbol
_atom_site_label
_atom_site_fract_x
_atom_site_fract_y
_atom_site_fract_z
Si Si1 0.393822 0.045548 0.075911
Si Si2 0.910113 0.562343 0.080968
Si Si3 0.792785 0.393839 0.923066
Si Si4 0.537180 0.087975 0.576290
Si Si5 0.335411 0.815823 0.074383
Si Si6 0.942531 0.415759 0.080914
Si Si7 0.760668 0.961096 0.077226
O O1 0.386230 0.052417 0.250000
O O2 0.418352 0.975109 0.045481
O O3 0.461383 0.085643 0.013880
O O4 0.316365 0.057525 0.996634
O O5 0.906628 0.581696 0.250000
O O6 0.927478 0.489213 0.080404
O O7 0.831760 0.568977 0.000200
O O8 0.978350 0.593148 0.996058
O O9 0.792840 0.380300 0.750000
O O10 0.769987 0.465263 0.941033
O O11 0.734147 0.352373 0.007964
O O12 0.874567 0.387210 0.991274
O O13 0.520378 0.087966 0.750000
O O14 0.591258 0.144044 0.542755
O O15 0.327946 0.811042 0.250000
O O16 0.340275 0.750000 0.000000
O O17 0.942910 0.395974 0.250000
O O18 0.760718 0.948337 0.250000
#
# Coordination Sequence:
#
# PCOD9434213 Si02
#       7
#     8   8   8   8   8   8   8
#     4  10  18  29  47  68  91 119 154 192 233 284
#     4   9  16  25  38  58  86 118 152 185 220 263
#     4  10  19  30  45  64  87 119 157 192 230 275
#     4   9  19  33  47  65  90 119 152 191 237 283
#     4  11  22  36  51  68  92 121 157 198 239 282
#     4   9  16  26  40  58  84 117 151 186 223 264
#     4  10  18  27  42  64  92 122 154 189 229 278
#
# _framework density 15.55503
#
# number of rings (size 3 to 8) (size 9 to 14) (size 15 to 20)
#    0.000    2.286    1.429    2.571    0.000    6.286 
#    0.000    0.000    0.000    0.000    0.000    0.000 
#    0.000    1.143    0.000    9.714    0.000    7.143 
#
# Total GULP energy -312304.355392 kJ/mol
# GULP energy per Si atom -5576.863489 kJ/mol
# Density = 1.551963 g / cm^3
# Si number density = 15.555030 Si / 1000 Ang^3
#
#
#
# Elastic Constant Matrix: (Units=GPa)
#
#
# Indices 1 2 3 4 5 6 
#
# 1 173.1565 36.1288 99.8903 0.0000 0.0000 0.0000
# 2 36.1288 38.6868 36.2311 0.0000 0.0000 0.0000
# 3 99.8903 36.2311 116.7246 0.0000 0.0000 0.0000
# 4 0.0000 0.0000 0.0000 15.7580 0.0000 0.0000
# 5 0.0000 0.0000 0.0000 0.0000 35.3206 0.0000
# 6 0.0000 0.0000 0.0000 0.0000 0.0000 7.4387
#
#
#
# Elastic Compliance Matrix: (Units=1/GPa)
#
#
# Indices 1 2 3 4 5 6 
#
# 1 0.011532 -0.002153 -0.009200 0.000000 0.000000 0.000000
# 2 -0.002153 0.036844 -0.009594 0.000000 0.000000 0.000000
# 3 -0.009200 -0.009594 0.019419 0.000000 0.000000 0.000000
# 4 0.000000 0.000000 0.000000 0.063460 0.000000 0.000000
# 5 0.000000 0.000000 0.000000 0.000000 0.028312 0.000000
# 6 0.000000 0.000000 0.000000 0.000000 0.000000 0.134433
#
#
# Mechanical properties :
#
#
# Convention : Reuss Voigt Hill
#
# Bulk Modulus (GPa) = 38.61003 74.78537 56.69770
# Shear Modulus (GPa) = 14.51265 22.12465 18.31865
#
# Velocity S-wave (km/s) = 3.05780 3.77549 3.43544
# Velocity P-wave (km/s) = 6.11083 8.19683 7.22947
#
# Compressibility (1/GPa) = 0.02590001
#
# Stress axis : x y z
#
# Youngs Moduli (GPa) = 86.71624 27.14142 51.49693
#
# Poissons Ratio (x) = 0.05843 0.47379
# Poissons Ratio (y) = 0.18669 0.49406
# Poissons Ratio (z) = 0.79783 0.26039
#
# Static dielectric constant tensor:
#      x y z
#    x 1.507670 0.000000 0.000000 
#    y 0.000000 1.486750 0.000000 
#    z 0.000000 0.000000 1.515980 
# 
# From -- ./inp_files/7013.got.cif
#   From: 2010.05.17/outbox.cif.g08.bks.cpg/sg57_4_cif.got.tgz:7013.got - 2010.06.03 13:58:18.
