data_PCOD9434231
_publ_section_title
;
Structure prediction by ZEFSAII (Michael W. Deem and Ramdas Pophale) SiO2 
 PCOD9434231
Probable space group: P B C M
;
_chemical_formula_sum "Si O2"
_cell_formula_units_Z 56
_cell_length_a 19.909625
_cell_length_b 18.808308
_cell_length_c 7.779112
_cell_angle_alpha 90.000000
_cell_angle_beta 90.000000
_cell_angle_gamma 90.000000
_cell_volume 2913.015748
_symmetry_space_group_name_H-M "P B C M"
_symmetry_group_IT_number 57
_symmetry_cell_setting 'orthorhombic'
loop_
_space_group_symop_operation_xyz
x,y,z
-x,-y,1/2+z
x,1/2-y,-z
-x,1/2+y,1/2-z
-x,-y,-z
x,y,1/2-z
-x,1/2+y,z
x,1/2-y,1/2+z
loop_
_atom_site_type_symbol
_atom_site_label
_atom_site_fract_x
_atom_site_fract_y
_atom_site_fract_z
Si Si1 0.073746 0.526630 0.543379
Si Si2 0.420657 0.933347 0.953399
Si Si3 0.791631 0.543280 0.040503
Si Si4 0.566435 0.905325 0.549194
Si Si5 0.141643 0.670860 0.956385
Si Si6 0.698636 0.668721 0.457340
Si Si7 0.721941 0.395723 0.456971
O O1 0.077890 0.528698 0.750000
O O2 0.132743 0.473490 0.482522
O O3 0.094817 0.605787 0.481448
O O4 0.000000 0.500000 0.500000
O O5 0.428884 0.945508 0.750000
O O6 0.490681 0.900924 0.021943
O O7 0.354007 0.887448 0.981345
O O8 0.412907 0.011625 0.035313
O O9 0.792614 0.544750 0.250000
O O10 0.756048 0.614740 0.979617
O O11 0.747070 0.474717 0.992347
O O12 0.561685 0.886335 0.750000
O O13 0.626268 0.858073 0.474358
O O14 0.143502 0.665600 0.750000
O O15 0.218292 0.656025 0.017749
O O16 0.119319 0.750000 0.000000
O O17 0.711213 0.750000 0.500000
O O18 0.696965 0.661695 0.250000
O O19 0.720237 0.392985 0.250000
#
# Coordination Sequence:
#
# PCOD9434231 Si02
#       7
#     8   8   8   8   8   8   8
#     4   9  18  34  56  81 104 133 169 204 245 298
#     4  10  18  27  46  75  97 119 163 218 253 291
#     4   8  15  31  53  70  92 129 167 195 238 300
#     4   9  18  32  47  64  94 133 166 201 257 310
#     4   9  19  34  54  78 105 137 172 205 249 306
#     4  10  19  33  51  68  93 132 170 209 252 295
#     4   9  16  31  52  71  95 132 167 199 247 305
#
# _framework density 19.224063999999998
#
# number of rings (size 3 to 8) (size 9 to 14) (size 15 to 20)
#    0.000    2.857    1.429    2.143    0.000    2.286 
#    0.000    4.286    0.000    6.857    0.000    0.000 
#    0.000    0.000    0.000    0.000    0.000    0.000 
#
# Total GULP energy -312083.643967 kJ/mol
# GULP energy per Si atom -5572.922214 kJ/mol
# Density = 1.918031 g / cm^3
# Si number density = 19.224064 Si / 1000 Ang^3
#
#
#
# Elastic Constant Matrix: (Units=GPa)
#
#
# Indices 1 2 3 4 5 6 
#
# 1 159.4772 69.3093 5.8287 0.0000 0.0000 0.0000
# 2 69.3093 114.6178 1.4163 0.0000 0.0000 0.0000
# 3 5.8287 1.4163 20.9522 0.0000 0.0000 0.0000
# 4 0.0000 0.0000 0.0000 19.2297 0.0000 0.0000
# 5 0.0000 0.0000 0.0000 0.0000 19.7275 0.0000
# 6 0.0000 0.0000 0.0000 0.0000 0.0000 22.0793
#
#
#
# Elastic Compliance Matrix: (Units=1/GPa)
#
#
# Indices 1 2 3 4 5 6 
#
# 1 0.008592 -0.005170 -0.002041 0.000000 0.000000 0.000000
# 2 -0.005170 0.011843 0.000638 0.000000 0.000000 0.000000
# 3 -0.002041 0.000638 0.048252 0.000000 0.000000 0.000000
# 4 0.000000 0.000000 0.000000 0.052003 0.000000 0.000000
# 5 0.000000 0.000000 0.000000 0.000000 0.050691 0.000000
# 6 0.000000 0.000000 0.000000 0.000000 0.000000 0.045291
#
#
# Mechanical properties :
#
#
# Convention : Reuss Voigt Hill
#
# Bulk Modulus (GPa) = 18.00473 49.79509 33.89991
# Shear Modulus (GPa) = 20.13424 26.77349 23.45387
#
# Velocity S-wave (km/s) = 3.23978 3.73595 3.49668
# Velocity P-wave (km/s) = 4.83539 6.67596 5.82878
#
# Compressibility (1/GPa) = 0.05554096
#
# Stress axis : x y z
#
# Youngs Moduli (GPa) = 116.38498 84.43562 20.72440
#
# Poissons Ratio (x) = 0.43657 0.04229
# Poissons Ratio (y) = 0.60176 -0.01322
# Poissons Ratio (z) = 0.23751 -0.05385
#
# Static dielectric constant tensor:
#      x y z
#    x 1.696880 0.000000 0.000000 
#    y 0.000000 1.652420 0.000000 
#    z 0.000000 0.000000 1.707810 
# 
# From -- ./inp_files/8344.got.cif
#   From: 2010.05.17/outbox.cif.g08.bks.cpg/sg57_5_cif.got.tgz:8344.got - 2010.06.03 13:58:18.
