data_PCOD9434105
_publ_section_title
;
Structure prediction by ZEFSAII (Michael W. Deem and Ramdas Pophale) SiO2 
 PCOD9434105
Probable space group: P B C M
;
_chemical_formula_sum "Si O2"
_cell_formula_units_Z 64
_cell_length_a 9.170737
_cell_length_b 20.161387
_cell_length_c 20.549884
_cell_angle_alpha 90.000000
_cell_angle_beta 90.000000
_cell_angle_gamma 90.000000
_cell_volume 3799.566235
_symmetry_space_group_name_H-M "P B C M"
_symmetry_group_IT_number 57
_symmetry_cell_setting 'orthorhombic'
loop_
_space_group_symop_operation_xyz
x,y,z
-x,-y,1/2+z
x,1/2-y,-z
-x,1/2+y,1/2-z
-x,-y,-z
x,y,1/2-z
-x,1/2+y,z
x,1/2-y,1/2+z
loop_
_atom_site_type_symbol
_atom_site_label
_atom_site_fract_x
_atom_site_fract_y
_atom_site_fract_z
Si Si1 0.259129 0.108013 0.607658
Si Si2 0.565628 0.011242 0.322649
Si Si3 0.171453 0.009584 0.497582
Si Si4 0.540852 0.159481 0.942383
Si Si5 0.721810 0.454909 0.131237
Si Si6 0.041322 0.847713 0.327158
Si Si7 0.664234 0.389699 0.570686
Si Si8 0.806144 0.254648 0.574715
O O1 0.213166 0.073355 0.539807
O O2 0.381078 0.161988 0.588155
O O3 0.119008 0.134359 0.645925
O O4 0.338987 0.050174 0.649309
O O5 0.613985 0.026048 0.250000
O O6 0.589202 0.073532 0.369698
O O7 0.396091 0.990060 0.323516
O O8 0.221009 0.006271 0.422869
O O9 0.247507 0.946937 0.532666
O O10 0.000000 0.000000 0.500000
O O11 0.623539 0.098784 0.907185
O O12 0.646072 0.220909 0.929201
O O13 0.550287 0.140765 0.018543
O O14 0.852997 0.411938 0.161694
O O15 0.040255 0.832134 0.250000
O O16 0.104290 0.788237 0.372785
O O17 0.775670 0.331305 0.590092
O O18 0.865772 0.250000 0.500000
#
# Coordination Sequence:
#
# PCOD9434105 Si02
#       8
#     8   8   8   8   8   8   8   8
#     4  10  19  31  51  79 107 132 171 218 265 313
#     4  10  19  31  49  74 105 141 170 208 258 314
#     4  10  17  29  53  81 105 128 164 215 269 311
#     4   8  16  32  53  73  95 127 170 222 258 290
#     4   9  17  31  50  76 102 130 169 210 259 311
#     4  11  21  33  52  79 109 143 176 216 262 317
#     4   9  18  32  53  75 100 132 175 219 255 311
#     4   9  19  36  56  73 101 136 183 221 260 308
#
# _framework density 16.844028000000002
#
# number of rings (size 3 to 8) (size 9 to 14) (size 15 to 20)
#    0.000    2.500    1.250    2.250    0.000    3.500 
#    0.000    2.500    2.750    0.000    0.000    0.000 
#    0.000    0.000    0.000    0.000    0.000    0.000 
#
# Total GULP energy -356377.214347 kJ/mol
# GULP energy per Si atom -5568.393974 kJ/mol
# Density = 1.680569 g / cm^3
# Si number density = 16.844028 Si / 1000 Ang^3
#
#
#
# Elastic Constant Matrix: (Units=GPa)
#
#
# Indices 1 2 3 4 5 6 
#
# 1 93.8821 11.0979 42.7753 0.0000 0.0000 0.0000
# 2 11.0979 40.8502 31.1489 0.0000 0.0000 0.0000
# 3 42.7753 31.1489 111.7505 0.0000 0.0000 0.0000
# 4 0.0000 0.0000 0.0000 16.0191 0.0000 0.0000
# 5 0.0000 0.0000 0.0000 0.0000 18.9234 0.0000
# 6 0.0000 0.0000 0.0000 0.0000 0.0000 15.4984
#
#
#
# Elastic Compliance Matrix: (Units=1/GPa)
#
#
# Indices 1 2 3 4 5 6 
#
# 1 0.012905 0.000331 -0.005032 0.000000 0.000000 0.000000
# 2 0.000331 0.031095 -0.008794 0.000000 0.000000 0.000000
# 3 -0.005032 -0.008794 0.013326 0.000000 0.000000 0.000000
# 4 0.000000 0.000000 0.000000 0.062426 0.000000 0.000000
# 5 0.000000 0.000000 0.000000 0.000000 0.052845 0.000000
# 6 0.000000 0.000000 0.000000 0.000000 0.000000 0.064523
#
#
# Mechanical properties :
#
#
# Convention : Reuss Voigt Hill
#
# Bulk Modulus (GPa) = 32.96389 46.28076 39.62233
# Shear Modulus (GPa) = 18.23341 20.85223 19.54282
#
# Velocity S-wave (km/s) = 3.29368 3.52228 3.40990
# Velocity P-wave (km/s) = 5.83755 6.63910 6.25119
#
# Compressibility (1/GPa) = 0.03033623
#
# Stress axis : x y z
#
# Youngs Moduli (GPa) = 77.48765 32.15909 75.04191
#
# Poissons Ratio (x) = -0.01064 0.37762
# Poissons Ratio (y) = -0.02565 0.65993
# Poissons Ratio (z) = 0.38992 0.28281
#
# Static dielectric constant tensor:
#      x y z
#    x 1.572220 0.000000 0.000000 
#    y 0.000000 1.579330 0.000000 
#    z 0.000000 0.000000 1.589100 
# 
# From -- ./inp_files/24683.got.cif
#   From: 2010.05.17/outbox.cif.g08.bks.cpg/sg57_13_cif.got.tgz:24683.got - 2010.06.03 13:58:18.
