data_PCOD9434011
_publ_section_title
;
Structure prediction by ZEFSAII (Michael W. Deem and Ramdas Pophale) SiO2 
 PCOD9434011
Probable space group: P B C M
;
_chemical_formula_sum "Si O2"
_cell_formula_units_Z 44
_cell_length_a 6.990719
_cell_length_b 20.126912
_cell_length_c 19.281300
_cell_angle_alpha 90.000000
_cell_angle_beta 90.000000
_cell_angle_gamma 90.000000
_cell_volume 2712.909493
_symmetry_space_group_name_H-M "P B C M"
_symmetry_group_IT_number 57
_symmetry_cell_setting 'orthorhombic'
loop_
_space_group_symop_operation_xyz
x,y,z
-x,-y,1/2+z
x,1/2-y,-z
-x,1/2+y,1/2-z
-x,-y,-z
x,y,1/2-z
-x,1/2+y,z
x,1/2-y,1/2+z
loop_
_atom_site_type_symbol
_atom_site_label
_atom_site_fract_x
_atom_site_fract_y
_atom_site_fract_z
Si Si1 0.513433 0.565562 0.453640
Si Si2 0.619717 0.809942 0.046988
Si Si3 0.827391 0.148235 0.394389
Si Si4 0.491941 0.737283 0.171297
Si Si5 0.990484 0.750000 0.000000
Si Si6 0.232269 0.388204 0.668212
O O1 0.500000 0.500000 0.500000
O O2 0.587323 0.623246 0.505445
O O3 0.309323 0.590581 0.424199
O O4 0.655888 0.565103 0.386968
O O5 0.522219 0.799004 0.120373
O O6 0.844065 0.791222 0.049173
O O7 0.535923 0.750000 0.000000
O O8 0.696645 0.194715 0.345713
O O9 0.894772 0.196478 0.456266
O O10 0.013441 0.120359 0.355426
O O11 0.492773 0.758730 0.250000
O O12 0.663148 0.683704 0.159737
O O13 0.248763 0.406271 0.750000
#
# Coordination Sequence:
#
# PCOD9434011 Si02
#       6
#     8   8   8   8   4   8
#     4  11  23  37  55  83 113 150 186 220 268 329
#     4  10  16  37  53  77 113 139 178 231 274 303
#     4  11  17  32  56  81 110 141 180 223 280 324
#     4  10  19  31  53  84 111 139 179 228 283 326
#     4  10  16  30  58  84 106 134 178 234 274 314
#     4  10  19  34  53  81 112 136 180 235 271 320
#
# _framework density 16.218748999999999
#
# number of rings (size 3 to 8) (size 9 to 14) (size 15 to 20)
#    0.545    1.091    7.273    1.636    0.000    1.455 
#    0.000    0.909    0.000    0.000    0.000    0.000 
#    0.000    0.000    0.000    0.000    0.000    0.000 
#
# Total GULP energy -245052.399998 kJ/mol
# GULP energy per Si atom -5569.372727 kJ/mol
# Density = 1.618183 g / cm^3
# Si number density = 16.218749 Si / 1000 Ang^3
#
#
#
# Elastic Constant Matrix: (Units=GPa)
#
#
# Indices 1 2 3 4 5 6 
#
# 1 112.8941 23.8997 45.2851 0.0000 0.0000 0.0000
# 2 23.8997 60.7515 40.1264 0.0000 0.0000 0.0000
# 3 45.2851 40.1264 130.1018 0.0000 0.0000 0.0000
# 4 0.0000 0.0000 0.0000 24.0255 0.0000 0.0000
# 5 0.0000 0.0000 0.0000 0.0000 12.7224 0.0000
# 6 0.0000 0.0000 0.0000 0.0000 0.0000 9.7003
#
#
#
# Elastic Compliance Matrix: (Units=1/GPa)
#
#
# Indices 1 2 3 4 5 6 
#
# 1 0.010516 -0.002159 -0.002994 0.000000 0.000000 0.000000
# 2 -0.002159 0.021115 -0.005761 0.000000 0.000000 0.000000
# 3 -0.002994 -0.005761 0.010505 0.000000 0.000000 0.000000
# 4 0.000000 0.000000 0.000000 0.041623 0.000000 0.000000
# 5 0.000000 0.000000 0.000000 0.000000 0.078601 0.000000
# 6 0.000000 0.000000 0.000000 0.000000 0.000000 0.103090
#
#
# Mechanical properties :
#
#
# Convention : Reuss Voigt Hill
#
# Bulk Modulus (GPa) = 49.24282 58.04108 53.64195
# Shear Modulus (GPa) = 17.00402 22.25205 19.62803
#
# Velocity S-wave (km/s) = 3.24144 3.70806 3.48258
# Velocity P-wave (km/s) = 6.66610 7.36187 7.02260
#
# Compressibility (1/GPa) = 0.02030753
#
# Stress axis : x y z
#
# Youngs Moduli (GPa) = 95.09208 47.35987 95.18978
#
# Poissons Ratio (x) = 0.10226 0.28504
# Poissons Ratio (y) = 0.20533 0.54837
# Poissons Ratio (z) = 0.28475 0.27283
#
# Static dielectric constant tensor:
#      x y z
#    x 1.585690 0.000000 0.000000 
#    y 0.000000 1.507120 0.000000 
#    z 0.000000 0.000000 1.572210 
# 
# From -- ./inp_files/23629.got.cif
#   From: 2010.05.17/outbox.cif.g08.bks.cpg/sg57_12_cif.got.tgz:23629.got - 2010.06.03 13:58:18.
