data_PCOD9434525
_publ_section_title
;
Structure prediction by ZEFSAII (Michael W. Deem and Ramdas Pophale) SiO2 
 PCOD9434525
Probable space group: P B C M
;
_chemical_formula_sum "Si O2"
_cell_formula_units_Z 48
_cell_length_a 32.262819
_cell_length_b 9.404539
_cell_length_c 8.565410
_cell_angle_alpha 90.000000
_cell_angle_beta 90.000000
_cell_angle_gamma 90.000000
_cell_volume 2598.890488
_symmetry_space_group_name_H-M "P B C M"
_symmetry_group_IT_number 57
_symmetry_cell_setting 'orthorhombic'
loop_
_space_group_symop_operation_xyz
x,y,z
-x,-y,1/2+z
x,1/2-y,-z
-x,1/2+y,1/2-z
-x,-y,-z
x,y,1/2-z
-x,1/2+y,z
x,1/2-y,1/2+z
loop_
_atom_site_type_symbol
_atom_site_label
_atom_site_fract_x
_atom_site_fract_y
_atom_site_fract_z
Si Si1 0.629886 0.090229 0.061784
Si Si2 0.538075 0.090087 0.437002
Si Si3 0.795708 0.587831 0.436665
Si Si4 0.709360 0.589273 0.562063
Si Si5 0.116803 0.087773 0.936998
Si Si6 0.960903 0.089006 0.562794
O O1 0.630591 0.093817 0.250000
O O2 0.584038 0.036202 0.014497
O O3 0.668699 0.996235 0.010511
O O4 0.634099 0.250000 0.000000
O O5 0.534722 0.250000 0.500000
O O6 0.536551 0.091607 0.250000
O O7 0.500000 0.000000 0.500000
O O8 0.794898 0.750000 0.500000
O O9 0.797020 0.588412 0.250000
O O10 0.752320 0.524788 0.496421
O O11 0.838634 0.529534 0.504986
O O12 0.705932 0.750000 0.500000
O O13 0.711659 0.591753 0.750000
O O14 0.115925 0.092069 0.750000
O O15 0.112191 0.250000 0.000000
O O16 0.080123 0.990854 0.002318
O O17 0.962510 0.250000 0.500000
O O18 0.961490 0.090450 0.750000
O O19 0.000000 0.000000 0.500000
#
# Coordination Sequence:
#
# PCOD9434525 Si02
#       6
#     8   8   8   8   8   8
#     4   9  20  36  54  75 104 138 176 216 265 321
#     4  10  20  36  55  78 105 138 176 220 269 324
#     4  10  18  31  52  80 110 144 182 225 272 323
#     4  10  19  33  52  78 107 139 178 223 267 317
#     4  11  21  37  60  87 116 151 189 231 278 330
#     4  12  25  43  63  88 118 152 190 233 280 331
#
# _framework density 18.46942
#
# number of rings (size 3 to 8) (size 9 to 14) (size 15 to 20)
#    0.000    1.667    0.000    8.000    0.000    2.667 
#    0.000    2.500    0.000    2.000    0.000    0.000 
#    0.000    0.000    0.000    0.000    0.000    0.000 
#
# Total GULP energy -268010.184998 kJ/mol
# GULP energy per Si atom -5583.545521 kJ/mol
# Density = 1.842738 g / cm^3
# Si number density = 18.469420 Si / 1000 Ang^3
#
#
#
# Elastic Constant Matrix: (Units=GPa)
#
#
# Indices 1 2 3 4 5 6 
#
# 1 236.3618 89.4121 74.9999 0.0000 0.0000 0.0000
# 2 89.4121 75.9314 38.9112 0.0000 0.0000 0.0000
# 3 74.9999 38.9112 141.3660 0.0000 0.0000 0.0000
# 4 0.0000 0.0000 0.0000 27.8243 0.0000 0.0000
# 5 0.0000 0.0000 0.0000 0.0000 26.3358 0.0000
# 6 0.0000 0.0000 0.0000 0.0000 0.0000 34.6085
#
#
#
# Elastic Compliance Matrix: (Units=1/GPa)
#
#
# Indices 1 2 3 4 5 6 
#
# 1 0.008060 -0.008499 -0.001937 0.000000 0.000000 0.000000
# 2 -0.008499 0.024294 -0.002178 0.000000 0.000000 0.000000
# 3 -0.001937 -0.002178 0.008701 0.000000 0.000000 0.000000
# 4 0.000000 0.000000 0.000000 0.035940 0.000000 0.000000
# 5 0.000000 0.000000 0.000000 0.000000 0.037971 0.000000
# 6 0.000000 0.000000 0.000000 0.000000 0.000000 0.028895
#
#
# Mechanical properties :
#
#
# Convention : Reuss Voigt Hill
#
# Bulk Modulus (GPa) = 63.18144 95.58952 79.38548
# Shear Modulus (GPa) = 28.67570 34.44280 31.55925
#
# Velocity S-wave (km/s) = 3.94458 4.32308 4.13816
# Velocity P-wave (km/s) = 7.41817 8.76280 8.11837
#
# Compressibility (1/GPa) = 0.01582743
#
# Stress axis : x y z
#
# Youngs Moduli (GPa) = 124.06313 41.16325 114.92961
#
# Poissons Ratio (x) = 0.34984 0.22262
# Poissons Ratio (y) = 1.05439 0.25030
# Poissons Ratio (z) = 0.24032 0.08965
#
# Static dielectric constant tensor:
#      x y z
#    x 1.677820 0.000000 0.000000 
#    y 0.000000 1.645450 0.000000 
#    z 0.000000 0.000000 1.620840 
# 
# From -- ./inp_files/10005.got.cif
#   From: 2010.05.17/outbox.cif.g08.bks.cpg/sg57_6_cif.got.tgz:10005.got - 2010.06.03 13:58:18.
