data_PCOD9434928
_publ_section_title
;
Structure prediction by ZEFSAII (Michael W. Deem and Ramdas Pophale) SiO2 
 PCOD9434928
Probable space group: P B C M
;
_chemical_formula_sum "Si O2"
_cell_formula_units_Z 64
_cell_length_a 6.587753
_cell_length_b 20.344684
_cell_length_c 22.726601
_cell_angle_alpha 90.000000
_cell_angle_beta 90.000000
_cell_angle_gamma 90.000000
_cell_volume 3045.949813
_symmetry_space_group_name_H-M "P B C M"
_symmetry_group_IT_number 57
_symmetry_cell_setting 'orthorhombic'
loop_
_space_group_symop_operation_xyz
x,y,z
-x,-y,1/2+z
x,1/2-y,-z
-x,1/2+y,1/2-z
-x,-y,-z
x,y,1/2-z
-x,1/2+y,z
x,1/2-y,1/2+z
loop_
_atom_site_type_symbol
_atom_site_label
_atom_site_fract_x
_atom_site_fract_y
_atom_site_fract_z
Si Si1 0.946754 0.904770 0.529395
Si Si2 0.399327 0.031044 0.108029
Si Si3 0.785739 0.524853 0.575331
Si Si4 0.377011 0.245302 0.315384
Si Si5 0.993026 0.297175 0.615554
Si Si6 0.241017 0.688287 0.818508
Si Si7 0.685815 0.122618 0.316039
Si Si8 0.934279 0.042713 0.817717
O O1 0.885530 0.916149 0.462103
O O2 0.004645 0.832457 0.552358
O O3 0.746191 0.927840 0.565297
O O4 0.120610 0.958215 0.546023
O O5 0.542547 0.978725 0.074616
O O6 0.249419 0.999215 0.155192
O O7 0.564241 0.075291 0.141061
O O8 0.872831 0.530654 0.640992
O O9 0.282266 0.250285 0.250000
O O10 0.212596 0.225867 0.363013
O O11 0.514946 0.309446 0.326204
O O12 0.542442 0.187072 0.313672
O O13 0.853229 0.235209 0.631674
O O14 0.901385 0.354829 0.657702
O O15 0.206745 0.711696 0.750000
O O16 0.138860 0.617863 0.821941
O O17 0.706361 0.097042 0.250000
O O18 0.971342 0.026527 0.750000
#
# Coordination Sequence:
#
# PCOD9434928 Si02
#       8
#     8   8   8   8   8   8   8   8
#     4  10  21  37  59  87 117 150 197 238 289 354
#     4  11  20  37  56  86 117 157 193 238 294 353
#     4  10  22  40  60  83 115 158 193 237 290 350
#     4   9  17  30  50  77 112 147 181 230 288 340
#     4  11  18  33  56  84 112 148 192 239 292 344
#     4   9  20  37  55  81 114 153 199 241 291 353
#     4  10  19  29  47  83 120 144 180 232 292 347
#     4  10  23  41  59  83 116 155 202 243 289 358
#
# _framework density 21.011507000000002
#
# number of rings (size 3 to 8) (size 9 to 14) (size 15 to 20)
#    0.000    2.000    2.500    2.625    0.000    2.000 
#    0.000    3.125    0.000    0.000    0.000    0.000 
#    0.000    0.000    0.000    0.000    0.000    0.000 
#
# Total GULP energy -357161.726390 kJ/mol
# GULP energy per Si atom -5580.651975 kJ/mol
# Density = 2.096368 g / cm^3
# Si number density = 21.011507 Si / 1000 Ang^3
#
#
#
# Elastic Constant Matrix: (Units=GPa)
#
#
# Indices 1 2 3 4 5 6 
#
# 1 71.0566 5.1576 13.7143 0.0000 0.0000 0.0000
# 2 5.1576 27.3004 -3.4004 0.0000 0.0000 0.0000
# 3 13.7143 -3.4004 68.1628 0.0000 0.0000 0.0000
# 4 0.0000 0.0000 0.0000 7.2438 0.0000 0.0000
# 5 0.0000 0.0000 0.0000 0.0000 19.3673 0.0000
# 6 0.0000 0.0000 0.0000 0.0000 0.0000 17.1480
#
#
#
# Elastic Compliance Matrix: (Units=1/GPa)
#
#
# Indices 1 2 3 4 5 6 
#
# 1 0.014917 -0.003212 -0.003161 0.000000 0.000000 0.000000
# 2 -0.003212 0.037550 0.002519 0.000000 0.000000 0.000000
# 3 -0.003161 0.002519 0.015433 0.000000 0.000000 0.000000
# 4 0.000000 0.000000 0.000000 0.138050 0.000000 0.000000
# 5 0.000000 0.000000 0.000000 0.000000 0.051633 0.000000
# 6 0.000000 0.000000 0.000000 0.000000 0.000000 0.058316
#
#
# Mechanical properties :
#
#
# Convention : Reuss Voigt Hill
#
# Bulk Modulus (GPa) = 16.61360 21.94029 19.27694
# Shear Modulus (GPa) = 14.54886 18.82172 16.68529
#
# Velocity S-wave (km/s) = 2.63425 2.99621 2.82104
# Velocity P-wave (km/s) = 4.14444 4.73649 4.45033
#
# Compressibility (1/GPa) = 0.06019165
#
# Stress axis : x y z
#
# Youngs Moduli (GPa) = 67.03950 26.63113 64.79821
#
# Poissons Ratio (x) = 0.08553 0.20485
# Poissons Ratio (y) = 0.21532 -0.16326
# Poissons Ratio (z) = 0.21194 -0.06710
#
# Static dielectric constant tensor:
#      x y z
#    x 1.738920 0.000000 0.000000 
#    y 0.000000 1.816160 0.000000 
#    z 0.000000 0.000000 1.778880 
# 
# From -- ./inp_files/26384.got.cif
#   From: 2010.05.17/outbox.cif.g08.bks.cpg/sg57_14_cif.got.tgz:26384.got - 2010.06.03 13:58:18.
