data_PCOD9434278
_publ_section_title
;
Structure prediction by ZEFSAII (Michael W. Deem and Ramdas Pophale) SiO2 
 PCOD9434278
Probable space group: P B C M
;
_chemical_formula_sum "Si O2"
_cell_formula_units_Z 56
_cell_length_a 19.603244
_cell_length_b 18.621490
_cell_length_c 8.772494
_cell_angle_alpha 90.000000
_cell_angle_beta 90.000000
_cell_angle_gamma 90.000000
_cell_volume 3202.325352
_symmetry_space_group_name_H-M "P B C M"
_symmetry_group_IT_number 57
_symmetry_cell_setting 'orthorhombic'
loop_
_space_group_symop_operation_xyz
x,y,z
-x,-y,1/2+z
x,1/2-y,-z
-x,1/2+y,1/2-z
-x,-y,-z
x,y,1/2-z
-x,1/2+y,z
x,1/2-y,1/2+z
loop_
_atom_site_type_symbol
_atom_site_label
_atom_site_fract_x
_atom_site_fract_y
_atom_site_fract_z
Si Si1 0.860682 0.673160 0.567656
Si Si2 0.723277 0.906910 0.433751
Si Si3 0.555988 0.169487 0.432149
Si Si4 0.707919 0.169835 0.067228
Si Si5 0.793793 0.044230 0.931555
Si Si6 0.928202 0.524612 0.566549
Si Si7 0.417278 0.330408 0.432603
O O1 0.878373 0.750000 0.500000
O O2 0.863329 0.678143 0.750000
O O3 0.783446 0.649370 0.525989
O O4 0.908717 0.606537 0.521292
O O5 0.726287 0.917740 0.250000
O O6 0.649475 0.875994 0.473515
O O7 0.743115 0.980716 0.514519
O O8 0.557492 0.250000 0.500000
O O9 0.548446 0.172594 0.250000
O O10 0.631317 0.139865 0.467166
O O11 0.487866 0.136561 0.504164
O O12 0.714556 0.172701 0.250000
O O13 0.712591 0.250000 0.000000
O O14 0.763697 0.118109 0.995065
O O15 0.798809 0.045698 0.750000
O O16 0.866791 0.024246 0.003576
O O17 0.928657 0.521239 0.750000
O O18 0.000000 0.500000 0.500000
O O19 0.410100 0.250000 0.500000
O O20 0.421302 0.325118 0.250000
#
# Coordination Sequence:
#
# PCOD9434278 Si02
#       7
#     8   8   8   8   8   8   8
#     4   9  18  32  52  78 108 139 174 214 255 302
#     4   9  19  34  49  71 105 142 176 216 262 307
#     4   9  17  29  47  70  98 133 173 216 265 315
#     4  10  20  36  57  79 104 135 173 221 269 315
#     4  11  22  36  57  82 105 135 173 212 260 318
#     4  10  21  39  60  83 112 144 177 214 258 311
#     4  10  18  28  46  71 102 138 177 221 267 312
#
# _framework density 17.487293000000001
#
# number of rings (size 3 to 8) (size 9 to 14) (size 15 to 20)
#    0.000    2.286    0.000    5.143    0.000    5.714 
#    0.000    1.429    0.000    1.714    0.000    0.000 
#    0.000    0.000    0.000    0.000    0.000    0.000 
#
# Total GULP energy -312369.637738 kJ/mol
# GULP energy per Si atom -5578.029245 kJ/mol
# Density = 1.744749 g / cm^3
# Si number density = 17.487293 Si / 1000 Ang^3
#
#
#
# Elastic Constant Matrix: (Units=GPa)
#
#
# Indices 1 2 3 4 5 6 
#
# 1 150.9198 85.2632 60.6723 0.0000 0.0000 0.0000
# 2 85.2632 95.1477 43.7760 0.0000 0.0000 0.0000
# 3 60.6723 43.7760 72.1494 0.0000 0.0000 0.0000
# 4 0.0000 0.0000 0.0000 28.9318 0.0000 0.0000
# 5 0.0000 0.0000 0.0000 0.0000 22.9906 0.0000
# 6 0.0000 0.0000 0.0000 0.0000 0.0000 21.3705
#
#
#
# Elastic Compliance Matrix: (Units=1/GPa)
#
#
# Indices 1 2 3 4 5 6 
#
# 1 0.015227 -0.010757 -0.006278 0.000000 0.000000 0.000000
# 2 -0.010757 0.022179 -0.004411 0.000000 0.000000 0.000000
# 3 -0.006278 -0.004411 0.021816 0.000000 0.000000 0.000000
# 4 0.000000 0.000000 0.000000 0.034564 0.000000 0.000000
# 5 0.000000 0.000000 0.000000 0.000000 0.043496 0.000000
# 6 0.000000 0.000000 0.000000 0.000000 0.000000 0.046793
#
#
# Mechanical properties :
#
#
# Convention : Reuss Voigt Hill
#
# Bulk Modulus (GPa) = 61.23843 77.51554 69.37698
# Shear Modulus (GPa) = 21.51364 23.22563 22.36963
#
# Velocity S-wave (km/s) = 3.51129 3.64832 3.58046
# Velocity P-wave (km/s) = 7.17870 7.88480 7.54002
#
# Compressibility (1/GPa) = 0.01632962
#
# Stress axis : x y z
#
# Youngs Moduli (GPa) = 65.67265 45.08850 45.83754
#
# Poissons Ratio (x) = 0.48500 0.28778
# Poissons Ratio (y) = 0.70641 0.20220
# Poissons Ratio (z) = 0.41232 0.19889
#
# Static dielectric constant tensor:
#      x y z
#    x 1.607580 0.000000 0.000000 
#    y 0.000000 1.577480 0.000000 
#    z 0.000000 0.000000 1.583810 
# 
# From -- ./inp_files/8367.got.cif
#   From: 2010.05.17/outbox.cif.g08.bks.cpg/sg57_5_cif.got.tgz:8367.got - 2010.06.03 13:58:18.
