data_PCOD9434281
_publ_section_title
;
Structure prediction by ZEFSAII (Michael W. Deem and Ramdas Pophale) SiO2 
 PCOD9434281
Probable space group: P B C M
;
_chemical_formula_sum "Si O2"
_cell_formula_units_Z 64
_cell_length_a 17.264399
_cell_length_b 24.637664
_cell_length_c 8.523319
_cell_angle_alpha 90.000000
_cell_angle_beta 90.000000
_cell_angle_gamma 90.000000
_cell_volume 3625.431765
_symmetry_space_group_name_H-M "P B C M"
_symmetry_group_IT_number 57
_symmetry_cell_setting 'orthorhombic'
loop_
_space_group_symop_operation_xyz
x,y,z
-x,-y,1/2+z
x,1/2-y,-z
-x,1/2+y,1/2-z
-x,-y,-z
x,y,1/2-z
-x,1/2+y,z
x,1/2-y,1/2+z
loop_
_atom_site_type_symbol
_atom_site_label
_atom_site_fract_x
_atom_site_fract_y
_atom_site_fract_z
Si Si1 0.425099 0.188049 0.561491
Si Si2 0.187799 0.474959 0.062113
Si Si3 0.876809 0.689613 0.062228
Si Si4 0.405099 0.811490 0.438876
Si Si5 0.139102 0.914602 0.060264
Si Si6 0.035451 0.410732 0.438782
Si Si7 0.765798 0.188603 0.939623
Si Si8 0.722251 0.624846 0.062380
O O1 0.415629 0.250000 0.500000
O O2 0.422257 0.190114 0.750000
O O3 0.510725 0.166630 0.511435
O O4 0.356885 0.149983 0.500579
O O5 0.188062 0.474700 0.250000
O O6 0.105103 0.449618 0.005239
O O7 0.190973 0.535876 0.999709
O O8 0.253685 0.434066 0.002032
O O9 0.881701 0.688737 0.250000
O O10 0.793179 0.664780 0.015578
O O11 0.884879 0.750000 0.000000
O O12 0.940333 0.649346 0.991179
O O13 0.405672 0.750000 0.500000
O O14 0.405175 0.811960 0.250000
O O15 0.320433 0.832174 0.488693
O O16 0.139226 0.915414 0.250000
O O17 0.171881 0.856117 0.009524
O O18 0.050800 0.923548 0.004276
O O19 0.034904 0.413282 0.250000
O O20 0.767352 0.191211 0.750000
O O21 0.777663 0.250000 0.000000
O O22 0.719816 0.622713 0.250000
#
# Coordination Sequence:
#
# PCOD9434281 Si02
#       8
#     8   8   8   8   8   8   8   8
#     4  10  18  28  46  73 102 130 162 198 236 283
#     4  10  20  34  52  72  96 127 163 203 244 287
#     4  10  20  32  47  67  95 131 164 196 238 288
#     4   8  15  28  46  69  97 128 159 192 233 280
#     4  10  20  34  53  75  98 125 159 200 244 289
#     4   9  19  34  50  70  96 126 162 204 245 285
#     4   9  18  33  52  74 101 130 158 193 238 286
#     4  10  20  33  49  70  97 129 164 202 243 286
#
# _framework density 17.65307
#
# number of rings (size 3 to 8) (size 9 to 14) (size 15 to 20)
#    0.000    2.500    0.000    2.250    0.000    5.000 
#    0.000    1.250    0.000    0.750    0.000    0.000 
#    0.000    0.000    0.000    0.000    0.000    0.000 
#
# Total GULP energy -356712.258434 kJ/mol
# GULP energy per Si atom -5573.629038 kJ/mol
# Density = 1.761289 g / cm^3
# Si number density = 17.653070 Si / 1000 Ang^3
#
#
#
# Elastic Constant Matrix: (Units=GPa)
#
#
# Indices 1 2 3 4 5 6 
#
# 1 65.0360 20.7126 12.3002 0.0000 0.0000 0.0000
# 2 20.7126 87.9567 9.2992 0.0000 0.0000 0.0000
# 3 12.3002 9.2992 11.8076 0.0000 0.0000 0.0000
# 4 0.0000 0.0000 0.0000 23.5656 0.0000 0.0000
# 5 0.0000 0.0000 0.0000 0.0000 15.0449 0.0000
# 6 0.0000 0.0000 0.0000 0.0000 0.0000 17.2142
#
#
#
# Elastic Compliance Matrix: (Units=1/GPa)
#
#
# Indices 1 2 3 4 5 6 
#
# 1 0.019718 -0.002696 -0.018417 0.000000 0.000000 0.000000
# 2 -0.002696 0.012771 -0.007249 0.000000 0.000000 0.000000
# 3 -0.018417 -0.007249 0.109585 0.000000 0.000000 0.000000
# 4 0.000000 0.000000 0.000000 0.042435 0.000000 0.000000
# 5 0.000000 0.000000 0.000000 0.000000 0.066468 0.000000
# 6 0.000000 0.000000 0.000000 0.000000 0.000000 0.058092
#
#
# Mechanical properties :
#
#
# Convention : Reuss Voigt Hill
#
# Bulk Modulus (GPa) = 11.71655 27.71381 19.71518
# Shear Modulus (GPa) = 12.68255 19.33081 16.00668
#
# Velocity S-wave (km/s) = 2.68327 3.31273 3.01447
# Velocity P-wave (km/s) = 4.03131 5.51049 4.82788
#
# Compressibility (1/GPa) = 0.08534939
#
# Stress axis : x y z
#
# Youngs Moduli (GPa) = 50.71509 78.30532 9.12531
#
# Poissons Ratio (x) = 0.21112 0.16806
# Poissons Ratio (y) = 0.13674 0.06615
# Poissons Ratio (z) = 0.93403 0.56762
#
# Static dielectric constant tensor:
#      x y z
#    x 1.641750 0.000000 0.000000 
#    y 0.000000 1.569960 0.000000 
#    z 0.000000 0.000000 1.593010 
# 
# From -- ./inp_files/7428.got.cif
#   From: 2010.05.17/outbox.cif.g08.bks.cpg/sg57_4_cif.got.tgz:7428.got - 2010.06.03 13:58:18.
