data_PCOD9434830
_publ_section_title
;
Structure prediction by ZEFSAII (Michael W. Deem and Ramdas Pophale) SiO2 
 PCOD9434830
Probable space group: P B C M
;
_chemical_formula_sum "Si O2"
_cell_formula_units_Z 48
_cell_length_a 18.703805
_cell_length_b 9.059406
_cell_length_c 13.855939
_cell_angle_alpha 90.000000
_cell_angle_beta 90.000000
_cell_angle_gamma 90.000000
_cell_volume 2347.824617
_symmetry_space_group_name_H-M "P B C M"
_symmetry_group_IT_number 57
_symmetry_cell_setting 'orthorhombic'
loop_
_space_group_symop_operation_xyz
x,y,z
-x,-y,1/2+z
x,1/2-y,-z
-x,1/2+y,1/2-z
-x,-y,-z
x,y,1/2-z
-x,1/2+y,z
x,1/2-y,1/2+z
loop_
_atom_site_type_symbol
_atom_site_label
_atom_site_fract_x
_atom_site_fract_y
_atom_site_fract_z
Si Si1 0.166851 0.540980 0.566536
Si Si2 0.120915 0.858746 0.858086
Si Si3 0.033450 0.379995 0.572041
Si Si4 0.676382 0.425964 0.479417
Si Si5 0.407033 0.079772 0.864614
Si Si6 0.446364 0.418872 0.634983
O O1 0.152099 0.698875 0.615264
O O2 0.147035 0.547840 0.451266
O O3 0.108048 0.435149 0.614540
O O4 0.250925 0.515654 0.569283
O O5 0.141843 0.906506 0.750000
O O6 0.034370 0.844283 0.861566
O O7 0.051055 0.250000 0.500000
O O8 0.000000 0.500000 0.500000
O O9 0.682058 0.250000 0.500000
O O10 0.659928 0.516063 0.577247
O O11 0.609896 0.469917 0.412463
O O12 0.395599 0.074186 0.750000
O O13 0.428404 0.248561 0.890041
O O14 0.473788 0.972480 0.889551
O O15 0.440565 0.430415 0.750000
#
# Coordination Sequence:
#
# PCOD9434830 Si02
#       6
#     8   8   8   8   8   8
#     4  10  22  40  56  91 123 157 201 256 308 358
#     4  10  19  37  61  84 114 155 200 246 301 364
#     4  10  18  37  61  80 117 153 193 250 302 355
#     4  12  23  38  61  90 127 169 209 249 320 373
#     4  10  22  41  65  92 125 164 212 259 305 369
#     4  10  22  41  64  92 125 164 210 262 310 364
#
# _framework density 20.444458999999998
#
# number of rings (size 3 to 8) (size 9 to 14) (size 15 to 20)
#    0.000    1.667    5.000    2.000    0.000    5.333 
#    0.000    0.000    0.000    0.000    0.000    0.000 
#    0.000    0.000    0.000    0.000    0.000    0.000 
#
# Total GULP energy -267630.930655 kJ/mol
# GULP energy per Si atom -5575.644389 kJ/mol
# Density = 2.039793 g / cm^3
# Si number density = 20.444459 Si / 1000 Ang^3
#
#
#
# Elastic Constant Matrix: (Units=GPa)
#
#
# Indices 1 2 3 4 5 6 
#
# 1 108.7801 14.0851 2.9716 0.0000 0.0000 0.0000
# 2 14.0851 60.0263 -17.7293 0.0000 0.0000 0.0000
# 3 2.9716 -17.7293 71.1592 0.0000 0.0000 0.0000
# 4 0.0000 0.0000 0.0000 11.0171 0.0000 0.0000
# 5 0.0000 0.0000 0.0000 0.0000 -32.8118 0.0000
# 6 0.0000 0.0000 0.0000 0.0000 0.0000 20.1740
#
#
#
# Elastic Compliance Matrix: (Units=1/GPa)
#
#
# Indices 1 2 3 4 5 6 
#
# 1 0.009551 -0.002546 -0.001033 0.000000 0.000000 0.000000
# 2 -0.002546 0.018662 0.004756 0.000000 0.000000 0.000000
# 3 -0.001033 0.004756 0.015281 0.000000 0.000000 0.000000
# 4 0.000000 0.000000 0.000000 0.090768 0.000000 0.000000
# 5 0.000000 0.000000 0.000000 0.000000 -0.030477 0.000000
# 6 0.000000 0.000000 0.000000 0.000000 0.000000 0.049569
#
#
# Mechanical properties :
#
#
# Convention : Reuss Voigt Hill
#
# Bulk Modulus (GPa) = 21.81212 26.51337 24.16275
# Shear Modulus (GPa) = 30.06935 15.71843 22.89389
#
# Velocity S-wave (km/s) = 3.83924 2.77580 3.34999
# Velocity P-wave (km/s) = 5.50864 4.82390 5.17760
#
# Compressibility (1/GPa) = 0.04584606
#
# Stress axis : x y z
#
# Youngs Moduli (GPa) = 104.70349 53.58624 65.44049
#
# Poissons Ratio (x) = 0.13644 0.06762
# Poissons Ratio (y) = 0.26660 -0.31122
# Poissons Ratio (z) = 0.10818 -0.25485
#
# Static dielectric constant tensor:
#      x y z
#    x 1.740210 0.000000 0.000000 
#    y 0.000000 1.704090 0.000000 
#    z 0.000000 0.000000 1.761350 
# 
# From -- ./inp_files/19267.got.cif
#   From: 2010.05.17/outbox.cif.g08.bks.cpg/sg57_10_cif.got.tgz:19267.got - 2010.06.03 13:58:18.
