data_PCOD9434442
_publ_section_title
;
Structure prediction by ZEFSAII (Michael W. Deem and Ramdas Pophale) SiO2 
 PCOD9434442
Probable space group: P B C M
;
_chemical_formula_sum "Si O2"
_cell_formula_units_Z 36
_cell_length_a 11.212908
_cell_length_b 14.685606
_cell_length_c 8.792259
_cell_angle_alpha 90.000000
_cell_angle_beta 90.000000
_cell_angle_gamma 90.000000
_cell_volume 1447.806774
_symmetry_space_group_name_H-M "P B C M"
_symmetry_group_IT_number 57
_symmetry_cell_setting 'orthorhombic'
loop_
_space_group_symop_operation_xyz
x,y,z
-x,-y,1/2+z
x,1/2-y,-z
-x,1/2+y,1/2-z
-x,-y,-z
x,y,1/2-z
-x,1/2+y,z
x,1/2-y,1/2+z
loop_
_atom_site_type_symbol
_atom_site_label
_atom_site_fract_x
_atom_site_fract_y
_atom_site_fract_z
Si Si1 0.782973 0.653089 0.750000
Si Si2 0.326263 0.850856 0.015992
Si Si3 0.512451 0.088155 0.250000
Si Si4 0.978702 0.900442 0.434484
Si Si5 0.921945 0.658242 0.250000
Si Si6 0.524349 0.704359 0.750000
Si Si7 0.742246 0.011684 0.750000
O O1 0.836895 0.609240 0.598908
O O2 0.835547 0.755091 0.750000
O O3 0.643755 0.649577 0.750000
O O4 0.440740 0.821221 0.112550
O O5 0.243987 0.920519 0.106395
O O6 0.266368 0.750000 0.000000
O O7 0.391636 0.908111 0.885844
O O8 0.452298 0.188550 0.250000
O O9 0.398392 0.021336 0.250000
O O10 0.015794 0.886453 0.250000
O O11 0.997416 0.841560 0.590985
O O12 0.000000 0.000000 0.500000
O O13 0.835645 0.569905 0.250000
#
# Coordination Sequence:
#
# PCOD9434442 Si02
#       7
#     4   8   4   8   4   4   4
#     4  10  22  36  66 102 132 170 208 268 338 393
#     4   9  20  36  53  75 121 183 224 259 311 378
#     4  10  18  30  52  79 122 162 210 268 314 367
#     4  10  23  42  67  92 134 169 201 252 332 418
#     4  12  22  40  66 104 135 158 212 277 335 381
#     4   9  18  34  55  86 130 164 213 265 321 376
#     4  11  22  34  55  85 123 162 219 274 322 371
#
# _framework density 24.865197999999999
#
# number of rings (size 3 to 8) (size 9 to 14) (size 15 to 20)
#    0.667    1.333    2.222    2.000    3.111    1.778 
#    2.000    0.000    0.000    5.333    0.000    0.000 
#    0.000    0.000    0.000    0.000    0.000    0.000 
#
# Total GULP energy -200423.145332 kJ/mol
# GULP energy per Si atom -5567.309593 kJ/mol
# Density = 2.480860 g / cm^3
# Si number density = 24.865198 Si / 1000 Ang^3
#
#
#
# Elastic Constant Matrix: (Units=GPa)
#
#
# Indices 1 2 3 4 5 6 
#
# 1 61.1656 37.8261 33.6575 0.0000 0.0000 0.0000
# 2 37.8261 135.4754 35.3579 0.0000 0.0000 0.0000
# 3 33.6575 35.3579 188.9800 0.0000 0.0000 0.0000
# 4 0.0000 0.0000 0.0000 50.4955 0.0000 0.0000
# 5 0.0000 0.0000 0.0000 0.0000 34.9025 0.0000
# 6 0.0000 0.0000 0.0000 0.0000 0.0000 47.0369
#
#
#
# Elastic Compliance Matrix: (Units=1/GPa)
#
#
# Indices 1 2 3 4 5 6 
#
# 1 0.021072 -0.005156 -0.002788 0.000000 0.000000 0.000000
# 2 -0.005156 0.009022 -0.000770 0.000000 0.000000 0.000000
# 3 -0.002788 -0.000770 0.005932 0.000000 0.000000 0.000000
# 4 0.000000 0.000000 0.000000 0.019804 0.000000 0.000000
# 5 0.000000 0.000000 0.000000 0.000000 0.028651 0.000000
# 6 0.000000 0.000000 0.000000 0.000000 0.000000 0.021260
#
#
# Mechanical properties :
#
#
# Convention : Reuss Voigt Hill
#
# Bulk Modulus (GPa) = 53.76834 66.58934 60.17884
# Shear Modulus (GPa) = 38.64956 45.07229 41.86093
#
# Velocity S-wave (km/s) = 3.94682 4.26216 4.10752
# Velocity P-wave (km/s) = 6.51465 7.14560 6.83741
#
# Compressibility (1/GPa) = 0.01859830
#
# Stress axis : x y z
#
# Youngs Moduli (GPa) = 47.45686 110.84213 168.57234
#
# Poissons Ratio (x) = 0.57147 0.47002
# Poissons Ratio (y) = 0.24468 0.12976
# Poissons Ratio (z) = 0.13232 0.08532
#
# Static dielectric constant tensor:
#      x y z
#    x 1.968790 0.000000 0.000000 
#    y 0.000000 2.023000 0.000000 
#    z 0.000000 0.000000 2.030750 
# 
# From -- ./inp_files/4247.got.cif
#   From: 2010.05.17/outbox.cif.g08.bks.cpg/sg57_3_cif.got.tgz:4247.got - 2010.06.03 13:58:18.
