data_PCOD9434460
_publ_section_title
;
Structure prediction by ZEFSAII (Michael W. Deem and Ramdas Pophale) SiO2 
 PCOD9434460
Probable space group: P B C M
;
_chemical_formula_sum "Si O2"
_cell_formula_units_Z 56
_cell_length_a 18.173216
_cell_length_b 21.414116
_cell_length_c 9.064549
_cell_angle_alpha 90.000000
_cell_angle_beta 90.000000
_cell_angle_gamma 90.000000
_cell_volume 3527.590305
_symmetry_space_group_name_H-M "P B C M"
_symmetry_group_IT_number 57
_symmetry_cell_setting 'orthorhombic'
loop_
_space_group_symop_operation_xyz
x,y,z
-x,-y,1/2+z
x,1/2-y,-z
-x,1/2+y,1/2-z
-x,-y,-z
x,y,1/2-z
-x,1/2+y,z
x,1/2-y,1/2+z
loop_
_atom_site_type_symbol
_atom_site_label
_atom_site_fract_x
_atom_site_fract_y
_atom_site_fract_z
Si Si1 0.058974 0.414823 0.419894
Si Si2 0.453813 0.092288 0.423587
Si Si3 0.764468 0.041437 0.574925
Si Si4 0.598175 0.449063 0.424757
Si Si5 0.661939 0.682345 0.926405
Si Si6 0.912252 0.064951 0.080498
Si Si7 0.792184 0.606484 0.424644
O O1 0.062847 0.394643 0.250000
O O2 0.072550 0.489981 0.422145
O O3 0.124931 0.386364 0.515791
O O4 0.978579 0.404792 0.488634
O O5 0.450896 0.107526 0.250000
O O6 0.536994 0.087105 0.482372
O O7 0.405832 0.140424 0.516592
O O8 0.418988 0.022987 0.442082
O O9 0.773240 0.051950 0.750000
O O10 0.682594 0.062109 0.530890
O O11 0.831870 0.072726 0.489569
O O12 0.770491 0.966423 0.553070
O O13 0.590165 0.435380 0.250000
O O14 0.662538 0.686303 0.750000
O O15 0.656972 0.750000 0.000000
O O16 0.735500 0.648642 0.985873
O O17 0.914432 0.085064 0.250000
O O18 0.787365 0.619350 0.250000
#
# Coordination Sequence:
#
# PCOD9434460 Si02
#       7
#     8   8   8   8   8   8   8
#     4   9  16  26  39  58  84 118 154 186 223 269
#     4  10  19  33  49  69  93 121 157 197 240 286
#     4   9  16  27  43  63  92 124 154 190 231 279
#     4   9  17  30  47  69  95 125 157 193 237 288
#     4  12  24  37  52  69  92 123 160 201 243 288
#     4   9  16  24  36  58  86 118 154 188 223 264
#     4  10  18  31  47  65  89 119 155 195 235 277
#
# _framework density 15.874859000000001
#
# number of rings (size 3 to 8) (size 9 to 14) (size 15 to 20)
#    0.000    2.286    1.429    3.000    0.000    5.143 
#    0.000    0.000    0.000    0.000    0.000    0.000 
#    0.000    1.143    0.000    6.286    0.000    7.000 
#
# Total GULP energy -312278.010137 kJ/mol
# GULP energy per Si atom -5576.393038 kJ/mol
# Density = 1.583873 g / cm^3
# Si number density = 15.874859 Si / 1000 Ang^3
#
#
#
# Elastic Constant Matrix: (Units=GPa)
#
#
# Indices 1 2 3 4 5 6 
#
# 1 152.8497 27.4844 73.4481 0.0000 0.0000 0.0000
# 2 27.4844 33.0779 39.5196 0.0000 0.0000 0.0000
# 3 73.4481 39.5196 119.9772 0.0000 0.0000 0.0000
# 4 0.0000 0.0000 0.0000 16.2704 0.0000 0.0000
# 5 0.0000 0.0000 0.0000 0.0000 33.9049 0.0000
# 6 0.0000 0.0000 0.0000 0.0000 0.0000 3.5795
#
#
#
# Elastic Compliance Matrix: (Units=1/GPa)
#
#
# Indices 1 2 3 4 5 6 
#
# 1 0.009316 -0.001528 -0.005199 0.000000 0.000000 0.000000
# 2 -0.001528 0.050100 -0.015567 0.000000 0.000000 0.000000
# 3 -0.005199 -0.015567 0.016646 0.000000 0.000000 0.000000
# 4 0.000000 0.000000 0.000000 0.061461 0.000000 0.000000
# 5 0.000000 0.000000 0.000000 0.000000 0.029494 0.000000
# 6 0.000000 0.000000 0.000000 0.000000 0.000000 0.279368
#
#
# Mechanical properties :
#
#
# Convention : Reuss Voigt Hill
#
# Bulk Modulus (GPa) = 31.77448 65.20098 48.48773
# Shear Modulus (GPa) = 9.97078 21.78112 15.87595
#
# Velocity S-wave (km/s) = 2.50888 3.70814 3.16582
# Velocity P-wave (km/s) = 5.33401 7.71328 6.63123
#
# Compressibility (1/GPa) = 0.03147180
#
# Stress axis : x y z
#
# Youngs Moduli (GPa) = 107.34594 19.96003 60.07592
#
# Poissons Ratio (x) = 0.03051 0.31236
# Poissons Ratio (y) = 0.16406 0.93520
# Poissons Ratio (z) = 0.55814 0.31072
#
# Static dielectric constant tensor:
#      x y z
#    x 1.535710 0.000000 0.000000 
#    y 0.000000 1.500900 0.000000 
#    z 0.000000 0.000000 1.527620 
# 
# From -- ./inp_files/7003.got.cif
#   From: 2010.05.17/outbox.cif.g08.bks.cpg/sg57_4_cif.got.tgz:7003.got - 2010.06.03 13:58:18.
