data_PCOD9434799
_publ_section_title
;
Structure prediction by ZEFSAII (Michael W. Deem and Ramdas Pophale) SiO2 
 PCOD9434799
Probable space group: P B C M
;
_chemical_formula_sum "Si O2"
_cell_formula_units_Z 40
_cell_length_a 12.930322
_cell_length_b 7.887305
_cell_length_c 17.537032
_cell_angle_alpha 90.000000
_cell_angle_beta 90.000000
_cell_angle_gamma 90.000000
_cell_volume 1788.521107
_symmetry_space_group_name_H-M "P B C M"
_symmetry_group_IT_number 57
_symmetry_cell_setting 'orthorhombic'
loop_
_space_group_symop_operation_xyz
x,y,z
-x,-y,1/2+z
x,1/2-y,-z
-x,1/2+y,1/2-z
-x,-y,-z
x,y,1/2-z
-x,1/2+y,z
x,1/2-y,1/2+z
loop_
_atom_site_type_symbol
_atom_site_label
_atom_site_fract_x
_atom_site_fract_y
_atom_site_fract_z
Si Si1 0.400334 0.971946 0.446202
Si Si2 0.322465 0.619901 0.097648
Si Si3 0.889704 0.670416 0.157858
Si Si4 0.115474 0.719249 0.657813
Si Si5 0.665852 0.724982 0.839228
O O1 0.392248 0.790870 0.403733
O O2 0.313140 0.950019 0.511520
O O3 0.383282 0.129807 0.391349
O O4 0.628439 0.965735 0.354720
O O5 0.500000 0.500000 0.000000
O O6 0.897254 0.677884 0.250000
O O7 0.788134 0.776860 0.138810
O O8 0.001920 0.726797 0.129401
O O9 0.868029 0.476477 0.137167
O O10 0.115738 0.732255 0.750000
O O11 0.211127 0.827171 0.628545
O O12 0.656414 0.767655 0.750000
#
# Coordination Sequence:
#
# PCOD9434799 Si02
#       5
#     8   8   8   8   8
#     4  11  27  48  73  95 138 189 237 295 369 431
#     4  11  24  41  73  99 135 187 235 288 355 429
#     4   9  18  33  61 100 147 190 229 286 352 416
#     4  10  18  35  62 100 145 188 236 288 346 417
#     4  11  23  43  72 108 141 181 240 298 350 424
#
# _framework density 22.364846
#
# number of rings (size 3 to 8) (size 9 to 14) (size 15 to 20)
#    0.000    1.600    2.000    2.400    5.600    4.000 
#    0.000    3.000    4.400    0.000    0.000    0.000 
#    0.000    0.000    0.000    0.000    0.000    0.000 
#
# Total GULP energy -223541.898487 kJ/mol
# GULP energy per Si atom -5588.547462 kJ/mol
# Density = 2.231394 g / cm^3
# Si number density = 22.364846 Si / 1000 Ang^3
#
#
#
# Elastic Constant Matrix: (Units=GPa)
#
#
# Indices 1 2 3 4 5 6 
#
# 1 99.6895 67.1928 40.3357 0.0000 0.0000 0.0000
# 2 67.1928 166.2983 48.8982 0.0000 0.0000 0.0000
# 3 40.3357 48.8982 53.7414 0.0000 0.0000 0.0000
# 4 0.0000 0.0000 0.0000 38.6481 0.0000 0.0000
# 5 0.0000 0.0000 0.0000 0.0000 24.0895 0.0000
# 6 0.0000 0.0000 0.0000 0.0000 0.0000 37.8800
#
#
#
# Elastic Compliance Matrix: (Units=1/GPa)
#
#
# Indices 1 2 3 4 5 6 
#
# 1 0.016186 -0.004052 -0.008462 0.000000 0.000000 0.000000
# 2 -0.004052 0.009224 -0.005352 0.000000 0.000000 0.000000
# 3 -0.008462 -0.005352 0.029828 0.000000 0.000000 0.000000
# 4 0.000000 0.000000 0.000000 0.025874 0.000000 0.000000
# 5 0.000000 0.000000 0.000000 0.000000 0.041512 0.000000
# 6 0.000000 0.000000 0.000000 0.000000 0.000000 0.026399
#
#
# Mechanical properties :
#
#
# Convention : Reuss Voigt Hill
#
# Bulk Modulus (GPa) = 51.26228 70.28696 60.77462
# Shear Modulus (GPa) = 26.14298 31.01036 28.57667
#
# Velocity S-wave (km/s) = 3.42267 3.72770 3.57844
# Velocity P-wave (km/s) = 6.21211 7.07272 6.65634
#
# Compressibility (1/GPa) = 0.01950752
#
# Stress axis : x y z
#
# Youngs Moduli (GPa) = 61.78229 108.41258 33.52576
#
# Poissons Ratio (x) = 0.43927 0.28368
# Poissons Ratio (y) = 0.25033 0.17942
# Poissons Ratio (z) = 0.52278 0.58018
#
# Static dielectric constant tensor:
#      x y z
#    x 1.891080 0.000000 0.000000 
#    y 0.000000 1.844190 0.000000 
#    z 0.000000 0.000000 1.826490 
# 
# From -- ./inp_files/24858.got.cif
#   From: 2010.05.17/outbox.cif.g08.bks.cpg/sg57_13_cif.got.tgz:24858.got - 2010.06.03 13:58:18.
