data_PCOD9434884
_publ_section_title
;
Structure prediction by ZEFSAII (Michael W. Deem and Ramdas Pophale) SiO2 
 PCOD9434884
Probable space group: P B C M
;
_chemical_formula_sum "Si O2"
_cell_formula_units_Z 64
_cell_length_a 27.059903
_cell_length_b 18.896192
_cell_length_c 8.928667
_cell_angle_alpha 90.000000
_cell_angle_beta 90.000000
_cell_angle_gamma 90.000000
_cell_volume 4565.487463
_symmetry_space_group_name_H-M "P B C M"
_symmetry_group_IT_number 57
_symmetry_cell_setting 'orthorhombic'
loop_
_space_group_symop_operation_xyz
x,y,z
-x,-y,1/2+z
x,1/2-y,-z
-x,1/2+y,1/2-z
-x,-y,-z
x,y,1/2-z
-x,1/2+y,z
x,1/2-y,1/2+z
loop_
_atom_site_type_symbol
_atom_site_label
_atom_site_fract_x
_atom_site_fract_y
_atom_site_fract_z
Si Si1 0.990043 0.673234 0.070710
Si Si2 0.309107 0.174046 0.071131
Si Si3 0.393827 0.415141 0.428616
Si Si4 0.104945 0.077601 0.430441
Si Si5 0.804904 0.825741 0.930133
Si Si6 0.047078 0.540136 0.070517
Si Si7 0.494301 0.327657 0.429611
Si Si8 0.455464 0.954304 0.929859
O O1 0.988714 0.680056 0.250000
O O2 0.939704 0.631460 0.027336
O O3 0.036165 0.621896 0.031988
O O4 0.992463 0.750000 0.000000
O O5 0.311965 0.179598 0.250000
O O6 0.252020 0.158911 0.028743
O O7 0.322432 0.250000 0.000000
O O8 0.346835 0.115553 0.012737
O O9 0.386334 0.409702 0.250000
O O10 0.441913 0.366483 0.464724
O O11 0.408022 0.496601 0.463327
O O12 0.103447 0.069863 0.250000
O O13 0.156217 0.114179 0.475023
O O14 0.093416 0.002072 0.504576
O O15 0.807364 0.819406 0.750000
O O16 0.818515 0.750000 0.000000
O O17 0.045979 0.533532 0.250000
O O18 0.000000 0.500000 0.000000
O O19 0.494817 0.250000 0.500000
O O20 0.498729 0.324853 0.250000
O O21 0.537216 0.377440 0.498430
O O22 0.460694 0.950624 0.750000
O O23 0.500000 0.000000 0.000000
#
# Coordination Sequence:
#
# PCOD9434884 Si02
#       8
#     8   8   8   8   8   8   8   8
#     4   9  17  26  38  57  79 103 131 162 193 230
#     4  10  19  29  42  59  81 109 139 173 207 239
#     4   9  18  30  43  59  80 108 140 171 203 240
#     4   9  17  29  42  57  79 106 136 168 200 235
#     4   9  18  30  42  59  82 107 138 173 206 239
#     4   9  17  28  40  57  79 103 133 165 197 235
#     4  10  19  29  42  61  84 110 139 170 204 242
#     4   9  17  29  43  59  80 106 136 170 206 244
#
# _framework density 14.018217999999999
#
# number of rings (size 3 to 8) (size 9 to 14) (size 15 to 20)
#    0.000    2.750    0.000    3.750    0.000    7.500 
#    0.000    0.000    0.000    0.000    0.000    0.000 
#    0.000    1.000    0.000    6.500    0.000    5.250 
#
# Total GULP energy -356373.741773 kJ/mol
# GULP energy per Si atom -5568.339715 kJ/mol
# Density = 1.398631 g / cm^3
# Si number density = 14.018218 Si / 1000 Ang^3
#
#
#
# Elastic Constant Matrix: (Units=GPa)
#
#
# Indices 1 2 3 4 5 6 
#
# 1 58.9874 36.4905 25.4791 0.0000 0.0000 0.0000
# 2 36.4905 92.1830 33.0860 0.0000 0.0000 0.0000
# 3 25.4791 33.0860 30.5171 0.0000 0.0000 0.0000
# 4 0.0000 0.0000 0.0000 27.3950 0.0000 0.0000
# 5 0.0000 0.0000 0.0000 0.0000 17.7172 0.0000
# 6 0.0000 0.0000 0.0000 0.0000 0.0000 26.5984
#
#
#
# Elastic Compliance Matrix: (Units=1/GPa)
#
#
# Indices 1 2 3 4 5 6 
#
# 1 0.027534 -0.004335 -0.018288 0.000000 0.000000 0.000000
# 2 -0.004335 0.018441 -0.016374 0.000000 0.000000 0.000000
# 3 -0.018288 -0.016374 0.065789 0.000000 0.000000 0.000000
# 4 0.000000 0.000000 0.000000 0.036503 0.000000 0.000000
# 5 0.000000 0.000000 0.000000 0.000000 0.056442 0.000000
# 6 0.000000 0.000000 0.000000 0.000000 0.000000 0.037596
#
#
# Mechanical properties :
#
#
# Convention : Reuss Voigt Hill
#
# Bulk Modulus (GPa) = 29.61203 41.31097 35.46150
# Shear Modulus (GPa) = 15.08035 20.11759 17.59897
#
# Velocity S-wave (km/s) = 3.28345 3.79239 3.54706
# Velocity P-wave (km/s) = 5.96192 6.97923 6.49054
#
# Compressibility (1/GPa) = 0.03377006
#
# Stress axis : x y z
#
# Youngs Moduli (GPa) = 36.31845 54.22740 15.20000
#
# Poissons Ratio (x) = 0.23510 0.27798
# Poissons Ratio (y) = 0.15745 0.24888
# Poissons Ratio (z) = 0.66420 0.88789
#
# Static dielectric constant tensor:
#      x y z
#    x 1.465130 0.000000 0.000000 
#    y 0.000000 1.475360 0.000000 
#    z 0.000000 0.000000 1.467870 
# 
# From -- ./inp_files/9806.got.cif
#   From: 2010.05.17/outbox.cif.g08.bks.cpg/sg57_5_cif.got.tgz:9806.got - 2010.06.03 13:58:18.
