data_PCOD9434590
_publ_section_title
;
Structure prediction by ZEFSAII (Michael W. Deem and Ramdas Pophale) SiO2 
 PCOD9434590
Probable space group: P B C M
;
_chemical_formula_sum "Si O2"
_cell_formula_units_Z 64
_cell_length_a 20.195819
_cell_length_b 20.499112
_cell_length_c 8.632261
_cell_angle_alpha 90.000000
_cell_angle_beta 90.000000
_cell_angle_gamma 90.000000
_cell_volume 3573.724595
_symmetry_space_group_name_H-M "P B C M"
_symmetry_group_IT_number 57
_symmetry_cell_setting 'orthorhombic'
loop_
_space_group_symop_operation_xyz
x,y,z
-x,-y,1/2+z
x,1/2-y,-z
-x,1/2+y,1/2-z
-x,-y,-z
x,y,1/2-z
-x,1/2+y,z
x,1/2-y,1/2+z
loop_
_atom_site_type_symbol
_atom_site_label
_atom_site_fract_x
_atom_site_fract_y
_atom_site_fract_z
Si Si1 0.854603 0.081013 0.935935
Si Si2 0.038075 0.820675 0.935061
Si Si3 0.525188 0.569857 0.936400
Si Si4 0.612294 0.388395 0.437996
Si Si5 0.110124 0.180457 0.563852
Si Si6 0.194791 0.446115 0.064526
Si Si7 0.341076 0.034621 0.435619
Si Si8 0.739839 0.318929 0.436148
O O1 0.859024 0.078971 0.750000
O O2 0.789468 0.123052 0.979385
O O3 0.916158 0.121235 0.002903
O O4 0.844645 0.008530 0.999522
O O5 0.039658 0.818538 0.750000
O O6 0.060757 0.750000 0.000000
O O7 0.963051 0.829802 0.994029
O O8 0.528510 0.567623 0.750000
O O9 0.464567 0.617229 0.984172
O O10 0.500000 0.500000 0.000000
O O11 0.598348 0.578922 0.003600
O O12 0.612969 0.387104 0.250000
O O13 0.640064 0.460094 0.482083
O O14 0.665910 0.336296 0.493201
O O15 0.134449 0.250000 0.500000
O O16 0.104606 0.183808 0.750000
O O17 0.157521 0.120614 0.521413
O O18 0.196634 0.450480 0.250000
O O19 0.269484 0.447966 0.000832
O O20 0.339436 0.036527 0.250000
O O21 0.762667 0.250000 0.500000
O O22 0.739220 0.315811 0.250000
#
# Coordination Sequence:
#
# PCOD9434590 Si02
#       8
#     8   8   8   8   8   8   8   8
#     4  11  22  37  57  80 113 151 188 231 280 332
#     4  11  22  38  60  84 113 149 191 233 274 328
#     4   9  16  27  47  73 101 135 176 224 273 323
#     4   8  15  30  48  69 101 138 177 221 269 318
#     4  10  22  41  63  86 111 141 180 226 278 341
#     4  11  23  37  57  86 116 143 180 231 283 334
#     4  10  18  32  52  76 108 143 177 220 275 331
#     4  10  20  34  50  73 105 147 189 226 271 325
#
# _framework density 17.908486
#
# number of rings (size 3 to 8) (size 9 to 14) (size 15 to 20)
#    0.000    2.000    1.250    4.875    0.000    4.500 
#    0.000    1.250    0.000    0.750    0.000    1.750 
#    0.000    0.000    0.000    0.000    0.000    0.000 
#
# Total GULP energy -357074.523677 kJ/mol
# GULP energy per Si atom -5579.289432 kJ/mol
# Density = 1.786773 g / cm^3
# Si number density = 17.908486 Si / 1000 Ang^3
#
#
#
# Elastic Constant Matrix: (Units=GPa)
#
#
# Indices 1 2 3 4 5 6 
#
# 1 115.1931 72.4508 43.3319 0.0000 0.0000 0.0000
# 2 72.4508 114.6223 43.6285 0.0000 0.0000 0.0000
# 3 43.3319 43.6285 61.1760 0.0000 0.0000 0.0000
# 4 0.0000 0.0000 0.0000 23.5108 0.0000 0.0000
# 5 0.0000 0.0000 0.0000 0.0000 27.0897 0.0000
# 6 0.0000 0.0000 0.0000 0.0000 0.0000 18.5423
#
#
#
# Elastic Compliance Matrix: (Units=1/GPa)
#
#
# Indices 1 2 3 4 5 6 
#
# 1 0.015667 -0.007795 -0.005538 0.000000 0.000000 0.000000
# 2 -0.007795 0.015853 -0.005785 0.000000 0.000000 0.000000
# 3 -0.005538 -0.005785 0.024394 0.000000 0.000000 0.000000
# 4 0.000000 0.000000 0.000000 0.042534 0.000000 0.000000
# 5 0.000000 0.000000 0.000000 0.000000 0.036914 0.000000
# 6 0.000000 0.000000 0.000000 0.000000 0.000000 0.053931
#
#
# Mechanical properties :
#
#
# Convention : Reuss Voigt Hill
#
# Bulk Modulus (GPa) = 56.56358 67.75708 62.16033
# Shear Modulus (GPa) = 21.42048 22.60057 22.01052
#
# Velocity S-wave (km/s) = 3.46223 3.55632 3.50959
# Velocity P-wave (km/s) = 6.90189 7.40139 7.15600
#
# Compressibility (1/GPa) = 0.01767922
#
# Stress axis : x y z
#
# Youngs Moduli (GPa) = 63.82887 63.07934 40.99293
#
# Poissons Ratio (x) = 0.49169 0.22703
# Poissons Ratio (y) = 0.49753 0.23713
# Poissons Ratio (z) = 0.35349 0.36489
#
# Static dielectric constant tensor:
#      x y z
#    x 1.638020 0.000000 0.000000 
#    y 0.000000 1.595600 0.000000 
#    z 0.000000 0.000000 1.601750 
# 
# From -- ./inp_files/7194.got.cif
#   From: 2010.05.17/outbox.cif.g08.bks.cpg/sg57_4_cif.got.tgz:7194.got - 2010.06.03 13:58:18.
