data_PCOD9434547
_publ_section_title
;
Structure prediction by ZEFSAII (Michael W. Deem and Ramdas Pophale) SiO2 
 PCOD9434547
Probable space group: P B C M
;
_chemical_formula_sum "Si O2"
_cell_formula_units_Z 56
_cell_length_a 19.590750
_cell_length_b 18.438289
_cell_length_c 8.940974
_cell_angle_alpha 90.000000
_cell_angle_beta 90.000000
_cell_angle_gamma 90.000000
_cell_volume 3229.657826
_symmetry_space_group_name_H-M "P B C M"
_symmetry_group_IT_number 57
_symmetry_cell_setting 'orthorhombic'
loop_
_space_group_symop_operation_xyz
x,y,z
-x,-y,1/2+z
x,1/2-y,-z
-x,1/2+y,1/2-z
-x,-y,-z
x,y,1/2-z
-x,1/2+y,z
x,1/2-y,1/2+z
loop_
_atom_site_type_symbol
_atom_site_label
_atom_site_fract_x
_atom_site_fract_y
_atom_site_fract_z
Si Si1 0.773639 0.606355 0.070953
Si Si2 0.357166 0.325179 0.429404
Si Si3 0.925129 0.580604 0.428797
Si Si4 0.805552 0.327544 0.571853
Si Si5 0.570127 0.974658 0.071309
Si Si6 0.713582 0.036939 0.070847
Si Si7 0.067412 0.591438 0.572206
O O1 0.766881 0.612339 0.250000
O O2 0.853045 0.616998 0.030933
O O3 0.718665 0.657367 0.990832
O O4 0.753464 0.525375 0.018298
O O5 0.381153 0.250000 0.500000
O O6 0.355284 0.321015 0.250000
O O7 0.404238 0.394001 0.472757
O O8 0.935189 0.587464 0.250000
O O9 0.920082 0.494094 0.461413
O O10 0.991569 0.608822 0.513823
O O11 0.792268 0.250000 0.500000
O O12 0.810975 0.320782 0.750000
O O13 0.746064 0.385565 0.537776
O O14 0.875396 0.361143 0.507875
O O15 0.562365 0.974470 0.250000
O O16 0.633853 0.027239 0.034360
O O17 0.500000 0.000000 0.000000
O O18 0.721183 0.022741 0.250000
O O19 0.071770 0.600995 0.750000
#
# Coordination Sequence:
#
# PCOD9434547 Si02
#       7
#     8   8   8   8   8   8   8
#     4  10  18  31  54  81 108 138 176 222 267 318
#     4  10  21  37  56  82 114 146 181 219 267 323
#     4   9  18  31  49  76 105 135 175 223 270 322
#     4  11  22  36  54  74 104 143 182 229 280 325
#     4   9  19  36  58  85 113 141 177 217 260 313
#     4   9  19  35  54  77 106 139 178 222 264 316
#     4  10  19  32  50  74 103 136 179 226 271 323
#
# _framework density 17.339299
#
# number of rings (size 3 to 8) (size 9 to 14) (size 15 to 20)
#    0.000    2.286    1.429    2.571    0.000    5.143 
#    0.000    1.429    0.000    6.857    0.000    0.000 
#    0.000    0.000    0.000    0.000    0.000    0.000 
#
# Total GULP energy -312443.628188 kJ/mol
# GULP energy per Si atom -5579.350503 kJ/mol
# Density = 1.729983 g / cm^3
# Si number density = 17.339299 Si / 1000 Ang^3
#
#
#
# Elastic Constant Matrix: (Units=GPa)
#
#
# Indices 1 2 3 4 5 6 
#
# 1 146.6237 62.5265 46.9623 0.0000 0.0000 0.0000
# 2 62.5265 101.5603 44.5357 0.0000 0.0000 0.0000
# 3 46.9623 44.5357 43.3019 0.0000 0.0000 0.0000
# 4 0.0000 0.0000 0.0000 28.9319 0.0000 0.0000
# 5 0.0000 0.0000 0.0000 0.0000 31.1965 0.0000
# 6 0.0000 0.0000 0.0000 0.0000 0.0000 14.1182
#
#
#
# Elastic Compliance Matrix: (Units=1/GPa)
#
#
# Indices 1 2 3 4 5 6 
#
# 1 0.010862 -0.002772 -0.008930 0.000000 0.000000 0.000000
# 2 -0.002772 0.018643 -0.016168 0.000000 0.000000 0.000000
# 3 -0.008930 -0.016168 0.049407 0.000000 0.000000 0.000000
# 4 0.000000 0.000000 0.000000 0.034564 0.000000 0.000000
# 5 0.000000 0.000000 0.000000 0.000000 0.032055 0.000000
# 6 0.000000 0.000000 0.000000 0.000000 0.000000 0.070831
#
#
# Mechanical properties :
#
#
# Convention : Reuss Voigt Hill
#
# Bulk Modulus (GPa) = 43.15348 66.61498 54.88423
# Shear Modulus (GPa) = 17.86831 24.01341 20.94086
#
# Velocity S-wave (km/s) = 3.21364 3.72548 3.47898
# Velocity P-wave (km/s) = 6.22187 7.55033 6.91806
#
# Compressibility (1/GPa) = 0.02317310
#
# Stress axis : x y z
#
# Youngs Moduli (GPa) = 92.06184 53.64066 20.23994
#
# Poissons Ratio (x) = 0.14867 0.18074
# Poissons Ratio (y) = 0.25515 0.32724
# Poissons Ratio (z) = 0.82211 0.86726
#
# Static dielectric constant tensor:
#      x y z
#    x 1.580780 0.000000 0.000000 
#    y 0.000000 1.586730 0.000000 
#    z 0.000000 0.000000 1.581200 
# 
# From -- ./inp_files/8359.got.cif
#   From: 2010.05.17/outbox.cif.g08.bks.cpg/sg57_5_cif.got.tgz:8359.got - 2010.06.03 13:58:18.
