data_PCOD9434227
_publ_section_title
;
Structure prediction by ZEFSAII (Michael W. Deem and Ramdas Pophale) SiO2 
 PCOD9434227
Probable space group: P B C M
;
_chemical_formula_sum "Si O2"
_cell_formula_units_Z 64
_cell_length_a 17.367744
_cell_length_b 24.825576
_cell_length_c 8.393319
_cell_angle_alpha 90.000000
_cell_angle_beta 90.000000
_cell_angle_gamma 90.000000
_cell_volume 3618.899080
_symmetry_space_group_name_H-M "P B C M"
_symmetry_group_IT_number 57
_symmetry_cell_setting 'orthorhombic'
loop_
_space_group_symop_operation_xyz
x,y,z
-x,-y,1/2+z
x,1/2-y,-z
-x,1/2+y,1/2-z
-x,-y,-z
x,y,1/2-z
-x,1/2+y,z
x,1/2-y,1/2+z
loop_
_atom_site_type_symbol
_atom_site_label
_atom_site_fract_x
_atom_site_fract_y
_atom_site_fract_z
Si Si1 0.177885 0.027293 0.055861
Si Si2 0.114523 0.190209 0.939387
Si Si3 0.146675 0.588620 0.941053
Si Si4 0.244173 0.688645 0.557350
Si Si5 0.265741 0.367201 0.556470
Si Si6 0.584599 0.188454 0.559729
Si Si7 0.974830 0.588642 0.438818
Si Si8 0.422497 0.311737 0.559785
O O1 0.177464 0.027374 0.250000
O O2 0.239814 0.072511 0.007632
O O3 0.093261 0.048599 0.005020
O O4 0.188401 0.966061 0.001501
O O5 0.105367 0.186808 0.750000
O O6 0.099815 0.250000 0.000000
O O7 0.200686 0.172278 0.987602
O O8 0.058238 0.147693 0.022997
O O9 0.154600 0.590061 0.750000
O O10 0.183058 0.644473 0.001466
O O11 0.057076 0.582392 0.980916
O O12 0.232122 0.750000 0.500000
O O13 0.241920 0.690679 0.750000
O O14 0.330472 0.668864 0.511019
O O15 0.261621 0.364607 0.750000
O O16 0.349813 0.347249 0.506174
O O17 0.583704 0.250000 0.500000
O O18 0.580559 0.187447 0.750000
O O19 0.505032 0.164953 0.494202
O O20 0.983545 0.581630 0.250000
O O21 0.414366 0.250000 0.500000
O O22 0.422129 0.309594 0.750000
#
# Coordination Sequence:
#
# PCOD9434227 Si02
#       8
#     8   8   8   8   8   8   8   8
#     4   8  16  32  52  70  93 124 159 200 239 280
#     4  11  21  33  49  69  96 131 164 195 236 284
#     4  10  19  33  53  74  93 120 161 202 242 288
#     4   9  19  33  50  72  97 124 154 192 239 288
#     4   9  18  32  48  70  98 127 160 197 237 280
#     4   9  16  28  45  66  93 123 155 191 232 277
#     4  10  20  34  50  71  97 125 159 200 244 285
#     4  10  18  27  44  70  98 126 157 191 230 279
#
# _framework density 17.684937000000001
#
# number of rings (size 3 to 8) (size 9 to 14) (size 15 to 20)
#    0.000    2.500    0.000    4.500    0.000    3.500 
#    0.000    3.750    0.000    0.750    0.000    0.000 
#    0.000    0.000    0.000    0.000    0.000    2.625 
#
# Total GULP energy -356694.289947 kJ/mol
# GULP energy per Si atom -5573.348280 kJ/mol
# Density = 1.764469 g / cm^3
# Si number density = 17.684937 Si / 1000 Ang^3
#
#
#
# Elastic Constant Matrix: (Units=GPa)
#
#
# Indices 1 2 3 4 5 6 
#
# 1 73.6518 46.2141 13.9912 0.0000 0.0000 0.0000
# 2 46.2141 107.7181 6.9657 0.0000 0.0000 0.0000
# 3 13.9912 6.9657 12.1114 0.0000 0.0000 0.0000
# 4 0.0000 0.0000 0.0000 12.7859 0.0000 0.0000
# 5 0.0000 0.0000 0.0000 0.0000 37.5967 0.0000
# 6 0.0000 0.0000 0.0000 0.0000 0.0000 27.6847
#
#
#
# Elastic Compliance Matrix: (Units=1/GPa)
#
#
# Indices 1 2 3 4 5 6 
#
# 1 0.023019 -0.008471 -0.021719 0.000000 0.000000 0.000000
# 2 -0.008471 0.012760 0.002447 0.000000 0.000000 0.000000
# 3 -0.021719 0.002447 0.106250 0.000000 0.000000 0.000000
# 4 0.000000 0.000000 0.000000 0.078211 0.000000 0.000000
# 5 0.000000 0.000000 0.000000 0.000000 0.026598 0.000000
# 6 0.000000 0.000000 0.000000 0.000000 0.000000 0.036121
#
#
# Mechanical properties :
#
#
# Convention : Reuss Voigt Hill
#
# Bulk Modulus (GPa) = 11.55508 36.42481 23.98995
# Shear Modulus (GPa) = 13.61315 24.03414 18.82365
#
# Velocity S-wave (km/s) = 2.77746 3.69049 3.26604
# Velocity P-wave (km/s) = 4.10290 6.22903 5.27421
#
# Compressibility (1/GPa) = 0.08654201
#
# Stress axis : x y z
#
# Youngs Moduli (GPa) = 43.44301 78.37245 9.41178
#
# Poissons Ratio (x) = 0.66390 0.20442
# Poissons Ratio (y) = 0.36801 -0.02303
# Poissons Ratio (z) = 0.94355 -0.19181
#
# Static dielectric constant tensor:
#      x y z
#    x 1.624410 0.000000 0.000000 
#    y 0.000000 1.630540 0.000000 
#    z 0.000000 0.000000 1.626570 
# 
# From -- ./inp_files/7449.got.cif
#   From: 2010.05.17/outbox.cif.g08.bks.cpg/sg57_4_cif.got.tgz:7449.got - 2010.06.03 13:58:18.
