data_PCOD9434349
_publ_section_title
;
Structure prediction by ZEFSAII (Michael W. Deem and Ramdas Pophale) SiO2 
 PCOD9434349
Probable space group: P B C M
;
_chemical_formula_sum "Si O2"
_cell_formula_units_Z 64
_cell_length_a 17.232982
_cell_length_b 24.487231
_cell_length_c 8.709281
_cell_angle_alpha 90.000000
_cell_angle_beta 90.000000
_cell_angle_gamma 90.000000
_cell_volume 3675.212167
_symmetry_space_group_name_H-M "P B C M"
_symmetry_group_IT_number 57
_symmetry_cell_setting 'orthorhombic'
loop_
_space_group_symop_operation_xyz
x,y,z
-x,-y,1/2+z
x,1/2-y,-z
-x,1/2+y,1/2-z
-x,-y,-z
x,y,1/2-z
-x,1/2+y,z
x,1/2-y,1/2+z
loop_
_atom_site_type_symbol
_atom_site_label
_atom_site_fract_x
_atom_site_fract_y
_atom_site_fract_z
Si Si1 0.577229 0.811901 0.065057
Si Si2 0.034640 0.091661 0.064773
Si Si3 0.815952 0.978162 0.934334
Si Si4 0.235203 0.688601 0.934465
Si Si5 0.874321 0.690690 0.567124
Si Si6 0.274230 0.129398 0.065538
Si Si7 0.142957 0.910995 0.566770
Si Si8 0.593424 0.311022 0.065566
O O1 0.582599 0.809193 0.250000
O O2 0.490993 0.833764 0.020666
O O3 0.585778 0.750000 0.000000
O O4 0.644487 0.850108 0.999790
O O5 0.038688 0.096940 0.250000
O O6 0.100379 0.047732 0.020334
O O7 0.946743 0.078823 0.020642
O O8 0.061287 0.148081 0.989300
O O9 0.815156 0.983979 0.750000
O O10 0.752276 0.932244 0.976057
O O11 0.808310 0.037098 0.009184
O O12 0.231089 0.691421 0.750000
O O13 0.321950 0.667053 0.980206
O O14 0.225491 0.750000 0.000000
O O15 0.173814 0.645350 0.996880
O O16 0.890026 0.750000 0.500000
O O17 0.870390 0.692193 0.750000
O O18 0.793010 0.668490 0.500174
O O19 0.273909 0.133302 0.250000
O O20 0.146193 0.907591 0.750000
O O21 0.593486 0.309024 0.250000
O O22 0.592901 0.250000 0.000000
#
# Coordination Sequence:
#
# PCOD9434349 Si02
#       8
#     8   8   8   8   8   8   8   8
#     4  10  18  29  48  76 106 135 170 208 248 296
#     4   9  20  37  53  73 101 131 166 210 256 300
#     4   9  19  36  55  73  98 132 168 208 252 296
#     4  10  20  36  56  78 106 136 167 205 252 302
#     4  11  21  33  50  71  99 136 172 207 250 299
#     4  10  20  34  50  72 103 136 170 208 250 295
#     4  11  22  35  55  80 103 129 165 208 252 302
#     4   8  16  30  49  73 101 133 166 204 248 294
#
# _framework density 17.413962000000001
#
# number of rings (size 3 to 8) (size 9 to 14) (size 15 to 20)
#    0.000    2.250    0.000    4.125    0.000    5.000 
#    0.000    0.000    0.000    0.750    0.000    0.000 
#    0.000    0.000    0.000    0.000    0.000    0.000 
#
# Total GULP energy -356863.058751 kJ/mol
# GULP energy per Si atom -5575.985293 kJ/mol
# Density = 1.737433 g / cm^3
# Si number density = 17.413962 Si / 1000 Ang^3
#
#
#
# Elastic Constant Matrix: (Units=GPa)
#
#
# Indices 1 2 3 4 5 6 
#
# 1 64.9560 24.6022 16.3844 0.0000 0.0000 0.0000
# 2 24.6022 95.5267 25.7970 0.0000 0.0000 0.0000
# 3 16.3844 25.7970 29.0321 0.0000 0.0000 0.0000
# 4 0.0000 0.0000 0.0000 27.9968 0.0000 0.0000
# 5 0.0000 0.0000 0.0000 0.0000 5.0238 0.0000
# 6 0.0000 0.0000 0.0000 0.0000 0.0000 15.0951
#
#
#
# Elastic Compliance Matrix: (Units=1/GPa)
#
#
# Indices 1 2 3 4 5 6 
#
# 1 0.018409 -0.002547 -0.008127 0.000000 0.000000 0.000000
# 2 -0.002547 0.014126 -0.011114 0.000000 0.000000 0.000000
# 3 -0.008127 -0.011114 0.048907 0.000000 0.000000 0.000000
# 4 0.000000 0.000000 0.000000 0.035718 0.000000 0.000000
# 5 0.000000 0.000000 0.000000 0.000000 0.199051 0.000000
# 6 0.000000 0.000000 0.000000 0.000000 0.000000 0.066247
#
#
# Mechanical properties :
#
#
# Convention : Reuss Voigt Hill
#
# Bulk Modulus (GPa) = 26.40843 35.89799 31.15321
# Shear Modulus (GPa) = 11.39849 17.80524 14.60187
#
# Velocity S-wave (km/s) = 2.56121 3.20108 2.89885
# Velocity P-wave (km/s) = 4.89330 5.85848 5.39751
#
# Compressibility (1/GPa) = 0.03786670
#
# Stress axis : x y z
#
# Youngs Moduli (GPa) = 54.32007 70.79355 20.44703
#
# Poissons Ratio (x) = 0.18028 0.16616
# Poissons Ratio (y) = 0.13833 0.22726
# Poissons Ratio (z) = 0.44144 0.78683
#
# Static dielectric constant tensor:
#      x y z
#    x 1.625040 0.000000 0.000000 
#    y 0.000000 1.558460 0.000000 
#    z 0.000000 0.000000 1.582520 
# 
# From -- ./inp_files/7410.got.cif
#   From: 2010.05.17/outbox.cif.g08.bks.cpg/sg57_4_cif.got.tgz:7410.got - 2010.06.03 13:58:18.
