data_PCOD9434115
_publ_section_title
;
Structure prediction by ZEFSAII (Michael W. Deem and Ramdas Pophale) SiO2 
 PCOD9434115
Probable space group: P B C M
;
_chemical_formula_sum "Si O2"
_cell_formula_units_Z 52
_cell_length_a 5.492611
_cell_length_b 13.624516
_cell_length_c 28.999484
_cell_angle_alpha 90.000000
_cell_angle_beta 90.000000
_cell_angle_gamma 90.000000
_cell_volume 2170.152213
_symmetry_space_group_name_H-M "P B C M"
_symmetry_group_IT_number 57
_symmetry_cell_setting 'orthorhombic'
loop_
_space_group_symop_operation_xyz
x,y,z
-x,-y,1/2+z
x,1/2-y,-z
-x,1/2+y,1/2-z
-x,-y,-z
x,y,1/2-z
-x,1/2+y,z
x,1/2-y,1/2+z
loop_
_atom_site_type_symbol
_atom_site_label
_atom_site_fract_x
_atom_site_fract_y
_atom_site_fract_z
Si Si1 0.353912 0.764319 0.352580
Si Si2 0.160853 0.030594 0.152090
Si Si3 0.854457 0.740261 0.100589
Si Si4 0.335208 0.967115 0.626655
Si Si5 0.171658 0.129786 0.250000
Si Si6 0.668983 0.245900 0.750000
Si Si7 0.747100 0.452376 0.982234
Si Si8 0.040872 0.750000 0.500000
O O1 0.605587 0.783826 0.379202
O O2 0.352224 0.642217 0.350059
O O3 0.334820 0.804329 0.300373
O O4 0.106422 0.784483 0.380206
O O5 0.147635 0.127280 0.118712
O O6 0.408818 0.981077 0.136097
O O7 0.181074 0.066067 0.204124
O O8 0.900591 0.980688 0.147107
O O9 0.875357 0.745779 0.045657
O O10 0.283493 0.954766 0.572763
O O11 0.412778 0.196139 0.250000
O O12 0.919516 0.191012 0.250000
O O13 0.782019 0.342424 0.999151
O O14 0.500000 0.500000 0.000000
O O15 0.000000 0.500000 0.000000
#
# Coordination Sequence:
#
# PCOD9434115 Si02
#       8
#     8   8   8   8   4   4   8   4
#     4  10  18  31  50  84 121 162 207 267 331 385
#     4  10  17  30  50  83 121 162 205 266 333 381
#     4  10  20  32  54  82 114 169 211 253 333 377
#     4  10  18  35  53  76 122 163 198 272 321 365
#     4  12  16  24  46  80 124 158 200 266 324 404
#     4  12  16  26  46  78 126 158 198 270 326 396
#     4  12  28  45  67  99 130 176 239 277 343 414
#     4  12  26  46  72  92 138 188 222 294 340 398
#
# _framework density 23.961452999999999
#
# number of rings (size 3 to 8) (size 9 to 14) (size 15 to 20)
#    0.000    1.231    9.231    0.923    2.154    2.462 
#    0.000    0.000    0.000    0.000    0.000    0.000 
#    0.000   41.846    0.000    0.000    0.000    0.000 
#
# Total GULP energy -290899.127955 kJ/mol
# GULP energy per Si atom -5594.213999 kJ/mol
# Density = 2.390692 g / cm^3
# Si number density = 23.961453 Si / 1000 Ang^3
#
#
#
# Elastic Constant Matrix: (Units=GPa)
#
#
# Indices 1 2 3 4 5 6 
#
# 1 257.4139 60.3213 60.3398 0.0000 0.0000 0.0000
# 2 60.3213 68.1840 35.2400 0.0000 0.0000 0.0000
# 3 60.3398 35.2400 196.5881 0.0000 0.0000 0.0000
# 4 0.0000 0.0000 0.0000 8.4743 0.0000 0.0000
# 5 0.0000 0.0000 0.0000 0.0000 39.6545 0.0000
# 6 0.0000 0.0000 0.0000 0.0000 0.0000 23.4601
#
#
#
# Elastic Compliance Matrix: (Units=1/GPa)
#
#
# Indices 1 2 3 4 5 6 
#
# 1 0.005018 -0.004015 -0.000820 0.000000 0.000000 0.000000
# 2 -0.004015 0.019377 -0.002241 0.000000 0.000000 0.000000
# 3 -0.000820 -0.002241 0.005740 0.000000 0.000000 0.000000
# 4 0.000000 0.000000 0.000000 0.118004 0.000000 0.000000
# 5 0.000000 0.000000 0.000000 0.000000 0.025218 0.000000
# 6 0.000000 0.000000 0.000000 0.000000 0.000000 0.042626
#
#
# Mechanical properties :
#
#
# Convention : Reuss Voigt Hill
#
# Bulk Modulus (GPa) = 62.57210 92.66533 77.61872
# Shear Modulus (GPa) = 21.23472 38.73677 29.98575
#
# Velocity S-wave (km/s) = 2.98015 4.02509 3.54137
# Velocity P-wave (km/s) = 6.16539 7.76907 7.01322
#
# Compressibility (1/GPa) = 0.01598156
#
# Stress axis : x y z
#
# Youngs Moduli (GPa) = 199.28051 51.60828 174.20657
#
# Poissons Ratio (x) = 0.20723 0.14292
# Poissons Ratio (y) = 0.80018 0.39039
# Poissons Ratio (z) = 0.16350 0.11565
#
# Static dielectric constant tensor:
#      x y z
#    x 1.915580 0.000000 0.000000 
#    y 0.000000 2.135050 0.000000 
#    z 0.000000 0.000000 1.837120 
# 
# From -- ./inp_files/28062.got.cif
#   From: 2010.05.17/outbox.cif.g08.bks.cpg/sg57_15_cif.got.tgz:28062.got - 2010.06.03 13:58:18.
