data_PCOD9434909
_publ_section_title
;
Structure prediction by ZEFSAII (Michael W. Deem and Ramdas Pophale) SiO2 
 PCOD9434909
Probable space group: P B C M
;
_chemical_formula_sum "Si O2"
_cell_formula_units_Z 56
_cell_length_a 16.985098
_cell_length_b 22.073059
_cell_length_c 9.431021
_cell_angle_alpha 90.000000
_cell_angle_beta 90.000000
_cell_angle_gamma 90.000000
_cell_volume 3535.813039
_symmetry_space_group_name_H-M "P B C M"
_symmetry_group_IT_number 57
_symmetry_cell_setting 'orthorhombic'
loop_
_space_group_symop_operation_xyz
x,y,z
-x,-y,1/2+z
x,1/2-y,-z
-x,1/2+y,1/2-z
-x,-y,-z
x,y,1/2-z
-x,1/2+y,z
x,1/2-y,1/2+z
loop_
_atom_site_type_symbol
_atom_site_label
_atom_site_fract_x
_atom_site_fract_y
_atom_site_fract_z
Si Si1 0.913806 0.306330 0.588374
Si Si2 0.580543 0.310637 0.078384
Si Si3 0.116402 0.464640 0.909557
Si Si4 0.450143 0.950193 0.415654
Si Si5 0.735722 0.459560 0.414615
Si Si6 0.263391 0.841210 0.586941
Si Si7 0.986660 0.411997 0.089848
O O1 0.944050 0.250000 0.500000
O O2 0.939432 0.303987 0.750000
O O3 0.818736 0.306313 0.585985
O O4 0.943629 0.366416 0.513877
O O5 0.580247 0.303789 0.250000
O O6 0.544379 0.377961 0.044352
O O7 0.547691 0.250000 0.000000
O O8 0.669539 0.316758 0.017943
O O9 0.110659 0.438642 0.750000
O O10 0.206370 0.483957 0.937164
O O11 0.065332 0.526767 0.908014
O O12 0.072942 0.425301 0.027221
O O13 0.471539 0.953377 0.250000
O O14 0.357796 0.968224 0.428254
O O15 0.500000 0.000000 0.500000
O O16 0.749932 0.439256 0.250000
O O17 0.756100 0.407810 0.527032
O O18 0.292610 0.842777 0.750000
O O19 0.989673 0.388730 0.250000
#
# Coordination Sequence:
#
# PCOD9434909 Si02
#       7
#     8   8   8   8   8   8   8
#     4  11  22  32  43  61  89 124 162 198 236 282
#     4  10  20  33  49  70  97 130 166 201 239 290
#     4   9  17  30  48  67  91 121 152 193 237 277
#     4   9  19  33  50  73 102 132 163 200 245 296
#     4   9  17  31  49  69  95 128 161 196 238 285
#     4  10  19  29  44  67  94 126 162 198 232 277
#     4  10  19  30  46  66  90 120 155 195 237 276
#
# _framework density 15.837942
#
# number of rings (size 3 to 8) (size 9 to 14) (size 15 to 20)
#    0.000    2.286    1.429    3.000    0.000    6.857 
#    0.000    0.000    0.000    0.000    0.000    1.000 
#    0.000    2.286    0.000    0.000    0.000    0.000 
#
# Total GULP energy -311806.149655 kJ/mol
# GULP energy per Si atom -5567.966958 kJ/mol
# Density = 1.580189 g / cm^3
# Si number density = 15.837942 Si / 1000 Ang^3
#
#
#
# Elastic Constant Matrix: (Units=GPa)
#
#
# Indices 1 2 3 4 5 6 
#
# 1 40.1913 25.9773 27.2424 0.0000 0.0000 0.0000
# 2 25.9773 62.5435 45.4870 0.0000 0.0000 0.0000
# 3 27.2424 45.4870 105.1809 0.0000 0.0000 0.0000
# 4 0.0000 0.0000 0.0000 25.4419 0.0000 0.0000
# 5 0.0000 0.0000 0.0000 0.0000 20.0871 0.0000
# 6 0.0000 0.0000 0.0000 0.0000 0.0000 13.2083
#
#
#
# Elastic Compliance Matrix: (Units=1/GPa)
#
#
# Indices 1 2 3 4 5 6 
#
# 1 0.035168 -0.011645 -0.004073 0.000000 0.000000 0.000000
# 2 -0.011645 0.027181 -0.008739 0.000000 0.000000 0.000000
# 3 -0.004073 -0.008739 0.014341 0.000000 0.000000 0.000000
# 4 0.000000 0.000000 0.000000 0.039305 0.000000 0.000000
# 5 0.000000 0.000000 0.000000 0.000000 0.049783 0.000000
# 6 0.000000 0.000000 0.000000 0.000000 0.000000 0.075710
#
#
# Mechanical properties :
#
#
# Convention : Reuss Voigt Hill
#
# Bulk Modulus (GPa) = 35.99983 45.03658 40.51820
# Shear Modulus (GPa) = 16.68550 19.02807 17.85678
#
# Velocity S-wave (km/s) = 3.24931 3.46992 3.36142
# Velocity P-wave (km/s) = 6.07098 6.67468 6.37998
#
# Compressibility (1/GPa) = 0.02777791
#
# Stress axis : x y z
#
# Youngs Moduli (GPa) = 28.43471 36.79013 69.72781
#
# Poissons Ratio (x) = 0.42842 0.28398
# Poissons Ratio (y) = 0.33112 0.60934
# Poissons Ratio (z) = 0.11581 0.32150
#
# Static dielectric constant tensor:
#      x y z
#    x 1.524360 0.000000 0.000000 
#    y 0.000000 1.563630 0.000000 
#    z 0.000000 0.000000 1.551120 
# 
# From -- ./inp_files/7019.got.cif
#   From: 2010.05.17/outbox.cif.g08.bks.cpg/sg57_4_cif.got.tgz:7019.got - 2010.06.03 13:58:18.
