data_PCOD9434984
_publ_section_title
;
Structure prediction by ZEFSAII (Michael W. Deem and Ramdas Pophale) SiO2 
 PCOD9434984
Probable space group: P B C M
;
_chemical_formula_sum "Si O2"
_cell_formula_units_Z 56
_cell_length_a 16.249549
_cell_length_b 24.868905
_cell_length_c 9.028436
_cell_angle_alpha 90.000000
_cell_angle_beta 90.000000
_cell_angle_gamma 90.000000
_cell_volume 3648.467642
_symmetry_space_group_name_H-M "P B C M"
_symmetry_group_IT_number 57
_symmetry_cell_setting 'orthorhombic'
loop_
_space_group_symop_operation_xyz
x,y,z
-x,-y,1/2+z
x,1/2-y,-z
-x,1/2+y,1/2-z
-x,-y,-z
x,y,1/2-z
-x,1/2+y,z
x,1/2-y,1/2+z
loop_
_atom_site_type_symbol
_atom_site_label
_atom_site_fract_x
_atom_site_fract_y
_atom_site_fract_z
Si Si1 0.072425 0.693204 0.572875
Si Si2 0.972098 0.084222 0.074879
Si Si3 0.696587 0.979155 0.426525
Si Si4 0.266847 0.693965 0.925505
Si Si5 0.537580 0.946170 0.572447
Si Si6 0.130306 0.008496 0.425110
Si Si7 0.631021 0.399493 0.574830
O O1 0.047972 0.750000 0.500000
O O2 0.061618 0.694963 0.750000
O O3 0.027657 0.642073 0.501997
O O4 0.169989 0.685499 0.540570
O O5 0.955380 0.089386 0.250000
O O6 0.058159 0.052571 0.056253
O O7 0.903322 0.046133 0.999968
O O8 0.698042 0.971176 0.250000
O O9 0.627457 0.941456 0.501363
O O10 0.785892 0.973105 0.497938
O O11 0.668288 0.041102 0.454237
O O12 0.274885 0.698406 0.750000
O O13 0.291977 0.750000 0.000000
O O14 0.320244 0.644963 0.985363
O O15 0.543246 0.952469 0.750000
O O16 0.466775 0.902267 0.541822
O O17 0.500000 0.000000 0.500000
O O18 0.142918 0.999653 0.250000
O O19 0.640763 0.389393 0.750000
#
# Coordination Sequence:
#
# PCOD9434984 Si02
#       7
#     8   8   8   8   8   8   8
#     4  10  20  33  49  69  93 123 158 195 235 277
#     4  10  20  33  48  68  95 125 158 195 235 281
#     4  10  19  30  46  68  93 122 154 189 228 270
#     4  10  20  31  45  65  89 118 151 186 222 264
#     4   9  17  29  44  64  91 120 150 184 220 262
#     4  10  20  32  47  68  95 127 159 193 235 282
#     4   9  18  30  44  64  91 121 150 183 223 263
#
# _framework density 15.348909000000001
#
# number of rings (size 3 to 8) (size 9 to 14) (size 15 to 20)
#    0.000    2.286    0.000    4.286    0.000    9.143 
#    0.000    0.000    0.000    0.000    0.000    1.000 
#    0.000    0.000    0.000    0.000    0.000    0.000 
#
# Total GULP energy -312319.074993 kJ/mol
# GULP energy per Si atom -5577.126339 kJ/mol
# Density = 1.531397 g / cm^3
# Si number density = 15.348909 Si / 1000 Ang^3
#
#
#
# Elastic Constant Matrix: (Units=GPa)
#
#
# Indices 1 2 3 4 5 6 
#
# 1 61.4386 12.8526 39.6303 0.0000 0.0000 0.0000
# 2 12.8526 71.7940 43.2183 0.0000 0.0000 0.0000
# 3 39.6303 43.2183 72.1547 0.0000 0.0000 0.0000
# 4 0.0000 0.0000 0.0000 28.2317 0.0000 0.0000
# 5 0.0000 0.0000 0.0000 0.0000 27.9086 0.0000
# 6 0.0000 0.0000 0.0000 0.0000 0.0000 18.1179
#
#
#
# Elastic Compliance Matrix: (Units=1/GPa)
#
#
# Indices 1 2 3 4 5 6 
#
# 1 0.026960 0.006392 -0.018637 0.000000 0.000000 0.000000
# 2 0.006392 0.023298 -0.017466 0.000000 0.000000 0.000000
# 3 -0.018637 -0.017466 0.034557 0.000000 0.000000 0.000000
# 4 0.000000 0.000000 0.000000 0.035421 0.000000 0.000000
# 5 0.000000 0.000000 0.000000 0.000000 0.035831 0.000000
# 6 0.000000 0.000000 0.000000 0.000000 0.000000 0.055194
#
#
# Mechanical properties :
#
#
# Convention : Reuss Voigt Hill
#
# Bulk Modulus (GPa) = 39.37762 44.08774 41.73268
# Shear Modulus (GPa) = 17.91170 22.16406 20.03788
#
# Velocity S-wave (km/s) = 3.41980 3.80414 3.61708
# Velocity P-wave (km/s) = 6.42682 6.93407 6.68526
#
# Compressibility (1/GPa) = 0.02539514
#
# Stress axis : x y z
#
# Youngs Moduli (GPa) = 37.09137 42.92137 28.93810
#
# Poissons Ratio (x) = -0.27437 0.53931
# Poissons Ratio (y) = -0.23710 0.50543
# Poissons Ratio (z) = 0.69125 0.74966
#
# Static dielectric constant tensor:
#      x y z
#    x 1.524130 0.000000 0.000000 
#    y 0.000000 1.489510 0.000000 
#    z 0.000000 0.000000 1.500480 
# 
# From -- ./inp_files/7319.got.cif
#   From: 2010.05.17/outbox.cif.g08.bks.cpg/sg57_4_cif.got.tgz:7319.got - 2010.06.03 13:58:18.
