data_PCOD9434973
_publ_section_title
;
Structure prediction by ZEFSAII (Michael W. Deem and Ramdas Pophale) SiO2 
 PCOD9434973
Probable space group: P B C M
;
_chemical_formula_sum "Si O2"
_cell_formula_units_Z 64
_cell_length_a 16.397944
_cell_length_b 23.567267
_cell_length_c 9.138175
_cell_angle_alpha 90.000000
_cell_angle_beta 90.000000
_cell_angle_gamma 90.000000
_cell_volume 3531.490902
_symmetry_space_group_name_H-M "P B C M"
_symmetry_group_IT_number 57
_symmetry_cell_setting 'orthorhombic'
loop_
_space_group_symop_operation_xyz
x,y,z
-x,-y,1/2+z
x,1/2-y,-z
-x,1/2+y,1/2-z
-x,-y,-z
x,y,1/2-z
-x,1/2+y,z
x,1/2-y,1/2+z
loop_
_atom_site_type_symbol
_atom_site_label
_atom_site_fract_x
_atom_site_fract_y
_atom_site_fract_z
Si Si1 0.687518 0.692600 0.081591
Si Si2 0.345055 0.019312 0.926391
Si Si3 0.540378 0.898649 0.920975
Si Si4 0.240416 0.806854 0.082816
Si Si5 0.562637 0.191997 0.918581
Si Si6 0.915647 0.516491 0.924776
Si Si7 0.796639 0.595458 0.427254
Si Si8 0.226732 0.923235 0.577317
O O1 0.696659 0.707181 0.250000
O O2 0.614432 0.647160 0.070609
O O3 0.769368 0.659279 0.035448
O O4 0.670180 0.750000 0.000000
O O5 0.347586 0.025476 0.750000
O O6 0.311572 0.956162 0.960009
O O7 0.426436 0.044977 0.998589
O O8 0.273327 0.057422 0.996727
O O9 0.522595 0.909996 0.750000
O O10 0.469000 0.864227 0.000536
O O11 0.213458 0.804826 0.250000
O O12 0.339345 0.807321 0.080429
O O13 0.213628 0.750000 0.000000
O O14 0.214708 0.865383 0.008492
O O15 0.534099 0.192725 0.750000
O O16 0.535615 0.250000 0.000000
O O17 0.923543 0.524548 0.750000
O O18 0.848090 0.466774 0.947685
O O19 0.879296 0.572115 0.004004
O O20 0.000000 0.500000 0.000000
O O21 0.794121 0.588829 0.250000
O O22 0.230186 0.911101 0.750000
#
# Coordination Sequence:
#
# PCOD9434973 Si02
#       8
#     8   8   8   8   8   8   8   8
#     4   9  18  28  41  64  93 127 167 204 241 284
#     4   9  17  30  48  71  99 132 167 208 255 302
#     4  10  19  30  45  68  97 132 173 217 262 307
#     4  10  21  36  56  78 101 132 171 213 259 307
#     4  10  20  33  48  69  96 129 171 219 267 313
#     4  10  20  34  55  83 108 132 159 194 241 292
#     4   9  17  30  46  68  99 131 164 203 240 284
#     4   9  19  35  55  79 106 133 166 206 250 301
#
# _framework density 18.122657
#
# number of rings (size 3 to 8) (size 9 to 14) (size 15 to 20)
#    0.000    2.500    0.000    4.125    0.000    8.500 
#    0.000    0.625    0.000    0.750    0.000    3.500 
#    0.000    0.000    0.000    0.000    0.000    0.000 
#
# Total GULP energy -356806.588036 kJ/mol
# GULP energy per Si atom -5575.102938 kJ/mol
# Density = 1.808141 g / cm^3
# Si number density = 18.122657 Si / 1000 Ang^3
#
#
#
# Elastic Constant Matrix: (Units=GPa)
#
#
# Indices 1 2 3 4 5 6 
#
# 1 30.4162 10.5595 21.8823 0.0000 0.0000 0.0000
# 2 10.5595 72.2497 53.1552 0.0000 0.0000 0.0000
# 3 21.8823 53.1552 94.5559 0.0000 0.0000 0.0000
# 4 0.0000 0.0000 0.0000 33.3105 0.0000 0.0000
# 5 0.0000 0.0000 0.0000 0.0000 21.9948 0.0000
# 6 0.0000 0.0000 0.0000 0.0000 0.0000 14.4634
#
#
#
# Elastic Compliance Matrix: (Units=1/GPa)
#
#
# Indices 1 2 3 4 5 6 
#
# 1 0.039556 0.001626 -0.010068 0.000000 0.000000 0.000000
# 2 0.001626 0.023669 -0.013682 0.000000 0.000000 0.000000
# 3 -0.010068 -0.013682 0.020597 0.000000 0.000000 0.000000
# 4 0.000000 0.000000 0.000000 0.030021 0.000000 0.000000
# 5 0.000000 0.000000 0.000000 0.000000 0.045465 0.000000
# 6 0.000000 0.000000 0.000000 0.000000 0.000000 0.069140
#
#
# Mechanical properties :
#
#
# Convention : Reuss Voigt Hill
#
# Bulk Modulus (GPa) = 25.26905 40.93510 33.10207
# Shear Modulus (GPa) = 17.48931 21.39541 19.44236
#
# Velocity S-wave (km/s) = 3.10990 3.43970 3.27895
# Velocity P-wave (km/s) = 5.18352 6.19776 5.71319
#
# Compressibility (1/GPa) = 0.03957410
#
# Stress axis : x y z
#
# Youngs Moduli (GPa) = 25.28057 42.24849 48.54983
#
# Poissons Ratio (x) = -0.06871 0.48882
# Poissons Ratio (y) = -0.04111 0.66427
# Poissons Ratio (z) = 0.25453 0.57806
#
# Static dielectric constant tensor:
#      x y z
#    x 1.656970 0.000000 0.000000 
#    y 0.000000 1.682710 0.000000 
#    z 0.000000 0.000000 1.603910 
# 
# From -- ./inp_files/7351.got.cif
#   From: 2010.05.17/outbox.cif.g08.bks.cpg/sg57_4_cif.got.tgz:7351.got - 2010.06.03 13:58:18.
