data_PCOD9434929
_publ_section_title
;
Structure prediction by ZEFSAII (Michael W. Deem and Ramdas Pophale) SiO2 
 PCOD9434929
Probable space group: P B C M
;
_chemical_formula_sum "Si O2"
_cell_formula_units_Z 48
_cell_length_a 15.581600
_cell_length_b 21.655371
_cell_length_c 8.834486
_cell_angle_alpha 90.000000
_cell_angle_beta 90.000000
_cell_angle_gamma 90.000000
_cell_volume 2980.979343
_symmetry_space_group_name_H-M "P B C M"
_symmetry_group_IT_number 57
_symmetry_cell_setting 'orthorhombic'
loop_
_space_group_symop_operation_xyz
x,y,z
-x,-y,1/2+z
x,1/2-y,-z
-x,1/2+y,1/2-z
-x,-y,-z
x,y,1/2-z
-x,1/2+y,z
x,1/2-y,1/2+z
loop_
_atom_site_type_symbol
_atom_site_label
_atom_site_fract_x
_atom_site_fract_y
_atom_site_fract_z
Si Si1 0.379055 0.039088 0.070879
Si Si2 0.015038 0.068133 0.568161
Si Si3 0.202433 0.045188 0.930298
Si Si4 0.437819 0.910211 0.570476
Si Si5 0.693269 0.318000 0.430368
Si Si6 0.156935 0.598843 0.069061
O O1 0.378066 0.025888 0.250000
O O2 0.460565 0.083021 0.040806
O O3 0.287644 0.064310 0.017700
O O4 0.397039 0.975264 0.982579
O O5 0.006878 0.065955 0.750000
O O6 0.114680 0.081588 0.531946
O O7 0.938610 0.107972 0.497339
O O8 0.000000 0.000000 0.500000
O O9 0.216394 0.049896 0.750000
O O10 0.184669 0.972354 0.963560
O O11 0.423774 0.903033 0.750000
O O12 0.390521 0.855852 0.483092
O O13 0.692533 0.250000 0.500000
O O14 0.697553 0.315316 0.250000
O O15 0.774349 0.356055 0.494674
O O16 0.156241 0.605963 0.250000
#
# Coordination Sequence:
#
# PCOD9434929 Si02
#       6
#     8   8   8   8   8   8
#     4  10  19  29  48  73  99 133 167 202 250 302
#     4   9  17  28  43  66  96 131 164 197 239 287
#     4   9  17  28  45  69 101 133 162 199 243 292
#     4  10  20  34  48  69 100 130 166 209 249 297
#     4  12  24  37  54  73  96 131 170 209 252 300
#     4  10  19  32  48  69  98 130 163 205 246 291
#
# _framework density 16.10209
#
# number of rings (size 3 to 8) (size 9 to 14) (size 15 to 20)
#    0.000    2.000    1.667    4.500    0.000    5.333 
#    0.000    0.000    0.000    0.000    0.000    1.167 
#    0.000    2.667    0.000    0.000    0.000    0.000 
#
# Total GULP energy -267703.554468 kJ/mol
# GULP energy per Si atom -5577.157385 kJ/mol
# Density = 1.606544 g / cm^3
# Si number density = 16.102090 Si / 1000 Ang^3
#
#
#
# Elastic Constant Matrix: (Units=GPa)
#
#
# Indices 1 2 3 4 5 6 
#
# 1 150.5153 37.6401 69.5739 0.0000 0.0000 0.0000
# 2 37.6401 55.1489 38.7392 0.0000 0.0000 0.0000
# 3 69.5739 38.7392 89.5423 0.0000 0.0000 0.0000
# 4 0.0000 0.0000 0.0000 20.2110 0.0000 0.0000
# 5 0.0000 0.0000 0.0000 0.0000 32.7861 0.0000
# 6 0.0000 0.0000 0.0000 0.0000 0.0000 11.6873
#
#
#
# Elastic Compliance Matrix: (Units=1/GPa)
#
#
# Indices 1 2 3 4 5 6 
#
# 1 0.010529 -0.002068 -0.007286 0.000000 0.000000 0.000000
# 2 -0.002068 0.026455 -0.009839 0.000000 0.000000 0.000000
# 3 -0.007286 -0.009839 0.021086 0.000000 0.000000 0.000000
# 4 0.000000 0.000000 0.000000 0.049478 0.000000 0.000000
# 5 0.000000 0.000000 0.000000 0.000000 0.030501 0.000000
# 6 0.000000 0.000000 0.000000 0.000000 0.000000 0.085563
#
#
# Mechanical properties :
#
#
# Convention : Reuss Voigt Hill
#
# Bulk Modulus (GPa) = 50.80203 65.23476 58.01840
# Shear Modulus (GPa) = 18.61787 22.88709 20.75248
#
# Velocity S-wave (km/s) = 3.40404 3.77420 3.59389
# Velocity P-wave (km/s) = 6.86064 7.71971 7.30282
#
# Compressibility (1/GPa) = 0.01968425
#
# Stress axis : x y z
#
# Youngs Moduli (GPa) = 94.97581 37.79959 47.42512
#
# Poissons Ratio (x) = 0.07817 0.34555
# Poissons Ratio (y) = 0.19641 0.46660
# Poissons Ratio (z) = 0.69202 0.37190
#
# Static dielectric constant tensor:
#      x y z
#    x 1.585880 0.000000 0.000000 
#    y 0.000000 1.250120 0.000000 
#    z 0.000000 0.000000 1.534730 
# 
# From -- ./inp_files/4890.got.cif
#   From: 2010.05.17/outbox.cif.g08.bks.cpg/sg57_3_cif.got.tgz:4890.got - 2010.06.03 13:58:18.
