data_PCOD9434712
_publ_section_title
;
Structure prediction by ZEFSAII (Michael W. Deem and Ramdas Pophale) SiO2 
 PCOD9434712
Probable space group: P B C M
;
_chemical_formula_sum "Si O2"
_cell_formula_units_Z 40
_cell_length_a 24.672381
_cell_length_b 8.734050
_cell_length_c 9.913618
_cell_angle_alpha 90.000000
_cell_angle_beta 90.000000
_cell_angle_gamma 90.000000
_cell_volume 2136.283652
_symmetry_space_group_name_H-M "P B C M"
_symmetry_group_IT_number 57
_symmetry_cell_setting 'orthorhombic'
loop_
_space_group_symop_operation_xyz
x,y,z
-x,-y,1/2+z
x,1/2-y,-z
-x,1/2+y,1/2-z
-x,-y,-z
x,y,1/2-z
-x,1/2+y,z
x,1/2-y,1/2+z
loop_
_atom_site_type_symbol
_atom_site_label
_atom_site_fract_x
_atom_site_fract_y
_atom_site_fract_z
Si Si1 0.454473 0.618412 0.250000
Si Si2 0.626307 0.065808 0.480341
Si Si3 0.956853 0.096497 0.088175
Si Si4 0.745018 0.400851 0.591998
Si Si5 0.572184 0.017120 0.750000
Si Si6 0.848713 0.605970 0.594974
O O1 0.422774 0.547117 0.376552
O O2 0.444891 0.802023 0.250000
O O3 0.517343 0.579187 0.250000
O O4 0.629978 0.250000 0.500000
O O5 0.686011 0.022936 0.430655
O O6 0.608541 0.990807 0.619163
O O7 0.971246 0.118944 0.250000
O O8 0.900167 0.005928 0.087041
O O9 0.950628 0.250000 0.000000
O O10 0.000000 0.000000 0.000000
O O11 0.749073 0.250000 0.500000
O O12 0.748714 0.357690 0.750000
O O13 0.794188 0.513893 0.559564
O O14 0.856928 0.750000 0.500000
O O15 0.843624 0.657523 0.750000
#
# Coordination Sequence:
#
# PCOD9434712 Si02
#       6
#     4   8   8   8   4   8
#     4  10  18  34  50  76 100 138 171 222 269 334
#     4   9  18  32  53  75 103 134 178 224 274 331
#     4  11  23  40  64  93 127 163 206 250 296 348
#     4  10  20  36  59  84 109 142 191 240 286 340
#     4  10  20  32  52  74 104 134 177 218 275 334
#     4  10  23  41  59  86 121 158 195 241 292 347
#
# _framework density 18.724104000000001
#
# number of rings (size 3 to 8) (size 9 to 14) (size 15 to 20)
#    0.000    2.000    1.000    2.400    4.200    4.000 
#    0.000    2.000    0.000    0.000    0.000    0.000 
#    0.000    0.000    0.000    0.000    0.000    0.000 
#
# Total GULP energy -223142.469933 kJ/mol
# GULP energy per Si atom -5578.561748 kJ/mol
# Density = 1.868149 g / cm^3
# Si number density = 18.724104 Si / 1000 Ang^3
#
#
#
# Elastic Constant Matrix: (Units=GPa)
#
#
# Indices 1 2 3 4 5 6 
#
# 1 96.1704 25.8521 29.5708 0.0000 0.0000 0.0000
# 2 25.8521 62.4769 49.0190 0.0000 0.0000 0.0000
# 3 29.5708 49.0190 113.8584 0.0000 0.0000 0.0000
# 4 0.0000 0.0000 0.0000 22.8067 0.0000 0.0000
# 5 0.0000 0.0000 0.0000 0.0000 33.2028 0.0000
# 6 0.0000 0.0000 0.0000 0.0000 0.0000 23.0289
#
#
#
# Elastic Compliance Matrix: (Units=1/GPa)
#
#
# Indices 1 2 3 4 5 6 
#
# 1 0.011858 -0.003761 -0.001461 0.000000 0.000000 0.000000
# 2 -0.003761 0.025363 -0.009943 0.000000 0.000000 0.000000
# 3 -0.001461 -0.009943 0.013443 0.000000 0.000000 0.000000
# 4 0.000000 0.000000 0.000000 0.043847 0.000000 0.000000
# 5 0.000000 0.000000 0.000000 0.000000 0.030118 0.000000
# 6 0.000000 0.000000 0.000000 0.000000 0.000000 0.043424
#
#
# Mechanical properties :
#
#
# Convention : Reuss Voigt Hill
#
# Bulk Modulus (GPa) = 49.17429 53.48772 51.33100
# Shear Modulus (GPa) = 24.37127 27.01194 25.69160
#
# Velocity S-wave (km/s) = 3.61168 3.80232 3.70822
# Velocity P-wave (km/s) = 6.61150 6.92135 6.76820
#
# Compressibility (1/GPa) = 0.02033583
#
# Stress axis : x y z
#
# Youngs Moduli (GPa) = 84.32915 39.42734 74.38923
#
# Poissons Ratio (x) = 0.14828 0.10866
# Poissons Ratio (y) = 0.31714 0.73963
# Poissons Ratio (z) = 0.12318 0.39202
#
# Static dielectric constant tensor:
#      x y z
#    x 1.632830 0.000000 0.000000 
#    y 0.000000 1.634290 0.000000 
#    z 0.000000 0.000000 1.643650 
# 
# From -- ./inp_files/8955.got.cif
#   From: 2010.05.17/outbox.cif.g08.bks.cpg/sg57_5_cif.got.tgz:8955.got - 2010.06.03 13:58:18.
