data_PCOD9434669
_publ_section_title
;
Structure prediction by ZEFSAII (Michael W. Deem and Ramdas Pophale) SiO2 
 PCOD9434669
Probable space group: P B C M
;
_chemical_formula_sum "Si O2"
_cell_formula_units_Z 48
_cell_length_a 10.638868
_cell_length_b 29.134457
_cell_length_c 8.464752
_cell_angle_alpha 90.000000
_cell_angle_beta 90.000000
_cell_angle_gamma 90.000000
_cell_volume 2623.714572
_symmetry_space_group_name_H-M "P B C M"
_symmetry_group_IT_number 57
_symmetry_cell_setting 'orthorhombic'
loop_
_space_group_symop_operation_xyz
x,y,z
-x,-y,1/2+z
x,1/2-y,-z
-x,1/2+y,1/2-z
-x,-y,-z
x,y,1/2-z
-x,1/2+y,z
x,1/2-y,1/2+z
loop_
_atom_site_type_symbol
_atom_site_label
_atom_site_fract_x
_atom_site_fract_y
_atom_site_fract_z
Si Si1 0.892035 0.200579 0.062252
Si Si2 0.501535 0.395741 0.442757
Si Si3 0.606928 0.299545 0.060698
Si Si4 0.245251 0.444050 0.441091
Si Si5 0.990944 0.106840 0.558863
Si Si6 0.252081 0.547971 0.559122
O O1 0.885386 0.201904 0.250000
O O2 0.936653 0.250000 0.000000
O O3 0.750565 0.193805 0.995907
O O4 0.974739 0.158021 0.005364
O O5 0.501115 0.395839 0.250000
O O6 0.526143 0.343316 0.492611
O O7 0.370682 0.417676 0.495569
O O8 0.620479 0.426519 0.493123
O O9 0.608503 0.298676 0.250000
O O10 0.563324 0.250000 0.000000
O O11 0.245910 0.444434 0.250000
O O12 0.118952 0.417898 0.492227
O O13 0.246290 0.496230 0.498844
O O14 0.989717 0.108833 0.750000
O O15 0.869984 0.076921 0.508180
O O16 0.252241 0.547388 0.750000
#
# Coordination Sequence:
#
# PCOD9434669 Si02
#       6
#     8   8   8   8   8   8
#     4  11  21  34  56  83 108 135 175 220 264 313
#     4   9  18  34  54  76 108 143 174 215 267 315
#     4  10  18  33  55  79 108 137 172 216 265 313
#     4  10  21  35  53  78 107 143 181 219 264 315
#     4  10  20  36  55  77 109 144 177 216 267 315
#     4  10  19  34  54  75 105 145 181 221 266 308
#
# _framework density 18.294673
#
# number of rings (size 3 to 8) (size 9 to 14) (size 15 to 20)
#    0.000    2.000    1.667    4.000    0.000    1.333 
#    0.000    2.500    0.000    2.000    0.000    0.000 
#    0.000    0.000    0.000    0.000    0.000    0.000 
#
# Total GULP energy -268015.989773 kJ/mol
# GULP energy per Si atom -5583.666454 kJ/mol
# Density = 1.825303 g / cm^3
# Si number density = 18.294673 Si / 1000 Ang^3
#
#
#
# Elastic Constant Matrix: (Units=GPa)
#
#
# Indices 1 2 3 4 5 6 
#
# 1 144.1386 97.2105 23.5760 0.0000 0.0000 0.0000
# 2 97.2105 200.4422 28.5015 0.0000 0.0000 0.0000
# 3 23.5760 28.5015 30.1995 0.0000 0.0000 0.0000
# 4 0.0000 0.0000 0.0000 34.9803 0.0000 0.0000
# 5 0.0000 0.0000 0.0000 0.0000 5.8722 0.0000
# 6 0.0000 0.0000 0.0000 0.0000 0.0000 -0.5451
#
#
#
# Elastic Compliance Matrix: (Units=1/GPa)
#
#
# Indices 1 2 3 4 5 6 
#
# 1 0.010712 -0.004627 -0.003996 0.000000 0.000000 0.000000
# 2 -0.004627 0.007761 -0.003712 0.000000 0.000000 0.000000
# 3 -0.003996 -0.003712 0.039736 0.000000 0.000000 0.000000
# 4 0.000000 0.000000 0.000000 0.028588 0.000000 0.000000
# 5 0.000000 0.000000 0.000000 0.000000 0.170295 0.000000
# 6 0.000000 0.000000 0.000000 0.000000 0.000000 -1.834638
#
#
# Mechanical properties :
#
#
# Convention : Reuss Voigt Hill
#
# Bulk Modulus (GPa) = 29.81620 74.81735 52.31677
# Shear Modulus (GPa) = -3.24318 23.09429 9.92556
#
# Velocity S-wave (km/s) = -1.33289 3.55681 2.33177
# Velocity P-wave (km/s) = 3.73689 7.60607 5.99236
#
# Compressibility (1/GPa) = 0.03353882
#
# Stress axis : x y z
#
# Youngs Moduli (GPa) = 93.35516 128.85331 25.16603
#
# Poissons Ratio (x) = 0.59618 0.10056
# Poissons Ratio (y) = 0.43194 0.09342
# Poissons Ratio (z) = 0.37302 0.47835
#
# Static dielectric constant tensor:
#      x y z
#    x 1.614690 0.000000 0.000000 
#    y 0.000000 1.612540 0.000000 
#    z 0.000000 0.000000 1.624540 
# 
# From -- ./inp_files/2068.got.cif
#   From: 2010.05.17/outbox.cif.g08.bks.cpg/sg57_2_cif.got.tgz:2068.got - 2010.06.03 13:58:18.
