data_PCOD9434740
_publ_section_title
;
Structure prediction by ZEFSAII (Michael W. Deem and Ramdas Pophale) SiO2 
 PCOD9434740
Probable space group: P B C M
;
_chemical_formula_sum "Si O2"
_cell_formula_units_Z 40
_cell_length_a 13.343752
_cell_length_b 10.206573
_cell_length_c 14.438356
_cell_angle_alpha 90.000000
_cell_angle_beta 90.000000
_cell_angle_gamma 90.000000
_cell_volume 1966.417152
_symmetry_space_group_name_H-M "P B C M"
_symmetry_group_IT_number 57
_symmetry_cell_setting 'orthorhombic'
loop_
_space_group_symop_operation_xyz
x,y,z
-x,-y,1/2+z
x,1/2-y,-z
-x,1/2+y,1/2-z
-x,-y,-z
x,y,1/2-z
-x,1/2+y,z
x,1/2-y,1/2+z
loop_
_atom_site_type_symbol
_atom_site_label
_atom_site_fract_x
_atom_site_fract_y
_atom_site_fract_z
Si Si1 0.409806 0.803756 0.856917
Si Si2 0.805750 0.138412 0.079633
Si Si3 0.236516 0.109373 0.452270
Si Si4 0.431943 0.511512 0.637653
Si Si5 0.020139 0.124001 0.433615
O O1 0.440788 0.795542 0.750000
O O2 0.291323 0.827859 0.861361
O O3 0.472869 0.926276 0.894248
O O4 0.432391 0.660974 0.898554
O O5 0.917055 0.136818 0.123858
O O6 0.809334 0.250000 0.000000
O O7 0.783692 0.999280 0.031405
O O8 0.253574 0.250000 0.500000
O O9 0.331690 0.061439 0.395164
O O10 0.132046 0.111720 0.393606
O O11 0.430776 0.518520 0.750000
O O12 0.026735 0.250000 0.500000
O O13 0.000000 0.000000 0.500000
#
# Coordination Sequence:
#
# PCOD9434740 Si02
#       5
#     8   8   8   8   8
#     4  10  22  38  55  76 105 142 177 217 270 316
#     4  10  18  34  56  80 105 135 174 219 259 307
#     4  10  20  34  54  84 107 136 176 216 259 310
#     4  10  22  39  55  74 106 143 176 216 268 316
#     4   8  16  30  51  76 107 134 164 209 264 309
#
# _framework density 20.341564000000002
#
# number of rings (size 3 to 8) (size 9 to 14) (size 15 to 20)
#    0.000    2.400    2.000    0.000    2.800    1.600 
#    0.000    1.000    0.000    0.000    0.000    0.000 
#    0.000    0.000    0.000    0.000    0.000    0.000 
#
# Total GULP energy -222870.708175 kJ/mol
# GULP energy per Si atom -5571.767704 kJ/mol
# Density = 2.029527 g / cm^3
# Si number density = 20.341564 Si / 1000 Ang^3
#
#
#
# Elastic Constant Matrix: (Units=GPa)
#
#
# Indices 1 2 3 4 5 6 
#
# 1 129.9846 24.0289 -6.3955 0.0000 0.0000 0.0000
# 2 24.0289 153.3159 5.7919 0.0000 0.0000 0.0000
# 3 -6.3955 5.7919 19.7418 0.0000 0.0000 0.0000
# 4 0.0000 0.0000 0.0000 10.7860 0.0000 0.0000
# 5 0.0000 0.0000 0.0000 0.0000 -183.3276 0.0000
# 6 0.0000 0.0000 0.0000 0.0000 0.0000 35.1616
#
#
#
# Elastic Compliance Matrix: (Units=1/GPa)
#
#
# Indices 1 2 3 4 5 6 
#
# 1 0.008098 -0.001384 0.003029 0.000000 0.000000 0.000000
# 2 -0.001384 0.006832 -0.002453 0.000000 0.000000 0.000000
# 3 0.003029 -0.002453 0.052355 0.000000 0.000000 0.000000
# 4 0.000000 0.000000 0.000000 0.092713 0.000000 0.000000
# 5 0.000000 0.000000 0.000000 0.000000 -0.005455 0.000000
# 6 0.000000 0.000000 0.000000 0.000000 0.000000 0.028440
#
#
# Mechanical properties :
#
#
# Convention : Reuss Voigt Hill
#
# Bulk Modulus (GPa) = 15.22743 38.87700 27.05222
# Shear Modulus (GPa) = 24.21457 -8.83488 7.68985
#
# Velocity S-wave (km/s) = 3.45396 -2.08631 1.94642
# Velocity P-wave (km/s) = 4.83824 3.65377 4.28711
#
# Compressibility (1/GPa) = 0.06567095
#
# Stress axis : x y z
#
# Youngs Moduli (GPa) = 123.48655 146.37029 19.10047
#
# Poissons Ratio (x) = 0.20252 -0.05786
# Poissons Ratio (y) = 0.17086 0.04685
# Poissons Ratio (z) = -0.37408 0.35899
#
# Static dielectric constant tensor:
#      x y z
#    x 1.784230 0.000000 0.000000 
#    y 0.000000 1.731290 0.000000 
#    z 0.000000 0.000000 1.712190 
# 
# From -- ./inp_files/21581.got.cif
#   From: 2010.05.17/outbox.cif.g08.bks.cpg/sg57_11_cif.got.tgz:21581.got - 2010.06.03 13:58:18.
