data_PCOD9434022
_publ_section_title
;
Structure prediction by ZEFSAII (Michael W. Deem and Ramdas Pophale) SiO2 
 PCOD9434022
Probable space group: P B C M
;
_chemical_formula_sum "Si O2"
_cell_formula_units_Z 64
_cell_length_a 22.073628
_cell_length_b 15.256661
_cell_length_c 8.858883
_cell_angle_alpha 90.000000
_cell_angle_beta 90.000000
_cell_angle_gamma 90.000000
_cell_volume 2983.404783
_symmetry_space_group_name_H-M "P B C M"
_symmetry_group_IT_number 57
_symmetry_cell_setting 'orthorhombic'
loop_
_space_group_symop_operation_xyz
x,y,z
-x,-y,1/2+z
x,1/2-y,-z
-x,1/2+y,1/2-z
-x,-y,-z
x,y,1/2-z
-x,1/2+y,z
x,1/2-y,1/2+z
loop_
_atom_site_type_symbol
_atom_site_label
_atom_site_fract_x
_atom_site_fract_y
_atom_site_fract_z
Si Si1 0.999589 0.598476 0.067437
Si Si2 0.388670 0.578372 0.419782
Si Si3 0.504909 0.162133 0.570714
Si Si4 0.751413 0.610719 0.428573
Si Si5 0.258097 0.915390 0.565038
Si Si6 0.870732 0.394483 0.926999
Si Si7 0.875727 0.890942 0.426223
Si Si8 0.370630 0.369990 0.421826
O O1 0.999217 0.594575 0.250000
O O2 0.064279 0.637642 0.012872
O O3 0.937006 0.638746 0.008809
O O4 0.000000 0.500000 0.000000
O O5 0.403340 0.608939 0.250000
O O6 0.447195 0.589648 0.522040
O O7 0.324901 0.621509 0.470644
O O8 0.374176 0.475440 0.411765
O O9 0.531514 0.250000 0.500000
O O10 0.500798 0.165021 0.750000
O O11 0.436204 0.153779 0.511679
O O12 0.756434 0.614872 0.250000
O O13 0.746159 0.509785 0.484889
O O14 0.813412 0.643812 0.503755
O O15 0.688765 0.652905 0.484415
O O16 0.256545 0.926845 0.750000
O O17 0.195908 0.867336 0.516326
O O18 0.871023 0.372816 0.750000
O O19 0.872642 0.501592 0.938945
O O20 0.879082 0.870370 0.250000
O O21 0.364712 0.336379 0.250000
#
# Coordination Sequence:
#
# PCOD9434022 Si02
#       8
#     8   8   8   8   8   8   8   8
#     4   9  14  19  28  44  67 100 142 182 220 266
#     4   9  17  31  52  74  96 122 156 194 233 279
#     4  11  23  37  53  72  97 126 156 190 233 281
#     4  10  17  24  39  62  83 106 142 189 230 269
#     4   8  14  26  41  58  83 114 145 181 227 275
#     4   7  11  19  31  46  68 101 139 177 217 260
#     4   9  15  23  32  44  70 107 143 181 223 268
#     4   9  19  35  52  70  93 124 156 190 234 284
#
# _framework density 21.452000000000002
#
# number of rings (size 3 to 8) (size 9 to 14) (size 15 to 20)
#    0.000    3.000    0.000    4.875    0.000    3.000 
#    0.000    0.625    0.000    0.000    0.000    0.000 
#    0.000    0.000    0.000    1.125    0.000   18.750 
#
# Total GULP energy -356450.465195 kJ/mol
# GULP energy per Si atom -5569.538519 kJ/mol
# Density = 2.140317 g / cm^3
# Si number density = 21.452000 Si / 1000 Ang^3
#
#
#
# Elastic Constant Matrix: (Units=GPa)
#
#
# Indices 1 2 3 4 5 6 
#
# 1 210.2387 15.8754 67.2269 0.0000 0.0000 0.0000
# 2 15.8754 22.6965 7.8310 0.0000 0.0000 0.0000
# 3 67.2269 7.8310 75.4995 0.0000 0.0000 0.0000
# 4 0.0000 0.0000 0.0000 2.0922 0.0000 0.0000
# 5 0.0000 0.0000 0.0000 0.0000 34.9290 0.0000
# 6 0.0000 0.0000 0.0000 0.0000 0.0000 -60.7490
#
#
#
# Elastic Compliance Matrix: (Units=1/GPa)
#
#
# Indices 1 2 3 4 5 6 
#
# 1 0.006814 -0.002772 -0.005780 0.000000 0.000000 0.000000
# 2 -0.002772 0.046823 -0.002388 0.000000 0.000000 0.000000
# 3 -0.005780 -0.002388 0.018639 0.000000 0.000000 0.000000
# 4 0.000000 0.000000 0.000000 0.477967 0.000000 0.000000
# 5 0.000000 0.000000 0.000000 0.000000 0.028629 0.000000
# 6 0.000000 0.000000 0.000000 0.000000 0.000000 -0.016461
#
#
# Mechanical properties :
#
#
# Convention : Reuss Voigt Hill
#
# Bulk Modulus (GPa) = 19.84296 54.47791 37.16044
# Shear Modulus (GPa) = 8.31823 9.75454 9.03638
#
# Velocity S-wave (km/s) = 1.97130 2.13472 2.05463
# Velocity P-wave (km/s) = 3.80150 5.61484 4.79467
#
# Compressibility (1/GPa) = 0.05039571
#
# Stress axis : x y z
#
# Youngs Moduli (GPa) = 146.75640 21.35723 53.64973
#
# Poissons Ratio (x) = 0.05920 0.31009
# Poissons Ratio (y) = 0.40680 0.12813
# Poissons Ratio (z) = 0.84824 0.05101
#
# Static dielectric constant tensor:
#      x y z
#    x 1.860360 0.000000 0.000000 
#    y 0.000000 1.810520 0.000000 
#    z 0.000000 0.000000 1.715780 
# 
# From -- ./inp_files/8776.got.cif
#   From: 2010.05.17/outbox.cif.g08.bks.cpg/sg57_5_cif.got.tgz:8776.got - 2010.06.03 13:58:18.
