data_PCOD9434515
_publ_section_title
;
Structure prediction by ZEFSAII (Michael W. Deem and Ramdas Pophale) SiO2 
 PCOD9434515
Probable space group: P B C M
;
_chemical_formula_sum "Si O2"
_cell_formula_units_Z 64
_cell_length_a 12.157579
_cell_length_b 34.849633
_cell_length_c 8.730770
_cell_angle_alpha 90.000000
_cell_angle_beta 90.000000
_cell_angle_gamma 90.000000
_cell_volume 3699.115201
_symmetry_space_group_name_H-M "P B C M"
_symmetry_group_IT_number 57
_symmetry_cell_setting 'orthorhombic'
loop_
_space_group_symop_operation_xyz
x,y,z
-x,-y,1/2+z
x,1/2-y,-z
-x,1/2+y,1/2-z
-x,-y,-z
x,y,1/2-z
-x,1/2+y,z
x,1/2-y,1/2+z
loop_
_atom_site_type_symbol
_atom_site_label
_atom_site_fract_x
_atom_site_fract_y
_atom_site_fract_z
Si Si1 0.335388 0.866932 0.564573
Si Si2 0.676166 0.666415 0.073076
Si Si3 0.107788 0.607134 0.932798
Si Si4 0.113165 0.516982 0.933039
Si Si5 0.871942 0.618931 0.434934
Si Si6 0.739408 0.546380 0.568187
Si Si7 0.530325 0.209041 0.435628
Si Si8 0.539436 0.586161 0.073139
O O1 0.472762 0.789944 0.750000
O O2 0.216173 0.872363 0.494770
O O3 0.389667 0.826128 0.521787
O O4 0.419295 0.901114 0.515831
O O5 0.694706 0.677430 0.250000
O O6 0.793656 0.653789 0.008185
O O7 0.592352 0.697441 0.005941
O O8 0.606707 0.626559 0.073767
O O9 0.099531 0.610850 0.750000
O O10 0.118235 0.561901 0.970180
O O11 0.995983 0.621934 0.009262
O O12 0.112088 0.512416 0.750000
O O13 0.214403 0.493230 0.002140
O O14 0.000000 0.500000 0.000000
O O15 0.866491 0.617460 0.250000
O O16 0.817737 0.579795 0.498818
O O17 0.749806 0.546839 0.750000
O O18 0.615083 0.556829 0.519394
O O19 0.563762 0.250000 0.500000
O O20 0.668633 0.131586 0.250000
O O21 0.531963 0.573438 0.250000
#
# Coordination Sequence:
#
# PCOD9434515 Si02
#       8
#     8   8   8   8   8   8   8   8
#     4   9  19  36  56  76 103 140 179 212 252 316
#     4   7  13  27  48  74 100 127 160 199 241 294
#     4  11  23  35  50  75 105 134 175 225 267 308
#     4  11  22  35  50  70 100 136 175 224 271 318
#     4  10  18  31  52  72  97 135 173 209 255 309
#     4  11  20  30  48  75 102 128 167 218 270 317
#     4   9  17  32  55  83 110 133 164 203 247 301
#     4   8  15  31  52  71  94 130 172 211 254 306
#
# _framework density 17.301434
#
# number of rings (size 3 to 8) (size 9 to 14) (size 15 to 20)
#    0.000    2.500    1.250    4.500    0.000    2.500 
#    0.000    6.250    0.000    0.750    0.000    1.750 
#    0.000    0.000    0.000    0.000    0.000    0.000 
#
# Total GULP energy -356720.784927 kJ/mol
# GULP energy per Si atom -5573.762264 kJ/mol
# Density = 1.726206 g / cm^3
# Si number density = 17.301434 Si / 1000 Ang^3
#
#
#
# Elastic Constant Matrix: (Units=GPa)
#
#
# Indices 1 2 3 4 5 6 
#
# 1 121.7114 40.0614 32.5225 0.0000 0.0000 0.0000
# 2 40.0614 61.8968 28.9454 0.0000 0.0000 0.0000
# 3 32.5225 28.9454 39.1721 0.0000 0.0000 0.0000
# 4 0.0000 0.0000 0.0000 19.6758 0.0000 0.0000
# 5 0.0000 0.0000 0.0000 0.0000 22.5881 0.0000
# 6 0.0000 0.0000 0.0000 0.0000 0.0000 20.0379
#
#
#
# Elastic Compliance Matrix: (Units=1/GPa)
#
#
# Indices 1 2 3 4 5 6 
#
# 1 0.011316 -0.004478 -0.006087 0.000000 0.000000 0.000000
# 2 -0.004478 0.026458 -0.015833 0.000000 0.000000 0.000000
# 3 -0.006087 -0.015833 0.042281 0.000000 0.000000 0.000000
# 4 0.000000 0.000000 0.000000 0.050824 0.000000 0.000000
# 5 0.000000 0.000000 0.000000 0.000000 0.044271 0.000000
# 6 0.000000 0.000000 0.000000 0.000000 0.000000 0.049906
#
#
# Mechanical properties :
#
#
# Convention : Reuss Voigt Hill
#
# Bulk Modulus (GPa) = 36.68254 47.31543 41.99898
# Shear Modulus (GPa) = 17.42533 20.54375 18.98454
#
# Velocity S-wave (km/s) = 3.17702 3.44961 3.31612
# Velocity P-wave (km/s) = 5.89118 6.57826 6.24418
#
# Compressibility (1/GPa) = 0.02726093
#
# Stress axis : x y z
#
# Youngs Moduli (GPa) = 88.36657 37.79521 23.65119
#
# Poissons Ratio (x) = 0.16925 0.14395
# Poissons Ratio (y) = 0.39571 0.37447
# Poissons Ratio (z) = 0.53785 0.59841
#
# Static dielectric constant tensor:
#      x y z
#    x 1.607620 0.000000 0.000000 
#    y 0.000000 1.579850 0.000000 
#    z 0.000000 0.000000 1.581690 
# 
# From -- ./inp_files/3745.got.cif
#   From: 2010.05.17/outbox.cif.g08.bks.cpg/sg57_2_cif.got.tgz:3745.got - 2010.06.03 13:58:18.
