data_PCOD9434499
_publ_section_title
;
Structure prediction by ZEFSAII (Michael W. Deem and Ramdas Pophale) SiO2 
 PCOD9434499
Probable space group: P B C M
;
_chemical_formula_sum "Si O2"
_cell_formula_units_Z 64
_cell_length_a 15.154042
_cell_length_b 28.321413
_cell_length_c 8.486980
_cell_angle_alpha 90.000000
_cell_angle_beta 90.000000
_cell_angle_gamma 90.000000
_cell_volume 3642.475024
_symmetry_space_group_name_H-M "P B C M"
_symmetry_group_IT_number 57
_symmetry_cell_setting 'orthorhombic'
loop_
_space_group_symop_operation_xyz
x,y,z
-x,-y,1/2+z
x,1/2-y,-z
-x,1/2+y,1/2-z
-x,-y,-z
x,y,1/2-z
-x,1/2+y,z
x,1/2-y,1/2+z
loop_
_atom_site_type_symbol
_atom_site_label
_atom_site_fract_x
_atom_site_fract_y
_atom_site_fract_z
Si Si1 0.355024 0.302673 0.939352
Si Si2 0.467670 0.110618 0.935990
Si Si3 0.349984 0.473491 0.563710
Si Si4 0.157592 0.468349 0.060763
Si Si5 0.845488 0.077684 0.441218
Si Si6 0.647404 0.078869 0.438046
Si Si7 0.030240 0.387661 0.940959
Si Si8 0.847569 0.802212 0.939954
O O1 0.358878 0.303383 0.750000
O O2 0.253432 0.313479 0.988193
O O3 0.375165 0.250000 0.000000
O O4 0.420073 0.341949 0.006542
O O5 0.457035 0.105723 0.750000
O O6 0.420363 0.065976 0.017603
O O7 0.570219 0.108258 0.981641
O O8 0.351755 0.481608 0.750000
O O9 0.252924 0.456034 0.511652
O O10 0.365706 0.523389 0.477845
O O11 0.163168 0.465860 0.250000
O O12 0.139279 0.522799 0.015537
O O13 0.083633 0.433314 0.998347
O O14 0.843724 0.079114 0.250000
O O15 0.746875 0.091060 0.493271
O O16 0.928819 0.108205 0.494553
O O17 0.642288 0.084710 0.250000
O O18 0.030762 0.387731 0.750000
O O19 0.083701 0.341636 0.995393
O O20 0.848771 0.801719 0.750000
O O21 0.868846 0.750000 0.000000
#
# Coordination Sequence:
#
# PCOD9434499 Si02
#       8
#     8   8   8   8   8   8   8   8
#     4  10  20  36  55  79 107 137 168 206 255 308
#     4  12  23  35  53  78 104 135 172 213 258 312
#     4  11  21  34  51  74 104 139 174 213 257 307
#     4  10  19  31  47  73 105 137 169 207 252 302
#     4   8  17  32  50  71 100 135 173 211 250 294
#     4  10  20  36  53  73 102 138 177 218 258 303
#     4  10  18  31  51  75 100 133 172 209 249 300
#     4   9  19  33  52  75 102 130 160 197 245 298
#
# _framework density 17.570471000000001
#
# number of rings (size 3 to 8) (size 9 to 14) (size 15 to 20)
#    0.000    2.000    0.000    5.625    0.000    2.000 
#    0.000    3.125    0.000    0.750    0.000    1.750 
#    0.000    0.000    0.000    0.000    0.000    0.000 
#
# Total GULP energy -357370.232749 kJ/mol
# GULP energy per Si atom -5583.909887 kJ/mol
# Density = 1.753048 g / cm^3
# Si number density = 17.570471 Si / 1000 Ang^3
#
#
#
# Elastic Constant Matrix: (Units=GPa)
#
#
# Indices 1 2 3 4 5 6 
#
# 1 131.4289 67.8680 1.2312 0.0000 0.0000 0.0000
# 2 67.8680 61.9165 -2.9302 0.0000 0.0000 0.0000
# 3 1.2312 -2.9302 22.8940 0.0000 0.0000 0.0000
# 4 0.0000 0.0000 0.0000 23.1784 0.0000 0.0000
# 5 0.0000 0.0000 0.0000 0.0000 19.2198 0.0000
# 6 0.0000 0.0000 0.0000 0.0000 0.0000 30.4377
#
#
#
# Elastic Compliance Matrix: (Units=1/GPa)
#
#
# Indices 1 2 3 4 5 6 
#
# 1 0.017803 -0.019679 -0.003476 0.000000 0.000000 0.000000
# 2 -0.019679 0.038001 0.005922 0.000000 0.000000 0.000000
# 3 -0.003476 0.005922 0.044624 0.000000 0.000000 0.000000
# 4 0.000000 0.000000 0.000000 0.043144 0.000000 0.000000
# 5 0.000000 0.000000 0.000000 0.000000 0.052030 0.000000
# 6 0.000000 0.000000 0.000000 0.000000 0.000000 0.032854
#
#
# Mechanical properties :
#
#
# Convention : Reuss Voigt Hill
#
# Bulk Modulus (GPa) = 15.15997 38.73081 26.94539
# Shear Modulus (GPa) = 17.54942 24.57188 21.06065
#
# Velocity S-wave (km/s) = 3.16381 3.74368 3.46589
# Velocity P-wave (km/s) = 4.68968 6.38575 5.60227
#
# Compressibility (1/GPa) = 0.06596320
#
# Stress axis : x y z
#
# Youngs Moduli (GPa) = 56.16995 26.31479 22.40927
#
# Poissons Ratio (x) = 0.51785 0.07790
# Poissons Ratio (y) = 1.10536 -0.13271
# Poissons Ratio (z) = 0.19525 -0.15584
#
# Static dielectric constant tensor:
#      x y z
#    x 1.617360 0.000000 0.000000 
#    y 0.000000 1.566580 0.000000 
#    z 0.000000 0.000000 1.590330 
# 
# From -- ./inp_files/5730.got.cif
#   From: 2010.05.17/outbox.cif.g08.bks.cpg/sg57_3_cif.got.tgz:5730.got - 2010.06.03 13:58:18.
