data_PCOD9434277
_publ_section_title
;
Structure prediction by ZEFSAII (Michael W. Deem and Ramdas Pophale) SiO2 
 PCOD9434277
Probable space group: P B C M
;
_chemical_formula_sum "Si O2"
_cell_formula_units_Z 48
_cell_length_a 15.528992
_cell_length_b 21.546694
_cell_length_c 8.910903
_cell_angle_alpha 90.000000
_cell_angle_beta 90.000000
_cell_angle_gamma 90.000000
_cell_volume 2981.574232
_symmetry_space_group_name_H-M "P B C M"
_symmetry_group_IT_number 57
_symmetry_cell_setting 'orthorhombic'
loop_
_space_group_symop_operation_xyz
x,y,z
-x,-y,1/2+z
x,1/2-y,-z
-x,1/2+y,1/2-z
-x,-y,-z
x,y,1/2-z
-x,1/2+y,z
x,1/2-y,1/2+z
loop_
_atom_site_type_symbol
_atom_site_label
_atom_site_fract_x
_atom_site_fract_y
_atom_site_fract_z
Si Si1 0.308688 0.682217 0.571487
Si Si2 0.836461 0.098109 0.071835
Si Si3 0.437288 0.911667 0.928513
Si Si4 0.375668 0.040953 0.428467
Si Si5 0.802594 0.548920 0.928496
Si Si6 0.976871 0.566754 0.070411
O O1 0.303124 0.750000 0.500000
O O2 0.312915 0.686027 0.750000
O O3 0.226434 0.641564 0.520826
O O4 0.391323 0.645675 0.507205
O O5 0.822772 0.108396 0.250000
O O6 0.937990 0.107330 0.038562
O O7 0.814912 0.025400 0.042845
O O8 0.421482 0.909883 0.750000
O O9 0.539681 0.917208 0.954267
O O10 0.396317 0.974831 0.994545
O O11 0.366137 0.031812 0.250000
O O12 0.287953 0.066667 0.498093
O O13 0.801677 0.557382 0.750000
O O14 0.884949 0.583178 0.000023
O O15 0.969716 0.560971 0.250000
O O16 0.000000 0.500000 0.000000
#
# Coordination Sequence:
#
# PCOD9434277 Si02
#       6
#     8   8   8   8   8   8
#     4  12  24  36  53  72  96 132 171 210 251 298
#     4   9  18  32  47  67  97 130 163 204 245 286
#     4  10  20  34  49  70 100 129 165 209 250 299
#     4  10  19  30  49  73  99 133 166 201 250 303
#     4  10  18  28  46  71 102 133 161 200 242 292
#     4   9  17  28  44  66  96 129 161 196 237 287
#
# _framework density 16.098877999999999
#
# number of rings (size 3 to 8) (size 9 to 14) (size 15 to 20)
#    0.000    2.000    1.667    4.500    0.000    5.333 
#    0.000    0.000    0.000    0.000    0.000    1.167 
#    0.000    0.000    0.000    0.000    0.000    0.000 
#
# Total GULP energy -267726.877417 kJ/mol
# GULP energy per Si atom -5577.643280 kJ/mol
# Density = 1.606224 g / cm^3
# Si number density = 16.098878 Si / 1000 Ang^3
#
#
#
# Elastic Constant Matrix: (Units=GPa)
#
#
# Indices 1 2 3 4 5 6 
#
# 1 148.0576 29.2582 76.8198 0.0000 0.0000 0.0000
# 2 29.2582 47.9982 43.9197 0.0000 0.0000 0.0000
# 3 76.8198 43.9197 108.6553 0.0000 0.0000 0.0000
# 4 0.0000 0.0000 0.0000 20.1416 0.0000 0.0000
# 5 0.0000 0.0000 0.0000 0.0000 32.1378 0.0000
# 6 0.0000 0.0000 0.0000 0.0000 0.0000 10.4811
#
#
#
# Elastic Compliance Matrix: (Units=1/GPa)
#
#
# Indices 1 2 3 4 5 6 
#
# 1 0.010679 0.000633 -0.007806 0.000000 0.000000 0.000000
# 2 0.000633 0.033100 -0.013827 0.000000 0.000000 0.000000
# 3 -0.007806 -0.013827 0.020312 0.000000 0.000000 0.000000
# 4 0.000000 0.000000 0.000000 0.049648 0.000000 0.000000
# 5 0.000000 0.000000 0.000000 0.000000 0.031116 0.000000
# 6 0.000000 0.000000 0.000000 0.000000 0.000000 0.095410
#
#
# Mechanical properties :
#
#
# Convention : Reuss Voigt Hill
#
# Bulk Modulus (GPa) = 45.26791 67.18963 56.22877
# Shear Modulus (GPa) = 17.26345 22.86633 20.06489
#
# Velocity S-wave (km/s) = 3.27821 3.77287 3.53420
# Velocity P-wave (km/s) = 6.51986 7.79779 7.18729
#
# Compressibility (1/GPa) = 0.02209070
#
# Stress axis : x y z
#
# Youngs Moduli (GPa) = 93.63934 30.21111 49.23308
#
# Poissons Ratio (x) = -0.01913 0.38432
# Poissons Ratio (y) = -0.05929 0.68076
# Poissons Ratio (z) = 0.73097 0.41773
#
# Static dielectric constant tensor:
#      x y z
#    x 1.588250 0.000000 0.000000 
#    y 0.000000 1.499040 0.000000 
#    z 0.000000 0.000000 1.530890 
# 
# From -- ./inp_files/4877.got.cif
#   From: 2010.05.17/outbox.cif.g08.bks.cpg/sg57_3_cif.got.tgz:4877.got - 2010.06.03 13:58:18.
