data_PCOD9434953
_publ_section_title
;
Structure prediction by ZEFSAII (Michael W. Deem and Ramdas Pophale) SiO2 
 PCOD9434953
Probable space group: P B C M
;
_chemical_formula_sum "Si O2"
_cell_formula_units_Z 56
_cell_length_a 16.449595
_cell_length_b 25.239617
_cell_length_c 9.000105
_cell_angle_alpha 90.000000
_cell_angle_beta 90.000000
_cell_angle_gamma 90.000000
_cell_volume 3736.676893
_symmetry_space_group_name_H-M "P B C M"
_symmetry_group_IT_number 57
_symmetry_cell_setting 'orthorhombic'
loop_
_space_group_symop_operation_xyz
x,y,z
-x,-y,1/2+z
x,1/2-y,-z
-x,1/2+y,1/2-z
-x,-y,-z
x,y,1/2-z
-x,1/2+y,z
x,1/2-y,1/2+z
loop_
_atom_site_type_symbol
_atom_site_label
_atom_site_fract_x
_atom_site_fract_y
_atom_site_fract_z
Si Si1 0.775964 0.694603 0.072931
Si Si2 0.413820 0.194346 0.071340
Si Si3 0.513193 0.582409 0.071450
Si Si4 0.195583 0.515359 0.427195
Si Si5 0.959637 0.447877 0.428000
Si Si6 0.628596 0.015633 0.572674
Si Si7 0.876634 0.602006 0.926232
O O1 0.780045 0.698518 0.250000
O O2 0.681146 0.685628 0.031257
O O3 0.801240 0.750000 0.000000
O O4 0.830941 0.646993 0.015718
O O5 0.418202 0.198802 0.250000
O O6 0.463542 0.142037 0.027001
O O7 0.440059 0.250000 0.000000
O O8 0.500077 0.581124 0.250000
O O9 0.587544 0.541764 0.040452
O O10 0.435174 0.558595 0.989271
O O11 0.196000 0.522648 0.250000
O O12 0.129578 0.554441 0.501779
O O13 0.284720 0.521109 0.494857
O O14 0.164187 0.455284 0.457400
O O15 0.954634 0.454052 0.250000
O O16 0.000000 0.500000 0.500000
O O17 0.027011 0.402985 0.459389
O O18 0.636939 0.020290 0.750000
O O19 0.867758 0.611590 0.750000
#
# Coordination Sequence:
#
# PCOD9434953 Si02
#       7
#     8   8   8   8   8   8   8
#     4  10  19  30  45  65  90 119 151 185 220 261
#     4   9  18  31  46  65  89 118 151 187 225 265
#     4   9  18  32  46  64  92 121 151 187 229 275
#     4  10  19  30  45  66  92 121 151 184 223 266
#     4   9  17  29  44  64  90 117 147 182 217 258
#     4  10  19  30  46  67  91 121 155 189 227 273
#     4   9  18  30  44  64  90 119 149 182 220 260
#
# _framework density 14.986579000000001
#
# number of rings (size 3 to 8) (size 9 to 14) (size 15 to 20)
#    0.000    2.571    0.000    3.429    0.000    6.286 
#    0.000    0.000    0.000    0.000    0.000    1.000 
#    0.000    2.286    0.000    0.000    0.000    0.000 
#
# Total GULP energy -312105.122146 kJ/mol
# GULP energy per Si atom -5573.305753 kJ/mol
# Density = 1.495247 g / cm^3
# Si number density = 14.986579 Si / 1000 Ang^3
#
#
#
# Elastic Constant Matrix: (Units=GPa)
#
#
# Indices 1 2 3 4 5 6 
#
# 1 114.6965 50.8910 48.8975 0.0000 0.0000 0.0000
# 2 50.8910 97.0908 43.7600 0.0000 0.0000 0.0000
# 3 48.8975 43.7600 46.7016 0.0000 0.0000 0.0000
# 4 0.0000 0.0000 0.0000 25.1129 0.0000 0.0000
# 5 0.0000 0.0000 0.0000 0.0000 27.5726 0.0000
# 6 0.0000 0.0000 0.0000 0.0000 0.0000 20.4714
#
#
#
# Elastic Compliance Matrix: (Units=1/GPa)
#
#
# Indices 1 2 3 4 5 6 
#
# 1 0.015863 -0.001435 -0.015264 0.000000 0.000000 0.000000
# 2 -0.001435 0.017959 -0.015326 0.000000 0.000000 0.000000
# 3 -0.015264 -0.015326 0.051755 0.000000 0.000000 0.000000
# 4 0.000000 0.000000 0.000000 0.039820 0.000000 0.000000
# 5 0.000000 0.000000 0.000000 0.000000 0.036268 0.000000
# 6 0.000000 0.000000 0.000000 0.000000 0.000000 0.048849
#
#
# Mechanical properties :
#
#
# Convention : Reuss Voigt Hill
#
# Bulk Modulus (GPa) = 46.45253 60.62066 53.53659
# Shear Modulus (GPa) = 17.74698 22.29408 20.02053
#
# Velocity S-wave (km/s) = 3.44494 3.86113 3.65896
# Velocity P-wave (km/s) = 6.84740 7.77274 7.32470
#
# Compressibility (1/GPa) = 0.02152736
#
# Stress axis : x y z
#
# Youngs Moduli (GPa) = 63.04087 55.68181 19.32194
#
# Poissons Ratio (x) = 0.07990 0.29493
# Poissons Ratio (y) = 0.09046 0.29612
# Poissons Ratio (z) = 0.96226 0.85336
#
# Static dielectric constant tensor:
#      x y z
#    x 1.499450 0.000000 0.000000 
#    y 0.000000 1.479100 0.000000 
#    z 0.000000 0.000000 1.498180 
# 
# From -- ./inp_files/7318.got.cif
#   From: 2010.05.17/outbox.cif.g08.bks.cpg/sg57_4_cif.got.tgz:7318.got - 2010.06.03 13:58:18.
