data_PCOD9434207
_publ_section_title
;
Structure prediction by ZEFSAII (Michael W. Deem and Ramdas Pophale) SiO2 
 PCOD9434207
Probable space group: P B C M
;
_chemical_formula_sum "Si O2"
_cell_formula_units_Z 64
_cell_length_a 18.977833
_cell_length_b 27.129275
_cell_length_c 8.802203
_cell_angle_alpha 90.000000
_cell_angle_beta 90.000000
_cell_angle_gamma 90.000000
_cell_volume 4531.856908
_symmetry_space_group_name_H-M "P B C M"
_symmetry_group_IT_number 57
_symmetry_cell_setting 'orthorhombic'
loop_
_space_group_symop_operation_xyz
x,y,z
-x,-y,1/2+z
x,1/2-y,-z
-x,1/2+y,1/2-z
-x,-y,-z
x,y,1/2-z
-x,1/2+y,z
x,1/2-y,1/2+z
loop_
_atom_site_type_symbol
_atom_site_label
_atom_site_fract_x
_atom_site_fract_y
_atom_site_fract_z
Si Si1 0.672237 0.008781 0.432166
Si Si2 0.591631 0.103708 0.567373
Si Si3 0.083958 0.604325 0.932036
Si Si4 0.962076 0.548248 0.067844
Si Si5 0.459928 0.452878 0.432453
Si Si6 0.834630 0.196433 0.068060
Si Si7 0.826310 0.006141 0.932191
Si Si8 0.330208 0.696628 0.431584
O O1 0.671042 0.014439 0.250000
O O2 0.621270 0.962584 0.474927
O O3 0.751431 0.002474 0.488479
O O4 0.637964 0.057837 0.505475
O O5 0.596977 0.104758 0.750000
O O6 0.509903 0.092708 0.523184
O O7 0.622015 0.153656 0.499185
O O8 0.080613 0.606264 0.750000
O O9 0.134231 0.557550 0.973264
O O10 0.117917 0.653512 0.998482
O O11 0.006401 0.592927 0.998164
O O12 0.968856 0.548362 0.250000
O O13 0.880169 0.538490 0.030636
O O14 0.000000 0.500000 0.000000
O O15 0.500000 0.500000 0.500000
O O16 0.462867 0.455201 0.250000
O O17 0.841500 0.197438 0.250000
O O18 0.752183 0.186466 0.030803
O O19 0.852023 0.250000 0.000000
O O20 0.816751 0.006851 0.750000
O O21 0.347720 0.750000 0.500000
O O22 0.336449 0.697993 0.250000
#
# Coordination Sequence:
#
# PCOD9434207 Si02
#       8
#     8   8   8   8   8   8   8   8
#     4  10  18  27  41  61  84 110 142 175 205 244
#     4  10  18  29  44  59  81 112 142 173 209 246
#     4  10  19  30  44  61  83 111 142 173 207 248
#     4   9  17  29  43  59  81 108 139 173 207 245
#     4   8  16  28  40  57  80 107 138 171 206 242
#     4  10  20  32  45  61  83 110 140 175 210 243
#     4   9  18  29  41  60  85 112 140 171 208 248
#     4  10  20  32  45  62  83 108 140 175 209 244
#
# _framework density 14.122244999999999
#
# number of rings (size 3 to 8) (size 9 to 14) (size 15 to 20)
#    0.000    2.500    0.000    3.750    0.000    7.500 
#    0.000    0.000    0.000    0.000    0.000    0.000 
#    0.000    1.000    0.000    7.750    0.000    4.750 
#
# Total GULP energy -356466.738607 kJ/mol
# GULP energy per Si atom -5569.792791 kJ/mol
# Density = 1.409010 g / cm^3
# Si number density = 14.122245 Si / 1000 Ang^3
#
#
#
# Elastic Constant Matrix: (Units=GPa)
#
#
# Indices 1 2 3 4 5 6 
#
# 1 109.9188 65.6614 42.3972 0.0000 0.0000 0.0000
# 2 65.6614 97.1730 38.4626 0.0000 0.0000 0.0000
# 3 42.3972 38.4626 42.6646 0.0000 0.0000 0.0000
# 4 0.0000 0.0000 0.0000 22.7013 0.0000 0.0000
# 5 0.0000 0.0000 0.0000 0.0000 21.3932 0.0000
# 6 0.0000 0.0000 0.0000 0.0000 0.0000 29.4390
#
#
#
# Elastic Compliance Matrix: (Units=1/GPa)
#
#
# Indices 1 2 3 4 5 6 
#
# 1 0.017940 -0.007877 -0.010727 0.000000 0.000000 0.000000
# 2 -0.007877 0.019459 -0.009715 0.000000 0.000000 0.000000
# 3 -0.010727 -0.009715 0.042856 0.000000 0.000000 0.000000
# 4 0.000000 0.000000 0.000000 0.044050 0.000000 0.000000
# 5 0.000000 0.000000 0.000000 0.000000 0.046744 0.000000
# 6 0.000000 0.000000 0.000000 0.000000 0.000000 0.033969
#
#
# Mechanical properties :
#
#
# Convention : Reuss Voigt Hill
#
# Bulk Modulus (GPa) = 42.33994 60.31097 51.32546
# Shear Modulus (GPa) = 18.55094 21.58906 20.07000
#
# Velocity S-wave (km/s) = 3.62829 3.91414 3.77392
# Velocity P-wave (km/s) = 6.89919 7.95150 7.44396
#
# Compressibility (1/GPa) = 0.02361836
#
# Stress axis : x y z
#
# Youngs Moduli (GPa) = 55.73985 51.39113 23.33371
#
# Poissons Ratio (x) = 0.40479 0.25030
# Poissons Ratio (y) = 0.43905 0.22668
# Poissons Ratio (z) = 0.59793 0.49925
#
# Static dielectric constant tensor:
#      x y z
#    x 1.484250 0.000000 0.000000 
#    y 0.000000 1.422530 0.000000 
#    z 0.000000 0.000000 1.399240 
# 
# From -- ./inp_files/7394.got.cif
#   From: 2010.05.17/outbox.cif.g08.bks.cpg/sg57_4_cif.got.tgz:7394.got - 2010.06.03 13:58:18.
