data_PCOD9434352
_publ_section_title
;
Structure prediction by ZEFSAII (Michael W. Deem and Ramdas Pophale) SiO2 
 PCOD9434352
Probable space group: P B C M
;
_chemical_formula_sum "Si O2"
_cell_formula_units_Z 48
_cell_length_a 11.233596
_cell_length_b 8.561873
_cell_length_c 26.143328
_cell_angle_alpha 90.000000
_cell_angle_beta 90.000000
_cell_angle_gamma 90.000000
_cell_volume 2514.481556
_symmetry_space_group_name_H-M "P B C M"
_symmetry_group_IT_number 57
_symmetry_cell_setting 'orthorhombic'
loop_
_space_group_symop_operation_xyz
x,y,z
-x,-y,1/2+z
x,1/2-y,-z
-x,1/2+y,1/2-z
-x,-y,-z
x,y,1/2-z
-x,1/2+y,z
x,1/2-y,1/2+z
loop_
_atom_site_type_symbol
_atom_site_label
_atom_site_fract_x
_atom_site_fract_y
_atom_site_fract_z
Si Si1 0.839319 0.961547 0.548412
Si Si2 0.103774 0.857554 0.360746
Si Si3 0.661077 0.955656 0.040069
Si Si4 0.978877 0.250000 0.500000
Si Si5 0.168325 0.043536 0.750000
Si Si6 0.835334 0.511001 0.865310
Si Si7 0.540861 0.250000 0.000000
Si Si8 0.924486 0.193243 0.750000
O O1 0.821140 0.022094 0.605174
O O2 0.728669 0.920345 0.513362
O O3 0.899647 0.112426 0.521772
O O4 0.935190 0.824972 0.542291
O O5 0.135659 0.675491 0.371020
O O6 0.125717 0.881936 0.301000
O O7 0.963933 0.902519 0.368651
O O8 0.748392 0.939115 0.088381
O O9 0.620282 0.134530 0.033693
O O10 0.542926 0.851508 0.037505
O O11 0.219895 0.044750 0.691677
O O12 0.103459 0.875486 0.750000
O O13 0.066093 0.173393 0.750000
#
# Coordination Sequence:
#
# PCOD9434352 Si02
#       8
#     8   8   8   4   4   8   4   4
#     4  11  19  30  47  72 102 132 161 196 243 301
#     4  10  18  29  48  77 110 139 166 193 234 302
#     4  11  22  37  54  71  95 131 170 217 263 300
#     4  10  20  28  42  74 108 126 150 190 242 304
#     4   8  16  30  48  74 104 140 172 192 230 292
#     4  10  19  32  53  78 109 140 166 199 243 298
#     4  10  24  40  52  70  92 122 174 224 270 304
#     4   8  16  28  42  68 108 144 166 190 224 280
#
# _framework density 19.089424000000001
#
# number of rings (size 3 to 8) (size 9 to 14) (size 15 to 20)
#    0.000    2.000    0.000    6.000    0.000    1.333 
#    0.000    0.000    0.000    1.000    0.000    4.667 
#    0.000    0.000    0.000    0.000    0.000    0.000 
#
# Total GULP energy -267755.573897 kJ/mol
# GULP energy per Si atom -5578.241123 kJ/mol
# Density = 1.904598 g / cm^3
# Si number density = 19.089424 Si / 1000 Ang^3
#
#
#
# Elastic Constant Matrix: (Units=GPa)
#
#
# Indices 1 2 3 4 5 6 
#
# 1 39.7353 0.6176 25.8702 0.0000 0.0000 0.0000
# 2 0.6176 43.8257 12.5174 0.0000 0.0000 0.0000
# 3 25.8702 12.5174 121.6043 0.0000 0.0000 0.0000
# 4 0.0000 0.0000 0.0000 22.0968 0.0000 0.0000
# 5 0.0000 0.0000 0.0000 0.0000 16.9794 0.0000
# 6 0.0000 0.0000 0.0000 0.0000 0.0000 25.5091
#
#
#
# Elastic Compliance Matrix: (Units=1/GPa)
#
#
# Indices 1 2 3 4 5 6 
#
# 1 0.029297 0.001409 -0.006378 0.000000 0.000000 0.000000
# 2 0.001409 0.023577 -0.002727 0.000000 0.000000 0.000000
# 3 -0.006378 -0.002727 0.009861 0.000000 0.000000 0.000000
# 4 0.000000 0.000000 0.000000 0.045255 0.000000 0.000000
# 5 0.000000 0.000000 0.000000 0.000000 0.058895 0.000000
# 6 0.000000 0.000000 0.000000 0.000000 0.000000 0.039202
#
#
# Mechanical properties :
#
#
# Convention : Reuss Voigt Hill
#
# Bulk Modulus (GPa) = 21.12232 31.46398 26.29315
# Shear Modulus (GPa) = 21.07406 23.99439 22.53423
#
# Velocity S-wave (km/s) = 3.32620 3.54919 3.43950
# Velocity P-wave (km/s) = 5.08335 5.77182 5.43849
#
# Compressibility (1/GPa) = 0.04734328
#
# Stress axis : x y z
#
# Youngs Moduli (GPa) = 34.13328 42.41502 101.41114
#
# Poissons Ratio (x) = -0.05975 0.64677
# Poissons Ratio (y) = -0.04808 0.27650
# Poissons Ratio (z) = 0.21769 0.11565
#
# Static dielectric constant tensor:
#      x y z
#    x 1.641970 0.000000 0.000000 
#    y 0.000000 1.737540 0.000000 
#    z 0.000000 0.000000 1.753350 
# 
# From -- ./inp_files/28542.got.cif
#   From: 2010.05.17/outbox.cif.g08.bks.cpg/sg57_15_cif.got.tgz:28542.got - 2010.06.03 13:58:18.
