data_PCOD9434759
_publ_section_title
;
Structure prediction by ZEFSAII (Michael W. Deem and Ramdas Pophale) SiO2 
 PCOD9434759
Probable space group: P B C M
;
_chemical_formula_sum "Si O2"
_cell_formula_units_Z 56
_cell_length_a 9.498314
_cell_length_b 16.657433
_cell_length_c 19.562421
_cell_angle_alpha 90.000000
_cell_angle_beta 90.000000
_cell_angle_gamma 90.000000
_cell_volume 3095.117913
_symmetry_space_group_name_H-M "P B C M"
_symmetry_group_IT_number 57
_symmetry_cell_setting 'orthorhombic'
loop_
_space_group_symop_operation_xyz
x,y,z
-x,-y,1/2+z
x,1/2-y,-z
-x,1/2+y,1/2-z
-x,-y,-z
x,y,1/2-z
-x,1/2+y,z
x,1/2-y,1/2+z
loop_
_atom_site_type_symbol
_atom_site_label
_atom_site_fract_x
_atom_site_fract_y
_atom_site_fract_z
Si Si1 0.553524 0.942713 0.908403
Si Si2 0.159531 0.343756 0.421031
Si Si3 0.299201 0.020769 0.672084
Si Si4 0.880312 0.386449 0.887187
Si Si5 0.193170 0.344680 0.916321
Si Si6 0.859116 0.287225 0.074744
Si Si7 0.677682 0.408736 0.010758
O O1 0.672578 0.884337 0.881144
O O2 0.454844 0.893708 0.961478
O O3 0.445655 0.985775 0.857408
O O4 0.637760 0.011287 0.949565
O O5 0.242559 0.407640 0.375782
O O6 0.192255 0.357846 0.501227
O O7 0.195045 0.250896 0.405631
O O8 0.990432 0.344157 0.407176
O O9 0.313106 0.046730 0.750000
O O10 0.188139 0.947320 0.665668
O O11 0.839249 0.292118 0.879924
O O12 0.811046 0.415375 0.959491
O O13 0.048090 0.383680 0.890377
O O14 0.900123 0.250000 0.000000
O O15 0.719351 0.338013 0.062037
#
# Coordination Sequence:
#
# PCOD9434759 Si02
#       7
#     8   8   8   8   8   8   8
#     4  10  21  34  51  84 115 153 184 227 274 341
#     4  10  18  34  61  89 118 140 178 240 299 348
#     4  11  25  43  53  72 115 166 203 228 273 341
#     4   9  18  34  60  87 113 143 182 237 291 338
#     4  10  18  35  61  98 114 133 181 246 311 339
#     4   9  15  32  54  93 119 137 165 233 300 344
#     4   9  16  31  54  88 117 141 172 217 299 340
#
# _framework density 18.093011000000001
#
# number of rings (size 3 to 8) (size 9 to 14) (size 15 to 20)
#    0.000    2.286    4.286    2.571    2.000    1.143 
#   23.143    4.286    0.000    0.000    0.000    0.000 
#    0.000    0.000    0.000    0.000    0.000    0.000 
#
# Total GULP energy -311997.007931 kJ/mol
# GULP energy per Si atom -5571.375142 kJ/mol
# Density = 1.805183 g / cm^3
# Si number density = 18.093011 Si / 1000 Ang^3
#
#
#
# Elastic Constant Matrix: (Units=GPa)
#
#
# Indices 1 2 3 4 5 6 
#
# 1 109.0269 66.0782 21.5278 0.0000 0.0000 0.0000
# 2 66.0782 68.7340 30.8714 0.0000 0.0000 0.0000
# 3 21.5278 30.8714 36.3753 0.0000 0.0000 0.0000
# 4 0.0000 0.0000 0.0000 8.6878 0.0000 0.0000
# 5 0.0000 0.0000 0.0000 0.0000 6.2048 0.0000
# 6 0.0000 0.0000 0.0000 0.0000 0.0000 30.9242
#
#
#
# Elastic Compliance Matrix: (Units=1/GPa)
#
#
# Indices 1 2 3 4 5 6 
#
# 1 0.023501 -0.026415 0.008510 0.000000 0.000000 0.000000
# 2 -0.026415 0.053202 -0.029518 0.000000 0.000000 0.000000
# 3 0.008510 -0.029518 0.047507 0.000000 0.000000 0.000000
# 4 0.000000 0.000000 0.000000 0.115104 0.000000 0.000000
# 5 0.000000 0.000000 0.000000 0.000000 0.161166 0.000000
# 6 0.000000 0.000000 0.000000 0.000000 0.000000 0.032337
#
#
# Mechanical properties :
#
#
# Convention : Reuss Voigt Hill
#
# Bulk Modulus (GPa) = 34.05783 50.12122 42.08952
# Shear Modulus (GPa) = 9.30314 15.54060 12.42187
#
# Velocity S-wave (km/s) = 2.27002 2.93393 2.62306
# Velocity P-wave (km/s) = 5.07300 6.26413 5.69977
#
# Compressibility (1/GPa) = 0.02936182
#
# Stress axis : x y z
#
# Youngs Moduli (GPa) = 42.55064 18.79645 21.04962
#
# Poissons Ratio (x) = 0.49652 -0.17913
# Poissons Ratio (y) = 1.12399 0.62135
# Poissons Ratio (z) = -0.36210 0.55484
#
# Static dielectric constant tensor:
#      x y z
#    x 1.648230 0.000000 0.000000 
#    y 0.000000 1.652950 0.000000 
#    z 0.000000 0.000000 1.622580 
# 
# From -- ./inp_files/24542.got.cif
#   From: 2010.05.17/outbox.cif.g08.bks.cpg/sg57_13_cif.got.tgz:24542.got - 2010.06.03 13:58:18.
