data_PCOD9434956
_publ_section_title
;
Structure prediction by ZEFSAII (Michael W. Deem and Ramdas Pophale) SiO2 
 PCOD9434956
Probable space group: P B C M
;
_chemical_formula_sum "Si O2"
_cell_formula_units_Z 64
_cell_length_a 22.027298
_cell_length_b 14.952207
_cell_length_c 9.202930
_cell_angle_alpha 90.000000
_cell_angle_beta 90.000000
_cell_angle_gamma 90.000000
_cell_volume 3031.046833
_symmetry_space_group_name_H-M "P B C M"
_symmetry_group_IT_number 57
_symmetry_cell_setting 'orthorhombic'
loop_
_space_group_symop_operation_xyz
x,y,z
-x,-y,1/2+z
x,1/2-y,-z
-x,1/2+y,1/2-z
-x,-y,-z
x,y,1/2-z
-x,1/2+y,z
x,1/2-y,1/2+z
loop_
_atom_site_type_symbol
_atom_site_label
_atom_site_fract_x
_atom_site_fract_y
_atom_site_fract_z
Si Si1 0.123828 0.346389 0.925673
Si Si2 0.624854 0.608348 0.916426
Si Si3 0.862001 0.153522 0.076113
Si Si4 0.627838 0.388492 0.584047
Si Si5 0.494715 0.403033 0.924328
Si Si6 0.257077 0.896738 0.410751
Si Si7 0.258239 0.107559 0.412831
Si Si8 0.993313 0.152432 0.075196
O O1 0.125182 0.340889 0.750000
O O2 0.189288 0.384369 0.969342
O O3 0.058521 0.390663 0.964034
O O4 0.121804 0.250000 0.000000
O O5 0.617718 0.635997 0.750000
O O6 0.626345 0.498388 0.917586
O O7 0.566766 0.637220 0.010715
O O8 0.688340 0.640808 0.983680
O O9 0.857337 0.160013 0.250000
O O10 0.927804 0.110014 0.039132
O O11 0.863641 0.250000 0.000000
O O12 0.801873 0.110715 0.010821
O O13 0.640564 0.362340 0.750000
O O14 0.559860 0.358400 0.543523
O O15 0.682174 0.357767 0.481502
O O16 0.490143 0.412584 0.750000
O O17 0.500000 0.500000 0.000000
O O18 0.244835 0.859331 0.250000
O O19 0.269014 0.002045 0.397392
O O20 0.262122 0.147561 0.250000
O O21 0.993286 0.164486 0.250000
O O22 0.993225 0.250000 0.000000
#
# Coordination Sequence:
#
# PCOD9434956 Si02
#       8
#     8   8   8   8   8   8   8   8
#     4   9  17  31  50  71  93 119 154 193 232 274
#     4   9  16  25  39  60  87 118 153 191 229 271
#     4  10  19  32  50  70  92 118 151 191 231 274
#     4   8  15  26  39  58  85 117 150 186 226 268
#     4   9  15  23  37  58  85 116 151 189 229 271
#     4  10  19  30  45  66  93 125 156 187 227 274
#     4   9  18  31  46  65  94 128 156 187 230 279
#     4   8  15  28  47  68  89 115 148 188 231 271
#
# _framework density 21.114818
#
# number of rings (size 3 to 8) (size 9 to 14) (size 15 to 20)
#    0.000    3.000    0.000    2.250    0.000    5.000 
#    0.000    0.625    0.000    0.000    0.000    0.875 
#    0.000    4.000    0.000    0.000    0.000    0.000 
#
# Total GULP energy -356399.993674 kJ/mol
# GULP energy per Si atom -5568.749901 kJ/mol
# Density = 2.106676 g / cm^3
# Si number density = 21.114818 Si / 1000 Ang^3
#
#
#
# Elastic Constant Matrix: (Units=GPa)
#
#
# Indices 1 2 3 4 5 6 
#
# 1 230.6820 4.7780 100.1640 0.0000 0.0000 0.0000
# 2 4.7780 28.6342 10.6500 0.0000 0.0000 0.0000
# 3 100.1640 10.6500 82.8637 0.0000 0.0000 0.0000
# 4 0.0000 0.0000 0.0000 7.9049 0.0000 0.0000
# 5 0.0000 0.0000 0.0000 0.0000 -59.1062 0.0000
# 6 0.0000 0.0000 0.0000 0.0000 0.0000 -28.5189
#
#
#
# Elastic Compliance Matrix: (Units=1/GPa)
#
#
# Indices 1 2 3 4 5 6 
#
# 1 0.009328 0.002770 -0.011632 0.000000 0.000000 0.000000
# 2 0.002770 0.037499 -0.008167 0.000000 0.000000 0.000000
# 3 -0.011632 -0.008167 0.027178 0.000000 0.000000 0.000000
# 4 0.000000 0.000000 0.000000 0.126504 0.000000 0.000000
# 5 0.000000 0.000000 0.000000 0.000000 -0.016919 0.000000
# 6 0.000000 0.000000 0.000000 0.000000 0.000000 -0.035064
#
#
# Mechanical properties :
#
#
# Convention : Reuss Voigt Hill
#
# Bulk Modulus (GPa) = 25.03381 63.70709 44.37045
# Shear Modulus (GPa) = 25.52322 -0.83819 12.34252
#
# Velocity S-wave (km/s) = 3.48053 -0.63074 2.42036
# Velocity P-wave (km/s) = 5.29470 5.45039 5.37311
#
# Compressibility (1/GPa) = 0.03994598
#
# Stress axis : x y z
#
# Youngs Moduli (GPa) = 107.20198 26.66749 36.79459
#
# Poissons Ratio (x) = -0.07386 0.42798
# Poissons Ratio (y) = -0.29692 0.30052
# Poissons Ratio (z) = 1.24694 0.21781
#
# Static dielectric constant tensor:
#      x y z
#    x 1.826980 0.000000 0.000000 
#    y 0.000000 1.805880 0.000000 
#    z 0.000000 0.000000 1.728260 
# 
# From -- ./inp_files/8670.got.cif
#   From: 2010.05.17/outbox.cif.g08.bks.cpg/sg57_5_cif.got.tgz:8670.got - 2010.06.03 13:58:18.
