data_PCOD9434886
_publ_section_title
;
Structure prediction by ZEFSAII (Michael W. Deem and Ramdas Pophale) SiO2 
 PCOD9434886
Probable space group: P B C M
;
_chemical_formula_sum "Si O2"
_cell_formula_units_Z 56
_cell_length_a 20.843387
_cell_length_b 13.987164
_cell_length_c 8.616765
_cell_angle_alpha 90.000000
_cell_angle_beta 90.000000
_cell_angle_gamma 90.000000
_cell_volume 2512.130568
_symmetry_space_group_name_H-M "P B C M"
_symmetry_group_IT_number 57
_symmetry_cell_setting 'orthorhombic'
loop_
_space_group_symop_operation_xyz
x,y,z
-x,-y,1/2+z
x,1/2-y,-z
-x,1/2+y,1/2-z
-x,-y,-z
x,y,1/2-z
-x,1/2+y,z
x,1/2-y,1/2+z
loop_
_atom_site_type_symbol
_atom_site_label
_atom_site_fract_x
_atom_site_fract_y
_atom_site_fract_z
Si Si1 0.316286 0.151160 0.571946
Si Si2 0.880146 0.652919 0.566368
Si Si3 0.848347 0.437079 0.938543
Si Si4 0.554621 0.619380 0.078106
Si Si5 0.707889 0.434768 0.938108
Si Si6 0.013402 0.894014 0.562430
Si Si7 0.424822 0.610262 0.924742
O O1 0.293067 0.250000 0.500000
O O2 0.297830 0.151440 0.750000
O O3 0.393216 0.150455 0.547386
O O4 0.295288 0.046975 0.509824
O O5 0.850327 0.750000 0.500000
O O6 0.872511 0.653642 0.750000
O O7 0.855757 0.548660 0.509445
O O8 0.955281 0.657243 0.522366
O O9 0.849184 0.440594 0.750000
O O10 0.778546 0.399181 0.984735
O O11 0.912098 0.377984 0.982534
O O12 0.571938 0.654923 0.250000
O O13 0.561503 0.504175 0.083210
O O14 0.482511 0.645581 0.032528
O O15 0.702089 0.433539 0.750000
O O16 0.646675 0.381062 0.008168
O O17 0.007082 0.887157 0.750000
O O18 0.000000 0.000000 0.500000
O O19 0.428996 0.648342 0.750000
#
# Coordination Sequence:
#
# PCOD9434886 Si02
#       7
#     8   8   8   8   8   8   8
#     4  10  19  29  42  60  86 118 150 183 218 260
#     4  10  19  31  47  69  95 123 157 196 236 278
#     4   8  16  30  47  66  91 123 157 190 227 275
#     4   9  16  27  43  60  80 108 142 179 218 256
#     4   9  17  30  45  62  87 120 152 180 216 264
#     4   9  16  29  48  68  91 120 154 194 236 276
#     4   9  16  26  41  63  86 106 136 179 220 255
#
# _framework density 22.291836
#
# number of rings (size 3 to 8) (size 9 to 14) (size 15 to 20)
#    0.000    2.857    0.000    3.000    0.000    4.571 
#    0.000    4.286    0.000    0.000    0.000    1.000 
#    0.000    2.286    0.000    0.000    0.000    0.000 
#
# Total GULP energy -312177.649554 kJ/mol
# GULP energy per Si atom -5574.600885 kJ/mol
# Density = 2.224110 g / cm^3
# Si number density = 22.291836 Si / 1000 Ang^3
#
#
#
# Elastic Constant Matrix: (Units=GPa)
#
#
# Indices 1 2 3 4 5 6 
#
# 1 168.3726 -15.9804 6.4152 0.0000 0.0000 0.0000
# 2 -15.9804 32.7953 -4.8778 0.0000 0.0000 0.0000
# 3 6.4152 -4.8778 37.2890 0.0000 0.0000 0.0000
# 4 0.0000 0.0000 0.0000 15.6598 0.0000 0.0000
# 5 0.0000 0.0000 0.0000 0.0000 14.3314 0.0000
# 6 0.0000 0.0000 0.0000 0.0000 0.0000 -8.4749
#
#
#
# Elastic Compliance Matrix: (Units=1/GPa)
#
#
# Indices 1 2 3 4 5 6 
#
# 1 0.006245 0.002940 -0.000690 0.000000 0.000000 0.000000
# 2 0.002940 0.032482 0.003743 0.000000 0.000000 0.000000
# 3 -0.000690 0.003743 0.027426 0.000000 0.000000 0.000000
# 4 0.000000 0.000000 0.000000 0.063858 0.000000 0.000000
# 5 0.000000 0.000000 0.000000 0.000000 0.069777 0.000000
# 6 0.000000 0.000000 0.000000 0.000000 0.000000 -0.117996
#
#
# Mechanical properties :
#
#
# Convention : Reuss Voigt Hill
#
# Bulk Modulus (GPa) = 12.79768 23.28567 18.04167
# Shear Modulus (GPa) = 52.16488 21.16326 36.66407
#
# Velocity S-wave (km/s) = 4.84269 3.08453 4.05993
# Velocity P-wave (km/s) = 6.08460 4.81189 5.48528
#
# Compressibility (1/GPa) = 0.07813917
#
# Stress axis : x y z
#
# Youngs Moduli (GPa) = 160.13966 30.78666 36.46200
#
# Poissons Ratio (x) = -0.09052 0.02515
# Poissons Ratio (y) = -0.47085 -0.13648
# Poissons Ratio (z) = 0.11045 -0.11524
#
# Static dielectric constant tensor:
#      x y z
#    x 1.852760 0.000000 0.000000 
#    y 0.000000 1.806180 0.000000 
#    z 0.000000 0.000000 1.773060 
# 
# From -- ./inp_files/8267.got.cif
#   From: 2010.05.17/outbox.cif.g08.bks.cpg/sg57_5_cif.got.tgz:8267.got - 2010.06.03 13:58:18.
