data_PCOD9434690
_publ_section_title
;
Structure prediction by ZEFSAII (Michael W. Deem and Ramdas Pophale) SiO2 
 PCOD9434690
Probable space group: P B C M
;
_chemical_formula_sum "Si O2"
_cell_formula_units_Z 48
_cell_length_a 29.759871
_cell_length_b 9.097148
_cell_length_c 8.931805
_cell_angle_alpha 90.000000
_cell_angle_beta 90.000000
_cell_angle_gamma 90.000000
_cell_volume 2418.107130
_symmetry_space_group_name_H-M "P B C M"
_symmetry_group_IT_number 57
_symmetry_cell_setting 'orthorhombic'
loop_
_space_group_symop_operation_xyz
x,y,z
-x,-y,1/2+z
x,1/2-y,-z
-x,1/2+y,1/2-z
-x,-y,-z
x,y,1/2-z
-x,1/2+y,z
x,1/2-y,1/2+z
loop_
_atom_site_type_symbol
_atom_site_label
_atom_site_fract_x
_atom_site_fract_y
_atom_site_fract_z
Si Si1 0.891994 0.418630 0.528687
Si Si2 0.365629 0.915658 0.931562
Si Si3 0.967978 0.327913 0.750000
Si Si4 0.195603 0.402963 0.081439
Si Si5 0.457757 0.585435 0.932062
Si Si6 0.726360 0.086672 0.930167
Si Si7 0.940544 0.511042 0.250000
O O1 0.877058 0.250000 0.500000
O O2 0.938890 0.394681 0.615272
O O3 0.850001 0.503174 0.593963
O O4 0.907598 0.513350 0.388861
O O5 0.366613 0.912842 0.750000
O O6 0.365058 0.750000 0.000000
O O7 0.411202 0.980906 0.001747
O O8 0.319184 0.979145 0.996177
O O9 0.962578 0.152601 0.750000
O O10 0.019294 0.374478 0.750000
O O11 0.213298 0.379883 0.250000
O O12 0.186405 0.250000 0.000000
O O13 0.231371 0.492078 0.982648
O O14 0.457338 0.587654 0.750000
O O15 0.460433 0.750000 0.000000
O O16 0.500000 0.500000 0.000000
O O17 0.722499 0.095599 0.750000
O O18 0.731983 0.250000 0.000000
#
# Coordination Sequence:
#
# PCOD9434690 Si02
#       7
#     8   8   4   8   8   8   4
#     4  10  22  40  63  87 119 157 200 243 291 351
#     4  10  18  33  57  87 120 157 203 253 302 356
#     4  10  20  40  56  92 116 160 190 248 283 354
#     4  12  26  43  62  88 122 156 199 249 306 365
#     4  11  21  36  57  86 122 163 209 258 310 365
#     4  11  22  39  65  93 121 157 200 247 301 358
#     4  10  22  34  64  86 124 150 200 232 299 342
#
# _framework density 19.850238999999998
#
# number of rings (size 3 to 8) (size 9 to 14) (size 15 to 20)
#    0.000    1.333    0.833    8.000    2.333    1.333 
#    0.000    0.833    0.000    0.000    0.000    0.000 
#    0.000    0.000    0.000    0.000    0.000    0.000 
#
# Total GULP energy -267791.455027 kJ/mol
# GULP energy per Si atom -5578.988646 kJ/mol
# Density = 1.980506 g / cm^3
# Si number density = 19.850239 Si / 1000 Ang^3
#
#
#
# Elastic Constant Matrix: (Units=GPa)
#
#
# Indices 1 2 3 4 5 6 
#
# 1 134.0980 44.4962 53.5669 0.0000 0.0000 0.0000
# 2 44.4962 48.4974 24.4286 0.0000 0.0000 0.0000
# 3 53.5669 24.4286 191.3441 0.0000 0.0000 0.0000
# 4 0.0000 0.0000 0.0000 18.8263 0.0000 0.0000
# 5 0.0000 0.0000 0.0000 0.0000 21.7200 0.0000
# 6 0.0000 0.0000 0.0000 0.0000 0.0000 15.4528
#
#
#
# Elastic Compliance Matrix: (Units=1/GPa)
#
#
# Indices 1 2 3 4 5 6 
#
# 1 0.011383 -0.009446 -0.001981 0.000000 0.000000 0.000000
# 2 -0.009446 0.029876 -0.001170 0.000000 0.000000 0.000000
# 3 -0.001981 -0.001170 0.005930 0.000000 0.000000 0.000000
# 4 0.000000 0.000000 0.000000 0.053117 0.000000 0.000000
# 5 0.000000 0.000000 0.000000 0.000000 0.046040 0.000000
# 6 0.000000 0.000000 0.000000 0.000000 0.000000 0.064713
#
#
# Mechanical properties :
#
#
# Convention : Reuss Voigt Hill
#
# Bulk Modulus (GPa) = 45.46377 68.76921 57.11649
# Shear Modulus (GPa) = 20.52683 27.96302 24.24492
#
# Velocity S-wave (km/s) = 3.21921 3.75734 3.49863
# Velocity P-wave (km/s) = 6.06390 7.31729 6.71988
#
# Compressibility (1/GPa) = 0.02199553
#
# Stress axis : x y z
#
# Youngs Moduli (GPa) = 87.85191 33.47217 168.63364
#
# Poissons Ratio (x) = 0.31618 0.33401
# Poissons Ratio (y) = 0.82985 0.19726
# Poissons Ratio (z) = 0.17400 0.03915
#
# Static dielectric constant tensor:
#      x y z
#    x 1.708810 0.000000 0.000000 
#    y 0.000000 1.652980 0.000000 
#    z 0.000000 0.000000 1.720070 
# 
# From -- ./inp_files/10111.got.cif
#   From: 2010.05.17/outbox.cif.g08.bks.cpg/sg57_6_cif.got.tgz:10111.got - 2010.06.03 13:58:18.
