data_PCOD9434912
_publ_section_title
;
Structure prediction by ZEFSAII (Michael W. Deem and Ramdas Pophale) SiO2 
 PCOD9434912
Probable space group: P B C M
;
_chemical_formula_sum "Si O2"
_cell_formula_units_Z 48
_cell_length_a 11.705712
_cell_length_b 27.034610
_cell_length_c 8.735243
_cell_angle_alpha 90.000000
_cell_angle_beta 90.000000
_cell_angle_gamma 90.000000
_cell_volume 2764.349398
_symmetry_space_group_name_H-M "P B C M"
_symmetry_group_IT_number 57
_symmetry_cell_setting 'orthorhombic'
loop_
_space_group_symop_operation_xyz
x,y,z
-x,-y,1/2+z
x,1/2-y,-z
-x,1/2+y,1/2-z
-x,-y,-z
x,y,1/2-z
-x,1/2+y,z
x,1/2-y,1/2+z
loop_
_atom_site_type_symbol
_atom_site_label
_atom_site_fract_x
_atom_site_fract_y
_atom_site_fract_z
Si Si1 0.710132 0.120357 0.077017
Si Si2 0.665411 0.863218 0.430173
Si Si3 0.138656 0.197054 0.067168
Si Si4 0.479549 0.554188 0.933865
Si Si5 0.884309 0.303569 0.433330
Si Si6 0.484843 0.797573 0.921362
O O1 0.745690 0.106460 0.250000
O O2 0.611350 0.161408 0.088740
O O3 0.640873 0.076289 0.994612
O O4 0.809903 0.149589 0.989273
O O5 0.688543 0.867292 0.250000
O O6 0.779989 0.848361 0.518750
O O7 0.587186 0.910189 0.478892
O O8 0.582798 0.817315 0.467935
O O9 0.131708 0.200894 0.250000
O O10 0.181298 0.250000 0.000000
O O11 0.013064 0.190154 0.995611
O O12 0.476504 0.553915 0.750000
O O13 0.500000 0.500000 0.000000
O O14 0.844864 0.250000 0.500000
O O15 0.882642 0.300580 0.250000
O O16 0.529431 0.788317 0.750000
O O17 0.433193 0.750000 0.000000
#
# Coordination Sequence:
#
# PCOD9434912 Si02
#       6
#     8   8   8   8   8   8
#     4  10  20  34  52  75 103 135 173 214 258 309
#     4  10  20  34  51  73 101 133 170 211 256 306
#     4  11  21  34  52  75 106 143 180 215 253 301
#     4  10  21  37  58  81 105 134 170 216 268 319
#     4  11  21  34  52  76 108 144 181 216 254 303
#     4  10  19  29  44  68  99 133 166 204 249 300
#
# _framework density 17.363941000000001
#
# number of rings (size 3 to 8) (size 9 to 14) (size 15 to 20)
#    0.000    1.667    0.000    7.000    0.000    5.333 
#    0.000    0.000    0.000    1.000    0.000    0.000 
#    0.000    0.000    0.000    0.000    0.000    0.000 
#
# Total GULP energy -267649.293885 kJ/mol
# GULP energy per Si atom -5576.026956 kJ/mol
# Density = 1.732442 g / cm^3
# Si number density = 17.363941 Si / 1000 Ang^3
#
#
#
# Elastic Constant Matrix: (Units=GPa)
#
#
# Indices 1 2 3 4 5 6 
#
# 1 87.8673 46.1509 40.1152 0.0000 0.0000 0.0000
# 2 46.1509 86.3755 52.8781 0.0000 0.0000 0.0000
# 3 40.1152 52.8781 120.4755 0.0000 0.0000 0.0000
# 4 0.0000 0.0000 0.0000 25.9631 0.0000 0.0000
# 5 0.0000 0.0000 0.0000 0.0000 37.8300 0.0000
# 6 0.0000 0.0000 0.0000 0.0000 0.0000 24.5704
#
#
#
# Elastic Compliance Matrix: (Units=1/GPa)
#
#
# Indices 1 2 3 4 5 6 
#
# 1 0.016231 -0.007334 -0.002185 0.000000 0.000000 0.000000
# 2 -0.007334 0.019145 -0.005961 0.000000 0.000000 0.000000
# 3 -0.002185 -0.005961 0.011644 0.000000 0.000000 0.000000
# 4 0.000000 0.000000 0.000000 0.038516 0.000000 0.000000
# 5 0.000000 0.000000 0.000000 0.000000 0.026434 0.000000
# 6 0.000000 0.000000 0.000000 0.000000 0.000000 0.040699
#
#
# Mechanical properties :
#
#
# Convention : Reuss Voigt Hill
#
# Bulk Modulus (GPa) = 62.26919 63.66741 62.96830
# Shear Modulus (GPa) = 26.45718 28.04430 27.25074
#
# Velocity S-wave (km/s) = 3.90768 4.02318 3.96585
# Velocity P-wave (km/s) = 7.50326 7.63723 7.57054
#
# Compressibility (1/GPa) = 0.01605931
#
# Stress axis : x y z
#
# Youngs Moduli (GPa) = 61.61148 52.23181 85.87799
#
# Poissons Ratio (x) = 0.38309 0.18767
# Poissons Ratio (y) = 0.45188 0.51192
# Poissons Ratio (z) = 0.13464 0.31135
#
# Static dielectric constant tensor:
#      x y z
#    x 1.604870 0.000000 0.000000 
#    y 0.000000 1.612850 0.000000 
#    z 0.000000 0.000000 1.600840 
# 
# From -- ./inp_files/3302.got.cif
#   From: 2010.05.17/outbox.cif.g08.bks.cpg/sg57_2_cif.got.tgz:3302.got - 2010.06.03 13:58:18.
