data_PCOD9434804
_publ_section_title
;
Structure prediction by ZEFSAII (Michael W. Deem and Ramdas Pophale) SiO2 
 PCOD9434804
Probable space group: P B C M
;
_chemical_formula_sum "Si O2"
_cell_formula_units_Z 60
_cell_length_a 19.922292
_cell_length_b 9.278398
_cell_length_c 15.226097
_cell_angle_alpha 90.000000
_cell_angle_beta 90.000000
_cell_angle_gamma 90.000000
_cell_volume 2814.497656
_symmetry_space_group_name_H-M "P B C M"
_symmetry_group_IT_number 57
_symmetry_cell_setting 'orthorhombic'
loop_
_space_group_symop_operation_xyz
x,y,z
-x,-y,1/2+z
x,1/2-y,-z
-x,1/2+y,1/2-z
-x,-y,-z
x,y,1/2-z
-x,1/2+y,z
x,1/2-y,1/2+z
loop_
_atom_site_type_symbol
_atom_site_label
_atom_site_fract_x
_atom_site_fract_y
_atom_site_fract_z
Si Si1 0.180919 0.383168 0.617046
Si Si2 0.797853 0.938673 0.411733
Si Si3 0.702479 0.977950 0.750000
Si Si4 0.618330 0.367069 0.110583
Si Si5 0.651689 0.445202 0.906908
Si Si6 0.080515 0.625939 0.143276
Si Si7 0.470754 0.378425 0.064400
Si Si8 0.954928 0.444411 0.145851
O O1 0.180834 0.211399 0.632955
O O2 0.197226 0.412462 0.515566
O O3 0.239114 0.453359 0.674593
O O4 0.108396 0.450898 0.635129
O O5 0.721704 0.978275 0.389876
O O6 0.848039 0.066183 0.386362
O O7 0.645784 0.011691 0.826104
O O8 0.651259 0.213378 0.135047
O O9 0.538379 0.336733 0.115614
O O10 0.639172 0.410430 0.010946
O O11 0.590110 0.550568 0.882772
O O12 0.080245 0.627842 0.250000
O O13 0.063696 0.786620 0.111130
O O14 0.022526 0.517330 0.110679
O O15 0.447475 0.250000 0.000000
O O16 0.500000 0.500000 0.000000
O O17 0.966364 0.426166 0.250000
#
# Coordination Sequence:
#
# PCOD9434804 Si02
#       8
#     8   8   4   8   8   8   8   8
#     4  11  25  41  63  98 130 177 221 283 331 415
#     4  11  25  41  63  98 136 169 232 277 344 404
#     4  12  24  42  70  92 140 178 226 282 354 402
#     4  10  21  39  65  98 125 175 223 278 330 409
#     4  10  21  39  66  94 133 169 227 276 333 409
#     4  10  23  40  68  97 132 179 217 283 338 409
#     4  10  18  35  67  94 124 173 225 268 329 402
#     4  10  21  41  68  97 132 177 226 264 345 409
#
# _framework density 21.318190000000001
#
# number of rings (size 3 to 8) (size 9 to 14) (size 15 to 20)
#    0.000    1.600    4.667    0.800    4.667    2.133 
#    0.000    0.667    0.000    0.000    0.000    0.000 
#    0.000    0.000    0.000    0.000    0.000    0.000 
#
# Total GULP energy -334126.987964 kJ/mol
# GULP energy per Si atom -5568.783133 kJ/mol
# Density = 2.126967 g / cm^3
# Si number density = 21.318190 Si / 1000 Ang^3
#
#
#
# Elastic Constant Matrix: (Units=GPa)
#
#
# Indices 1 2 3 4 5 6 
#
# 1 128.7582 48.2638 -0.3556 0.0000 0.0000 0.0000
# 2 48.2638 90.1441 -2.7718 0.0000 0.0000 0.0000
# 3 -0.3556 -2.7718 40.5406 0.0000 0.0000 0.0000
# 4 0.0000 0.0000 0.0000 8.4460 0.0000 0.0000
# 5 0.0000 0.0000 0.0000 0.0000 12.6473 0.0000
# 6 0.0000 0.0000 0.0000 0.0000 0.0000 15.1561
#
#
#
# Elastic Compliance Matrix: (Units=1/GPa)
#
#
# Indices 1 2 3 4 5 6 
#
# 1 0.009719 -0.005212 -0.000271 0.000000 0.000000 0.000000
# 2 -0.005212 0.013912 0.000905 0.000000 0.000000 0.000000
# 3 -0.000271 0.000905 0.024726 0.000000 0.000000 0.000000
# 4 0.000000 0.000000 0.000000 0.118399 0.000000 0.000000
# 5 0.000000 0.000000 0.000000 0.000000 0.079068 0.000000
# 6 0.000000 0.000000 0.000000 0.000000 0.000000 0.065980
#
#
# Mechanical properties :
#
#
# Convention : Reuss Voigt Hill
#
# Bulk Modulus (GPa) = 25.50905 38.85729 32.18317
# Shear Modulus (GPa) = 14.96882 21.53699 18.25290
#
# Velocity S-wave (km/s) = 2.65271 3.18191 2.92929
# Velocity P-wave (km/s) = 4.62324 5.63616 5.15464
#
# Compressibility (1/GPa) = 0.03920178
#
# Stress axis : x y z
#
# Youngs Moduli (GPa) = 102.88602 71.88121 40.44296
#
# Poissons Ratio (x) = 0.37466 0.01097
# Poissons Ratio (y) = 0.53626 -0.03662
# Poissons Ratio (z) = 0.02789 -0.06509
#
# Static dielectric constant tensor:
#      x y z
#    x 1.741300 0.000000 0.000000 
#    y 0.000000 1.801220 0.000000 
#    z 0.000000 0.000000 1.819130 
# 
# From -- ./inp_files/22901.got.cif
#   From: 2010.05.17/outbox.cif.g08.bks.cpg/sg57_12_cif.got.tgz:22901.got - 2010.06.03 13:58:18.
