data_PCOD9434056
_publ_section_title
;
Structure prediction by ZEFSAII (Michael W. Deem and Ramdas Pophale) SiO2 
 PCOD9434056
Probable space group: P B C M
;
_chemical_formula_sum "Si O2"
_cell_formula_units_Z 56
_cell_length_a 13.899082
_cell_length_b 29.772654
_cell_length_c 7.834772
_cell_angle_alpha 90.000000
_cell_angle_beta 90.000000
_cell_angle_gamma 90.000000
_cell_volume 3242.127053
_symmetry_space_group_name_H-M "P B C M"
_symmetry_group_IT_number 57
_symmetry_cell_setting 'orthorhombic'
loop_
_space_group_symop_operation_xyz
x,y,z
-x,-y,1/2+z
x,1/2-y,-z
-x,1/2+y,1/2-z
-x,-y,-z
x,y,1/2-z
-x,1/2+y,z
x,1/2-y,1/2+z
loop_
_atom_site_type_symbol
_atom_site_label
_atom_site_fract_x
_atom_site_fract_y
_atom_site_fract_z
Si Si1 0.604250 0.018244 0.544429
Si Si2 0.762903 0.300269 0.048039
Si Si3 0.796275 0.531702 0.040650
Si Si4 0.987652 0.199668 0.453476
Si Si5 0.299367 0.606666 0.544560
Si Si6 0.086173 0.111778 0.052240
Si Si7 0.903216 0.056497 0.546140
O O1 0.611680 0.019685 0.750000
O O2 0.627110 0.068754 0.479816
O O3 0.500000 0.000000 0.500000
O O4 0.691752 0.986008 0.485922
O O5 0.755493 0.302948 0.250000
O O6 0.704299 0.342689 0.974873
O O7 0.732919 0.250000 0.000000
O O8 0.876255 0.305597 0.006742
O O9 0.797120 0.532029 0.250000
O O10 0.829534 0.580493 0.978449
O O11 0.874117 0.493623 0.990027
O O12 0.018771 0.250000 0.500000
O O13 0.988112 0.195986 0.250000
O O14 0.053142 0.159312 0.525082
O O15 0.313634 0.609202 0.750000
O O16 0.193177 0.585773 0.518479
O O17 0.111305 0.120167 0.250000
O O18 0.991955 0.080062 0.044128
O O19 0.921990 0.056150 0.750000
#
# Coordination Sequence:
#
# PCOD9434056 Si02
#       7
#     8   8   8   8   8   8   8
#     4   9  17  32  50  66  85 111 142 177 219 265
#     4  10  17  27  42  60  85 116 149 178 207 249
#     4   8  16  29  44  61  85 114 141 167 209 263
#     4  10  19  28  39  57  84 116 150 183 212 243
#     4   8  15  27  43  61  85 118 145 166 209 266
#     4  10  18  27  40  61  86 113 144 179 210 239
#     4   9  15  26  42  59  83 118 147 165 196 251
#
# _framework density 17.272611999999999
#
# number of rings (size 3 to 8) (size 9 to 14) (size 15 to 20)
#    0.000    2.857    1.429    3.857    0.000    0.571 
#    0.000    5.000    0.000    0.000    0.000    1.000 
#    0.000    6.857    0.000    0.000    0.000    0.000 
#
# Total GULP energy -311930.249441 kJ/mol
# GULP energy per Si atom -5570.183026 kJ/mol
# Density = 1.723330 g / cm^3
# Si number density = 17.272612 Si / 1000 Ang^3
#
#
#
# Elastic Constant Matrix: (Units=GPa)
#
#
# Indices 1 2 3 4 5 6 
#
# 1 63.4776 68.6641 1.6505 0.0000 0.0000 0.0000
# 2 68.6641 180.1403 7.4238 0.0000 0.0000 0.0000
# 3 1.6505 7.4238 23.2872 0.0000 0.0000 0.0000
# 4 0.0000 0.0000 0.0000 -12.3773 0.0000 0.0000
# 5 0.0000 0.0000 0.0000 0.0000 12.5807 0.0000
# 6 0.0000 0.0000 0.0000 0.0000 0.0000 23.0088
#
#
#
# Elastic Compliance Matrix: (Units=1/GPa)
#
#
# Indices 1 2 3 4 5 6 
#
# 1 0.026850 -0.010291 0.001378 0.000000 0.000000 0.000000
# 2 -0.010291 0.009570 -0.002321 0.000000 0.000000 0.000000
# 3 0.001378 -0.002321 0.043584 0.000000 0.000000 0.000000
# 4 0.000000 0.000000 0.000000 -0.080793 0.000000 0.000000
# 5 0.000000 0.000000 0.000000 0.000000 0.079487 0.000000
# 6 0.000000 0.000000 0.000000 0.000000 0.000000 0.043462
#
#
# Mechanical properties :
#
#
# Convention : Reuss Voigt Hill
#
# Bulk Modulus (GPa) = 17.38095 46.93133 32.15614
# Shear Modulus (GPa) = 30.52380 17.25354 23.88867
#
# Velocity S-wave (km/s) = 4.20834 3.16396 3.72296
# Velocity P-wave (km/s) = 5.80501 6.37004 6.09408
#
# Compressibility (1/GPa) = 0.05753427
#
# Stress axis : x y z
#
# Youngs Moduli (GPa) = 37.24439 104.49820 22.94397
#
# Poissons Ratio (x) = 1.07540 -0.03161
# Poissons Ratio (y) = 0.38328 0.05326
# Poissons Ratio (z) = -0.05131 0.24257
#
# Static dielectric constant tensor:
#      x y z
#    x 1.559410 0.000000 0.000000 
#    y 0.000000 1.667670 0.000000 
#    z 0.000000 0.000000 1.580520 
# 
# From -- ./inp_files/5914.got.cif
#   From: 2010.05.17/outbox.cif.g08.bks.cpg/sg57_3_cif.got.tgz:5914.got - 2010.06.03 13:58:18.
