data_PCOD9434036
_publ_section_title
;
Structure prediction by ZEFSAII (Michael W. Deem and Ramdas Pophale) SiO2 
 PCOD9434036
Probable space group: P B C M
;
_chemical_formula_sum "Si O2"
_cell_formula_units_Z 64
_cell_length_a 22.369816
_cell_length_b 18.503613
_cell_length_c 8.798838
_cell_angle_alpha 90.000000
_cell_angle_beta 90.000000
_cell_angle_gamma 90.000000
_cell_volume 3642.036302
_symmetry_space_group_name_H-M "P B C M"
_symmetry_group_IT_number 57
_symmetry_cell_setting 'orthorhombic'
loop_
_space_group_symop_operation_xyz
x,y,z
-x,-y,1/2+z
x,1/2-y,-z
-x,1/2+y,1/2-z
-x,-y,-z
x,y,1/2-z
-x,1/2+y,z
x,1/2-y,1/2+z
loop_
_atom_site_type_symbol
_atom_site_label
_atom_site_fract_x
_atom_site_fract_y
_atom_site_fract_z
Si Si1 0.996774 0.419391 0.932697
Si Si2 0.133542 0.580313 0.432103
Si Si3 0.743975 0.099181 0.568436
Si Si4 0.620208 0.327535 0.068061
Si Si5 0.439795 0.967883 0.931170
Si Si6 0.315147 0.042674 0.931081
Si Si7 0.755322 0.670664 0.067942
Si Si8 0.872832 0.581608 0.066632
O O1 0.995095 0.424064 0.750000
O O2 0.931903 0.389046 0.979065
O O3 0.061423 0.386781 0.973479
O O4 0.000000 0.500000 0.000000
O O5 0.138294 0.581377 0.250000
O O6 0.191345 0.618352 0.502656
O O7 0.134216 0.496828 0.489281
O O8 0.747355 0.094296 0.750000
O O9 0.688952 0.151627 0.527098
O O10 0.724987 0.021144 0.502452
O O11 0.615828 0.326660 0.250000
O O12 0.605082 0.250000 0.000000
O O13 0.578822 0.391148 0.002749
O O14 0.445276 0.960185 0.750000
O O15 0.383578 0.020766 0.962251
O O16 0.500000 0.000000 0.000000
O O17 0.306024 0.043808 0.750000
O O18 0.295312 0.117655 0.003553
O O19 0.752202 0.673150 0.250000
O O20 0.818634 0.633722 0.024167
O O21 0.750694 0.750000 0.000000
O O22 0.870649 0.570826 0.250000
#
# Coordination Sequence:
#
# PCOD9434036 Si02
#       8
#     8   8   8   8   8   8   8   8
#     4   8  15  26  40  63  92 123 161 209 263 316
#     4  10  17  25  44  72  99 129 168 217 267 316
#     4  10  19  31  50  76 106 140 174 213 265 319
#     4  10  21  37  58  84 115 148 183 223 267 318
#     4  10  21  38  62  90 118 149 182 218 260 310
#     4  10  20  35  55  79 107 136 173 219 261 307
#     4  11  22  34  51  73 101 139 180 225 276 325
#     4   9  17  30  46  64  93 130 170 218 271 324
#
# _framework density 17.572586999999999
#
# number of rings (size 3 to 8) (size 9 to 14) (size 15 to 20)
#    0.000    2.250    1.250    2.250    0.000    4.000 
#    0.000    0.625    0.000    3.750    0.000    3.500 
#    0.000    0.000    0.000    0.000    0.000    0.000 
#
# Total GULP energy -356875.398972 kJ/mol
# GULP energy per Si atom -5576.178109 kJ/mol
# Density = 1.753259 g / cm^3
# Si number density = 17.572587 Si / 1000 Ang^3
#
#
#
# Elastic Constant Matrix: (Units=GPa)
#
#
# Indices 1 2 3 4 5 6 
#
# 1 144.0411 54.1431 52.2632 0.0000 0.0000 0.0000
# 2 54.1431 93.7720 36.4449 0.0000 0.0000 0.0000
# 3 52.2632 36.4449 47.8894 0.0000 0.0000 0.0000
# 4 0.0000 0.0000 0.0000 21.6604 0.0000 0.0000
# 5 0.0000 0.0000 0.0000 0.0000 28.9349 0.0000
# 6 0.0000 0.0000 0.0000 0.0000 0.0000 15.8155
#
#
#
# Elastic Compliance Matrix: (Units=1/GPa)
#
#
# Indices 1 2 3 4 5 6 
#
# 1 0.011922 -0.002594 -0.011037 0.000000 0.000000 0.000000
# 2 -0.002594 0.015708 -0.009123 0.000000 0.000000 0.000000
# 3 -0.011037 -0.009123 0.039869 0.000000 0.000000 0.000000
# 4 0.000000 0.000000 0.000000 0.046167 0.000000 0.000000
# 5 0.000000 0.000000 0.000000 0.000000 0.034560 0.000000
# 6 0.000000 0.000000 0.000000 0.000000 0.000000 0.063229
#
#
# Mechanical properties :
#
#
# Convention : Reuss Voigt Hill
#
# Bulk Modulus (GPa) = 45.47271 63.48945 54.48108
# Shear Modulus (GPa) = 18.91843 22.80558 20.86200
#
# Velocity S-wave (km/s) = 3.28470 3.60640 3.44930
# Velocity P-wave (km/s) = 6.34972 7.31777 6.85086
#
# Compressibility (1/GPa) = 0.02199121
#
# Stress axis : x y z
#
# Youngs Moduli (GPa) = 83.87774 63.66336 25.08235
#
# Poissons Ratio (x) = 0.16516 0.27683
# Poissons Ratio (y) = 0.21760 0.22882
# Poissons Ratio (z) = 0.92573 0.58078
#
# Static dielectric constant tensor:
#      x y z
#    x 1.641750 0.000000 0.000000 
#    y 0.000000 1.552210 0.000000 
#    z 0.000000 0.000000 1.584700 
# 
# From -- ./inp_files/9555.got.cif
#   From: 2010.05.17/outbox.cif.g08.bks.cpg/sg57_5_cif.got.tgz:9555.got - 2010.06.03 13:58:18.
