data_PCOD9434039
_publ_section_title
;
Structure prediction by ZEFSAII (Michael W. Deem and Ramdas Pophale) SiO2 
 PCOD9434039
Probable space group: P B C M
;
_chemical_formula_sum "Si O2"
_cell_formula_units_Z 40
_cell_length_a 28.208571
_cell_length_b 7.856758
_cell_length_c 8.524170
_cell_angle_alpha 90.000000
_cell_angle_beta 90.000000
_cell_angle_gamma 90.000000
_cell_volume 1889.194032
_symmetry_space_group_name_H-M "P B C M"
_symmetry_group_IT_number 57
_symmetry_cell_setting 'orthorhombic'
loop_
_space_group_symop_operation_xyz
x,y,z
-x,-y,1/2+z
x,1/2-y,-z
-x,1/2+y,1/2-z
-x,-y,-z
x,y,1/2-z
-x,1/2+y,z
x,1/2-y,1/2+z
loop_
_atom_site_type_symbol
_atom_site_label
_atom_site_fract_x
_atom_site_fract_y
_atom_site_fract_z
Si Si1 0.151855 0.554636 0.060386
Si Si2 0.449429 0.940886 0.936732
Si Si3 0.745775 0.445848 0.938693
Si Si4 0.647777 0.445765 0.436588
Si Si5 0.949497 0.059315 0.062231
O O1 0.151750 0.559555 0.250000
O O2 0.202899 0.478542 0.012888
O O3 0.101009 0.476214 0.010897
O O4 0.152253 0.750000 0.000000
O O5 0.449364 0.947003 0.750000
O O6 0.446153 0.750000 0.000000
O O7 0.400945 0.026336 0.998917
O O8 0.500000 0.000000 0.000000
O O9 0.742296 0.444174 0.750000
O O10 0.747084 0.250000 0.000000
O O11 0.697598 0.524087 0.007308
O O12 0.649132 0.250000 0.500000
O O13 0.645911 0.440833 0.250000
O O14 0.951398 0.052922 0.250000
O O15 0.945675 0.250000 0.000000
O O16 0.000000 0.000000 0.000000
#
# Coordination Sequence:
#
# PCOD9434039 Si02
#       5
#     8   8   8   8   8
#     4   8  15  25  39  59  86 116 149 186 230 277
#     4  11  21  35  52  73  99 130 164 201 240 283
#     4   9  14  22  36  57  84 115 146 183 229 278
#     4  10  17  26  40  62  90 121 153 190 232 279
#     4  10  19  32  48  69  95 126 160 198 238 283
#
# _framework density 21.173051000000001
#
# number of rings (size 3 to 8) (size 9 to 14) (size 15 to 20)
#    0.000    2.400    0.000    7.200    0.000    1.600 
#    0.000    0.000    0.000    0.000    0.000    1.400 
#    0.000    3.200    0.000    0.000    0.000    0.000 
#
# Total GULP energy -222759.378784 kJ/mol
# GULP energy per Si atom -5568.984470 kJ/mol
# Density = 2.112486 g / cm^3
# Si number density = 21.173051 Si / 1000 Ang^3
#
#
#
# Elastic Constant Matrix: (Units=GPa)
#
#
# Indices 1 2 3 4 5 6 
#
# 1 318.6855 22.2410 81.9018 0.0000 0.0000 0.0000
# 2 22.2410 15.3777 -1.0893 0.0000 0.0000 0.0000
# 3 81.9018 -1.0893 126.5943 0.0000 0.0000 0.0000
# 4 0.0000 0.0000 0.0000 9.7143 0.0000 0.0000
# 5 0.0000 0.0000 0.0000 0.0000 58.2583 0.0000
# 6 0.0000 0.0000 0.0000 0.0000 0.0000 22.7091
#
#
#
# Elastic Compliance Matrix: (Units=1/GPa)
#
#
# Indices 1 2 3 4 5 6 
#
# 1 0.004321 -0.006451 -0.002851 0.000000 0.000000 0.000000
# 2 -0.006451 0.074701 0.004816 0.000000 0.000000 0.000000
# 3 -0.002851 0.004816 0.009785 0.000000 0.000000 0.000000
# 4 0.000000 0.000000 0.000000 0.102941 0.000000 0.000000
# 5 0.000000 0.000000 0.000000 0.000000 0.017165 0.000000
# 6 0.000000 0.000000 0.000000 0.000000 0.000000 0.044035
#
#
# Mechanical properties :
#
#
# Convention : Reuss Voigt Hill
#
# Bulk Modulus (GPa) = 12.52575 74.08492 43.30534
# Shear Modulus (GPa) = 17.32914 41.97659 29.65286
#
# Velocity S-wave (km/s) = 2.86396 4.45741 3.74639
# Velocity P-wave (km/s) = 4.10672 7.84586 6.26189
#
# Compressibility (1/GPa) = 0.07983552
#
# Stress axis : x y z
#
# Youngs Moduli (GPa) = 231.43879 13.38673 102.19588
#
# Poissons Ratio (x) = 0.08636 0.29135
# Poissons Ratio (y) = 1.49305 -0.49222
# Poissons Ratio (z) = 0.65981 -0.06448
#
# Static dielectric constant tensor:
#      x y z
#    x 1.948430 0.000000 0.000000 
#    y 0.000000 1.839460 0.000000 
#    z 0.000000 0.000000 1.735500 
# 
# From -- ./inp_files/9625.got.cif
#   From: 2010.05.17/outbox.cif.g08.bks.cpg/sg57_5_cif.got.tgz:9625.got - 2010.06.03 13:58:18.
