data_PCOD9434623
_publ_section_title
;
Structure prediction by ZEFSAII (Michael W. Deem and Ramdas Pophale) SiO2 
 PCOD9434623
Probable space group: P B C M
;
_chemical_formula_sum "Si O2"
_cell_formula_units_Z 52
_cell_length_a 15.117929
_cell_length_b 20.199175
_cell_length_c 8.942678
_cell_angle_alpha 90.000000
_cell_angle_beta 90.000000
_cell_angle_gamma 90.000000
_cell_volume 2730.822840
_symmetry_space_group_name_H-M "P B C M"
_symmetry_group_IT_number 57
_symmetry_cell_setting 'orthorhombic'
loop_
_space_group_symop_operation_xyz
x,y,z
-x,-y,1/2+z
x,1/2-y,-z
-x,1/2+y,1/2-z
-x,-y,-z
x,y,1/2-z
-x,1/2+y,z
x,1/2-y,1/2+z
loop_
_atom_site_type_symbol
_atom_site_label
_atom_site_fract_x
_atom_site_fract_y
_atom_site_fract_z
Si Si1 0.726177 0.626487 0.421792
Si Si2 0.859110 0.969970 0.429687
Si Si3 0.341918 0.676991 0.070893
Si Si4 0.986469 0.858848 0.422058
Si Si5 0.844860 0.750000 0.500000
Si Si6 0.537740 0.822465 0.570730
Si Si7 0.172210 0.611851 0.571239
O O1 0.728819 0.602264 0.250000
O O2 0.775186 0.576051 0.530962
O O3 0.778838 0.697007 0.423674
O O4 0.625221 0.637432 0.471007
O O5 0.865111 0.980419 0.250000
O O6 0.940049 0.924054 0.488738
O O7 0.850636 0.037855 0.518319
O O8 0.335621 0.681559 0.250000
O O9 0.440384 0.650212 0.032119
O O10 0.336137 0.750000 0.000000
O O11 0.261355 0.635032 0.007633
O O12 0.000860 0.876255 0.250000
O O13 0.915392 0.799815 0.423639
O O14 0.085229 0.845883 0.479704
O O15 0.544469 0.750000 0.500000
O O16 0.541048 0.815450 0.750000
O O17 0.184959 0.616372 0.750000
#
# Coordination Sequence:
#
# PCOD9434623 Si02
#       7
#     8   8   8   8   4   8   8
#     4  10  19  33  56  85 115 145 179 222 277 330
#     4  10  21  38  57  80 110 147 189 229 275 330
#     4  10  21  38  58  83 113 145 185 229 275 325
#     4   9  20  35  53  80 113 146 184 228 274 327
#     4  10  18  32  54  84 116 146 174 224 274 332
#     4   9  18  33  55  83 113 144 179 222 273 331
#     4  11  22  38  58  79 110 148 190 232 275 325
#
# _framework density 19.041881
#
# number of rings (size 3 to 8) (size 9 to 14) (size 15 to 20)
#    0.000    2.154    0.769    2.308    1.077    1.846 
#    0.000    8.462    0.000    0.000    0.000    0.000 
#    0.000    0.000    0.000    0.000    0.000    0.000 
#
# Total GULP energy -289615.764097 kJ/mol
# GULP energy per Si atom -5569.533925 kJ/mol
# Density = 1.899854 g / cm^3
# Si number density = 19.041881 Si / 1000 Ang^3
#
#
#
# Elastic Constant Matrix: (Units=GPa)
#
#
# Indices 1 2 3 4 5 6 
#
# 1 165.2437 26.5767 28.3286 0.0000 0.0000 0.0000
# 2 26.5767 40.1286 3.6071 0.0000 0.0000 0.0000
# 3 28.3286 3.6071 40.7502 0.0000 0.0000 0.0000
# 4 0.0000 0.0000 0.0000 25.9918 0.0000 0.0000
# 5 0.0000 0.0000 0.0000 0.0000 13.2755 0.0000
# 6 0.0000 0.0000 0.0000 0.0000 0.0000 19.0999
#
#
#
# Elastic Compliance Matrix: (Units=1/GPa)
#
#
# Indices 1 2 3 4 5 6 
#
# 1 0.007634 -0.004615 -0.004898 0.000000 0.000000 0.000000
# 2 -0.004615 0.027910 0.000738 0.000000 0.000000 0.000000
# 3 -0.004898 0.000738 0.027880 0.000000 0.000000 0.000000
# 4 0.000000 0.000000 0.000000 0.038474 0.000000 0.000000
# 5 0.000000 0.000000 0.000000 0.000000 0.075327 0.000000
# 6 0.000000 0.000000 0.000000 0.000000 0.000000 0.052356
#
#
# Mechanical properties :
#
#
# Convention : Reuss Voigt Hill
#
# Bulk Modulus (GPa) = 21.79967 40.34970 31.07469
# Shear Modulus (GPa) = 19.05326 24.18078 21.61702
#
# Velocity S-wave (km/s) = 3.16665 3.56739 3.37298
# Velocity P-wave (km/s) = 4.98431 6.18097 5.61461
#
# Compressibility (1/GPa) = 0.04587226
#
# Stress axis : x y z
#
# Youngs Moduli (GPa) = 130.99789 35.82908 35.86861
#
# Poissons Ratio (x) = 0.16537 0.17569
# Poissons Ratio (y) = 0.60461 -0.02647
# Poissons Ratio (z) = 0.64166 -0.02644
#
# Static dielectric constant tensor:
#      x y z
#    x 1.723040 0.000000 0.000000 
#    y 0.000000 1.643010 0.000000 
#    z 0.000000 0.000000 1.653550 
# 
# From -- ./inp_files/5049.got.cif
#   From: 2010.05.17/outbox.cif.g08.bks.cpg/sg57_3_cif.got.tgz:5049.got - 2010.06.03 13:58:18.
