data_PCOD9434568
_publ_section_title
;
Structure prediction by ZEFSAII (Michael W. Deem and Ramdas Pophale) SiO2 
 PCOD9434568
Probable space group: P B C M
;
_chemical_formula_sum "Si O2"
_cell_formula_units_Z 56
_cell_length_a 25.235095
_cell_length_b 5.320359
_cell_length_c 19.069856
_cell_angle_alpha 90.000000
_cell_angle_beta 90.000000
_cell_angle_gamma 90.000000
_cell_volume 2560.314381
_symmetry_space_group_name_H-M "P B C M"
_symmetry_group_IT_number 57
_symmetry_cell_setting 'orthorhombic'
loop_
_space_group_symop_operation_xyz
x,y,z
-x,-y,1/2+z
x,1/2-y,-z
-x,1/2+y,1/2-z
-x,-y,-z
x,y,1/2-z
-x,1/2+y,z
x,1/2-y,1/2+z
loop_
_atom_site_type_symbol
_atom_site_label
_atom_site_fract_x
_atom_site_fract_y
_atom_site_fract_z
Si Si1 0.534944 0.046196 0.094020
Si Si2 0.034808 0.926103 0.592971
Si Si3 0.312925 0.186774 0.416542
Si Si4 0.647612 0.313534 0.574069
Si Si5 0.968572 0.997154 0.250000
Si Si6 0.469136 0.030348 0.750000
Si Si7 0.849743 0.011159 0.071433
Si Si8 0.805778 0.514801 0.414815
O O1 0.498574 0.292576 0.082212
O O2 0.590167 0.073434 0.054798
O O3 0.554771 0.037021 0.175130
O O4 0.089033 0.958873 0.551271
O O5 0.004558 0.662524 0.581928
O O6 0.055012 0.941147 0.674136
O O7 0.317991 0.250000 0.500000
O O8 0.322970 0.463851 0.385340
O O9 0.353549 0.966111 0.393602
O O10 0.255041 0.078323 0.401642
O O11 0.676198 0.250000 0.500000
O O12 0.017213 0.200987 0.250000
O O13 0.518149 0.827953 0.750000
O O14 0.827035 0.250269 0.112026
O O15 0.840516 0.749493 0.110043
O O16 0.816339 0.998192 0.999005
#
# Coordination Sequence:
#
# PCOD9434568 Si02
#       8
#     8   8   8   8   4   4   8   8
#     4  10  19  33  50  71 103 130 160 195 234 286
#     4  10  19  33  48  71  99 126 157 194 230 285
#     4  10  18  32  49  66  96 120 162 208 228 275
#     4  10  21  30  47  75  97 127 164 194 242 289
#     4   8  16  30  50  66  89 124 159 194 232 266
#     4   8  16  30  50  70  89 128 167 196 226 272
#     4  10  19  30  49  71  93 124 161 188 238 278
#     4  10  19  32  47  68  95 123 158 202 236 272
#
# _framework density 21.872313999999999
#
# number of rings (size 3 to 8) (size 9 to 14) (size 15 to 20)
#    0.000    2.286    1.429    2.571    4.000    0.571 
#    0.000    8.571    0.000    0.000    0.000    6.000 
#    0.000    0.000    0.000    0.000    0.000    0.000 
#
# Total GULP energy -311844.133495 kJ/mol
# GULP energy per Si atom -5568.645241 kJ/mol
# Density = 2.182253 g / cm^3
# Si number density = 21.872314 Si / 1000 Ang^3
#
#
#
# Elastic Constant Matrix: (Units=GPa)
#
#
# Indices 1 2 3 4 5 6 
#
# 1 94.0604 39.0302 -5.7989 0.0000 0.0000 0.0000
# 2 39.0302 198.9634 -6.8881 0.0000 0.0000 0.0000
# 3 -5.7989 -6.8881 29.0779 0.0000 0.0000 0.0000
# 4 0.0000 0.0000 0.0000 9.9677 0.0000 0.0000
# 5 0.0000 0.0000 0.0000 0.0000 0.0163 0.0000
# 6 0.0000 0.0000 0.0000 0.0000 0.0000 33.7052
#
#
#
# Elastic Compliance Matrix: (Units=1/GPa)
#
#
# Indices 1 2 3 4 5 6 
#
# 1 0.011666 -0.002226 0.001799 0.000000 0.000000 0.000000
# 2 -0.002226 0.005492 0.000857 0.000000 0.000000 0.000000
# 3 0.001799 0.000857 0.034952 0.000000 0.000000 0.000000
# 4 0.000000 0.000000 0.000000 0.100324 0.000000 0.000000
# 5 0.000000 0.000000 0.000000 0.000000 61.164091 0.000000
# 6 0.000000 0.000000 0.000000 0.000000 0.000000 0.029669
#
#
# Mechanical properties :
#
#
# Convention : Reuss Voigt Hill
#
# Bulk Modulus (GPa) = 18.87832 41.64313 30.26073
# Shear Modulus (GPa) = 0.08148 28.45510 14.26829
#
# Velocity S-wave (km/s) = 0.19322 3.61080 2.55688
# Velocity P-wave (km/s) = 2.94952 6.03857 4.75205
#
# Compressibility (1/GPa) = 0.05297083
#
# Stress axis : x y z
#
# Youngs Moduli (GPa) = 85.71807 182.06853 28.61052
#
# Poissons Ratio (x) = 0.40533 -0.05148
# Poissons Ratio (y) = 0.19083 -0.02452
# Poissons Ratio (z) = -0.15422 -0.15605
#
# Static dielectric constant tensor:
#      x y z
#    x 1.776300 0.000000 0.000000 
#    y 0.000000 1.958050 0.000000 
#    z 0.000000 0.000000 1.828360 
# 
# From -- ./inp_files/27668.got.cif
#   From: 2010.05.17/outbox.cif.g08.bks.cpg/sg57_14_cif.got.tgz:27668.got - 2010.06.03 13:58:18.
