data_PCOD9434520
_publ_section_title
;
Structure prediction by ZEFSAII (Michael W. Deem and Ramdas Pophale) SiO2 
 PCOD9434520
Probable space group: P B C M
;
_chemical_formula_sum "Si O2"
_cell_formula_units_Z 64
_cell_length_a 10.971051
_cell_length_b 33.447499
_cell_length_c 7.474091
_cell_angle_alpha 90.000000
_cell_angle_beta 90.000000
_cell_angle_gamma 90.000000
_cell_volume 2742.649213
_symmetry_space_group_name_H-M "P B C M"
_symmetry_group_IT_number 57
_symmetry_cell_setting 'orthorhombic'
loop_
_space_group_symop_operation_xyz
x,y,z
-x,-y,1/2+z
x,1/2-y,-z
-x,1/2+y,1/2-z
-x,-y,-z
x,y,1/2-z
-x,1/2+y,z
x,1/2-y,1/2+z
loop_
_atom_site_type_symbol
_atom_site_label
_atom_site_fract_x
_atom_site_fract_y
_atom_site_fract_z
Si Si1 0.315125 0.847701 0.030624
Si Si2 0.757305 0.591383 0.960484
Si Si3 0.632730 0.515449 0.040276
Si Si4 0.247655 0.565437 0.968401
Si Si5 0.538958 0.706011 0.536913
Si Si6 0.199457 0.319232 0.030935
Si Si7 0.923978 0.203061 0.963882
Si Si8 0.988747 0.546541 0.963514
O O1 0.313974 0.847027 0.250000
O O2 0.315347 0.894297 0.975387
O O3 0.438683 0.825594 0.970295
O O4 0.190568 0.824369 0.973621
O O5 0.776577 0.596931 0.750000
O O6 0.765557 0.635899 0.029863
O O7 0.866871 0.565156 0.038785
O O8 0.646099 0.560788 0.974495
O O9 0.655230 0.517291 0.250000
O O10 0.714538 0.478829 0.966322
O O11 0.500000 0.500000 0.000000
O O12 0.255299 0.564022 0.750000
O O13 0.107540 0.570011 0.023077
O O14 0.489289 0.750000 0.500000
O O15 0.546494 0.699499 0.750000
O O16 0.679053 0.704277 0.470089
O O17 0.195320 0.316665 0.250000
O O18 0.062411 0.307406 0.970579
O O19 0.927764 0.197243 0.750000
O O20 0.900790 0.250000 0.000000
O O21 0.984192 0.550466 0.750000
O O22 0.000000 0.500000 0.000000
#
# Coordination Sequence:
#
# PCOD9434520 Si02
#       8
#     8   8   8   8   8   8   8   8
#     4   9  18  32  54  80 104 137 181 221 260 315
#     4  10  20  35  57  81 108 142 183 229 271 318
#     4  11  23  37  55  78 109 147 187 228 272 323
#     4   9  18  33  54  78 105 141 182 221 261 317
#     4  10  20  35  56  79 105 136 174 218 267 324
#     4   9  19  34  55  81 107 141 183 221 261 319
#     4  10  19  34  56  81 108 139 177 222 271 326
#     4  10  18  31  52  78 106 136 174 221 268 314
#
# _framework density 23.335101999999999
#
# number of rings (size 3 to 8) (size 9 to 14) (size 15 to 20)
#    0.000    2.250    1.250    1.875    1.750    3.000 
#    0.000    1.250    0.000    4.500    0.000    0.000 
#    0.000    0.000    0.000    0.000    0.000    0.000 
#
# Total GULP energy -357038.469614 kJ/mol
# GULP energy per Si atom -5578.726088 kJ/mol
# Density = 2.328199 g / cm^3
# Si number density = 23.335102 Si / 1000 Ang^3
#
#
#
# Elastic Constant Matrix: (Units=GPa)
#
#
# Indices 1 2 3 4 5 6 
#
# 1 72.0082 -2.4184 5.2856 0.0000 0.0000 0.0000
# 2 -2.4184 104.5007 -4.1242 0.0000 0.0000 0.0000
# 3 5.2856 -4.1242 65.3366 0.0000 0.0000 0.0000
# 4 0.0000 0.0000 0.0000 17.5943 0.0000 0.0000
# 5 0.0000 0.0000 0.0000 0.0000 -3.8640 0.0000
# 6 0.0000 0.0000 0.0000 0.0000 0.0000 22.7824
#
#
#
# Elastic Compliance Matrix: (Units=1/GPa)
#
#
# Indices 1 2 3 4 5 6 
#
# 1 0.013978 0.000280 -0.001113 0.000000 0.000000 0.000000
# 2 0.000280 0.009599 0.000583 0.000000 0.000000 0.000000
# 3 -0.001113 0.000583 0.015432 0.000000 0.000000 0.000000
# 4 0.000000 0.000000 0.000000 0.056836 0.000000 0.000000
# 5 0.000000 0.000000 0.000000 0.000000 -0.258801 0.000000
# 6 0.000000 0.000000 0.000000 0.000000 0.000000 0.043894
#
#
# Mechanical properties :
#
#
# Convention : Reuss Voigt Hill
#
# Bulk Modulus (GPa) = 25.96809 26.59238 26.28023
# Shear Modulus (GPa) = -47.29262 23.50940 -11.89161
#
# Velocity S-wave (km/s) = -4.50674 3.17751 -2.25989
# Velocity P-wave (km/s) = 3.99105 4.98826 2.11592
#
# Compressibility (1/GPa) = 0.03850880
#
# Stress axis : x y z
#
# Youngs Moduli (GPa) = 71.53891 104.17970 64.79943
#
# Poissons Ratio (x) = -0.02913 0.07213
# Poissons Ratio (y) = -0.02000 -0.03780
# Poissons Ratio (z) = 0.07964 -0.06077
#
# Static dielectric constant tensor:
#      x y z
#    x 1.912400 0.000000 0.000000 
#    y 0.000000 1.890640 0.000000 
#    z 0.000000 0.000000 1.875170 
# 
# From -- ./inp_files/3730.got.cif
#   From: 2010.05.17/outbox.cif.g08.bks.cpg/sg57_2_cif.got.tgz:3730.got - 2010.06.03 13:58:18.
