data_PCOD9434674
_publ_section_title
;
Structure prediction by ZEFSAII (Michael W. Deem and Ramdas Pophale) SiO2 
 PCOD9434674
Probable space group: P B C M
;
_chemical_formula_sum "Si O2"
_cell_formula_units_Z 64
_cell_length_a 15.314088
_cell_length_b 22.835123
_cell_length_c 8.834953
_cell_angle_alpha 90.000000
_cell_angle_beta 90.000000
_cell_angle_gamma 90.000000
_cell_volume 3089.574963
_symmetry_space_group_name_H-M "P B C M"
_symmetry_group_IT_number 57
_symmetry_cell_setting 'orthorhombic'
loop_
_space_group_symop_operation_xyz
x,y,z
-x,-y,1/2+z
x,1/2-y,-z
-x,1/2+y,1/2-z
-x,-y,-z
x,y,1/2-z
-x,1/2+y,z
x,1/2-y,1/2+z
loop_
_atom_site_type_symbol
_atom_site_label
_atom_site_fract_x
_atom_site_fract_y
_atom_site_fract_z
Si Si1 0.090602 0.101184 0.568061
Si Si2 0.597963 0.383770 0.068878
Si Si3 0.041395 0.809888 0.927904
Si Si4 0.751158 0.688076 0.931313
Si Si5 0.629147 0.510188 0.574964
Si Si6 0.832342 0.018384 0.425108
Si Si7 0.204488 0.640704 0.928256
Si Si8 0.579413 0.633171 0.430227
O O1 0.080491 0.102459 0.750000
O O2 0.177759 0.138326 0.530827
O O3 0.104365 0.033685 0.523740
O O4 0.011348 0.134842 0.491815
O O5 0.589506 0.386695 0.250000
O O6 0.692852 0.356456 0.033252
O O7 0.599982 0.449541 0.000861
O O8 0.515514 0.351398 0.996656
O O9 0.032758 0.806959 0.750000
O O10 0.006548 0.750000 0.000000
O O11 0.141641 0.817862 0.977126
O O12 0.744946 0.691588 0.750000
O O13 0.779199 0.750000 0.000000
O O14 0.657607 0.670956 0.999819
O O15 0.599283 0.513229 0.750000
O O16 0.734563 0.508627 0.576818
O O17 0.597959 0.566588 0.484193
O O18 0.852238 0.035420 0.250000
O O19 0.826252 0.074819 0.530089
O O20 0.193207 0.651373 0.750000
O O21 0.579736 0.637130 0.250000
#
# Coordination Sequence:
#
# PCOD9434674 Si02
#       8
#     8   8   8   8   8   8   8   8
#     4  10  21  40  65  93 125 159 199 247 300 360
#     4  10  21  37  58  86 119 156 199 249 301 355
#     4  12  26  44  67  92 119 156 201 252 303 361
#     4  11  23  41  61  86 120 161 203 253 305 359
#     4  10  18  33  55  84 121 160 200 245 295 352
#     4   9  18  35  60  91 126 164 199 242 300 360
#     4  10  22  41  64  91 123 159 201 253 305 361
#     4  12  23  35  55  84 118 160 204 247 295 355
#
# _framework density 20.714822999999999
#
# number of rings (size 3 to 8) (size 9 to 14) (size 15 to 20)
#    0.000    1.500    1.250    4.500    0.000    5.000 
#    0.000    0.625    0.000    3.000    0.000    0.000 
#    0.000    0.000    0.000    0.000    0.000    0.000 
#
# Total GULP energy -357982.662142 kJ/mol
# GULP energy per Si atom -5593.479096 kJ/mol
# Density = 2.066768 g / cm^3
# Si number density = 20.714823 Si / 1000 Ang^3
#
#
#
# Elastic Constant Matrix: (Units=GPa)
#
#
# Indices 1 2 3 4 5 6 
#
# 1 85.0270 23.9125 35.1573 0.0000 0.0000 0.0000
# 2 23.9125 13.0266 3.9449 0.0000 0.0000 0.0000
# 3 35.1573 3.9449 61.6288 0.0000 0.0000 0.0000
# 4 0.0000 0.0000 0.0000 29.1159 0.0000 0.0000
# 5 0.0000 0.0000 0.0000 0.0000 26.7998 0.0000
# 6 0.0000 0.0000 0.0000 0.0000 0.0000 6.8842
#
#
#
# Elastic Compliance Matrix: (Units=1/GPa)
#
#
# Indices 1 2 3 4 5 6 
#
# 1 0.035415 -0.060055 -0.016359 0.000000 0.000000 0.000000
# 2 -0.060055 0.180123 0.022730 0.000000 0.000000 0.000000
# 3 -0.016359 0.022730 0.024103 0.000000 0.000000 0.000000
# 4 0.000000 0.000000 0.000000 0.034346 0.000000 0.000000
# 5 0.000000 0.000000 0.000000 0.000000 0.037314 0.000000
# 6 0.000000 0.000000 0.000000 0.000000 0.000000 0.145261
#
#
# Mechanical properties :
#
#
# Convention : Reuss Voigt Hill
#
# Bulk Modulus (GPa) = 7.56011 31.74575 19.65293
# Shear Modulus (GPa) = 8.22340 19.00449 13.61395
#
# Velocity S-wave (km/s) = 1.99460 3.03220 2.56639
# Velocity P-wave (km/s) = 2.99368 5.25523 4.27665
#
# Compressibility (1/GPa) = 0.13227318
#
# Stress axis : x y z
#
# Youngs Moduli (GPa) = 28.23698 5.55175 41.48796
#
# Poissons Ratio (x) = 0.33341 0.67869
# Poissons Ratio (y) = 1.69578 -0.94301
# Poissons Ratio (z) = 0.46192 -0.12619
#
# Static dielectric constant tensor:
#      x y z
#    x 1.776140 0.000000 0.000000 
#    y 0.000000 1.744390 0.000000 
#    z 0.000000 0.000000 1.685870 
# 
# From -- ./inp_files/5605.got.cif
#   From: 2010.05.17/outbox.cif.g08.bks.cpg/sg57_3_cif.got.tgz:5605.got - 2010.06.03 13:58:18.
