data_PCOD9434210
_publ_section_title
;
Structure prediction by ZEFSAII (Michael W. Deem and Ramdas Pophale) SiO2 
 PCOD9434210
Probable space group: P B C M
;
_chemical_formula_sum "Si O2"
_cell_formula_units_Z 64
_cell_length_a 17.583996
_cell_length_b 24.202665
_cell_length_c 8.086217
_cell_angle_alpha 90.000000
_cell_angle_beta 90.000000
_cell_angle_gamma 90.000000
_cell_volume 3441.328710
_symmetry_space_group_name_H-M "P B C M"
_symmetry_group_IT_number 57
_symmetry_cell_setting 'orthorhombic'
loop_
_space_group_symop_operation_xyz
x,y,z
-x,-y,1/2+z
x,1/2-y,-z
-x,1/2+y,1/2-z
-x,-y,-z
x,y,1/2-z
-x,1/2+y,z
x,1/2-y,1/2+z
loop_
_atom_site_type_symbol
_atom_site_label
_atom_site_fract_x
_atom_site_fract_y
_atom_site_fract_z
Si Si1 0.717663 0.426469 0.447204
Si Si2 0.061071 0.689529 0.949532
Si Si3 0.065454 0.107418 0.547759
Si Si4 0.203606 0.187204 0.947025
Si Si5 0.835861 0.988322 0.058861
Si Si6 0.704815 0.907332 0.554314
Si Si7 0.235733 0.809536 0.449513
Si Si8 0.413894 0.491826 0.551824
O O1 0.708154 0.423896 0.250000
O O2 0.797689 0.458327 0.476556
O O3 0.721982 0.364165 0.511530
O O4 0.647024 0.462726 0.512674
O O5 0.060917 0.688267 0.750000
O O6 0.148031 0.687253 0.008885
O O7 0.012189 0.636796 0.006522
O O8 0.029368 0.750000 0.000000
O O9 0.065266 0.104811 0.750000
O O10 0.130826 0.151187 0.497035
O O11 0.091701 0.046264 0.490623
O O12 0.205859 0.184296 0.750000
O O13 0.197466 0.250000 0.000000
O O14 0.277352 0.155890 0.017407
O O15 0.849610 0.001426 0.250000
O O16 0.768170 0.942889 0.042618
O O17 0.716768 0.917931 0.750000
O O18 0.623607 0.932744 0.507253
O O19 0.267140 0.750000 0.500000
O O20 0.234045 0.811460 0.250000
O O21 0.500000 0.500000 0.500000
O O22 0.412919 0.495295 0.750000
#
# Coordination Sequence:
#
# PCOD9434210 Si02
#       8
#     8   8   8   8   8   8   8   8
#     4   9  18  33  49  69  96 124 150 183 228 278
#     4   9  16  28  44  62  86 119 156 198 240 277
#     4   8  15  26  40  61  90 120 155 196 237 271
#     4  10  18  27  41  63  90 124 161 195 227 265
#     4   9  16  27  44  66  90 120 155 191 227 269
#     4   9  17  30  45  64  92 122 149 183 221 264
#     4   9  18  32  51  70  91 120 156 193 232 273
#     4   9  18  31  50  73  95 115 141 177 220 269
#
# _framework density 18.597469
#
# number of rings (size 3 to 8) (size 9 to 14) (size 15 to 20)
#    0.000    3.000    0.000    3.000    0.000    3.000 
#    0.000    3.750    0.000    0.750    0.000    3.500 
#    0.000    0.000    0.000    0.000    0.000    0.000 
#
# Total GULP energy -356360.036480 kJ/mol
# GULP energy per Si atom -5568.125570 kJ/mol
# Density = 1.855514 g / cm^3
# Si number density = 18.597469 Si / 1000 Ang^3
#
#
#
# Elastic Constant Matrix: (Units=GPa)
#
#
# Indices 1 2 3 4 5 6 
#
# 1 41.3090 20.2712 6.2947 0.0000 0.0000 0.0000
# 2 20.2712 94.0778 2.8357 0.0000 0.0000 0.0000
# 3 6.2947 2.8357 13.7050 0.0000 0.0000 0.0000
# 4 0.0000 0.0000 0.0000 22.6835 0.0000 0.0000
# 5 0.0000 0.0000 0.0000 0.0000 12.7297 0.0000
# 6 0.0000 0.0000 0.0000 0.0000 0.0000 21.9426
#
#
#
# Elastic Compliance Matrix: (Units=1/GPa)
#
#
# Indices 1 2 3 4 5 6 
#
# 1 0.028928 -0.005869 -0.012072 0.000000 0.000000 0.000000
# 2 -0.005869 0.011887 0.000236 0.000000 0.000000 0.000000
# 3 -0.012072 0.000236 0.078462 0.000000 0.000000 0.000000
# 4 0.000000 0.000000 0.000000 0.044085 0.000000 0.000000
# 5 0.000000 0.000000 0.000000 0.000000 0.078556 0.000000
# 6 0.000000 0.000000 0.000000 0.000000 0.000000 0.045574
#
#
# Mechanical properties :
#
#
# Convention : Reuss Voigt Hill
#
# Bulk Modulus (GPa) = 11.92370 23.09942 17.51156
# Shear Modulus (GPa) = 14.25081 19.45049 16.85065
#
# Velocity S-wave (km/s) = 2.77117 3.23750 3.01337
# Velocity P-wave (km/s) = 4.08223 5.14032 4.64152
#
# Compressibility (1/GPa) = 0.08386656
#
# Stress axis : x y z
#
# Youngs Moduli (GPa) = 34.56918 84.12529 12.74501
#
# Poissons Ratio (x) = 0.49375 0.15386
# Poissons Ratio (y) = 0.20289 -0.00301
# Poissons Ratio (z) = 0.41732 -0.01987
#
# Static dielectric constant tensor:
#      x y z
#    x 1.656370 0.000000 0.000000 
#    y 0.000000 1.686370 0.000000 
#    z 0.000000 0.000000 1.658440 
# 
# From -- ./inp_files/7363.got.cif
#   From: 2010.05.17/outbox.cif.g08.bks.cpg/sg57_4_cif.got.tgz:7363.got - 2010.06.03 13:58:18.
