data_PCOD9434697
_publ_section_title
;
Structure prediction by ZEFSAII (Michael W. Deem and Ramdas Pophale) SiO2 
 PCOD9434697
Probable space group: P B C M
;
_chemical_formula_sum "Si O2"
_cell_formula_units_Z 56
_cell_length_a 6.741993
_cell_length_b 14.315859
_cell_length_c 28.072447
_cell_angle_alpha 90.000000
_cell_angle_beta 90.000000
_cell_angle_gamma 90.000000
_cell_volume 2709.480190
_symmetry_space_group_name_H-M "P B C M"
_symmetry_group_IT_number 57
_symmetry_cell_setting 'orthorhombic'
loop_
_space_group_symop_operation_xyz
x,y,z
-x,-y,1/2+z
x,1/2-y,-z
-x,1/2+y,1/2-z
-x,-y,-z
x,y,1/2-z
-x,1/2+y,z
x,1/2-y,1/2+z
loop_
_atom_site_type_symbol
_atom_site_label
_atom_site_fract_x
_atom_site_fract_y
_atom_site_fract_z
Si Si1 0.768342 0.755676 0.392809
Si Si2 0.540931 0.756825 0.301720
Si Si3 0.918354 0.089106 0.905229
Si Si4 0.355873 0.754901 0.056379
Si Si5 0.631609 0.052946 0.195658
Si Si6 0.914909 0.099071 0.392356
Si Si7 0.738455 0.084262 0.696443
O O1 0.680644 0.790720 0.343094
O O2 0.581014 0.740577 0.426628
O O3 0.911621 0.834541 0.412816
O O4 0.894412 0.663246 0.381424
O O5 0.627064 0.777775 0.250000
O O6 0.497004 0.648001 0.306587
O O7 0.329319 0.807862 0.304696
O O8 0.726414 0.143739 0.925802
O O9 0.874431 0.070994 0.849143
O O10 0.001174 0.989267 0.922012
O O11 0.229421 0.670718 0.079857
O O12 0.337175 0.750000 0.000000
O O13 0.712977 0.046252 0.250000
O O14 0.793017 0.062708 0.153875
O O15 0.468133 0.971932 0.189668
O O16 0.812812 0.062112 0.750000
#
# Coordination Sequence:
#
# PCOD9434697 Si02
#       7
#     8   8   8   8   8   8   8
#     4  11  22  41  64  94 128 172 213 268 324 379
#     4  10  18  33  58  85 124 174 214 247 303 373
#     4  11  24  40  69  99 129 168 217 264 319 393
#     4  11  26  48  68  91 126 164 213 281 343 382
#     4  10  20  36  61  95 136 175 211 251 305 378
#     4  11  24  40  69  99 129 168 217 264 319 393
#     4  10  20  36  61  95 136 175 211 251 305 378
#
# _framework density 20.668171000000001
#
# number of rings (size 3 to 8) (size 9 to 14) (size 15 to 20)
#    0.000    1.429    2.857    2.571    0.000    4.571 
#    0.000    1.429    0.000    0.000    0.000    0.000 
#    0.000    0.000    0.000    0.000    0.000    0.000 
#
# Total GULP energy -312509.730228 kJ/mol
# GULP energy per Si atom -5580.530897 kJ/mol
# Density = 2.062113 g / cm^3
# Si number density = 20.668171 Si / 1000 Ang^3
#
#
#
# Elastic Constant Matrix: (Units=GPa)
#
#
# Indices 1 2 3 4 5 6 
#
# 1 83.0138 15.3764 35.1264 0.0000 0.0000 0.0000
# 2 15.3764 80.4469 3.0107 0.0000 0.0000 0.0000
# 3 35.1264 3.0107 100.6191 0.0000 0.0000 0.0000
# 4 0.0000 0.0000 0.0000 8.7199 0.0000 0.0000
# 5 0.0000 0.0000 0.0000 0.0000 -9.2285 0.0000
# 6 0.0000 0.0000 0.0000 0.0000 0.0000 23.9395
#
#
#
# Elastic Compliance Matrix: (Units=1/GPa)
#
#
# Indices 1 2 3 4 5 6 
#
# 1 0.014663 -0.002614 -0.005041 0.000000 0.000000 0.000000
# 2 -0.002614 0.012911 0.000526 0.000000 0.000000 0.000000
# 3 -0.005041 0.000526 0.011682 0.000000 0.000000 0.000000
# 4 0.000000 0.000000 0.000000 0.114680 0.000000 0.000000
# 5 0.000000 0.000000 0.000000 0.000000 -0.108360 0.000000
# 6 0.000000 0.000000 0.000000 0.000000 0.000000 0.041772
#
#
# Mechanical properties :
#
#
# Convention : Reuss Voigt Hill
#
# Bulk Modulus (GPa) = 40.00135 41.23409 40.61772
# Shear Modulus (GPa) = 45.48000 18.72393 32.10197
#
# Velocity S-wave (km/s) = 4.69602 3.01313 3.94535
# Velocity P-wave (km/s) = 6.98567 5.66561 6.35998
#
# Compressibility (1/GPa) = 0.02499916
#
# Stress axis : x y z
#
# Youngs Moduli (GPa) = 68.19721 77.45629 85.59823
#
# Poissons Ratio (x) = 0.20248 0.43148
# Poissons Ratio (y) = 0.17827 -0.04505
# Poissons Ratio (z) = 0.34377 -0.04076
#
# Static dielectric constant tensor:
#      x y z
#    x 1.742910 0.000000 0.000000 
#    y 0.000000 1.765960 0.000000 
#    z 0.000000 0.000000 1.741450 
# 
# From -- ./inp_files/29170.got.cif
#   From: 2010.05.17/outbox.cif.g08.bks.cpg/sg57_15_cif.got.tgz:29170.got - 2010.06.03 13:58:18.
