data_PCOD9434646
_publ_section_title
;
Structure prediction by ZEFSAII (Michael W. Deem and Ramdas Pophale) SiO2 
 PCOD9434646
Probable space group: P B C M
;
_chemical_formula_sum "Si O2"
_cell_formula_units_Z 64
_cell_length_a 19.515021
_cell_length_b 8.912461
_cell_length_c 19.554722
_cell_angle_alpha 90.000000
_cell_angle_beta 90.000000
_cell_angle_gamma 90.000000
_cell_volume 3401.091466
_symmetry_space_group_name_H-M "P B C M"
_symmetry_group_IT_number 57
_symmetry_cell_setting 'orthorhombic'
loop_
_space_group_symop_operation_xyz
x,y,z
-x,-y,1/2+z
x,1/2-y,-z
-x,1/2+y,1/2-z
-x,-y,-z
x,y,1/2-z
-x,1/2+y,z
x,1/2-y,1/2+z
loop_
_atom_site_type_symbol
_atom_site_label
_atom_site_fract_x
_atom_site_fract_y
_atom_site_fract_z
Si Si1 0.985871 0.978522 0.671613
Si Si2 0.401948 0.190462 0.328192
Si Si3 0.190530 0.874798 0.053829
Si Si4 0.899074 0.229381 0.328365
Si Si5 0.066865 0.084418 0.470171
Si Si6 0.494641 0.454343 0.383939
Si Si7 0.698229 0.874030 0.551867
Si Si8 0.408931 0.594660 0.010049
O O1 0.971248 0.931801 0.750000
O O2 0.942421 0.902803 0.611699
O O3 0.064611 0.930767 0.658173
O O4 0.962529 0.151607 0.666984
O O5 0.379437 0.195996 0.250000
O O6 0.453634 0.326864 0.344714
O O7 0.339117 0.192734 0.381481
O O8 0.446893 0.040536 0.342321
O O9 0.156815 0.788337 0.118399
O O10 0.130314 0.973532 0.019081
O O11 0.248658 0.995764 0.071685
O O12 0.213435 0.750000 0.000000
O O13 0.874022 0.232720 0.250000
O O14 0.073749 0.250000 0.500000
O O15 0.000000 0.000000 0.500000
O O16 0.530704 0.393931 0.453302
O O17 0.439637 0.570940 0.415100
O O18 0.728415 0.750000 0.500000
O O19 0.637150 0.953771 0.509389
O O20 0.369814 0.750000 0.000000
#
# Coordination Sequence:
#
# PCOD9434646 Si02
#       8
#     8   8   8   8   8   8   8   8
#     4   9  17  30  49  77 108 140 174 215 272 340
#     4  11  22  37  58  89 122 151 185 238 294 346
#     4  11  23  38  56  80 111 151 197 243 293 345
#     4   9  18  33  55  81 111 143 180 226 282 345
#     4  11  20  33  55  84 115 144 183 243 301 345
#     4  10  19  32  56  88 117 146 186 230 287 338
#     4  11  23  39  58  80 108 155 202 236 282 349
#     4  10  18  32  58  84 112 146 190 236 275 336
#
# _framework density 18.817488000000001
#
# number of rings (size 3 to 8) (size 9 to 14) (size 15 to 20)
#    0.000    1.750    2.500    3.750    0.000    0.500 
#    0.000    0.000    0.000    0.750    0.000    0.000 
#    0.000    0.000    0.000    0.000    0.000    0.000 
#
# Total GULP energy -356799.822838 kJ/mol
# GULP energy per Si atom -5574.997232 kJ/mol
# Density = 1.877466 g / cm^3
# Si number density = 18.817488 Si / 1000 Ang^3
#
#
#
# Elastic Constant Matrix: (Units=GPa)
#
#
# Indices 1 2 3 4 5 6 
#
# 1 63.4133 12.5278 21.4429 0.0000 0.0000 0.0000
# 2 12.5278 59.5863 28.5085 0.0000 0.0000 0.0000
# 3 21.4429 28.5085 91.0198 0.0000 0.0000 0.0000
# 4 0.0000 0.0000 0.0000 22.0038 0.0000 0.0000
# 5 0.0000 0.0000 0.0000 0.0000 11.8511 0.0000
# 6 0.0000 0.0000 0.0000 0.0000 0.0000 31.1706
#
#
#
# Elastic Compliance Matrix: (Units=1/GPa)
#
#
# Indices 1 2 3 4 5 6 
#
# 1 0.017333 -0.001988 -0.003460 0.000000 0.000000 0.000000
# 2 -0.001988 0.019969 -0.005786 0.000000 0.000000 0.000000
# 3 -0.003460 -0.005786 0.013614 0.000000 0.000000 0.000000
# 4 0.000000 0.000000 0.000000 0.045447 0.000000 0.000000
# 5 0.000000 0.000000 0.000000 0.000000 0.084381 0.000000
# 6 0.000000 0.000000 0.000000 0.000000 0.000000 0.032082
#
#
# Mechanical properties :
#
#
# Convention : Reuss Voigt Hill
#
# Bulk Modulus (GPa) = 35.15498 37.66420 36.40959
# Shear Modulus (GPa) = 20.42684 23.10776 21.76730
#
# Velocity S-wave (km/s) = 3.29830 3.50808 3.40481
# Velocity P-wave (km/s) = 5.76435 6.03886 5.90320
#
# Compressibility (1/GPa) = 0.02844547
#
# Stress axis : x y z
#
# Youngs Moduli (GPa) = 57.69491 50.07835 73.45324
#
# Poissons Ratio (x) = 0.09958 0.25418
# Poissons Ratio (y) = 0.11473 0.42500
# Poissons Ratio (z) = 0.19965 0.28975
#
# Static dielectric constant tensor:
#      x y z
#    x 1.656670 0.000000 0.000000 
#    y 0.000000 1.727510 0.000000 
#    z 0.000000 0.000000 1.655470 
# 
# From -- ./inp_files/25786.got.cif
#   From: 2010.05.17/outbox.cif.g08.bks.cpg/sg57_13_cif.got.tgz:25786.got - 2010.06.03 13:58:18.
