data_PCOD9434097
_publ_section_title
;
Structure prediction by ZEFSAII (Michael W. Deem and Ramdas Pophale) SiO2 
 PCOD9434097
Probable space group: P B C M
;
_chemical_formula_sum "Si O2"
_cell_formula_units_Z 64
_cell_length_a 14.875457
_cell_length_b 31.779960
_cell_length_c 8.190476
_cell_angle_alpha 90.000000
_cell_angle_beta 90.000000
_cell_angle_gamma 90.000000
_cell_volume 3871.977324
_symmetry_space_group_name_H-M "P B C M"
_symmetry_group_IT_number 57
_symmetry_cell_setting 'orthorhombic'
loop_
_space_group_symop_operation_xyz
x,y,z
-x,-y,1/2+z
x,1/2-y,-z
-x,1/2+y,1/2-z
-x,-y,-z
x,y,1/2-z
-x,1/2+y,z
x,1/2-y,1/2+z
loop_
_atom_site_type_symbol
_atom_site_label
_atom_site_fract_x
_atom_site_fract_y
_atom_site_fract_z
Si Si1 0.354188 0.296905 0.554270
Si Si2 0.566469 0.881184 0.944755
Si Si3 0.251924 0.977618 0.446568
Si Si4 0.052312 0.957491 0.051776
Si Si5 0.449136 0.957442 0.944053
Si Si6 0.240338 0.424402 0.942919
Si Si7 0.147691 0.203030 0.554117
Si Si8 0.934289 0.619336 0.939974
O O1 0.379002 0.250000 0.500000
O O2 0.354317 0.298363 0.750000
O O3 0.419299 0.333901 0.490449
O O4 0.250734 0.304630 0.501238
O O5 0.548381 0.877172 0.750000
O O6 0.495638 0.914965 0.012465
O O7 0.663958 0.902575 0.962861
O O8 0.256306 0.974619 0.250000
O O9 0.156365 0.958882 0.500742
O O10 0.344086 0.959137 0.514488
O O11 0.248809 0.026981 0.488592
O O12 0.050363 0.957286 0.250000
O O13 0.002563 0.915363 0.989813
O O14 0.000000 0.000000 0.000000
O O15 0.460617 0.956617 0.750000
O O16 0.500000 0.000000 0.000000
O O17 0.215896 0.421862 0.750000
O O18 0.163141 0.402265 0.044906
O O19 0.122703 0.250000 0.500000
O O20 0.147626 0.201491 0.750000
O O21 0.082493 0.166018 0.490028
O O22 0.958968 0.624554 0.750000
#
# Coordination Sequence:
#
# PCOD9434097 Si02
#       8
#     8   8   8   8   8   8   8   8
#     4  10  18  30  47  67  93 123 154 189 232 281
#     4   9  18  31  46  65  93 127 158 186 230 280
#     4  10  20  34  48  67  96 129 163 200 236 275
#     4  10  20  33  49  69  97 128 161 198 237 281
#     4  11  21  34  50  70  95 126 163 199 235 280
#     4  10  17  29  47  66  94 131 162 189 229 282
#     4  10  19  30  44  66  95 123 155 192 233 280
#     4  10  20  31  45  70  97 124 161 200 235 273
#
# _framework density 16.529022999999999
#
# number of rings (size 3 to 8) (size 9 to 14) (size 15 to 20)
#    0.000    2.000    3.750    1.875    0.000    1.500 
#    0.000    2.500    0.000    0.000    0.000    0.875 
#    0.000    6.000    0.000    0.000    0.000    0.000 
#
# Total GULP energy -356756.516217 kJ/mol
# GULP energy per Si atom -5574.320566 kJ/mol
# Density = 1.649140 g / cm^3
# Si number density = 16.529023 Si / 1000 Ang^3
#
#
#
# Elastic Constant Matrix: (Units=GPa)
#
#
# Indices 1 2 3 4 5 6 
#
# 1 77.0207 65.9769 8.7925 0.0000 0.0000 0.0000
# 2 65.9769 161.0928 16.7800 0.0000 0.0000 0.0000
# 3 8.7925 16.7800 18.9176 0.0000 0.0000 0.0000
# 4 0.0000 0.0000 0.0000 13.0276 0.0000 0.0000
# 5 0.0000 0.0000 0.0000 0.0000 16.2679 0.0000
# 6 0.0000 0.0000 0.0000 0.0000 0.0000 26.6289
#
#
#
# Elastic Compliance Matrix: (Units=1/GPa)
#
#
# Indices 1 2 3 4 5 6 
#
# 1 0.020087 -0.007993 -0.002246 0.000000 0.000000 0.000000
# 2 -0.007993 0.010020 -0.005173 0.000000 0.000000 0.000000
# 3 -0.002246 -0.005173 0.058493 0.000000 0.000000 0.000000
# 4 0.000000 0.000000 0.000000 0.076760 0.000000 0.000000
# 5 0.000000 0.000000 0.000000 0.000000 0.061471 0.000000
# 6 0.000000 0.000000 0.000000 0.000000 0.000000 0.037553
#
#
# Mechanical properties :
#
#
# Convention : Reuss Voigt Hill
#
# Bulk Modulus (GPa) = 17.30820 48.90331 33.10575
# Shear Modulus (GPa) = 15.89997 22.21699 19.05848
#
# Velocity S-wave (km/s) = 3.10488 3.67020 3.39931
# Velocity P-wave (km/s) = 4.83196 6.90008 5.95646
#
# Compressibility (1/GPa) = 0.05777609
#
# Stress axis : x y z
#
# Youngs Moduli (GPa) = 49.78457 99.80172 17.09597
#
# Poissons Ratio (x) = 0.79768 0.03840
# Poissons Ratio (y) = 0.39791 0.08843
# Poissons Ratio (z) = 0.11183 0.51626
#
# Static dielectric constant tensor:
#      x y z
#    x 1.540760 0.000000 0.000000 
#    y 0.000000 1.596770 0.000000 
#    z 0.000000 0.000000 1.590640 
# 
# From -- ./inp_files/5951.got.cif
#   From: 2010.05.17/outbox.cif.g08.bks.cpg/sg57_3_cif.got.tgz:5951.got - 2010.06.03 13:58:18.
