data_PCOD9434403
_publ_section_title
;
Structure prediction by ZEFSAII (Michael W. Deem and Ramdas Pophale) SiO2 
 PCOD9434403
Probable space group: P B C M
;
_chemical_formula_sum "Si O2"
_cell_formula_units_Z 48
_cell_length_a 15.653741
_cell_length_b 19.917518
_cell_length_c 9.206398
_cell_angle_alpha 90.000000
_cell_angle_beta 90.000000
_cell_angle_gamma 90.000000
_cell_volume 2870.404539
_symmetry_space_group_name_H-M "P B C M"
_symmetry_group_IT_number 57
_symmetry_cell_setting 'orthorhombic'
loop_
_space_group_symop_operation_xyz
x,y,z
-x,-y,1/2+z
x,1/2-y,-z
-x,1/2+y,1/2-z
-x,-y,-z
x,y,1/2-z
-x,1/2+y,z
x,1/2-y,1/2+z
loop_
_atom_site_type_symbol
_atom_site_label
_atom_site_fract_x
_atom_site_fract_y
_atom_site_fract_z
Si Si1 0.768121 0.446584 0.920687
Si Si2 0.900722 0.820576 0.923631
Si Si3 0.571472 0.589800 0.417511
Si Si4 0.039168 0.934892 0.923668
Si Si5 0.256417 0.392530 0.079061
Si Si6 0.402182 0.572516 0.583051
O O1 0.756431 0.431111 0.750000
O O2 0.862473 0.424592 0.968664
O O3 0.763930 0.527772 0.934482
O O4 0.689924 0.416555 0.011127
O O5 0.891495 0.813286 0.750000
O O6 0.978252 0.871957 0.952580
O O7 0.917102 0.750000 0.000000
O O8 0.815241 0.852266 0.992139
O O9 0.574059 0.611575 0.250000
O O10 0.650371 0.618272 0.509602
O O11 0.480258 0.602792 0.491485
O O12 0.583791 0.508567 0.418327
O O13 0.040333 0.946839 0.750000
O O14 0.000000 0.000000 0.000000
O O15 0.255357 0.375879 0.250000
O O16 0.405006 0.594357 0.750000
#
# Coordination Sequence:
#
# PCOD9434403 Si02
#       6
#     8   8   8   8   8   8
#     4   9  17  29  46  70  99 130 164 206 258 309
#     4  11  23  37  53  74 103 137 175 216 261 312
#     4   9  16  26  41  63  95 131 164 199 244 297
#     4  10  20  34  53  76 101 133 173 217 263 314
#     4  10  18  30  49  71  98 131 167 207 254 307
#     4   9  16  25  39  64  96 129 164 201 244 296
#
# _framework density 16.722382
#
# number of rings (size 3 to 8) (size 9 to 14) (size 15 to 20)
#    0.000    2.333    1.667    2.000    0.000    6.000 
#    0.000    0.000    0.000    0.000    0.000    1.167 
#    0.000    2.667    0.000    0.000    0.000    0.000 
#
# Total GULP energy -267705.551745 kJ/mol
# GULP energy per Si atom -5577.198995 kJ/mol
# Density = 1.668432 g / cm^3
# Si number density = 16.722382 Si / 1000 Ang^3
#
#
#
# Elastic Constant Matrix: (Units=GPa)
#
#
# Indices 1 2 3 4 5 6 
#
# 1 188.0438 46.9324 91.6819 0.0000 0.0000 0.0000
# 2 46.9324 41.5456 45.9633 0.0000 0.0000 0.0000
# 3 91.6819 45.9633 116.3290 0.0000 0.0000 0.0000
# 4 0.0000 0.0000 0.0000 16.9107 0.0000 0.0000
# 5 0.0000 0.0000 0.0000 0.0000 30.8808 0.0000
# 6 0.0000 0.0000 0.0000 0.0000 0.0000 8.4004
#
#
#
# Elastic Compliance Matrix: (Units=1/GPa)
#
#
# Indices 1 2 3 4 5 6 
#
# 1 0.009018 -0.004129 -0.005476 0.000000 0.000000 0.000000
# 2 -0.004129 0.044653 -0.014389 0.000000 0.000000 0.000000
# 3 -0.005476 -0.014389 0.018597 0.000000 0.000000 0.000000
# 4 0.000000 0.000000 0.000000 0.059134 0.000000 0.000000
# 5 0.000000 0.000000 0.000000 0.000000 0.032383 0.000000
# 6 0.000000 0.000000 0.000000 0.000000 0.000000 0.119042
#
#
# Mechanical properties :
#
#
# Convention : Reuss Voigt Hill
#
# Bulk Modulus (GPa) = 41.18480 79.45262 60.31871
# Shear Modulus (GPa) = 14.75318 21.99444 18.37381
#
# Velocity S-wave (km/s) = 2.97348 3.63060 3.31834
# Velocity P-wave (km/s) = 6.03910 8.07409 7.12957
#
# Compressibility (1/GPa) = 0.02428080
#
# Stress axis : x y z
#
# Youngs Moduli (GPa) = 110.88417 22.39468 53.77107
#
# Poissons Ratio (x) = 0.09248 0.29445
# Poissons Ratio (y) = 0.45788 0.77370
# Poissons Ratio (z) = 0.60721 0.32223
#
# Static dielectric constant tensor:
#      x y z
#    x 1.566900 0.000000 0.000000 
#    y 0.000000 1.540930 0.000000 
#    z 0.000000 0.000000 1.556950 
# 
# From -- ./inp_files/4571.got.cif
#   From: 2010.05.17/outbox.cif.g08.bks.cpg/sg57_3_cif.got.tgz:4571.got - 2010.06.03 13:58:18.
