data_PCOD9434064
_publ_section_title
;
Structure prediction by ZEFSAII (Michael W. Deem and Ramdas Pophale) SiO2 
 PCOD9434064
Probable space group: P B C M
;
_chemical_formula_sum "Si O2"
_cell_formula_units_Z 56
_cell_length_a 14.855805
_cell_length_b 27.852532
_cell_length_c 7.851834
_cell_angle_alpha 90.000000
_cell_angle_beta 90.000000
_cell_angle_gamma 90.000000
_cell_volume 3248.867363
_symmetry_space_group_name_H-M "P B C M"
_symmetry_group_IT_number 57
_symmetry_cell_setting 'orthorhombic'
loop_
_space_group_symop_operation_xyz
x,y,z
-x,-y,1/2+z
x,1/2-y,-z
-x,1/2+y,1/2-z
-x,-y,-z
x,y,1/2-z
-x,1/2+y,z
x,1/2-y,1/2+z
loop_
_atom_site_type_symbol
_atom_site_label
_atom_site_fract_x
_atom_site_fract_y
_atom_site_fract_z
Si Si1 0.936736 0.567297 0.953202
Si Si2 0.372842 0.194578 0.045065
Si Si3 0.477574 0.624600 0.446627
Si Si4 0.873503 0.462628 0.546318
Si Si5 0.762377 0.613518 0.048076
Si Si6 0.673793 0.440449 0.540417
Si Si7 0.611789 0.956139 0.052584
O O1 0.934854 0.565663 0.750000
O O2 0.898832 0.515868 0.021031
O O3 0.867459 0.607854 0.011841
O O4 0.040239 0.570223 0.008269
O O5 0.376065 0.191280 0.250000
O O6 0.462682 0.167586 0.977090
O O7 0.287306 0.162282 0.990480
O O8 0.367296 0.250000 0.000000
O O9 0.460165 0.637177 0.250000
O O10 0.384066 0.605027 0.520415
O O11 0.543901 0.578372 0.453584
O O12 0.865521 0.466933 0.750000
O O13 0.777192 0.443972 0.483772
O O14 0.747969 0.608523 0.250000
O O15 0.708792 0.569909 0.959663
O O16 0.672582 0.440228 0.750000
O O17 0.624103 0.489864 0.488799
O O18 0.583864 0.957122 0.250000
#
# Coordination Sequence:
#
# PCOD9434064 Si02
#       7
#     8   8   8   8   8   8   8
#     4  10  18  29  44  66  92 121 157 192 227 263
#     4   9  19  33  49  69  90 114 147 186 233 281
#     4   9  18  31  45  64  89 119 152 186 226 271
#     4   9  17  29  43  62  91 127 160 188 220 260
#     4  10  19  31  47  67  91 121 154 188 228 278
#     4   9  16  28  44  62  90 124 157 189 218 261
#     4  10  17  27  42  64  91 121 154 186 220 263
#
# _framework density 17.236775000000002
#
# number of rings (size 3 to 8) (size 9 to 14) (size 15 to 20)
#    0.000    2.571    1.429    2.571    0.000    3.429 
#    0.000    1.429    0.000    0.000    0.000    1.000 
#    0.000    2.286    0.000    0.000    0.000    0.000 
#
# Total GULP energy -312110.861605 kJ/mol
# GULP energy per Si atom -5573.408243 kJ/mol
# Density = 1.719754 g / cm^3
# Si number density = 17.236775 Si / 1000 Ang^3
#
#
#
# Elastic Constant Matrix: (Units=GPa)
#
#
# Indices 1 2 3 4 5 6 
#
# 1 92.4341 39.9693 -6.7502 0.0000 0.0000 0.0000
# 2 39.9693 86.9908 -3.9710 0.0000 0.0000 0.0000
# 3 -6.7502 -3.9710 22.0119 0.0000 0.0000 0.0000
# 4 0.0000 0.0000 0.0000 13.1027 0.0000 0.0000
# 5 0.0000 0.0000 0.0000 0.0000 15.3119 0.0000
# 6 0.0000 0.0000 0.0000 0.0000 0.0000 13.5557
#
#
#
# Elastic Compliance Matrix: (Units=1/GPa)
#
#
# Indices 1 2 3 4 5 6 
#
# 1 0.013706 -0.006156 0.003093 0.000000 0.000000 0.000000
# 2 -0.006156 0.014356 0.000702 0.000000 0.000000 0.000000
# 3 0.003093 0.000702 0.046505 0.000000 0.000000 0.000000
# 4 0.000000 0.000000 0.000000 0.076320 0.000000 0.000000
# 5 0.000000 0.000000 0.000000 0.000000 0.065309 0.000000
# 6 0.000000 0.000000 0.000000 0.000000 0.000000 0.073769
#
#
# Mechanical properties :
#
#
# Convention : Reuss Voigt Hill
#
# Bulk Modulus (GPa) = 14.31765 28.88145 21.59955
# Shear Modulus (GPa) = 15.72470 19.87331 17.79900
#
# Velocity S-wave (km/s) = 3.02367 3.39921 3.21692
# Velocity P-wave (km/s) = 4.52930 5.67435 5.13385
#
# Compressibility (1/GPa) = 0.06984385
#
# Stress axis : x y z
#
# Youngs Moduli (GPa) = 72.95819 69.65626 21.50304
#
# Poissons Ratio (x) = 0.42884 -0.06650
# Poissons Ratio (y) = 0.44917 -0.01509
# Poissons Ratio (z) = -0.22563 -0.04890
#
# Static dielectric constant tensor:
#      x y z
#    x 1.631330 0.000000 0.000000 
#    y 0.000000 1.568260 0.000000 
#    z 0.000000 0.000000 1.622180 
# 
# From -- ./inp_files/5919.got.cif
#   From: 2010.05.17/outbox.cif.g08.bks.cpg/sg57_3_cif.got.tgz:5919.got - 2010.06.03 13:58:18.
