data_PCOD9434075
_publ_section_title
;
Structure prediction by ZEFSAII (Michael W. Deem and Ramdas Pophale) SiO2 
 PCOD9434075
Probable space group: P B C M
;
_chemical_formula_sum "Si O2"
_cell_formula_units_Z 40
_cell_length_a 27.101058
_cell_length_b 9.176642
_cell_length_c 8.608308
_cell_angle_alpha 90.000000
_cell_angle_beta 90.000000
_cell_angle_gamma 90.000000
_cell_volume 2140.857853
_symmetry_space_group_name_H-M "P B C M"
_symmetry_group_IT_number 57
_symmetry_cell_setting 'orthorhombic'
loop_
_space_group_symop_operation_xyz
x,y,z
-x,-y,1/2+z
x,1/2-y,-z
-x,1/2+y,1/2-z
-x,-y,-z
x,y,1/2-z
-x,1/2+y,z
x,1/2-y,1/2+z
loop_
_atom_site_type_symbol
_atom_site_label
_atom_site_fract_x
_atom_site_fract_y
_atom_site_fract_z
Si Si1 0.953186 0.087191 0.936047
Si Si2 0.854295 0.914469 0.936577
Si Si3 0.547048 0.585155 0.936115
Si Si4 0.751539 0.916276 0.435526
Si Si5 0.350164 0.083508 0.435809
O O1 0.955807 0.089751 0.750000
O O2 0.902323 0.006694 0.980281
O O3 0.953733 0.250000 0.000000
O O4 0.000000 0.000000 0.000000
O O5 0.849947 0.908382 0.750000
O O6 0.860311 0.750000 0.000000
O O7 0.803520 0.978884 0.006007
O O8 0.547731 0.586765 0.750000
O O9 0.544003 0.750000 0.000000
O O10 0.500000 0.500000 0.000000
O O11 0.598788 0.519793 0.999000
O O12 0.752670 0.750000 0.500000
O O13 0.749474 0.913185 0.250000
O O14 0.701091 0.983474 0.502865
O O15 0.350017 0.250000 0.500000
O O16 0.350682 0.086357 0.250000
#
# Coordination Sequence:
#
# PCOD9434075 Si02
#       5
#     8   8   8   8   8
#     4  11  24  40  60  83 111 144 182 223 268 317
#     4  10  20  34  53  80 109 140 174 215 262 314
#     4  11  21  35  53  77 106 140 180 224 272 324
#     4  10  17  27  46  73 103 136 171 214 261 311
#     4  10  17  28  46  71 102 136 173 218 265 314
#
# _framework density 18.684100000000001
#
# number of rings (size 3 to 8) (size 9 to 14) (size 15 to 20)
#    0.000    1.600    0.000   10.800    0.000    4.800 
#    0.000    0.000    0.000    1.200    0.000    5.600 
#    0.000    0.000    0.000    0.000    0.000    0.000 
#
# Total GULP energy -223322.478375 kJ/mol
# GULP energy per Si atom -5583.061959 kJ/mol
# Density = 1.864157 g / cm^3
# Si number density = 18.684100 Si / 1000 Ang^3
#
#
#
# Elastic Constant Matrix: (Units=GPa)
#
#
# Indices 1 2 3 4 5 6 
#
# 1 243.8249 63.9064 93.0094 0.0000 0.0000 0.0000
# 2 63.9064 52.9250 28.3524 0.0000 0.0000 0.0000
# 3 93.0094 28.3524 163.5058 0.0000 0.0000 0.0000
# 4 0.0000 0.0000 0.0000 21.2524 0.0000 0.0000
# 5 0.0000 0.0000 0.0000 0.0000 36.9540 0.0000
# 6 0.0000 0.0000 0.0000 0.0000 0.0000 24.5019
#
#
#
# Elastic Compliance Matrix: (Units=1/GPa)
#
#
# Indices 1 2 3 4 5 6 
#
# 1 0.006975 -0.006942 -0.002764 0.000000 0.000000 0.000000
# 2 -0.006942 0.027738 -0.000861 0.000000 0.000000 0.000000
# 3 -0.002764 -0.000861 0.007838 0.000000 0.000000 0.000000
# 4 0.000000 0.000000 0.000000 0.047054 0.000000 0.000000
# 5 0.000000 0.000000 0.000000 0.000000 0.027061 0.000000
# 6 0.000000 0.000000 0.000000 0.000000 0.000000 0.040813
#
#
# Mechanical properties :
#
#
# Convention : Reuss Voigt Hill
#
# Bulk Modulus (GPa) = 46.69180 92.31022 69.50101
# Shear Modulus (GPa) = 26.91783 34.87416 30.89599
#
# Velocity S-wave (km/s) = 3.79975 4.32501 4.07086
# Velocity P-wave (km/s) = 6.65546 8.62867 7.70549
#
# Compressibility (1/GPa) = 0.02141703
#
# Stress axis : x y z
#
# Youngs Moduli (GPa) = 143.36788 36.05175 127.58972
#
# Poissons Ratio (x) = 0.25026 0.35266
# Poissons Ratio (y) = 0.99520 0.10987
# Poissons Ratio (z) = 0.39627 0.03105
#
# Static dielectric constant tensor:
#      x y z
#    x 1.715070 0.000000 0.000000 
#    y 0.000000 1.212400 0.000000 
#    z 0.000000 0.000000 1.621190 
# 
# From -- ./inp_files/9643.got.cif
#   From: 2010.05.17/outbox.cif.g08.bks.cpg/sg57_5_cif.got.tgz:9643.got - 2010.06.03 13:58:18.
