data_PCOD9434925
_publ_section_title
;
Structure prediction by ZEFSAII (Michael W. Deem and Ramdas Pophale) SiO2 
 PCOD9434925
Probable space group: P B C M
;
_chemical_formula_sum "Si O2"
_cell_formula_units_Z 48
_cell_length_a 15.584607
_cell_length_b 21.703841
_cell_length_c 8.987176
_cell_angle_alpha 90.000000
_cell_angle_beta 90.000000
_cell_angle_gamma 90.000000
_cell_volume 3039.874827
_symmetry_space_group_name_H-M "P B C M"
_symmetry_group_IT_number 57
_symmetry_cell_setting 'orthorhombic'
loop_
_space_group_symop_operation_xyz
x,y,z
-x,-y,1/2+z
x,1/2-y,-z
-x,1/2+y,1/2-z
-x,-y,-z
x,y,1/2-z
-x,1/2+y,z
x,1/2-y,1/2+z
loop_
_atom_site_type_symbol
_atom_site_label
_atom_site_fract_x
_atom_site_fract_y
_atom_site_fract_z
Si Si1 0.445211 0.409445 0.926950
Si Si2 0.688803 0.682829 0.928598
Si Si3 0.149616 0.098462 0.572124
Si Si4 0.795323 0.042131 0.427904
Si Si5 0.017566 0.566728 0.072172
Si Si6 0.383763 0.950594 0.426425
O O1 0.445959 0.399379 0.750000
O O2 0.403398 0.476875 0.955535
O O3 0.388296 0.358516 0.007915
O O4 0.541339 0.413510 0.990623
O O5 0.682883 0.686222 0.750000
O O6 0.777537 0.647575 0.966618
O O7 0.687280 0.750000 0.000000
O O8 0.136160 0.098902 0.750000
O O9 0.058558 0.108295 0.492180
O O10 0.184781 0.029779 0.534324
O O11 0.780795 0.044600 0.250000
O O12 0.882619 0.079587 0.462574
O O13 0.710724 0.062978 0.512680
O O14 0.010273 0.562247 0.250000
O O15 0.000000 0.500000 0.000000
O O16 0.389414 0.940708 0.250000
#
# Coordination Sequence:
#
# PCOD9434925 Si02
#       6
#     8   8   8   8   8   8
#     4  10  20  33  48  69  96 128 164 202 247 295
#     4  11  22  36  52  71  97 129 168 208 247 291
#     4   9  18  31  46  65  94 128 160 199 240 283
#     4   9  16  28  44  67  97 128 157 192 240 288
#     4   9  17  27  42  65  94 126 158 191 232 281
#     4  10  19  29  47  72  97 128 162 199 245 297
#
# _framework density 15.790125
#
# number of rings (size 3 to 8) (size 9 to 14) (size 15 to 20)
#    0.000    2.333    1.667    3.000    0.000    6.000 
#    0.000    0.000    0.000    0.000    0.000    1.167 
#    0.000    5.333    0.000    0.000    0.000    0.000 
#
# Total GULP energy -267575.924502 kJ/mol
# GULP energy per Si atom -5574.498427 kJ/mol
# Density = 1.575419 g / cm^3
# Si number density = 15.790125 Si / 1000 Ang^3
#
#
#
# Elastic Constant Matrix: (Units=GPa)
#
#
# Indices 1 2 3 4 5 6 
#
# 1 170.4073 53.2015 69.6037 0.0000 0.0000 0.0000
# 2 53.2015 63.9792 38.7657 0.0000 0.0000 0.0000
# 3 69.6037 38.7657 53.1339 0.0000 0.0000 0.0000
# 4 0.0000 0.0000 0.0000 18.9050 0.0000 0.0000
# 5 0.0000 0.0000 0.0000 0.0000 34.5629 0.0000
# 6 0.0000 0.0000 0.0000 0.0000 0.0000 12.0860
#
#
#
# Elastic Compliance Matrix: (Units=1/GPa)
#
#
# Indices 1 2 3 4 5 6 
#
# 1 0.012648 -0.000857 -0.015943 0.000000 0.000000 0.000000
# 2 -0.000857 0.028072 -0.019358 0.000000 0.000000 0.000000
# 3 -0.015943 -0.019358 0.053828 0.000000 0.000000 0.000000
# 4 0.000000 0.000000 0.000000 0.052896 0.000000 0.000000
# 5 0.000000 0.000000 0.000000 0.000000 0.028933 0.000000
# 6 0.000000 0.000000 0.000000 0.000000 0.000000 0.082741
#
#
# Mechanical properties :
#
#
# Convention : Reuss Voigt Hill
#
# Bulk Modulus (GPa) = 44.98007 67.85137 56.41572
# Shear Modulus (GPa) = 14.75605 21.50742 18.13173
#
# Velocity S-wave (km/s) = 3.06029 3.69464 3.39233
# Velocity P-wave (km/s) = 6.40588 7.82717 7.15192
#
# Compressibility (1/GPa) = 0.02223207
#
# Stress axis : x y z
#
# Youngs Moduli (GPa) = 79.06474 35.62250 18.57767
#
# Poissons Ratio (x) = 0.03054 0.29618
# Poissons Ratio (y) = 0.06779 0.35962
# Poissons Ratio (z) = 1.26051 0.68958
#
# Static dielectric constant tensor:
#      x y z
#    x 1.547330 0.000000 0.000000 
#    y 0.000000 1.499260 0.000000 
#    z 0.000000 0.000000 1.522140 
# 
# From -- ./inp_files/4865.got.cif
#   From: 2010.05.17/outbox.cif.g08.bks.cpg/sg57_3_cif.got.tgz:4865.got - 2010.06.03 13:58:18.
