data_PCOD9434968
_publ_section_title
;
Structure prediction by ZEFSAII (Michael W. Deem and Ramdas Pophale) SiO2 
 PCOD9434968
Probable space group: P B C M
;
_chemical_formula_sum "Si O2"
_cell_formula_units_Z 48
_cell_length_a 12.302347
_cell_length_b 26.971039
_cell_length_c 8.132638
_cell_angle_alpha 90.000000
_cell_angle_beta 90.000000
_cell_angle_gamma 90.000000
_cell_volume 2698.466873
_symmetry_space_group_name_H-M "P B C M"
_symmetry_group_IT_number 57
_symmetry_cell_setting 'orthorhombic'
loop_
_space_group_symop_operation_xyz
x,y,z
-x,-y,1/2+z
x,1/2-y,-z
-x,1/2+y,1/2-z
-x,-y,-z
x,y,1/2-z
-x,1/2+y,z
x,1/2-y,1/2+z
loop_
_atom_site_type_symbol
_atom_site_label
_atom_site_fract_x
_atom_site_fract_y
_atom_site_fract_z
Si Si1 0.289758 0.430598 0.448430
Si Si2 0.168106 0.892762 0.050620
Si Si3 0.355659 0.536373 0.446403
Si Si4 0.511597 0.877602 0.946182
Si Si5 0.673599 0.193660 0.945717
Si Si6 0.043397 0.445735 0.051482
O O1 0.287437 0.432635 0.250000
O O2 0.348931 0.480773 0.512286
O O3 0.364769 0.384514 0.497919
O O4 0.165202 0.433423 0.507136
O O5 0.172110 0.893736 0.250000
O O6 0.229233 0.842753 0.993784
O O7 0.045169 0.904549 0.999624
O O8 0.241010 0.937672 0.983188
O O9 0.371041 0.533563 0.250000
O O10 0.444380 0.574665 0.514965
O O11 0.508896 0.879302 0.750000
O O12 0.440759 0.830451 0.999228
O O13 0.676136 0.192122 0.750000
O O14 0.685756 0.250000 0.000000
O O15 0.046741 0.445996 0.250000
O O16 0.000000 0.500000 0.000000
#
# Coordination Sequence:
#
# PCOD9434968 Si02
#       6
#     8   8   8   8   8   8
#     4  10  19  30  45  68 102 140 173 204 246 293
#     4   9  18  31  49  74 101 130 167 208 252 298
#     4   9  17  29  45  68  99 134 169 206 245 291
#     4  10  20  32  48  72 100 130 168 209 251 300
#     4  10  20  36  57  78  99 124 159 208 261 309
#     4  10  19  31  48  71 102 140 176 208 245 295
#
# _framework density 17.787877999999999
#
# number of rings (size 3 to 8) (size 9 to 14) (size 15 to 20)
#    0.000    2.333    1.667    1.500    0.000    2.667 
#    0.000    0.000    0.000    1.000    0.000    2.333 
#    0.000    0.000    0.000    0.000    0.000    0.000 
#
# Total GULP energy -267558.322944 kJ/mol
# GULP energy per Si atom -5574.131728 kJ/mol
# Density = 1.774739 g / cm^3
# Si number density = 17.787878 Si / 1000 Ang^3
#
#
#
# Elastic Constant Matrix: (Units=GPa)
#
#
# Indices 1 2 3 4 5 6 
#
# 1 85.7026 40.7339 8.4036 0.0000 0.0000 0.0000
# 2 40.7339 95.1980 7.7083 0.0000 0.0000 0.0000
# 3 8.4036 7.7083 12.9358 0.0000 0.0000 0.0000
# 4 0.0000 0.0000 0.0000 18.5175 0.0000 0.0000
# 5 0.0000 0.0000 0.0000 0.0000 17.8796 0.0000
# 6 0.0000 0.0000 0.0000 0.0000 0.0000 12.5575
#
#
#
# Elastic Compliance Matrix: (Units=1/GPa)
#
#
# Indices 1 2 3 4 5 6 
#
# 1 0.015116 -0.005960 -0.006268 0.000000 0.000000 0.000000
# 2 -0.005960 0.013387 -0.004105 0.000000 0.000000 0.000000
# 3 -0.006268 -0.004105 0.083823 0.000000 0.000000 0.000000
# 4 0.000000 0.000000 0.000000 0.054003 0.000000 0.000000
# 5 0.000000 0.000000 0.000000 0.000000 0.055930 0.000000
# 6 0.000000 0.000000 0.000000 0.000000 0.000000 0.079634
#
#
# Mechanical properties :
#
#
# Convention : Reuss Voigt Hill
#
# Bulk Modulus (GPa) = 12.55354 34.16977 23.36165
# Shear Modulus (GPa) = 13.84610 18.92363 16.38487
#
# Velocity S-wave (km/s) = 2.79301 3.26521 3.03830
# Velocity P-wave (km/s) = 4.18018 5.78504 5.04681
#
# Compressibility (1/GPa) = 0.07965881
#
# Stress axis : x y z
#
# Youngs Moduli (GPa) = 66.15612 74.69849 11.92988
#
# Poissons Ratio (x) = 0.44522 0.07478
# Poissons Ratio (y) = 0.39431 0.04897
# Poissons Ratio (z) = 0.41468 0.30665
#
# Static dielectric constant tensor:
#      x y z
#    x 1.652750 0.000000 0.000000 
#    y 0.000000 1.650330 0.000000 
#    z 0.000000 0.000000 1.603910 
# 
# From -- ./inp_files/3262.got.cif
#   From: 2010.05.17/outbox.cif.g08.bks.cpg/sg57_2_cif.got.tgz:3262.got - 2010.06.03 13:58:18.
