data_PCOD9434128
_publ_section_title
;
Structure prediction by ZEFSAII (Michael W. Deem and Ramdas Pophale) SiO2 
 PCOD9434128
Probable space group: P B C M
;
_chemical_formula_sum "Si O2"
_cell_formula_units_Z 56
_cell_length_a 9.682281
_cell_length_b 16.480916
_cell_length_c 17.966683
_cell_angle_alpha 90.000000
_cell_angle_beta 90.000000
_cell_angle_gamma 90.000000
_cell_volume 2866.994988
_symmetry_space_group_name_H-M "P B C M"
_symmetry_group_IT_number 57
_symmetry_cell_setting 'orthorhombic'
loop_
_space_group_symop_operation_xyz
x,y,z
-x,-y,1/2+z
x,1/2-y,-z
-x,1/2+y,1/2-z
-x,-y,-z
x,y,1/2-z
-x,1/2+y,z
x,1/2-y,1/2+z
loop_
_atom_site_type_symbol
_atom_site_label
_atom_site_fract_x
_atom_site_fract_y
_atom_site_fract_z
Si Si1 0.381263 0.837184 0.539002
Si Si2 0.190879 0.650934 0.830703
Si Si3 0.361798 0.480851 0.665342
Si Si4 0.563482 0.911296 0.082851
Si Si5 0.907255 0.118471 0.988434
Si Si6 0.192013 0.066539 0.029359
Si Si7 0.475849 0.752968 0.333998
O O1 0.404165 0.750000 0.500000
O O2 0.448898 0.901293 0.482811
O O3 0.217654 0.850223 0.539956
O O4 0.461902 0.827004 0.615935
O O5 0.119827 0.659395 0.750000
O O6 0.267798 0.563539 0.831308
O O7 0.104464 0.657987 0.906296
O O8 0.318124 0.713465 0.833757
O O9 0.372254 0.450497 0.750000
O O10 0.507226 0.515940 0.633990
O O11 0.280587 0.426956 0.604888
O O12 0.560353 0.826932 0.128772
O O13 0.706865 0.922875 0.040971
O O14 0.868435 0.024365 0.974819
O O15 0.058888 0.124122 0.022724
O O16 0.520614 0.739399 0.250000
#
# Coordination Sequence:
#
# PCOD9434128 Si02
#       7
#     8   8   8   8   8   8   8
#     4  10  17  31  53  75  98 131 179 220 256 318
#     4   8  13  26  48  71  93 128 170 209 249 298
#     4   9  16  29  49  72  99 136 172 206 257 314
#     4  10  17  31  54  77  96 133 178 217 256 314
#     4  10  18  32  49  78 107 137 176 217 264 322
#     4  10  20  31  50  78 109 137 172 221 267 322
#     4   9  17  31  54  77 100 131 175 227 263 301
#
# _framework density 19.532646
#
# number of rings (size 3 to 8) (size 9 to 14) (size 15 to 20)
#    0.000    2.571    5.714    1.714    0.000    0.000 
#    0.000    5.000    0.000    2.571    0.000    0.000 
#    0.000    0.000    0.000    0.000    0.000    0.000 
#
# Total GULP energy -312116.118785 kJ/mol
# GULP energy per Si atom -5573.502121 kJ/mol
# Density = 1.948819 g / cm^3
# Si number density = 19.532646 Si / 1000 Ang^3
#
#
#
# Elastic Constant Matrix: (Units=GPa)
#
#
# Indices 1 2 3 4 5 6 
#
# 1 91.0282 11.0288 42.3123 0.0000 0.0000 0.0000
# 2 11.0288 36.8761 20.0397 0.0000 0.0000 0.0000
# 3 42.3123 20.0397 139.5411 0.0000 0.0000 0.0000
# 4 0.0000 0.0000 0.0000 19.1864 0.0000 0.0000
# 5 0.0000 0.0000 0.0000 0.0000 15.1507 0.0000
# 6 0.0000 0.0000 0.0000 0.0000 0.0000 18.8866
#
#
#
# Elastic Compliance Matrix: (Units=1/GPa)
#
#
# Indices 1 2 3 4 5 6 
#
# 1 0.012907 -0.001880 -0.003644 0.000000 0.000000 0.000000
# 2 -0.001880 0.029687 -0.003693 0.000000 0.000000 0.000000
# 3 -0.003644 -0.003693 0.008802 0.000000 0.000000 0.000000
# 4 0.000000 0.000000 0.000000 0.052120 0.000000 0.000000
# 5 0.000000 0.000000 0.000000 0.000000 0.066003 0.000000
# 6 0.000000 0.000000 0.000000 0.000000 0.000000 0.052948
#
#
# Mechanical properties :
#
#
# Convention : Reuss Voigt Hill
#
# Bulk Modulus (GPa) = 30.33830 46.02299 38.18064
# Shear Modulus (GPa) = 19.85003 23.58239 21.71621
#
# Velocity S-wave (km/s) = 3.19132 3.47844 3.33797
# Velocity P-wave (km/s) = 5.39863 6.30444 5.86904
#
# Compressibility (1/GPa) = 0.03296164
#
# Stress axis : x y z
#
# Youngs Moduli (GPa) = 77.47667 33.68450 113.61538
#
# Poissons Ratio (x) = 0.06333 0.41399
# Poissons Ratio (y) = 0.14566 0.41962
# Poissons Ratio (z) = 0.28231 0.12441
#
# Static dielectric constant tensor:
#      x y z
#    x 1.672930 0.000000 0.000000 
#    y 0.000000 1.742310 0.000000 
#    z 0.000000 0.000000 1.750180 
# 
# From -- ./inp_files/21332.got.cif
#   From: 2010.05.17/outbox.cif.g08.bks.cpg/sg57_11_cif.got.tgz:21332.got - 2010.06.03 13:58:18.
