data_PCOD9434328
_publ_section_title
;
Structure prediction by ZEFSAII (Michael W. Deem and Ramdas Pophale) SiO2 
 PCOD9434328
Probable space group: P B C M
;
_chemical_formula_sum "Si O2"
_cell_formula_units_Z 48
_cell_length_a 15.549713
_cell_length_b 21.409499
_cell_length_c 8.227946
_cell_angle_alpha 90.000000
_cell_angle_beta 90.000000
_cell_angle_gamma 90.000000
_cell_volume 2739.178379
_symmetry_space_group_name_H-M "P B C M"
_symmetry_group_IT_number 57
_symmetry_cell_setting 'orthorhombic'
loop_
_space_group_symop_operation_xyz
x,y,z
-x,-y,1/2+z
x,1/2-y,-z
-x,1/2+y,1/2-z
-x,-y,-z
x,y,1/2-z
-x,1/2+y,z
x,1/2-y,1/2+z
loop_
_atom_site_type_symbol
_atom_site_label
_atom_site_fract_x
_atom_site_fract_y
_atom_site_fract_z
Si Si1 0.510385 0.315601 0.446204
Si Si2 0.922564 0.043800 0.445788
Si Si3 0.729637 0.019482 0.447019
Si Si4 0.299893 0.843072 0.441291
Si Si5 0.433839 0.446147 0.054112
Si Si6 0.111058 0.817330 0.559643
O O1 0.471150 0.250000 0.500000
O O2 0.512765 0.317705 0.250000
O O3 0.609482 0.317977 0.504830
O O4 0.463189 0.378134 0.505202
O O5 0.923802 0.046794 0.250000
O O6 0.924143 0.116108 0.508086
O O7 0.829866 0.014507 0.492482
O O8 0.000000 0.000000 0.500000
O O9 0.726017 0.027438 0.250000
O O10 0.662972 0.965514 0.493132
O O11 0.696897 0.082751 0.530039
O O12 0.291355 0.829211 0.250000
O O13 0.213777 0.820095 0.528222
O O14 0.436606 0.444767 0.250000
O O15 0.500000 0.500000 0.000000
O O16 0.078703 0.750000 0.500000
O O17 0.095588 0.818764 0.750000
#
# Coordination Sequence:
#
# PCOD9434328 Si02
#       6
#     8   8   8   8   8   8
#     4  10  21  32  44  67  98 132 170 206 245 290
#     4   9  19  34  52  76 101 129 165 205 254 305
#     4   9  18  32  51  73  99 130 164 206 254 297
#     4  10  18  29  46  71 101 131 166 201 241 297
#     4  10  19  33  51  72  98 130 169 209 245 293
#     4  10  20  33  49  73 103 133 166 201 249 306
#
# _framework density 17.523503999999999
#
# number of rings (size 3 to 8) (size 9 to 14) (size 15 to 20)
#    0.000    2.333    1.667    2.500    0.000    6.667 
#    0.000    0.000    0.000    1.000    0.000    4.667 
#    0.000    0.000    0.000    0.000    0.000    0.000 
#
# Total GULP energy -267536.972164 kJ/mol
# GULP energy per Si atom -5573.686920 kJ/mol
# Density = 1.748362 g / cm^3
# Si number density = 17.523504 Si / 1000 Ang^3
#
#
#
# Elastic Constant Matrix: (Units=GPa)
#
#
# Indices 1 2 3 4 5 6 
#
# 1 92.8996 78.8175 9.8784 0.0000 0.0000 0.0000
# 2 78.8175 163.5533 10.0315 0.0000 0.0000 0.0000
# 3 9.8784 10.0315 2.8490 0.0000 0.0000 0.0000
# 4 0.0000 0.0000 0.0000 27.0352 0.0000 0.0000
# 5 0.0000 0.0000 0.0000 0.0000 17.7069 0.0000
# 6 0.0000 0.0000 0.0000 0.0000 0.0000 18.6992
#
#
#
# Elastic Compliance Matrix: (Units=1/GPa)
#
#
# Indices 1 2 3 4 5 6 
#
# 1 0.022975 -0.007890 -0.051882 0.000000 0.000000 0.000000
# 2 -0.007890 0.010508 -0.009643 0.000000 0.000000 0.000000
# 3 -0.051882 -0.009643 0.564849 0.000000 0.000000 0.000000
# 4 0.000000 0.000000 0.000000 0.036989 0.000000 0.000000
# 5 0.000000 0.000000 0.000000 0.000000 0.056475 0.000000
# 6 0.000000 0.000000 0.000000 0.000000 0.000000 0.053478
#
#
# Mechanical properties :
#
#
# Convention : Reuss Voigt Hill
#
# Bulk Modulus (GPa) = 2.17626 50.75076 26.46351
# Shear Modulus (GPa) = 4.82034 23.39322 14.10678
#
# Velocity S-wave (km/s) = 1.66035 3.65768 2.84037
# Velocity P-wave (km/s) = 2.21817 6.84562 5.08836
#
# Compressibility (1/GPa) = 0.45950329
#
# Stress axis : x y z
#
# Youngs Moduli (GPa) = 43.52595 95.16859 1.77038
#
# Poissons Ratio (x) = 0.75084 0.09185
# Poissons Ratio (y) = 0.34340 0.01707
# Poissons Ratio (z) = 2.25822 0.91767
#
# Static dielectric constant tensor:
#      x y z
#    x 1.589550 0.000000 0.000000 
#    y 0.000000 1.644660 0.000000 
#    z 0.000000 0.000000 1.604190 
# 
# From -- ./inp_files/4840.got.cif
#   From: 2010.05.17/outbox.cif.g08.bks.cpg/sg57_3_cif.got.tgz:4840.got - 2010.06.03 13:58:18.
