data_PCOD9434807
_publ_section_title
;
Structure prediction by ZEFSAII (Michael W. Deem and Ramdas Pophale) SiO2 
 PCOD9434807
Probable space group: P B C M
;
_chemical_formula_sum "Si O2"
_cell_formula_units_Z 40
_cell_length_a 24.462728
_cell_length_b 8.998904
_cell_length_c 9.049935
_cell_angle_alpha 90.000000
_cell_angle_beta 90.000000
_cell_angle_gamma 90.000000
_cell_volume 1992.232246
_symmetry_space_group_name_H-M "P B C M"
_symmetry_group_IT_number 57
_symmetry_cell_setting 'orthorhombic'
loop_
_space_group_symop_operation_xyz
x,y,z
-x,-y,1/2+z
x,1/2-y,-z
-x,1/2+y,1/2-z
-x,-y,-z
x,y,1/2-z
-x,1/2+y,z
x,1/2-y,1/2+z
loop_
_atom_site_type_symbol
_atom_site_label
_atom_site_fract_x
_atom_site_fract_y
_atom_site_fract_z
Si Si1 0.252085 0.910783 0.420037
Si Si2 0.129709 0.925814 0.028319
Si Si3 0.925919 0.992595 0.250000
Si Si4 0.448538 0.586433 0.930480
Si Si5 0.959959 0.342628 0.250000
Si Si6 0.653205 0.587610 0.928960
O O1 0.254079 0.750000 0.500000
O O2 0.271604 0.898187 0.250000
O O3 0.189205 0.967731 0.413578
O O4 0.289708 0.017726 0.516838
O O5 0.073239 0.919830 0.118077
O O6 0.137548 0.750000 0.000000
O O7 0.113742 0.020326 0.888049
O O8 0.948733 0.164876 0.250000
O O9 0.976941 0.883219 0.250000
O O10 0.449535 0.586855 0.750000
O O11 0.450391 0.750000 0.000000
O O12 0.500000 0.500000 0.000000
O O13 0.394237 0.509726 0.995094
O O14 0.648736 0.589464 0.750000
O O15 0.648310 0.750000 0.000000
#
# Coordination Sequence:
#
# PCOD9434807 Si02
#       6
#     8   8   4   8   4   8
#     4  11  22  39  64  92 121 159 212 265 318 379
#     4   9  19  33  56  80 110 147 197 246 303 368
#     4  10  20  32  56  76 112 142 195 238 309 362
#     4  12  25  45  71 103 140 180 226 271 321 375
#     4  10  18  36  50  82 106 150 185 248 295 376
#     4  12  26  45  67  95 133 174 215 264 323 380
#
# _framework density 20.077978999999999
#
# number of rings (size 3 to 8) (size 9 to 14) (size 15 to 20)
#    0.000    1.200    1.000    6.000    5.600    0.000 
#    0.000    2.000    0.000    0.000    0.000    0.000 
#    0.000    0.000    0.000    0.000    0.000    0.000 
#
# Total GULP energy -223103.586628 kJ/mol
# GULP energy per Si atom -5577.589666 kJ/mol
# Density = 2.003228 g / cm^3
# Si number density = 20.077979 Si / 1000 Ang^3
#
#
#
# Elastic Constant Matrix: (Units=GPa)
#
#
# Indices 1 2 3 4 5 6 
#
# 1 118.2406 47.2831 45.4165 0.0000 0.0000 0.0000
# 2 47.2831 100.1361 44.2675 0.0000 0.0000 0.0000
# 3 45.4165 44.2675 184.8641 0.0000 0.0000 0.0000
# 4 0.0000 0.0000 0.0000 23.9790 0.0000 0.0000
# 5 0.0000 0.0000 0.0000 0.0000 49.4755 0.0000
# 6 0.0000 0.0000 0.0000 0.0000 0.0000 -1.4715
#
#
#
# Elastic Compliance Matrix: (Units=1/GPa)
#
#
# Indices 1 2 3 4 5 6 
#
# 1 0.010837 -0.004407 -0.001607 0.000000 0.000000 0.000000
# 2 -0.004407 0.012961 -0.002021 0.000000 0.000000 0.000000
# 3 -0.001607 -0.002021 0.006288 0.000000 0.000000 0.000000
# 4 0.000000 0.000000 0.000000 0.041703 0.000000 0.000000
# 5 0.000000 0.000000 0.000000 0.000000 0.020212 0.000000
# 6 0.000000 0.000000 0.000000 0.000000 0.000000 -0.679588
#
#
# Mechanical properties :
#
#
# Convention : Reuss Voigt Hill
#
# Bulk Modulus (GPa) = 71.34593 75.24167 73.29380
# Shear Modulus (GPa) = -8.82073 32.14819 11.66373
#
# Velocity S-wave (km/s) = -2.09828 4.00580 2.41285
# Velocity P-wave (km/s) = 5.45355 7.67798 6.65930
#
# Compressibility (1/GPa) = 0.01401622
#
# Stress axis : x y z
#
# Youngs Moduli (GPa) = 92.27856 77.15740 159.02926
#
# Poissons Ratio (x) = 0.34000 0.25558
# Poissons Ratio (y) = 0.40663 0.32139
# Poissons Ratio (z) = 0.14830 0.15593
#
# Static dielectric constant tensor:
#      x y z
#    x 1.697810 0.000000 0.000000 
#    y 0.000000 1.695690 0.000000 
#    z 0.000000 0.000000 1.730760 
# 
# From -- ./inp_files/8973.got.cif
#   From: 2010.05.17/outbox.cif.g08.bks.cpg/sg57_5_cif.got.tgz:8973.got - 2010.06.03 13:58:18.
