data_PCOD9434854
_publ_section_title
;
Structure prediction by ZEFSAII (Michael W. Deem and Ramdas Pophale) SiO2 
 PCOD9434854
Probable space group: P B C M
;
_chemical_formula_sum "Si O2"
_cell_formula_units_Z 48
_cell_length_a 7.278416
_cell_length_b 15.811311
_cell_length_c 19.806973
_cell_angle_alpha 90.000000
_cell_angle_beta 90.000000
_cell_angle_gamma 90.000000
_cell_volume 2279.412181
_symmetry_space_group_name_H-M "P B C M"
_symmetry_group_IT_number 57
_symmetry_cell_setting 'orthorhombic'
loop_
_space_group_symop_operation_xyz
x,y,z
-x,-y,1/2+z
x,1/2-y,-z
-x,1/2+y,1/2-z
-x,-y,-z
x,y,1/2-z
-x,1/2+y,z
x,1/2-y,1/2+z
loop_
_atom_site_type_symbol
_atom_site_label
_atom_site_fract_x
_atom_site_fract_y
_atom_site_fract_z
Si Si1 0.016670 0.803615 0.250000
Si Si2 0.694501 0.038190 0.525547
Si Si3 0.295099 0.181985 0.250000
Si Si4 0.275828 0.620173 0.392852
Si Si5 0.285029 0.378560 0.603682
Si Si6 0.732018 0.136879 0.250000
Si Si7 0.881182 0.750000 0.500000
Si Si8 0.154841 0.682949 0.896345
O O1 0.132810 0.716293 0.250000
O O2 0.078918 0.842621 0.177799
O O3 0.802593 0.774355 0.250000
O O4 0.791261 0.067128 0.456396
O O5 0.689284 0.120911 0.573806
O O6 0.500000 0.000000 0.500000
O O7 0.782913 0.965425 0.571026
O O8 0.228252 0.138639 0.319330
O O9 0.519549 0.173418 0.250000
O O10 0.495291 0.619691 0.396116
O O11 0.231801 0.586658 0.318529
O O12 0.216216 0.718445 0.395346
O O13 0.229094 0.303313 0.554523
O O14 0.998975 0.685927 0.546185
#
# Coordination Sequence:
#
# PCOD9434854 Si02
#       8
#     4   8   4   8   8   4   4   8
#     4  10  20  37  61  85 117 157 208 257 301 366
#     4  10  21  36  58  89 118 155 199 256 315 368
#     4  10  18  39  57  84 118 158 205 252 310 371
#     4   9  18  37  60  82 116 158 207 250 304 372
#     4  10  23  35  59  86 117 156 204 254 309 378
#     4   8  18  32  58  85 111 161 205 243 303 379
#     4  12  22  34  58  90 112 160 202 252 310 384
#     4  11  21  38  60  85 118 160 205 250 313 376
#
# _framework density 21.058059
#
# number of rings (size 3 to 8) (size 9 to 14) (size 15 to 20)
#    0.000    2.000    3.333    0.000    4.667    1.333 
#    0.000    0.833    0.000    2.000    0.000    0.000 
#    0.000    0.000    0.000    0.000    0.000    0.000 
#
# Total GULP energy -267380.660475 kJ/mol
# GULP energy per Si atom -5570.430427 kJ/mol
# Density = 2.101013 g / cm^3
# Si number density = 21.058059 Si / 1000 Ang^3
#
#
#
# Elastic Constant Matrix: (Units=GPa)
#
#
# Indices 1 2 3 4 5 6 
#
# 1 33.0908 -18.6397 8.5247 0.0000 0.0000 0.0000
# 2 -18.6397 32.8906 29.8950 0.0000 0.0000 0.0000
# 3 8.5247 29.8950 197.9879 0.0000 0.0000 0.0000
# 4 0.0000 0.0000 0.0000 27.6240 0.0000 0.0000
# 5 0.0000 0.0000 0.0000 0.0000 199.1576 0.0000
# 6 0.0000 0.0000 0.0000 0.0000 0.0000 4.2123
#
#
#
# Elastic Compliance Matrix: (Units=1/GPa)
#
#
# Indices 1 2 3 4 5 6 
#
# 1 0.053389 0.037491 -0.007960 0.000000 0.000000 0.000000
# 2 0.037491 0.061567 -0.010911 0.000000 0.000000 0.000000
# 3 -0.007960 -0.010911 0.007041 0.000000 0.000000 0.000000
# 4 0.000000 0.000000 0.000000 0.036200 0.000000 0.000000
# 5 0.000000 0.000000 0.000000 0.000000 0.005021 0.000000
# 6 0.000000 0.000000 0.000000 0.000000 0.000000 0.237403
#
#
# Mechanical properties :
#
#
# Convention : Reuss Voigt Hill
#
# Bulk Modulus (GPa) = 6.27989 33.72549 20.00269
# Shear Modulus (GPa) = 12.00597 62.47805 37.24201
#
# Velocity S-wave (km/s) = 2.39034 5.45287 4.20996
# Velocity P-wave (km/s) = 3.25684 7.46293 5.75771
#
# Compressibility (1/GPa) = 0.15923848
#
# Stress axis : x y z
#
# Youngs Moduli (GPa) = 18.73057 16.24236 142.02601
#
# Poissons Ratio (x) = -0.60894 1.13048
# Poissons Ratio (y) = -0.70223 1.54958
# Poissons Ratio (z) = 0.14909 0.17721
#
# Static dielectric constant tensor:
#      x y z
#    x 1.818500 0.000000 0.000000 
#    y 0.000000 1.754440 0.000000 
#    z 0.000000 0.000000 1.832830 
# 
# From -- ./inp_files/21165.got.cif
#   From: 2010.05.17/outbox.cif.g08.bks.cpg/sg57_11_cif.got.tgz:21165.got - 2010.06.03 13:58:18.
