data_PCOD9434380
_publ_section_title
;
Structure prediction by ZEFSAII (Michael W. Deem and Ramdas Pophale) SiO2 
 PCOD9434380
Probable space group: P B C M
;
_chemical_formula_sum "Si O2"
_cell_formula_units_Z 64
_cell_length_a 20.837984
_cell_length_b 20.254840
_cell_length_c 9.235332
_cell_angle_alpha 90.000000
_cell_angle_beta 90.000000
_cell_angle_gamma 90.000000
_cell_volume 3897.956871
_symmetry_space_group_name_H-M "P B C M"
_symmetry_group_IT_number 57
_symmetry_cell_setting 'orthorhombic'
loop_
_space_group_symop_operation_xyz
x,y,z
-x,-y,1/2+z
x,1/2-y,-z
-x,1/2+y,1/2-z
-x,-y,-z
x,y,1/2-z
-x,1/2+y,z
x,1/2-y,1/2+z
loop_
_atom_site_type_symbol
_atom_site_label
_atom_site_fract_x
_atom_site_fract_y
_atom_site_fract_z
Si Si1 0.943765 0.182461 0.077252
Si Si2 0.299328 0.055065 0.082617
Si Si3 0.573048 0.571554 0.582721
Si Si4 0.810424 0.382181 0.920699
Si Si5 0.037098 0.060054 0.423548
Si Si6 0.169747 0.459823 0.420975
Si Si7 0.317974 0.895318 0.416453
Si Si8 0.445268 0.911592 0.582940
O O1 0.941132 0.191772 0.250000
O O2 0.873051 0.157694 0.030588
O O3 0.995299 0.125336 0.048818
O O4 0.960588 0.250000 0.000000
O O5 0.293896 0.075450 0.250000
O O6 0.309193 0.975279 0.082313
O O7 0.361860 0.084637 0.005090
O O8 0.234723 0.067510 0.992676
O O9 0.577637 0.591874 0.750000
O O10 0.510547 0.600849 0.504629
O O11 0.564028 0.491562 0.582240
O O12 0.799143 0.370206 0.750000
O O13 0.826647 0.460216 0.934970
O O14 0.746101 0.367667 0.009334
O O15 0.040635 0.049549 0.250000
O O16 0.107315 0.064035 0.493477
O O17 0.000000 0.000000 0.500000
O O18 0.166065 0.444939 0.250000
O O19 0.323946 0.874574 0.250000
O O20 0.382658 0.882010 0.505667
O O21 0.450155 0.891208 0.750000
#
# Coordination Sequence:
#
# PCOD9434380 Si02
#       8
#     8   8   8   8   8   8   8   8
#     4  10  22  38  53  73  99 128 161 200 245 297
#     4   9  16  25  36  55  81 111 147 187 231 280
#     4   9  15  22  32  47  71 106 145 186 227 272
#     4   9  17  31  46  63  90 119 150 192 237 282
#     4  11  21  35  53  75  99 125 160 202 246 295
#     4  10  18  30  47  68  92 119 154 197 242 286
#     4   9  16  24  36  56  78 105 146 189 227 272
#     4   9  15  22  32  47  70 105 144 184 228 272
#
# _framework density 16.418858
#
# number of rings (size 3 to 8) (size 9 to 14) (size 15 to 20)
#    0.000    2.500    1.250    2.250    0.000    8.000 
#    0.000    0.000    0.000    0.000    0.000    0.000 
#    0.000    0.000    0.000    1.125    0.000   15.750 
#
# Total GULP energy -356806.061799 kJ/mol
# GULP energy per Si atom -5575.094716 kJ/mol
# Density = 1.638149 g / cm^3
# Si number density = 16.418858 Si / 1000 Ang^3
#
#
#
# Elastic Constant Matrix: (Units=GPa)
#
#
# Indices 1 2 3 4 5 6 
#
# 1 165.5048 35.0363 94.2360 0.0000 0.0000 0.0000
# 2 35.0363 33.9345 36.8385 0.0000 0.0000 0.0000
# 3 94.2360 36.8385 134.0390 0.0000 0.0000 0.0000
# 4 0.0000 0.0000 0.0000 12.8171 0.0000 0.0000
# 5 0.0000 0.0000 0.0000 0.0000 36.3827 0.0000
# 6 0.0000 0.0000 0.0000 0.0000 0.0000 7.0038
#
#
#
# Elastic Compliance Matrix: (Units=1/GPa)
#
#
# Indices 1 2 3 4 5 6 
#
# 1 0.010444 -0.004008 -0.006241 0.000000 0.000000 0.000000
# 2 -0.004008 0.043537 -0.009148 0.000000 0.000000 0.000000
# 3 -0.006241 -0.009148 0.014363 0.000000 0.000000 0.000000
# 4 0.000000 0.000000 0.000000 0.078021 0.000000 0.000000
# 5 0.000000 0.000000 0.000000 0.000000 0.027486 0.000000
# 6 0.000000 0.000000 0.000000 0.000000 0.000000 0.142779
#
#
# Mechanical properties :
#
#
# Convention : Reuss Voigt Hill
#
# Bulk Modulus (GPa) = 33.84092 73.96668 53.90380
# Shear Modulus (GPa) = 13.68838 22.39857 18.04348
#
# Velocity S-wave (km/s) = 2.89052 3.69751 3.31864
# Velocity P-wave (km/s) = 5.63878 7.96093 6.89827
#
# Compressibility (1/GPa) = 0.02955002
#
# Stress axis : x y z
#
# Youngs Moduli (GPa) = 95.74589 22.96891 69.62545
#
# Poissons Ratio (x) = 0.09206 0.43456
# Poissons Ratio (y) = 0.38375 0.63691
# Poissons Ratio (z) = 0.59758 0.21011
#
# Static dielectric constant tensor:
#      x y z
#    x 1.534300 0.000000 0.000000 
#    y 0.000000 1.518610 0.000000 
#    z 0.000000 0.000000 1.552920 
# 
# From -- ./inp_files/8678.got.cif
#   From: 2010.05.17/outbox.cif.g08.bks.cpg/sg57_5_cif.got.tgz:8678.got - 2010.06.03 13:58:18.
