data_PCOD9434533
_publ_section_title
;
Structure prediction by ZEFSAII (Michael W. Deem and Ramdas Pophale) SiO2 
 PCOD9434533
Probable space group: P B C M
;
_chemical_formula_sum "Si O2"
_cell_formula_units_Z 48
_cell_length_a 17.480699
_cell_length_b 8.508203
_cell_length_c 15.888903
_cell_angle_alpha 90.000000
_cell_angle_beta 90.000000
_cell_angle_gamma 90.000000
_cell_volume 2363.145988
_symmetry_space_group_name_H-M "P B C M"
_symmetry_group_IT_number 57
_symmetry_cell_setting 'orthorhombic'
loop_
_space_group_symop_operation_xyz
x,y,z
-x,-y,1/2+z
x,1/2-y,-z
-x,1/2+y,1/2-z
-x,-y,-z
x,y,1/2-z
-x,1/2+y,z
x,1/2-y,1/2+z
loop_
_atom_site_type_symbol
_atom_site_label
_atom_site_fract_x
_atom_site_fract_y
_atom_site_fract_z
Si Si1 0.344191 0.567832 0.479652
Si Si2 0.175741 0.586496 0.053180
Si Si3 0.551200 0.899975 0.155025
Si Si4 0.611571 0.956276 0.655125
Si Si5 0.952082 0.249385 0.153562
Si Si6 0.066764 0.439603 0.938428
O O1 0.640664 0.250000 0.500000
O O2 0.263963 0.555361 0.429454
O O3 0.408557 0.492629 0.420662
O O4 0.338549 0.486080 0.571760
O O5 0.114719 0.627914 0.125542
O O6 0.174061 0.750000 0.000000
O O7 0.142234 0.448882 0.994265
O O8 0.572418 0.957179 0.250000
O O9 0.576140 0.718615 0.149970
O O10 0.460294 0.924836 0.148653
O O11 0.645540 0.974137 0.750000
O O12 0.968215 0.230263 0.250000
O O13 0.925707 0.424814 0.131673
O O14 0.029978 0.212630 0.102693
O O15 0.000000 0.500000 0.000000
#
# Coordination Sequence:
#
# PCOD9434533 Si02
#       6
#     8   8   8   8   8   8
#     4  11  21  35  56  80 108 144 182 219 268 325
#     4   8  18  34  50  71 102 140 173 205 255 315
#     4  10  21  37  58  81 108 141 180 225 271 318
#     4  10  21  38  57  80 108 140 180 225 268 318
#     4  10  18  31  53  79 102 130 174 223 261 304
#     4   9  17  33  52  71 100 135 170 209 258 312
#
# _framework density 20.311904999999999
#
# number of rings (size 3 to 8) (size 9 to 14) (size 15 to 20)
#    0.000    2.333    0.000    4.000    0.000    2.667 
#    0.000   14.167    0.000    4.000    0.000    0.000 
#    0.000    0.000    0.000    0.000    0.000    0.000 
#
# Total GULP energy -267574.926982 kJ/mol
# GULP energy per Si atom -5574.477645 kJ/mol
# Density = 2.026567 g / cm^3
# Si number density = 20.311905 Si / 1000 Ang^3
#
#
#
# Elastic Constant Matrix: (Units=GPa)
#
#
# Indices 1 2 3 4 5 6 
#
# 1 28.6210 -0.5476 2.7278 0.0000 0.0000 0.0000
# 2 -0.5476 58.4322 15.3218 0.0000 0.0000 0.0000
# 3 2.7278 15.3218 81.2560 0.0000 0.0000 0.0000
# 4 0.0000 0.0000 0.0000 25.4070 0.0000 0.0000
# 5 0.0000 0.0000 0.0000 0.0000 17.9374 0.0000
# 6 0.0000 0.0000 0.0000 0.0000 0.0000 15.1052
#
#
#
# Elastic Compliance Matrix: (Units=1/GPa)
#
#
# Indices 1 2 3 4 5 6 
#
# 1 0.035077 0.000671 -0.001304 0.000000 0.000000 0.000000
# 2 0.000671 0.018017 -0.003420 0.000000 0.000000 0.000000
# 3 -0.001304 -0.003420 0.012995 0.000000 0.000000 0.000000
# 4 0.000000 0.000000 0.000000 0.039359 0.000000 0.000000
# 5 0.000000 0.000000 0.000000 0.000000 0.055749 0.000000
# 6 0.000000 0.000000 0.000000 0.000000 0.000000 0.066202
#
#
# Mechanical properties :
#
#
# Convention : Reuss Voigt Hill
#
# Bulk Modulus (GPa) = 17.24660 22.59036 19.91848
# Shear Modulus (GPa) = 19.62067 21.74375 20.68221
#
# Velocity S-wave (km/s) = 3.11138 3.27539 3.19443
# Velocity P-wave (km/s) = 4.62784 5.04481 4.84081
#
# Compressibility (1/GPa) = 0.05798245
#
# Stress axis : x y z
#
# Youngs Moduli (GPa) = 28.50910 55.50358 76.95028
#
# Poissons Ratio (x) = -0.03722 0.10034
# Poissons Ratio (y) = -0.01912 0.26316
# Poissons Ratio (z) = 0.03718 0.18981
#
# Static dielectric constant tensor:
#      x y z
#    x 1.722320 0.000000 0.000000 
#    y 0.000000 1.769840 0.000000 
#    z 0.000000 0.000000 1.734290 
# 
# From -- ./inp_files/22471.got.cif
#   From: 2010.05.17/outbox.cif.g08.bks.cpg/sg57_12_cif.got.tgz:22471.got - 2010.06.03 13:58:18.
