data_PCOD9434890
_publ_section_title
;
Structure prediction by ZEFSAII (Michael W. Deem and Ramdas Pophale) SiO2 
 PCOD9434890
Probable space group: P B C M
;
_chemical_formula_sum "Si O2"
_cell_formula_units_Z 56
_cell_length_a 15.130674
_cell_length_b 27.143465
_cell_length_c 7.929337
_cell_angle_alpha 90.000000
_cell_angle_beta 90.000000
_cell_angle_gamma 90.000000
_cell_volume 3256.570143
_symmetry_space_group_name_H-M "P B C M"
_symmetry_group_IT_number 57
_symmetry_cell_setting 'orthorhombic'
loop_
_space_group_symop_operation_xyz
x,y,z
-x,-y,1/2+z
x,1/2-y,-z
-x,1/2+y,1/2-z
-x,-y,-z
x,y,1/2-z
-x,1/2+y,z
x,1/2-y,1/2+z
loop_
_atom_site_type_symbol
_atom_site_label
_atom_site_fract_x
_atom_site_fract_y
_atom_site_fract_z
Si Si1 0.919720 0.067163 0.950228
Si Si2 0.701329 0.932448 0.444582
Si Si3 0.523201 0.891786 0.043230
Si Si4 0.625904 0.464898 0.448312
Si Si5 0.106575 0.043824 0.447530
Si Si6 0.391873 0.806425 0.453619
Si Si7 0.238633 0.626779 0.948608
O O1 0.901494 0.065443 0.750000
O O2 0.855314 0.109342 0.021018
O O3 0.895440 0.012419 0.017851
O O4 0.024119 0.072944 0.975133
O O5 0.716068 0.919917 0.250000
O O6 0.623754 0.897526 0.514537
O O7 0.796753 0.933909 0.529102
O O8 0.659400 0.987128 0.457385
O O9 0.523426 0.892806 0.250000
O O10 0.464298 0.939116 0.991271
O O11 0.470492 0.843012 0.989724
O O12 0.617420 0.477621 0.250000
O O13 0.699243 0.421740 0.458520
O O14 0.087449 0.040369 0.250000
O O15 0.404115 0.750000 0.500000
O O16 0.390237 0.810283 0.250000
O O17 0.299105 0.829304 0.519404
O O18 0.225777 0.638484 0.750000
#
# Coordination Sequence:
#
# PCOD9434890 Si02
#       7
#     8   8   8   8   8   8   8
#     4   9  16  29  45  62  84 117 156 184 213 258
#     4  11  19  27  40  63  90 121 156 186 213 256
#     4   8  17  30  45  62  87 121 151 178 221 273
#     4   9  15  28  44  60  85 120 153 182 216 257
#     4  10  19  29  42  61  88 122 154 185 220 253
#     4   9  17  32  51  69  90 115 145 183 225 272
#     4   8  14  27  47  65  86 119 150 175 218 275
#
# _framework density 17.196007000000002
#
# number of rings (size 3 to 8) (size 9 to 14) (size 15 to 20)
#    0.000    2.857    1.429    3.000    0.000    0.571 
#    0.000    5.714    0.000    0.000    0.000    1.000 
#    0.000    0.000    0.000    0.000    0.000    0.000 
#
# Total GULP energy -311936.782221 kJ/mol
# GULP energy per Si atom -5570.299683 kJ/mol
# Density = 1.715687 g / cm^3
# Si number density = 17.196007 Si / 1000 Ang^3
#
#
#
# Elastic Constant Matrix: (Units=GPa)
#
#
# Indices 1 2 3 4 5 6 
#
# 1 128.2046 39.2182 -1.1310 0.0000 0.0000 0.0000
# 2 39.2182 65.2088 -1.3401 0.0000 0.0000 0.0000
# 3 -1.1310 -1.3401 14.0046 0.0000 0.0000 0.0000
# 4 0.0000 0.0000 0.0000 15.6155 0.0000 0.0000
# 5 0.0000 0.0000 0.0000 0.0000 15.2844 0.0000
# 6 0.0000 0.0000 0.0000 0.0000 0.0000 14.7190
#
#
#
# Elastic Compliance Matrix: (Units=1/GPa)
#
#
# Indices 1 2 3 4 5 6 
#
# 1 0.009559 -0.005745 0.000222 0.000000 0.000000 0.000000
# 2 -0.005745 0.018818 0.001337 0.000000 0.000000 0.000000
# 3 0.000222 0.001337 0.071551 0.000000 0.000000 0.000000
# 4 0.000000 0.000000 0.000000 0.064039 0.000000 0.000000
# 5 0.000000 0.000000 0.000000 0.000000 0.065426 0.000000
# 6 0.000000 0.000000 0.000000 0.000000 0.000000 0.067939
#
#
# Mechanical properties :
#
#
# Convention : Reuss Voigt Hill
#
# Bulk Modulus (GPa) = 10.92217 31.21249 21.06733
# Shear Modulus (GPa) = 14.87109 20.50184 17.68647
#
# Velocity S-wave (km/s) = 2.94394 3.45663 3.21054
# Velocity P-wave (km/s) = 4.23333 5.84136 5.10111
#
# Compressibility (1/GPa) = 0.09155686
#
# Stress axis : x y z
#
# Youngs Moduli (GPa) = 104.61026 53.14124 13.97605
#
# Poissons Ratio (x) = 0.30528 -0.00311
# Poissons Ratio (y) = 0.60095 -0.01868
# Poissons Ratio (z) = -0.02325 -0.07104
#
# Static dielectric constant tensor:
#      x y z
#    x 1.624840 0.000000 0.000000 
#    y 0.000000 1.565710 0.000000 
#    z 0.000000 0.000000 1.617000 
# 
# From -- ./inp_files/5922.got.cif
#   From: 2010.05.17/outbox.cif.g08.bks.cpg/sg57_3_cif.got.tgz:5922.got - 2010.06.03 13:58:18.
