data_PCOD9434680
_publ_section_title
;
Structure prediction by ZEFSAII (Michael W. Deem and Ramdas Pophale) SiO2 
 PCOD9434680
Probable space group: P B C M
;
_chemical_formula_sum "Si O2"
_cell_formula_units_Z 48
_cell_length_a 10.407956
_cell_length_b 28.891701
_cell_length_c 8.424301
_cell_angle_alpha 90.000000
_cell_angle_beta 90.000000
_cell_angle_gamma 90.000000
_cell_volume 2533.217240
_symmetry_space_group_name_H-M "P B C M"
_symmetry_group_IT_number 57
_symmetry_cell_setting 'orthorhombic'
loop_
_space_group_symop_operation_xyz
x,y,z
-x,-y,1/2+z
x,1/2-y,-z
-x,1/2+y,1/2-z
-x,-y,-z
x,y,1/2-z
-x,1/2+y,z
x,1/2-y,1/2+z
loop_
_atom_site_type_symbol
_atom_site_label
_atom_site_fract_x
_atom_site_fract_y
_atom_site_fract_z
Si Si1 0.103186 0.700205 0.060244
Si Si2 0.604205 0.299636 0.059752
Si Si3 0.470449 0.394102 0.438470
Si Si4 0.973915 0.100970 0.056673
Si Si5 0.288756 0.949921 0.561240
Si Si6 0.766884 0.948598 0.938406
O O1 0.101676 0.701118 0.250000
O O2 0.027831 0.654527 0.004735
O O3 0.056471 0.750000 0.000000
O O4 0.251286 0.694700 0.006185
O O5 0.612135 0.299043 0.250000
O O6 0.518290 0.343218 0.010899
O O7 0.555641 0.250000 0.000000
O O8 0.446175 0.393710 0.250000
O O9 0.587616 0.428911 0.475370
O O10 0.344785 0.411831 0.527240
O O11 0.976439 0.100872 0.250000
O O12 0.840195 0.077068 0.009218
O O13 0.097186 0.071938 0.003935
O O14 0.304965 0.943255 0.750000
O O15 0.269236 0.003693 0.523482
O O16 0.775345 0.957414 0.750000
#
# Coordination Sequence:
#
# PCOD9434680 Si02
#       6
#     8   8   8   8   8   8
#     4  10  18  33  56  84 113 142 181 226 275 330
#     4  10  20  34  56  84 112 141 182 230 276 326
#     4  11  23  39  57  84 115 148 189 231 275 333
#     4   9  20  37  58  83 113 147 186 228 277 333
#     4  11  21  38  61  84 110 147 189 235 281 329
#     4  11  23  39  57  81 114 152 188 231 281 332
#
# _framework density 18.948236999999999
#
# number of rings (size 3 to 8) (size 9 to 14) (size 15 to 20)
#    0.000    1.667    1.667    4.500    0.000    2.000 
#    0.000    6.667    0.000    4.000    0.000    0.000 
#    0.000    0.000    0.000    0.000    0.000    0.000 
#
# Total GULP energy -268166.349719 kJ/mol
# GULP energy per Si atom -5586.798952 kJ/mol
# Density = 1.890511 g / cm^3
# Si number density = 18.948237 Si / 1000 Ang^3
#
#
#
# Elastic Constant Matrix: (Units=GPa)
#
#
# Indices 1 2 3 4 5 6 
#
# 1 31.9763 -19.9098 -6.8309 0.0000 0.0000 0.0000
# 2 -19.9098 78.2286 -0.3418 0.0000 0.0000 0.0000
# 3 -6.8309 -0.3418 23.7326 0.0000 0.0000 0.0000
# 4 0.0000 0.0000 0.0000 25.4558 0.0000 0.0000
# 5 0.0000 0.0000 0.0000 0.0000 12.9658 0.0000
# 6 0.0000 0.0000 0.0000 0.0000 0.0000 2.3437
#
#
#
# Elastic Compliance Matrix: (Units=1/GPa)
#
#
# Indices 1 2 3 4 5 6 
#
# 1 0.040173 0.010275 0.011711 0.000000 0.000000 0.000000
# 2 0.010275 0.015412 0.003180 0.000000 0.000000 0.000000
# 3 0.011711 0.003180 0.045553 0.000000 0.000000 0.000000
# 4 0.000000 0.000000 0.000000 0.039284 0.000000 0.000000
# 5 0.000000 0.000000 0.000000 0.000000 0.077126 0.000000
# 6 0.000000 0.000000 0.000000 0.000000 0.000000 0.426668
#
#
# Mechanical properties :
#
#
# Convention : Reuss Voigt Hill
#
# Bulk Modulus (GPa) = 6.60199 8.86361 7.73280
# Shear Modulus (GPa) = 7.75948 18.88773 13.32361
#
# Velocity S-wave (km/s) = 2.02583 3.16065 2.65459
# Velocity P-wave (km/s) = 2.99396 4.24353 3.67228
#
# Compressibility (1/GPa) = 0.15146939
#
# Stress axis : x y z
#
# Youngs Moduli (GPa) = 24.89246 64.88397 21.95259
#
# Poissons Ratio (x) = -0.66671 -0.25708
# Poissons Ratio (y) = -0.25578 -0.06980
# Poissons Ratio (z) = -0.29151 -0.20630
#
# Static dielectric constant tensor:
#      x y z
#    x 1.625800 0.000000 0.000000 
#    y 0.000000 1.667540 0.000000 
#    z 0.000000 0.000000 1.650500 
# 
# From -- ./inp_files/2122.got.cif
#   From: 2010.05.17/outbox.cif.g08.bks.cpg/sg57_2_cif.got.tgz:2122.got - 2010.06.03 13:58:18.
