data_PCOD9434120
_publ_section_title
;
Structure prediction by ZEFSAII (Michael W. Deem and Ramdas Pophale) SiO2 
 PCOD9434120
Probable space group: P B C M
;
_chemical_formula_sum "Si O2"
_cell_formula_units_Z 64
_cell_length_a 15.396470
_cell_length_b 30.890158
_cell_length_c 8.071851
_cell_angle_alpha 90.000000
_cell_angle_beta 90.000000
_cell_angle_gamma 90.000000
_cell_volume 3838.967419
_symmetry_space_group_name_H-M "P B C M"
_symmetry_group_IT_number 57
_symmetry_cell_setting 'orthorhombic'
loop_
_space_group_symop_operation_xyz
x,y,z
-x,-y,1/2+z
x,1/2-y,-z
-x,1/2+y,1/2-z
-x,-y,-z
x,y,1/2-z
-x,1/2+y,z
x,1/2-y,1/2+z
loop_
_atom_site_type_symbol
_atom_site_label
_atom_site_fract_x
_atom_site_fract_y
_atom_site_fract_z
Si Si1 0.174123 0.462643 0.453188
Si Si2 0.205055 0.797115 0.949707
Si Si3 0.993976 0.202777 0.446788
Si Si4 0.041131 0.109389 0.947009
Si Si5 0.295039 0.616338 0.047537
Si Si6 0.371500 0.471642 0.051556
Si Si7 0.868256 0.058586 0.050134
Si Si8 0.453721 0.937207 0.950145
O O1 0.173782 0.462400 0.250000
O O2 0.117482 0.421995 0.511196
O O3 0.274528 0.461835 0.508357
O O4 0.132181 0.508609 0.505107
O O5 0.201888 0.799463 0.750000
O O6 0.105549 0.801203 0.012565
O O7 0.263112 0.836839 0.009418
O O8 0.237654 0.750000 0.000000
O O9 0.028051 0.250000 0.500000
O O10 0.988935 0.203275 0.250000
O O11 0.043136 0.159125 0.496326
O O12 0.046635 0.109710 0.750000
O O13 0.950103 0.086793 0.994801
O O14 0.295335 0.616425 0.250000
O O15 0.221326 0.581693 0.997787
O O16 0.390056 0.601018 0.994264
O O17 0.365716 0.474935 0.250000
O O18 0.407552 0.518145 0.991237
O O19 0.447227 0.437892 0.008513
O O20 0.868638 0.058567 0.250000
O O21 0.454751 0.937986 0.750000
#
# Coordination Sequence:
#
# PCOD9434120 Si02
#       8
#     8   8   8   8   8   8   8   8
#     4   9  18  31  48  65  90 130 167 195 229 277
#     4   9  17  29  45  65  87 116 150 184 222 270
#     4  10  19  33  51  69  91 121 156 193 236 280
#     4  11  21  31  44  69  97 124 160 198 235 275
#     4   9  15  27  47  66  87 121 158 183 219 279
#     4   9  16  29  46  64  88 118 151 188 230 272
#     4  10  17  31  48  63  89 130 169 192 222 273
#     4   9  16  27  46  67  87 114 150 189 226 269
#
# _framework density 16.671150000000001
#
# number of rings (size 3 to 8) (size 9 to 14) (size 15 to 20)
#    0.000    2.500    2.500    1.125    0.000    0.500 
#    0.000    3.750    0.000    0.000    0.000    0.875 
#    0.000    4.000    0.000    0.000    0.000    0.000 
#
# Total GULP energy -356738.472586 kJ/mol
# GULP energy per Si atom -5574.038634 kJ/mol
# Density = 1.663321 g / cm^3
# Si number density = 16.671150 Si / 1000 Ang^3
#
#
#
# Elastic Constant Matrix: (Units=GPa)
#
#
# Indices 1 2 3 4 5 6 
#
# 1 71.2364 51.7720 4.8415 0.0000 0.0000 0.0000
# 2 51.7720 144.8496 12.2410 0.0000 0.0000 0.0000
# 3 4.8415 12.2410 10.8685 0.0000 0.0000 0.0000
# 4 0.0000 0.0000 0.0000 20.0581 0.0000 0.0000
# 5 0.0000 0.0000 0.0000 0.0000 15.0387 0.0000
# 6 0.0000 0.0000 0.0000 0.0000 0.0000 20.7172
#
#
#
# Elastic Compliance Matrix: (Units=1/GPa)
#
#
# Indices 1 2 3 4 5 6 
#
# 1 0.018972 -0.006705 -0.000900 0.000000 0.000000 0.000000
# 2 -0.006705 0.010000 -0.008276 0.000000 0.000000 0.000000
# 3 -0.000900 -0.008276 0.101731 0.000000 0.000000 0.000000
# 4 0.000000 0.000000 0.000000 0.049855 0.000000 0.000000
# 5 0.000000 0.000000 0.000000 0.000000 0.066495 0.000000
# 6 0.000000 0.000000 0.000000 0.000000 0.000000 0.048269
#
#
# Mechanical properties :
#
#
# Convention : Reuss Voigt Hill
#
# Bulk Modulus (GPa) = 10.10694 40.51816 25.31255
# Shear Modulus (GPa) = 13.88650 21.70280 17.79465
#
# Velocity S-wave (km/s) = 2.88925 3.61199 3.27064
# Velocity P-wave (km/s) = 4.14801 6.46161 5.42947
#
# Compressibility (1/GPa) = 0.09894196
#
# Stress axis : x y z
#
# Youngs Moduli (GPa) = 52.70997 100.00493 9.82988
#
# Poissons Ratio (x) = 0.67052 0.00884
# Poissons Ratio (y) = 0.35341 0.08135
# Poissons Ratio (z) = 0.04742 0.82760
#
# Static dielectric constant tensor:
#      x y z
#    x 1.560230 0.000000 0.000000 
#    y 0.000000 1.589690 0.000000 
#    z 0.000000 0.000000 1.585370 
# 
# From -- ./inp_files/5972.got.cif
#   From: 2010.05.17/outbox.cif.g08.bks.cpg/sg57_3_cif.got.tgz:5972.got - 2010.06.03 13:58:18.
