data_PCOD9434129
_publ_section_title
;
Structure prediction by ZEFSAII (Michael W. Deem and Ramdas Pophale) SiO2 
 PCOD9434129
Probable space group: P B C M
;
_chemical_formula_sum "Si O2"
_cell_formula_units_Z 56
_cell_length_a 14.477356
_cell_length_b 5.454277
_cell_length_c 31.647004
_cell_angle_alpha 90.000000
_cell_angle_beta 90.000000
_cell_angle_gamma 90.000000
_cell_volume 2498.958512
_symmetry_space_group_name_H-M "P B C M"
_symmetry_group_IT_number 57
_symmetry_cell_setting 'orthorhombic'
loop_
_space_group_symop_operation_xyz
x,y,z
-x,-y,1/2+z
x,1/2-y,-z
-x,1/2+y,1/2-z
-x,-y,-z
x,y,1/2-z
-x,1/2+y,z
x,1/2-y,1/2+z
loop_
_atom_site_type_symbol
_atom_site_label
_atom_site_fract_x
_atom_site_fract_y
_atom_site_fract_z
Si Si1 0.440244 0.561035 0.204299
Si Si2 0.998603 0.600707 0.434948
Si Si3 0.337937 0.996041 0.974650
Si Si4 0.202363 0.573099 0.090780
Si Si5 0.816913 0.570477 0.123982
Si Si6 0.942790 0.973492 0.700090
Si Si7 0.443084 0.037954 0.614145
O O1 0.390562 0.539058 0.250000
O O2 0.486214 0.832873 0.204181
O O3 0.392958 0.518634 0.159082
O O4 0.908948 0.592210 0.405176
O O5 0.000126 0.350714 0.459229
O O6 0.091502 0.595375 0.406678
O O7 0.232956 0.965673 0.957667
O O8 0.392075 0.004342 0.930378
O O9 0.349620 0.250000 0.000000
O O10 0.363878 0.750000 0.000000
O O11 0.230540 0.329777 0.115845
O O12 0.238101 0.834591 0.107311
O O13 0.852385 0.531477 0.171133
O O14 0.922329 0.973617 0.750000
O O15 0.000187 0.723440 0.690851
O O16 0.519730 0.818128 0.614504
#
# Coordination Sequence:
#
# PCOD9434129 Si02
#       7
#     8   8   8   8   8   8   8
#     4   8  14  27  51  84 116 140 168 212 260 310
#     4   8  14  25  47  71  91 120 171 219 259 306
#     4  12  26  42  59  82 114 149 187 234 288 343
#     4  10  20  34  54  75 100 139 183 227 276 332
#     4  10  17  31  54  76 101 140 189 231 275 328
#     4  10  18  27  44  77 115 145 182 238 293 340
#     4  10  21  38  62  89 114 146 188 228 274 335
#
# _framework density 22.409334000000001
#
# number of rings (size 3 to 8) (size 9 to 14) (size 15 to 20)
#    0.000    2.286    0.000    5.143    0.000    1.714 
#    0.000    0.000    0.000   24.857    0.000    2.000 
#    0.000    0.000    0.000    0.000    0.000    0.000 
#
# Total GULP energy -311960.553082 kJ/mol
# GULP energy per Si atom -5570.724162 kJ/mol
# Density = 2.235833 g / cm^3
# Si number density = 22.409334 Si / 1000 Ang^3
#
#
#
# Elastic Constant Matrix: (Units=GPa)
#
#
# Indices 1 2 3 4 5 6 
#
# 1 12.1650 1.0018 20.5615 0.0000 0.0000 0.0000
# 2 1.0018 216.2085 43.7864 0.0000 0.0000 0.0000
# 3 20.5615 43.7864 149.5845 0.0000 0.0000 0.0000
# 4 0.0000 0.0000 0.0000 32.0344 0.0000 0.0000
# 5 0.0000 0.0000 0.0000 0.0000 31.0821 0.0000
# 6 0.0000 0.0000 0.0000 0.0000 0.0000 11.4214
#
#
#
# Elastic Compliance Matrix: (Units=1/GPa)
#
#
# Indices 1 2 3 4 5 6 
#
# 1 0.108520 0.002677 -0.015700 0.000000 0.000000 0.000000
# 2 0.002677 0.004983 -0.001826 0.000000 0.000000 0.000000
# 3 -0.015700 -0.001826 0.009378 0.000000 0.000000 0.000000
# 4 0.000000 0.000000 0.000000 0.031216 0.000000 0.000000
# 5 0.000000 0.000000 0.000000 0.000000 0.032173 0.000000
# 6 0.000000 0.000000 0.000000 0.000000 0.000000 0.087555
#
#
# Mechanical properties :
#
#
# Convention : Reuss Voigt Hill
#
# Bulk Modulus (GPa) = 10.73185 56.51747 33.62466
# Shear Modulus (GPa) = 14.94386 35.74814 25.34600
#
# Velocity S-wave (km/s) = 2.58516 3.99837 3.36675
# Velocity P-wave (km/s) = 3.70272 6.82578 5.49096
#
# Compressibility (1/GPa) = 0.09318056
#
# Stress axis : x y z
#
# Youngs Moduli (GPa) = 9.21488 200.69609 106.63277
#
# Poissons Ratio (x) = -0.53723 1.67418
# Poissons Ratio (y) = -0.02467 0.19476
# Poissons Ratio (z) = 0.14468 0.36657
#
# Static dielectric constant tensor:
#      x y z
#    x 1.895330 0.000000 0.000000 
#    y 0.000000 1.889800 0.000000 
#    z 0.000000 0.000000 1.813140 
# 
# From -- ./inp_files/29862.got.cif
#   From: 2010.05.17/outbox.cif.g08.bks.cpg/sg57_15_cif.got.tgz:29862.got - 2010.06.03 13:58:18.
