data_PCOD9434397
_publ_section_title
;
Structure prediction by ZEFSAII (Michael W. Deem and Ramdas Pophale) SiO2 
 PCOD9434397
Probable space group: P B C M
;
_chemical_formula_sum "Si O2"
_cell_formula_units_Z 64
_cell_length_a 14.494665
_cell_length_b 30.590724
_cell_length_c 8.757429
_cell_angle_alpha 90.000000
_cell_angle_beta 90.000000
_cell_angle_gamma 90.000000
_cell_volume 3883.064130
_symmetry_space_group_name_H-M "P B C M"
_symmetry_group_IT_number 57
_symmetry_cell_setting 'orthorhombic'
loop_
_space_group_symop_operation_xyz
x,y,z
-x,-y,1/2+z
x,1/2-y,-z
-x,1/2+y,1/2-z
-x,-y,-z
x,y,1/2-z
-x,1/2+y,z
x,1/2-y,1/2+z
loop_
_atom_site_type_symbol
_atom_site_label
_atom_site_fract_x
_atom_site_fract_y
_atom_site_fract_z
Si Si1 0.011052 0.548785 0.930109
Si Si2 0.470284 0.062558 0.929377
Si Si3 0.300584 0.013689 0.569177
Si Si4 0.169111 0.086180 0.070603
Si Si5 0.200867 0.921040 0.929925
Si Si6 0.493963 0.297631 0.567707
Si Si7 0.341203 0.363471 0.566953
Si Si8 0.621091 0.121931 0.065869
O O1 0.988379 0.456577 0.250000
O O2 0.105444 0.571128 0.985143
O O3 0.924389 0.578238 0.980097
O O4 0.000000 0.500000 0.000000
O O5 0.490907 0.059314 0.750000
O O6 0.407391 0.021023 0.977268
O O7 0.396879 0.101476 0.966301
O O8 0.559662 0.080430 0.015271
O O9 0.294859 0.025660 0.750000
O O10 0.235713 0.045615 0.472089
O O11 0.259200 0.965793 0.555393
O O12 0.148352 0.085456 0.250000
O O13 0.233206 0.128474 0.037166
O O14 0.181292 0.914383 0.750000
O O15 0.273221 0.884273 0.984874
O O16 0.506881 0.250000 0.500000
O O17 0.503289 0.294876 0.750000
O O18 0.392226 0.317865 0.536144
O O19 0.568045 0.334258 0.513915
O O20 0.355640 0.373048 0.750000
O O21 0.621441 0.121919 0.250000
#
# Coordination Sequence:
#
# PCOD9434397 Si02
#       8
#     8   8   8   8   8   8   8   8
#     4  12  23  34  48  69  95 126 167 211 247 281
#     4   9  16  26  42  65  92 122 158 197 234 274
#     4   9  17  28  43  64  90 122 162 203 238 276
#     4  10  18  30  49  69  92 126 163 201 245 286
#     4  10  20  34  49  64  89 127 168 207 244 280
#     4   9  17  31  51  76 102 127 155 189 232 288
#     4   8  16  30  47  69  97 126 157 191 233 289
#     4   9  19  34  48  65  94 129 161 196 240 291
#
# _framework density 16.481829000000001
#
# number of rings (size 3 to 8) (size 9 to 14) (size 15 to 20)
#    0.000    2.500    1.250    2.625    0.000    4.000 
#    0.000    0.000    0.000    0.000    0.000    0.875 
#    0.000    0.000    0.000    0.000    0.000    0.000 
#
# Total GULP energy -356503.106691 kJ/mol
# GULP energy per Si atom -5570.361042 kJ/mol
# Density = 1.644432 g / cm^3
# Si number density = 16.481829 Si / 1000 Ang^3
#
#
#
# Elastic Constant Matrix: (Units=GPa)
#
#
# Indices 1 2 3 4 5 6 
#
# 1 144.6304 44.2688 45.9972 0.0000 0.0000 0.0000
# 2 44.2688 70.2093 23.1343 0.0000 0.0000 0.0000
# 3 45.9972 23.1343 36.1660 0.0000 0.0000 0.0000
# 4 0.0000 0.0000 0.0000 16.5655 0.0000 0.0000
# 5 0.0000 0.0000 0.0000 0.0000 21.6987 0.0000
# 6 0.0000 0.0000 0.0000 0.0000 0.0000 14.8696
#
#
#
# Elastic Compliance Matrix: (Units=1/GPa)
#
#
# Indices 1 2 3 4 5 6 
#
# 1 0.012173 -0.003261 -0.013395 0.000000 0.000000 0.000000
# 2 -0.003261 0.018921 -0.007955 0.000000 0.000000 0.000000
# 3 -0.013395 -0.007955 0.049776 0.000000 0.000000 0.000000
# 4 0.000000 0.000000 0.000000 0.060366 0.000000 0.000000
# 5 0.000000 0.000000 0.000000 0.000000 0.046086 0.000000
# 6 0.000000 0.000000 0.000000 0.000000 0.000000 0.067251
#
#
# Mechanical properties :
#
#
# Convention : Reuss Voigt Hill
#
# Bulk Modulus (GPa) = 31.60031 53.08961 42.34496
# Shear Modulus (GPa) = 15.90611 19.80045 17.85328
#
# Velocity S-wave (km/s) = 3.10993 3.46981 3.29479
# Velocity P-wave (km/s) = 5.66657 6.95224 6.34207
#
# Compressibility (1/GPa) = 0.03164526
#
# Stress axis : x y z
#
# Youngs Moduli (GPa) = 82.15204 52.85204 20.09014
#
# Poissons Ratio (x) = 0.17237 0.26911
# Poissons Ratio (y) = 0.26792 0.15982
# Poissons Ratio (z) = 1.10045 0.42045
#
# Static dielectric constant tensor:
#      x y z
#    x 1.593840 0.000000 0.000000 
#    y 0.000000 1.561560 0.000000 
#    z 0.000000 0.000000 1.542770 
# 
# From -- ./inp_files/6074.got.cif
#   From: 2010.05.17/outbox.cif.g08.bks.cpg/sg57_4_cif.got.tgz:6074.got - 2010.06.03 13:58:18.
