data_PCOD9434758
_publ_section_title
;
Structure prediction by ZEFSAII (Michael W. Deem and Ramdas Pophale) SiO2 
 PCOD9434758
Probable space group: P B C M
;
_chemical_formula_sum "Si O2"
_cell_formula_units_Z 64
_cell_length_a 12.170115
_cell_length_b 31.787640
_cell_length_c 8.587416
_cell_angle_alpha 90.000000
_cell_angle_beta 90.000000
_cell_angle_gamma 90.000000
_cell_volume 3322.121179
_symmetry_space_group_name_H-M "P B C M"
_symmetry_group_IT_number 57
_symmetry_cell_setting 'orthorhombic'
loop_
_space_group_symop_operation_xyz
x,y,z
-x,-y,1/2+z
x,1/2-y,-z
-x,1/2+y,1/2-z
-x,-y,-z
x,y,1/2-z
-x,1/2+y,z
x,1/2-y,1/2+z
loop_
_atom_site_type_symbol
_atom_site_label
_atom_site_fract_x
_atom_site_fract_y
_atom_site_fract_z
Si Si1 0.238158 0.047601 0.562565
Si Si2 0.235407 0.795139 0.065670
Si Si3 0.767519 0.454007 0.560113
Si Si4 0.619245 0.627006 0.562859
Si Si5 0.995154 0.322940 0.936839
Si Si6 0.627058 0.373515 0.562951
Si Si7 0.239718 0.204662 0.436708
Si Si8 0.005975 0.077441 0.063029
O O1 0.242760 0.047471 0.750000
O O2 0.318288 0.084695 0.507223
O O3 0.114274 0.058426 0.513015
O O4 0.266870 0.000531 0.507977
O O5 0.248423 0.795783 0.250000
O O6 0.270929 0.750000 0.000000
O O7 0.304035 0.833206 0.991894
O O8 0.108000 0.802308 0.020955
O O9 0.767268 0.453501 0.750000
O O10 0.689465 0.415965 0.509348
O O11 0.892886 0.444436 0.511824
O O12 0.619268 0.627363 0.750000
O O13 0.495534 0.627929 0.501968
O O14 0.686476 0.667203 0.502876
O O15 0.980712 0.318067 0.750000
O O16 0.112579 0.303743 0.982022
O O17 0.997907 0.372806 0.970952
O O18 0.624380 0.373687 0.750000
O O19 0.274365 0.250000 0.500000
O O20 0.245454 0.203993 0.250000
O O21 0.015296 0.073133 0.250000
#
# Coordination Sequence:
#
# PCOD9434758 Si02
#       8
#     8   8   8   8   8   8   8   8
#     4  10  21  37  59  89 124 160 199 246 299 354
#     4  12  25  41  64  93 125 158 198 244 300 360
#     4   9  19  37  61  88 121 160 198 245 301 354
#     4  11  24  41  60  87 122 157 202 254 302 354
#     4  10  20  37  62  92 125 161 200 244 297 358
#     4  11  23  43  66  86 116 159 206 252 302 355
#     4  11  23  40  63  90 121 158 201 245 299 358
#     4  10  18  34  60  89 123 159 198 242 296 358
#
# _framework density 19.264800000000001
#
# number of rings (size 3 to 8) (size 9 to 14) (size 15 to 20)
#    0.000    1.500    2.500    3.000    0.000    4.000 
#    0.000    3.750    0.000    0.000    0.000    0.000 
#    0.000    0.000    0.000    0.000    0.000    0.000 
#
# Total GULP energy -357777.708096 kJ/mol
# GULP energy per Si atom -5590.276689 kJ/mol
# Density = 1.922095 g / cm^3
# Si number density = 19.264800 Si / 1000 Ang^3
#
#
#
# Elastic Constant Matrix: (Units=GPa)
#
#
# Indices 1 2 3 4 5 6 
#
# 1 145.6356 81.6390 34.6446 0.0000 0.0000 0.0000
# 2 81.6390 182.9483 40.0014 0.0000 0.0000 0.0000
# 3 34.6446 40.0014 41.3560 0.0000 0.0000 0.0000
# 4 0.0000 0.0000 0.0000 15.9876 0.0000 0.0000
# 5 0.0000 0.0000 0.0000 0.0000 32.6630 0.0000
# 6 0.0000 0.0000 0.0000 0.0000 0.0000 -5.4380
#
#
#
# Elastic Compliance Matrix: (Units=1/GPa)
#
#
# Indices 1 2 3 4 5 6 
#
# 1 0.009945 -0.003318 -0.005122 0.000000 0.000000 0.000000
# 2 -0.003318 0.008039 -0.004996 0.000000 0.000000 0.000000
# 3 -0.005122 -0.004996 0.033303 0.000000 0.000000 0.000000
# 4 0.000000 0.000000 0.000000 0.062548 0.000000 0.000000
# 5 0.000000 0.000000 0.000000 0.000000 0.030616 0.000000
# 6 0.000000 0.000000 0.000000 0.000000 0.000000 -0.183893
#
#
# Mechanical properties :
#
#
# Convention : Reuss Voigt Hill
#
# Bulk Modulus (GPa) = 40.95752 75.83445 58.39598
# Shear Modulus (GPa) = -1128.29416 22.88619 -552.70398
#
# Velocity S-wave (km/s) = -24.22701 3.45045 -16.95645
# Velocity P-wave (km/s) = 27.59150 7.43800 18.78786
#
# Compressibility (1/GPa) = 0.02441554
#
# Stress axis : x y z
#
# Youngs Moduli (GPa) = 100.55560 124.39301 30.02698
#
# Poissons Ratio (x) = 0.41273 0.15379
# Poissons Ratio (y) = 0.33363 0.15002
# Poissons Ratio (z) = 0.51501 0.62150
#
# Static dielectric constant tensor:
#      x y z
#    x 1.634180 0.000000 0.000000 
#    y 0.000000 1.669720 0.000000 
#    z 0.000000 0.000000 1.654250 
# 
# From -- ./inp_files/3739.got.cif
#   From: 2010.05.17/outbox.cif.g08.bks.cpg/sg57_2_cif.got.tgz:3739.got - 2010.06.03 13:58:18.
