data_PCOD9434161
_publ_section_title
;
Structure prediction by ZEFSAII (Michael W. Deem and Ramdas Pophale) SiO2 
 PCOD9434161
Probable space group: P B C M
;
_chemical_formula_sum "Si O2"
_cell_formula_units_Z 56
_cell_length_a 13.491406
_cell_length_b 14.503281
_cell_length_c 14.989928
_cell_angle_alpha 90.000000
_cell_angle_beta 90.000000
_cell_angle_gamma 90.000000
_cell_volume 2933.074000
_symmetry_space_group_name_H-M "P B C M"
_symmetry_group_IT_number 57
_symmetry_cell_setting 'orthorhombic'
loop_
_space_group_symop_operation_xyz
x,y,z
-x,-y,1/2+z
x,1/2-y,-z
-x,1/2+y,1/2-z
-x,-y,-z
x,y,1/2-z
-x,1/2+y,z
x,1/2-y,1/2+z
loop_
_atom_site_type_symbol
_atom_site_label
_atom_site_fract_x
_atom_site_fract_y
_atom_site_fract_z
Si Si1 0.711964 0.990802 0.905175
Si Si2 0.597343 0.357357 0.484027
Si Si3 0.066916 0.488758 0.854390
Si Si4 0.984968 0.645493 0.981890
Si Si5 0.569027 0.678762 0.652976
Si Si6 0.243767 0.343355 0.053507
Si Si7 0.513394 0.895253 0.652912
O O1 0.612801 0.953841 0.858902
O O2 0.687631 0.094028 0.935057
O O3 0.813880 0.979481 0.852893
O O4 0.726310 0.929380 0.993228
O O5 0.617083 0.250000 0.500000
O O6 0.498730 0.363977 0.423453
O O7 0.566635 0.407022 0.575484
O O8 0.032179 0.487010 0.750000
O O9 0.043159 0.582248 0.910560
O O10 0.025735 0.409121 0.922730
O O11 0.874426 0.654917 0.939333
O O12 0.021369 0.750000 0.000000
O O13 0.536092 0.646622 0.750000
O O14 0.684516 0.659183 0.637815
O O15 0.548970 0.788474 0.647429
O O16 0.269503 0.250000 0.000000
O O17 0.469351 0.911285 0.750000
#
# Coordination Sequence:
#
# PCOD9434161 Si02
#       7
#     8   8   8   8   8   8   8
#     4  11  20  34  56  77 107 148 184 226 276 324
#     4  10  21  37  51  74 112 151 185 230 270 322
#     4  10  22  39  59  89 119 145 191 244 282 343
#     4   9  21  39  62  85 115 152 188 232 295 349
#     4  10  19  31  50  78 112 143 181 226 272 325
#     4  10  17  34  55  79 109 140 180 227 280 332
#     4  10  19  32  52  77 106 142 182 228 272 320
#
# _framework density 19.092597000000001
#
# number of rings (size 3 to 8) (size 9 to 14) (size 15 to 20)
#    0.000    2.000    2.857    1.286    0.000    2.857 
#    0.000    0.000    0.000    3.429    0.000    0.000 
#    0.000    0.000    0.000    0.000    0.000    0.000 
#
# Total GULP energy -312211.582205 kJ/mol
# GULP energy per Si atom -5575.206825 kJ/mol
# Density = 1.904914 g / cm^3
# Si number density = 19.092597 Si / 1000 Ang^3
#
#
#
# Elastic Constant Matrix: (Units=GPa)
#
#
# Indices 1 2 3 4 5 6 
#
# 1 18.2061 11.1517 10.5802 0.0000 0.0000 0.0000
# 2 11.1517 95.1515 25.9490 0.0000 0.0000 0.0000
# 3 10.5802 25.9490 105.2662 0.0000 0.0000 0.0000
# 4 0.0000 0.0000 0.0000 9.0144 0.0000 0.0000
# 5 0.0000 0.0000 0.0000 0.0000 11.3549 0.0000
# 6 0.0000 0.0000 0.0000 0.0000 0.0000 20.8987
#
#
#
# Elastic Compliance Matrix: (Units=1/GPa)
#
#
# Indices 1 2 3 4 5 6 
#
# 1 0.061273 -0.005898 -0.004705 0.000000 0.000000 0.000000
# 2 -0.005898 0.011835 -0.002325 0.000000 0.000000 0.000000
# 3 -0.004705 -0.002325 0.010546 0.000000 0.000000 0.000000
# 4 0.000000 0.000000 0.000000 0.110933 0.000000 0.000000
# 5 0.000000 0.000000 0.000000 0.000000 0.088068 0.000000
# 6 0.000000 0.000000 0.000000 0.000000 0.000000 0.047850
#
#
# Mechanical properties :
#
#
# Convention : Reuss Voigt Hill
#
# Bulk Modulus (GPa) = 17.30129 34.88729 26.09429
# Shear Modulus (GPa) = 13.31112 19.64980 16.48046
#
# Velocity S-wave (km/s) = 2.64330 3.21157 2.94119
# Velocity P-wave (km/s) = 4.28923 5.66256 5.02305
#
# Compressibility (1/GPa) = 0.05779915
#
# Stress axis : x y z
#
# Youngs Moduli (GPa) = 16.32029 84.49687 94.82634
#
# Poissons Ratio (x) = 0.49838 0.44612
# Poissons Ratio (y) = 0.09626 0.22043
# Poissons Ratio (z) = 0.07678 0.19642
#
# Static dielectric constant tensor:
#      x y z
#    x 1.648160 0.000000 0.000000 
#    y 0.000000 1.697810 0.000000 
#    z 0.000000 0.000000 1.682880 
# 
# From -- ./inp_files/18614.got.cif
#   From: 2010.05.17/outbox.cif.g08.bks.cpg/sg57_10_cif.got.tgz:18614.got - 2010.06.03 13:58:18.
