data_PCOD9434967
_publ_section_title
;
Structure prediction by ZEFSAII (Michael W. Deem and Ramdas Pophale) SiO2 
 PCOD9434967
Probable space group: P B C M
;
_chemical_formula_sum "Si O2"
_cell_formula_units_Z 64
_cell_length_a 29.110232
_cell_length_b 14.878336
_cell_length_c 7.631107
_cell_angle_alpha 90.000000
_cell_angle_beta 90.000000
_cell_angle_gamma 90.000000
_cell_volume 3305.122586
_symmetry_space_group_name_H-M "P B C M"
_symmetry_group_IT_number 57
_symmetry_cell_setting 'orthorhombic'
loop_
_space_group_symop_operation_xyz
x,y,z
-x,-y,1/2+z
x,1/2-y,-z
-x,1/2+y,1/2-z
-x,-y,-z
x,y,1/2-z
-x,1/2+y,z
x,1/2-y,1/2+z
loop_
_atom_site_type_symbol
_atom_site_label
_atom_site_fract_x
_atom_site_fract_y
_atom_site_fract_z
Si Si1 0.258032 0.351948 0.960995
Si Si2 0.927828 0.973971 0.956997
Si Si3 0.509139 0.103769 0.959564
Si Si4 0.389168 0.649037 0.960762
Si Si5 0.410635 0.153036 0.958797
Si Si6 0.334573 0.014815 0.451718
Si Si7 0.846628 0.852326 0.539010
Si Si8 0.016379 0.856245 0.040544
O O1 0.257306 0.359366 0.750000
O O2 0.293503 0.426144 0.030676
O O3 0.205707 0.362808 0.025949
O O4 0.272869 0.250000 0.000000
O O5 0.920196 0.987029 0.750000
O O6 0.882154 0.926607 0.029989
O O7 0.945434 0.071062 0.025818
O O8 0.968632 0.900670 0.977294
O O9 0.510352 0.117241 0.750000
O O10 0.558829 0.132727 0.029369
O O11 0.463046 0.151287 0.026811
O O12 0.500000 0.000000 0.000000
O O13 0.391276 0.636028 0.750000
O O14 0.352469 0.577820 0.032147
O O15 0.375769 0.750000 0.000000
O O16 0.410733 0.137579 0.750000
O O17 0.390427 0.250000 0.000000
O O18 0.379781 0.077147 0.044540
O O19 0.321487 0.996690 0.250000
O O20 0.861796 0.750000 0.500000
O O21 0.845431 0.859809 0.750000
O O22 0.015857 0.862781 0.250000
O O23 0.021699 0.750000 0.000000
#
# Coordination Sequence:
#
# PCOD9434967 Si02
#       8
#     8   8   8   8   8   8   8   8
#     4   9  18  32  51  74  98 125 154 191 239 290
#     4   9  18  31  47  68  95 129 167 206 245 288
#     4  10  20  34  51  71  95 124 156 190 229 273
#     4  10  21  36  53  72  94 123 158 195 233 275
#     4  11  22  33  49  73  98 127 156 186 228 277
#     4  10  20  35  53  72  97 125 156 195 236 281
#     4   9  17  30  48  71  97 124 158 196 239 288
#     4  10  19  30  45  67  97 132 168 205 244 288
#
# _framework density 19.363880000000002
#
# number of rings (size 3 to 8) (size 9 to 14) (size 15 to 20)
#    0.000    2.250    1.250    1.875    0.000    5.000 
#    0.000    0.000    0.000    0.750    0.000    0.000 
#    0.000    0.000    0.000    0.000    0.000    0.000 
#
# Total GULP energy -356970.708367 kJ/mol
# GULP energy per Si atom -5577.667318 kJ/mol
# Density = 1.931981 g / cm^3
# Si number density = 19.363880 Si / 1000 Ang^3
#
#
#
# Elastic Constant Matrix: (Units=GPa)
#
#
# Indices 1 2 3 4 5 6 
#
# 1 105.9227 69.2261 -1.8709 0.0000 0.0000 0.0000
# 2 69.2261 160.4129 -14.3867 0.0000 0.0000 0.0000
# 3 -1.8709 -14.3867 41.0076 0.0000 0.0000 0.0000
# 4 0.0000 0.0000 0.0000 21.4947 0.0000 0.0000
# 5 0.0000 0.0000 0.0000 0.0000 13.8346 0.0000
# 6 0.0000 0.0000 0.0000 0.0000 0.0000 26.8379
#
#
#
# Elastic Compliance Matrix: (Units=1/GPa)
#
#
# Indices 1 2 3 4 5 6 
#
# 1 0.013232 -0.005840 -0.001445 0.000000 0.000000 0.000000
# 2 -0.005840 0.009014 0.002896 0.000000 0.000000 0.000000
# 3 -0.001445 0.002896 0.025336 0.000000 0.000000 0.000000
# 4 0.000000 0.000000 0.000000 0.046523 0.000000 0.000000
# 5 0.000000 0.000000 0.000000 0.000000 0.072282 0.000000
# 6 0.000000 0.000000 0.000000 0.000000 0.000000 0.037261
#
#
# Mechanical properties :
#
#
# Convention : Reuss Voigt Hill
#
# Bulk Modulus (GPa) = 25.77097 45.92002 35.84549
# Shear Modulus (GPa) = 22.18668 29.39176 25.78922
#
# Velocity S-wave (km/s) = 3.38860 3.90021 3.65337
# Velocity P-wave (km/s) = 5.35237 6.63686 6.02892
#
# Compressibility (1/GPa) = 0.03880336
#
# Stress axis : x y z
#
# Youngs Moduli (GPa) = 75.57448 110.94081 39.46994
#
# Poissons Ratio (x) = 0.64788 0.05704
# Poissons Ratio (y) = 0.44134 -0.11430
# Poissons Ratio (z) = 0.10921 -0.32127
#
# Static dielectric constant tensor:
#      x y z
#    x 1.702140 0.000000 0.000000 
#    y 0.000000 1.683360 0.000000 
#    z 0.000000 0.000000 1.750000 
# 
# From -- ./inp_files/10351.got.cif
#   From: 2010.05.17/outbox.cif.g08.bks.cpg/sg57_6_cif.got.tgz:10351.got - 2010.06.03 13:58:18.
