data_PCOD9434589
_publ_section_title
;
Structure prediction by ZEFSAII (Michael W. Deem and Ramdas Pophale) SiO2 
 PCOD9434589
Probable space group: P B C M
;
_chemical_formula_sum "Si O2"
_cell_formula_units_Z 48
_cell_length_a 12.879233
_cell_length_b 25.810228
_cell_length_c 8.619199
_cell_angle_alpha 90.000000
_cell_angle_beta 90.000000
_cell_angle_gamma 90.000000
_cell_volume 2865.159139
_symmetry_space_group_name_H-M "P B C M"
_symmetry_group_IT_number 57
_symmetry_cell_setting 'orthorhombic'
loop_
_space_group_symop_operation_xyz
x,y,z
-x,-y,1/2+z
x,1/2-y,-z
-x,1/2+y,1/2-z
-x,-y,-z
x,y,1/2-z
-x,1/2+y,z
x,1/2-y,1/2+z
loop_
_atom_site_type_symbol
_atom_site_label
_atom_site_fract_x
_atom_site_fract_y
_atom_site_fract_z
Si Si1 0.881769 0.607612 0.064893
Si Si2 0.275796 0.191391 0.936231
Si Si3 0.116041 0.609209 0.564545
Si Si4 0.276692 0.691327 0.435148
Si Si5 0.492445 0.808516 0.064387
Si Si6 0.117875 0.500661 0.435574
O O1 0.887868 0.604413 0.250000
O O2 0.809710 0.654601 0.011130
O O3 0.837376 0.553344 0.997966
O O4 0.998309 0.614515 0.998376
O O5 0.264284 0.192599 0.750000
O O6 0.392580 0.170543 0.971215
O O7 0.267297 0.250000 0.000000
O O8 0.113201 0.607625 0.750000
O O9 0.186235 0.656031 0.504553
O O10 0.160986 0.554698 0.500098
O O11 0.268793 0.750000 0.500000
O O12 0.271081 0.692825 0.250000
O O13 0.388917 0.668909 0.487871
O O14 0.479203 0.807676 0.250000
O O15 0.496137 0.750000 0.000000
O O16 0.117219 0.501048 0.250000
O O17 0.000000 0.500000 0.500000
#
# Coordination Sequence:
#
# PCOD9434589 Si02
#       6
#     8   8   8   8   8   8
#     4  11  21  34  52  76 104 135 170 207 251 299
#     4  10  20  34  52  76 104 135 170 208 251 299
#     4  11  21  35  53  75 103 134 169 208 252 299
#     4  11  21  34  52  76 104 134 169 207 251 300
#     4   9  17  31  51  73  98 130 169 208 246 292
#     4  10  18  32  52  74  99 130 169 208 247 293
#
# _framework density 16.752996
#
# number of rings (size 3 to 8) (size 9 to 14) (size 15 to 20)
#    0.000    1.667    0.000   10.000    0.000    2.667 
#    0.000    3.333    0.000    1.000    0.000    0.000 
#    0.000    0.000    0.000    0.000    0.000    0.000 
#
# Total GULP energy -267745.460447 kJ/mol
# GULP energy per Si atom -5578.030426 kJ/mol
# Density = 1.671487 g / cm^3
# Si number density = 16.752996 Si / 1000 Ang^3
#
#
#
# Elastic Constant Matrix: (Units=GPa)
#
#
# Indices 1 2 3 4 5 6 
#
# 1 97.6258 60.7333 57.1259 0.0000 0.0000 0.0000
# 2 60.7333 106.5945 56.7357 0.0000 0.0000 0.0000
# 3 57.1259 56.7357 173.0910 0.0000 0.0000 0.0000
# 4 0.0000 0.0000 0.0000 27.0572 0.0000 0.0000
# 5 0.0000 0.0000 0.0000 0.0000 23.2295 0.0000
# 6 0.0000 0.0000 0.0000 0.0000 0.0000 -3.9591
#
#
#
# Elastic Compliance Matrix: (Units=1/GPa)
#
#
# Indices 1 2 3 4 5 6 
#
# 1 0.017031 -0.008130 -0.002956 0.000000 0.000000 0.000000
# 2 -0.008130 0.015245 -0.002314 0.000000 0.000000 0.000000
# 3 -0.002956 -0.002314 0.007511 0.000000 0.000000 0.000000
# 4 0.000000 0.000000 0.000000 0.036959 0.000000 0.000000
# 5 0.000000 0.000000 0.000000 0.000000 0.043049 0.000000
# 6 0.000000 0.000000 0.000000 0.000000 0.000000 -0.252583
#
#
# Mechanical properties :
#
#
# Convention : Reuss Voigt Hill
#
# Bulk Modulus (GPa) = 76.99717 80.72234 78.85975
# Shear Modulus (GPa) = -49.18340 22.77993 -13.20173
#
# Velocity S-wave (km/s) = -5.42418 3.69148 -2.81022
# Velocity P-wave (km/s) = 2.61363 8.15217 6.05347
#
# Compressibility (1/GPa) = 0.01298749
#
# Stress axis : x y z
#
# Youngs Moduli (GPa) = 58.71812 65.59485 133.13382
#
# Poissons Ratio (x) = 0.53329 0.39351
# Poissons Ratio (y) = 0.47738 0.30805
# Poissons Ratio (z) = 0.17356 0.15178
#
# Static dielectric constant tensor:
#      x y z
#    x 1.615610 0.000000 0.000000 
#    y 0.000000 1.570790 0.000000 
#    z 0.000000 0.000000 1.554810 
# 
# From -- ./inp_files/3315.got.cif
#   From: 2010.05.17/outbox.cif.g08.bks.cpg/sg57_2_cif.got.tgz:3315.got - 2010.06.03 13:58:18.
