data_PCOD9434770
_publ_section_title
;
Structure prediction by ZEFSAII (Michael W. Deem and Ramdas Pophale) SiO2 
 PCOD9434770
Probable space group: P B C M
;
_chemical_formula_sum "Si O2"
_cell_formula_units_Z 40
_cell_length_a 22.935748
_cell_length_b 8.308861
_cell_length_c 10.256832
_cell_angle_alpha 90.000000
_cell_angle_beta 90.000000
_cell_angle_gamma 90.000000
_cell_volume 1954.643880
_symmetry_space_group_name_H-M "P B C M"
_symmetry_group_IT_number 57
_symmetry_cell_setting 'orthorhombic'
loop_
_space_group_symop_operation_xyz
x,y,z
-x,-y,1/2+z
x,1/2-y,-z
-x,1/2+y,1/2-z
-x,-y,-z
x,y,1/2-z
-x,1/2+y,z
x,1/2-y,1/2+z
loop_
_atom_site_type_symbol
_atom_site_label
_atom_site_fract_x
_atom_site_fract_y
_atom_site_fract_z
Si Si1 0.948679 0.102547 0.250000
Si Si2 0.624494 0.560670 0.977863
Si Si3 0.742204 0.397274 0.899231
Si Si4 0.582422 0.439011 0.250000
Si Si5 0.867036 0.055180 0.482287
Si Si6 0.455004 0.930589 0.750000
Si Si7 0.921007 0.014148 0.750000
O O1 0.917146 0.027108 0.375973
O O2 0.935268 0.293707 0.250000
O O3 0.017229 0.074167 0.250000
O O4 0.616863 0.475642 0.117721
O O5 0.622415 0.750000 0.000000
O O6 0.685620 0.506927 0.915903
O O7 0.573549 0.509233 0.878429
O O8 0.746074 0.337976 0.750000
O O9 0.736280 0.250000 0.000000
O O10 0.802745 0.487193 0.932278
O O11 0.562340 0.255246 0.250000
O O12 0.524064 0.546657 0.250000
O O13 0.864965 0.250000 0.500000
O O14 0.884631 0.980420 0.619789
#
# Coordination Sequence:
#
# PCOD9434770 Si02
#       7
#     4   8   8   4   8   4   4
#     4  10  18  35  52  83 113 154 196 248 307 368
#     4  12  26  44  66  98 136 172 211 266 330 386
#     4  11  23  41  67  94 123 163 217 268 321 386
#     4  12  26  43  72  99 133 176 220 266 317 384
#     4   9  19  34  58  84 116 154 201 253 308 374
#     4  12  24  47  68  99 133 174 220 266 317 382
#     4  10  20  33  56  83 117 154 202 252 309 378
#
# _framework density 20.464086999999999
#
# number of rings (size 3 to 8) (size 9 to 14) (size 15 to 20)
#    0.000    1.200    2.000    4.800    5.600    0.000 
#    0.000    2.000    0.000    0.000    0.000    0.000 
#    0.000    0.000    0.000    0.000    0.000    0.000 
#
# Total GULP energy -223742.991376 kJ/mol
# GULP energy per Si atom -5593.574784 kJ/mol
# Density = 2.041751 g / cm^3
# Si number density = 20.464087 Si / 1000 Ang^3
#
#
#
# Elastic Constant Matrix: (Units=GPa)
#
#
# Indices 1 2 3 4 5 6 
#
# 1 93.3546 -6.9406 35.6201 0.0000 0.0000 0.0000
# 2 -6.9406 54.5237 12.0094 0.0000 0.0000 0.0000
# 3 35.6201 12.0094 163.0284 0.0000 0.0000 0.0000
# 4 0.0000 0.0000 0.0000 1.8481 0.0000 0.0000
# 5 0.0000 0.0000 0.0000 0.0000 66.7188 0.0000
# 6 0.0000 0.0000 0.0000 0.0000 0.0000 40.7613
#
#
#
# Elastic Compliance Matrix: (Units=1/GPa)
#
#
# Indices 1 2 3 4 5 6 
#
# 1 0.011924 0.002126 -0.002762 0.000000 0.000000 0.000000
# 2 0.002126 0.019022 -0.001866 0.000000 0.000000 0.000000
# 3 -0.002762 -0.001866 0.006875 0.000000 0.000000 0.000000
# 4 0.000000 0.000000 0.000000 0.541101 0.000000 0.000000
# 5 0.000000 0.000000 0.000000 0.000000 0.014988 0.000000
# 6 0.000000 0.000000 0.000000 0.000000 0.000000 0.024533
#
#
# Mechanical properties :
#
#
# Convention : Reuss Voigt Hill
#
# Bulk Modulus (GPa) = 30.47128 43.58716 37.02922
# Shear Modulus (GPa) = 7.88165 39.88016 23.88090
#
# Velocity S-wave (km/s) = 1.96464 4.41930 3.41980
# Velocity P-wave (km/s) = 4.47983 6.88374 5.80753
#
# Compressibility (1/GPa) = 0.03281779
#
# Stress axis : x y z
#
# Youngs Moduli (GPa) = 83.86647 52.56995 145.45919
#
# Poissons Ratio (x) = -0.11177 0.40173
# Poissons Ratio (y) = -0.17831 0.27140
# Poissons Ratio (z) = 0.23163 0.09809
#
# Static dielectric constant tensor:
#      x y z
#    x 1.705960 0.000000 0.000000 
#    y 0.000000 1.709030 0.000000 
#    z 0.000000 0.000000 1.734170 
# 
# From -- ./inp_files/9033.got.cif
#   From: 2010.05.17/outbox.cif.g08.bks.cpg/sg57_5_cif.got.tgz:9033.got - 2010.06.03 13:58:18.
