data_PCOD9434982
_publ_section_title
;
Structure prediction by ZEFSAII (Michael W. Deem and Ramdas Pophale) SiO2 
 PCOD9434982
Probable space group: P B C M
;
_chemical_formula_sum "Si O2"
_cell_formula_units_Z 64
_cell_length_a 17.296892
_cell_length_b 22.032183
_cell_length_c 9.498195
_cell_angle_alpha 90.000000
_cell_angle_beta 90.000000
_cell_angle_gamma 90.000000
_cell_volume 3619.650889
_symmetry_space_group_name_H-M "P B C M"
_symmetry_group_IT_number 57
_symmetry_cell_setting 'orthorhombic'
loop_
_space_group_symop_operation_xyz
x,y,z
-x,-y,1/2+z
x,1/2-y,-z
-x,1/2+y,1/2-z
-x,-y,-z
x,y,1/2-z
-x,1/2+y,z
x,1/2-y,1/2+z
loop_
_atom_site_type_symbol
_atom_site_label
_atom_site_fract_x
_atom_site_fract_y
_atom_site_fract_z
Si Si1 0.471755 0.409920 0.915709
Si Si2 0.234786 0.529444 0.089885
Si Si3 0.618853 0.688842 0.586926
Si Si4 0.615514 0.036248 0.584398
Si Si5 0.851410 0.804147 0.903490
Si Si6 0.776272 0.887071 0.098751
Si Si7 0.946608 0.449282 0.920544
Si Si8 0.035275 0.692071 0.408920
O O1 0.482583 0.397179 0.750000
O O2 0.409322 0.465069 0.925350
O O3 0.440606 0.353543 0.003659
O O4 0.550567 0.431630 0.989405
O O5 0.247957 0.552949 0.250000
O O6 0.244044 0.456940 0.095207
O O7 0.144803 0.539534 0.053631
O O8 0.300392 0.550009 0.980983
O O9 0.627639 0.750000 0.500000
O O10 0.596850 0.699203 0.750000
O O11 0.699346 0.652332 0.588012
O O12 0.611005 0.052451 0.750000
O O13 0.816244 0.799386 0.750000
O O14 0.943189 0.798173 0.896232
O O15 0.821640 0.750000 0.000000
O O16 0.831428 0.867636 0.973672
O O17 0.814808 0.873480 0.250000
O O18 0.960248 0.454068 0.750000
O O19 0.958127 0.377914 0.961512
O O20 0.000000 0.500000 0.000000
O O21 0.064307 0.750000 0.500000
O O22 0.068525 0.693906 0.250000
#
# Coordination Sequence:
#
# PCOD9434982 Si02
#       8
#     8   8   8   8   8   8   8   8
#     4  10  20  35  56  80 107 139 177 220 270 321
#     4  10  20  35  54  78 109 143 179 226 280 333
#     4  11  22  35  51  74 108 146 184 221 263 323
#     4  10  20  34  56  83 108 137 175 224 273 323
#     4  10  19  30  46  66  94 131 175 221 264 316
#     4  10  20  32  47  70 102 139 177 216 263 320
#     4  10  21  36  56  83 116 150 189 238 294 348
#     4   9  19  35  53  76 103 139 185 232 282 340
#
# _framework density 17.681263000000001
#
# number of rings (size 3 to 8) (size 9 to 14) (size 15 to 20)
#    0.000    2.000    1.250    2.625    0.000    5.000 
#    0.000    0.000    0.000    0.750    0.000    3.500 
#    0.000    0.000    0.000    0.000    0.000    0.000 
#
# Total GULP energy -356623.629581 kJ/mol
# GULP energy per Si atom -5572.244212 kJ/mol
# Density = 1.764102 g / cm^3
# Si number density = 17.681263 Si / 1000 Ang^3
#
#
#
# Elastic Constant Matrix: (Units=GPa)
#
#
# Indices 1 2 3 4 5 6 
#
# 1 70.3617 21.1664 44.2333 0.0000 0.0000 0.0000
# 2 21.1664 95.7937 44.8684 0.0000 0.0000 0.0000
# 3 44.2333 44.8684 125.8287 0.0000 0.0000 0.0000
# 4 0.0000 0.0000 0.0000 25.2910 0.0000 0.0000
# 5 0.0000 0.0000 0.0000 0.0000 22.8811 0.0000
# 6 0.0000 0.0000 0.0000 0.0000 0.0000 25.9677
#
#
#
# Elastic Compliance Matrix: (Units=1/GPa)
#
#
# Indices 1 2 3 4 5 6 
#
# 1 0.018366 -0.001241 -0.006014 0.000000 0.000000 0.000000
# 2 -0.001241 0.012616 -0.004062 0.000000 0.000000 0.000000
# 3 -0.006014 -0.004062 0.011510 0.000000 0.000000 0.000000
# 4 0.000000 0.000000 0.000000 0.039540 0.000000 0.000000
# 5 0.000000 0.000000 0.000000 0.000000 0.043704 0.000000
# 6 0.000000 0.000000 0.000000 0.000000 0.000000 0.038509
#
#
# Mechanical properties :
#
#
# Convention : Reuss Voigt Hill
#
# Bulk Modulus (GPa) = 50.35905 56.94669 53.65287
# Shear Modulus (GPa) = 25.83983 26.94236 26.39110
#
# Velocity S-wave (km/s) = 3.82701 3.90780 3.86761
# Velocity P-wave (km/s) = 6.93335 7.25524 7.09612
#
# Compressibility (1/GPa) = 0.01985741
#
# Stress axis : x y z
#
# Youngs Moduli (GPa) = 54.44755 79.26364 86.88181
#
# Poissons Ratio (x) = 0.09840 0.52248
# Poissons Ratio (y) = 0.06759 0.35294
# Poissons Ratio (z) = 0.32743 0.32199
#
# Static dielectric constant tensor:
#      x y z
#    x 1.596890 0.000000 0.000000 
#    y 0.000000 1.616400 0.000000 
#    z 0.000000 0.000000 1.645060 
# 
# From -- ./inp_files/7157.got.cif
#   From: 2010.05.17/outbox.cif.g08.bks.cpg/sg57_4_cif.got.tgz:7157.got - 2010.06.03 13:58:18.
