data_PCOD9434709
_publ_section_title
;
Structure prediction by ZEFSAII (Michael W. Deem and Ramdas Pophale) SiO2 
 PCOD9434709
Probable space group: P B C M
;
_chemical_formula_sum "Si O2"
_cell_formula_units_Z 40
_cell_length_a 8.682384
_cell_length_b 33.570314
_cell_length_c 7.815655
_cell_angle_alpha 90.000000
_cell_angle_beta 90.000000
_cell_angle_gamma 90.000000
_cell_volume 2278.031754
_symmetry_space_group_name_H-M "P B C M"
_symmetry_group_IT_number 57
_symmetry_cell_setting 'orthorhombic'
loop_
_space_group_symop_operation_xyz
x,y,z
-x,-y,1/2+z
x,1/2-y,-z
-x,1/2+y,1/2-z
-x,-y,-z
x,y,1/2-z
-x,1/2+y,z
x,1/2-y,1/2+z
loop_
_atom_site_type_symbol
_atom_site_label
_atom_site_fract_x
_atom_site_fract_y
_atom_site_fract_z
Si Si1 0.186936 0.940712 0.750000
Si Si2 0.316128 0.794400 0.443738
Si Si3 0.316703 0.648053 0.250000
Si Si4 0.821342 0.940687 0.750000
Si Si5 0.326991 0.508951 0.558159
Si Si6 0.690103 0.647815 0.250000
Si Si7 0.308321 0.205554 0.943896
O O1 0.251486 0.896095 0.750000
O O2 0.247362 0.964013 0.582984
O O3 0.003687 0.940079 0.750000
O O4 0.268196 0.750000 0.500000
O O5 0.265786 0.802659 0.250000
O O6 0.268001 0.826858 0.582944
O O7 0.503903 0.794189 0.444360
O O8 0.503430 0.646033 0.250000
O O9 0.754258 0.896580 0.750000
O O10 0.759225 0.966862 0.910176
O O11 0.500000 0.500000 0.500000
O O12 0.327688 0.527401 0.750000
O O13 0.739284 0.672958 0.416949
O O14 0.258009 0.197319 0.750000
O O15 0.260387 0.250000 0.000000
#
# Coordination Sequence:
#
# PCOD9434709 Si02
#       7
#     4   8   4   4   8   4   8
#     4  12  22  42  60  87 124 153 196 237 294 363
#     4   9  15  26  46  76 109 142 186 238 294 335
#     4  10  20  30  54  79 112 149 186 245 288 335
#     4  10  24  40  60  87 120 159 190 241 294 355
#     4  10  21  40  67  91 114 148 194 240 297 347
#     4  10  18  34  48  79 116 139 194 239 284 341
#     4   9  15  25  46  76 106 143 182 238 293 332
#
# _framework density 17.559017000000001
#
# number of rings (size 3 to 8) (size 9 to 14) (size 15 to 20)
#    0.600    1.600    3.000    1.800    0.000    0.800 
#    1.800    2.000    0.000    1.200    0.000    0.000 
#    0.000    0.000    0.000    0.000    0.000    0.000 
#
# Total GULP energy -222953.621839 kJ/mol
# GULP energy per Si atom -5573.840546 kJ/mol
# Density = 1.751905 g / cm^3
# Si number density = 17.559017 Si / 1000 Ang^3
#
#
#
# Elastic Constant Matrix: (Units=GPa)
#
#
# Indices 1 2 3 4 5 6 
#
# 1 56.9535 47.3654 40.1828 0.0000 0.0000 0.0000
# 2 47.3654 185.1833 109.7343 0.0000 0.0000 0.0000
# 3 40.1828 109.7343 195.4301 0.0000 0.0000 0.0000
# 4 0.0000 0.0000 0.0000 32.8370 0.0000 0.0000
# 5 0.0000 0.0000 0.0000 0.0000 13.3926 0.0000
# 6 0.0000 0.0000 0.0000 0.0000 0.0000 -18.7765
#
#
#
# Elastic Compliance Matrix: (Units=1/GPa)
#
#
# Indices 1 2 3 4 5 6 
#
# 1 0.022876 -0.004592 -0.002125 0.000000 0.000000 0.000000
# 2 -0.004592 0.009014 -0.004117 0.000000 0.000000 0.000000
# 3 -0.002125 -0.004117 0.007866 0.000000 0.000000 0.000000
# 4 0.000000 0.000000 0.000000 0.030453 0.000000 0.000000
# 5 0.000000 0.000000 0.000000 0.000000 0.074668 0.000000
# 6 0.000000 0.000000 0.000000 0.000000 0.000000 -0.053258
#
#
# Mechanical properties :
#
#
# Convention : Reuss Voigt Hill
#
# Bulk Modulus (GPa) = 55.28688 92.45910 73.87299
# Shear Modulus (GPa) = 41.90457 21.50958 31.70708
#
# Velocity S-wave (km/s) = 4.89048 3.50378 4.25401
# Velocity P-wave (km/s) = 7.96516 8.31499 8.14196
#
# Compressibility (1/GPa) = 0.01808747
#
# Stress axis : x y z
#
# Youngs Moduli (GPa) = 43.71300 110.93325 127.13112
#
# Poissons Ratio (x) = 0.50938 0.27020
# Poissons Ratio (y) = 0.20072 0.52346
# Poissons Ratio (z) = 0.09291 0.45677
#
# Static dielectric constant tensor:
#      x y z
#    x 1.576950 0.000000 0.000000 
#    y 0.000000 1.565570 0.000000 
#    z 0.000000 0.000000 1.614760 
# 
# From -- ./inp_files/1773.got.cif
#   From: 2010.05.17/outbox.cif.g08.bks.cpg/sg57_1_cif.got.tgz:1773.got - 2010.06.03 13:58:18.
