data_PCOD9434262
_publ_section_title
;
Structure prediction by ZEFSAII (Michael W. Deem and Ramdas Pophale) SiO2 
 PCOD9434262
Probable space group: P B C M
;
_chemical_formula_sum "Si O2"
_cell_formula_units_Z 56
_cell_length_a 14.086862
_cell_length_b 29.130941
_cell_length_c 8.561150
_cell_angle_alpha 90.000000
_cell_angle_beta 90.000000
_cell_angle_gamma 90.000000
_cell_volume 3513.183870
_symmetry_space_group_name_H-M "P B C M"
_symmetry_group_IT_number 57
_symmetry_cell_setting 'orthorhombic'
loop_
_space_group_symop_operation_xyz
x,y,z
-x,-y,1/2+z
x,1/2-y,-z
-x,1/2+y,1/2-z
-x,-y,-z
x,y,1/2-z
-x,1/2+y,z
x,1/2-y,1/2+z
loop_
_atom_site_type_symbol
_atom_site_label
_atom_site_fract_x
_atom_site_fract_y
_atom_site_fract_z
Si Si1 0.600352 0.016897 0.561422
Si Si2 0.767588 0.200385 0.435427
Si Si3 0.789585 0.536059 0.061546
Si Si4 0.981176 0.299694 0.437512
Si Si5 0.296884 0.608252 0.562117
Si Si6 0.079035 0.107567 0.938540
Si Si7 0.894642 0.053522 0.560815
O O1 0.599650 0.016976 0.750000
O O2 0.628571 0.068886 0.512796
O O3 0.500000 0.000000 0.500000
O O4 0.686435 0.982927 0.512963
O O5 0.736835 0.250000 0.500000
O O6 0.774128 0.202661 0.250000
O O7 0.873818 0.191889 0.502766
O O8 0.701250 0.158289 0.487101
O O9 0.790975 0.536614 0.250000
O O10 0.864581 0.496973 0.006029
O O11 0.824945 0.584711 0.999608
O O12 0.010802 0.250000 0.500000
O O13 0.976997 0.298871 0.250000
O O14 0.050672 0.340932 0.486174
O O15 0.301929 0.612890 0.750000
O O16 0.193988 0.586391 0.523736
O O17 0.080112 0.106490 0.750000
O O18 0.991740 0.075581 0.996461
O O19 0.900017 0.051738 0.750000
#
# Coordination Sequence:
#
# PCOD9434262 Si02
#       7
#     8   8   8   8   8   8   8
#     4   9  19  34  53  72  95 124 154 194 243 287
#     4  11  20  29  44  67  94 126 162 197 231 273
#     4   9  18  30  45  66  91 121 154 188 226 273
#     4  10  19  31  45  62  90 127 164 198 233 272
#     4   9  16  31  49  66  93 128 158 191 236 281
#     4  10  18  28  44  64  90 125 156 190 230 267
#     4   8  14  27  43  60  90 125 153 182 223 265
#
# _framework density 15.939958000000001
#
# number of rings (size 3 to 8) (size 9 to 14) (size 15 to 20)
#    0.000    2.571    1.429    4.714    0.000    2.286 
#    0.000    2.143    0.000    0.000    0.000    1.000 
#    0.000    4.571    0.000    0.000    0.000    0.000 
#
# Total GULP energy -312062.995572 kJ/mol
# GULP energy per Si atom -5572.553492 kJ/mol
# Density = 1.590368 g / cm^3
# Si number density = 15.939958 Si / 1000 Ang^3
#
#
#
# Elastic Constant Matrix: (Units=GPa)
#
#
# Indices 1 2 3 4 5 6 
#
# 1 72.5174 70.8542 20.1315 0.0000 0.0000 0.0000
# 2 70.8542 145.3711 35.6184 0.0000 0.0000 0.0000
# 3 20.1315 35.6184 34.7734 0.0000 0.0000 0.0000
# 4 0.0000 0.0000 0.0000 24.0552 0.0000 0.0000
# 5 0.0000 0.0000 0.0000 0.0000 20.5168 0.0000
# 6 0.0000 0.0000 0.0000 0.0000 0.0000 108.2819
#
#
#
# Elastic Compliance Matrix: (Units=1/GPa)
#
#
# Indices 1 2 3 4 5 6 
#
# 1 0.026534 -0.012241 -0.002823 0.000000 0.000000 0.000000
# 2 -0.012241 0.014831 -0.008105 0.000000 0.000000 0.000000
# 3 -0.002823 -0.008105 0.038693 0.000000 0.000000 0.000000
# 4 0.000000 0.000000 0.000000 0.041571 0.000000 0.000000
# 5 0.000000 0.000000 0.000000 0.000000 0.048741 0.000000
# 6 0.000000 0.000000 0.000000 0.000000 0.000000 0.009235
#
#
# Mechanical properties :
#
#
# Convention : Reuss Voigt Hill
#
# Bulk Modulus (GPa) = 29.65496 56.20777 42.93137
# Shear Modulus (GPa) = 21.08087 38.97464 30.02776
#
# Velocity S-wave (km/s) = 3.64059 4.95015 4.34499
# Velocity P-wave (km/s) = 6.02631 8.24686 7.22243
#
# Compressibility (1/GPa) = 0.03372117
#
# Stress axis : x y z
#
# Youngs Moduli (GPa) = 37.68820 67.42666 25.84416
#
# Poissons Ratio (x) = 0.82536 0.07295
# Poissons Ratio (y) = 0.46133 0.20946
# Poissons Ratio (z) = 0.10639 0.54647
#
# Static dielectric constant tensor:
#      x y z
#    x 1.511930 0.000000 0.000000 
#    y 0.000000 1.564410 0.000000 
#    z 0.000000 0.000000 1.540720 
# 
# From -- ./inp_files/5912.got.cif
#   From: 2010.05.17/outbox.cif.g08.bks.cpg/sg57_3_cif.got.tgz:5912.got - 2010.06.03 13:58:18.
