data_PCOD9434535
_publ_section_title
;
Structure prediction by ZEFSAII (Michael W. Deem and Ramdas Pophale) SiO2 
 PCOD9434535
Probable space group: P B C M
;
_chemical_formula_sum "Si O2"
_cell_formula_units_Z 56
_cell_length_a 15.167428
_cell_length_b 9.987419
_cell_length_c 15.526640
_cell_angle_alpha 90.000000
_cell_angle_beta 90.000000
_cell_angle_gamma 90.000000
_cell_volume 2352.029127
_symmetry_space_group_name_H-M "P B C M"
_symmetry_group_IT_number 57
_symmetry_cell_setting 'orthorhombic'
loop_
_space_group_symop_operation_xyz
x,y,z
-x,-y,1/2+z
x,1/2-y,-z
-x,1/2+y,1/2-z
-x,-y,-z
x,y,1/2-z
-x,1/2+y,z
x,1/2-y,1/2+z
loop_
_atom_site_type_symbol
_atom_site_label
_atom_site_fract_x
_atom_site_fract_y
_atom_site_fract_z
Si Si1 0.277923 0.713920 0.599177
Si Si2 0.409849 0.982554 0.450221
Si Si3 0.706386 0.995050 0.121503
Si Si4 0.900281 0.967317 0.081176
Si Si5 0.660925 0.724513 0.396175
Si Si6 0.002104 0.288567 0.654255
Si Si7 0.166764 0.454238 0.885981
O O1 0.376991 0.652200 0.594334
O O2 0.287405 0.852281 0.650290
O O3 0.211002 0.598989 0.633009
O O4 0.066001 0.884639 0.604916
O O5 0.332598 0.990838 0.523840
O O6 0.406495 0.104294 0.382822
O O7 0.500000 0.000000 0.500000
O O8 0.651594 0.865438 0.151171
O O9 0.806771 0.945182 0.127134
O O10 0.873962 0.960577 0.981834
O O11 0.966754 0.847508 0.106834
O O12 0.750911 0.250000 0.000000
O O13 0.653660 0.750000 0.500000
O O14 0.754242 0.652938 0.380924
O O15 0.969973 0.253725 0.750000
O O16 0.086177 0.387207 0.662950
#
# Coordination Sequence:
#
# PCOD9434535 Si02
#       7
#     8   8   8   8   8   8   8
#     4   9  17  29  51  84 114 146 196 237 284 348
#     4   9  17  28  46  79 129 167 181 228 308 361
#     4  10  18  31  53  79 112 154 197 243 285 358
#     4  12  23  42  61  83 113 154 207 248 305 365
#     4   9  14  29  49  75 107 150 197 235 279 346
#     4  12  28  42  57  83 118 150 198 261 315 357
#     4  11  19  38  61  81 107 154 201 242 295 364
#
# _framework density 23.809229999999999
#
# number of rings (size 3 to 8) (size 9 to 14) (size 15 to 20)
#    0.000    1.714    7.143    1.286    2.000    5.143 
#    0.000    0.000    0.000    0.000    0.000    0.000 
#    0.000    9.143    0.000    0.000    0.000    0.286 
#
# Total GULP energy -311950.380818 kJ/mol
# GULP energy per Si atom -5570.542515 kJ/mol
# Density = 2.375504 g / cm^3
# Si number density = 23.809230 Si / 1000 Ang^3
#
#
#
# Elastic Constant Matrix: (Units=GPa)
#
#
# Indices 1 2 3 4 5 6 
#
# 1 58.4995 31.9813 7.4882 0.0000 0.0000 0.0000
# 2 31.9813 216.3820 30.5344 0.0000 0.0000 0.0000
# 3 7.4882 30.5344 49.8959 0.0000 0.0000 0.0000
# 4 0.0000 0.0000 0.0000 -107.3430 0.0000 0.0000
# 5 0.0000 0.0000 0.0000 0.0000 -16.3463 0.0000
# 6 0.0000 0.0000 0.0000 0.0000 0.0000 16.2546
#
#
#
# Elastic Compliance Matrix: (Units=1/GPa)
#
#
# Indices 1 2 3 4 5 6 
#
# 1 0.018664 -0.002587 -0.001218 0.000000 0.000000 0.000000
# 2 -0.002587 0.005417 -0.002927 0.000000 0.000000 0.000000
# 3 -0.001218 -0.002927 0.022016 0.000000 0.000000 0.000000
# 4 0.000000 0.000000 0.000000 -0.009316 0.000000 0.000000
# 5 0.000000 0.000000 0.000000 0.000000 -0.061176 0.000000
# 6 0.000000 0.000000 0.000000 0.000000 0.000000 0.061521
#
#
# Mechanical properties :
#
#
# Convention : Reuss Voigt Hill
#
# Bulk Modulus (GPa) = 30.64325 51.64280 41.14302
# Shear Modulus (GPa) = 81.34522 -4.50203 38.42159
#
# Velocity S-wave (km/s) = 5.85146 -1.37658 4.02148
# Velocity P-wave (km/s) = 7.65187 4.38300 6.23545
#
# Compressibility (1/GPa) = 0.03263361
#
# Stress axis : x y z
#
# Youngs Moduli (GPa) = 53.57853 184.61233 45.42245
#
# Poissons Ratio (x) = 0.47753 0.05533
# Poissons Ratio (y) = 0.13859 0.13294
# Poissons Ratio (z) = 0.06526 0.54030
#
# Static dielectric constant tensor:
#      x y z
#    x 1.943950 0.000000 0.000000 
#    y 0.000000 2.074860 0.000000 
#    z 0.000000 0.000000 2.050080 
# 
# From -- ./inp_files/27207.got.cif
#   From: 2010.05.17/outbox.cif.g08.bks.cpg/sg57_14_cif.got.tgz:27207.got - 2010.06.03 13:58:18.
