data_PCOD9434647
_publ_section_title
;
Structure prediction by ZEFSAII (Michael W. Deem and Ramdas Pophale) SiO2 
 PCOD9434647
Probable space group: P B C M
;
_chemical_formula_sum "Si O2"
_cell_formula_units_Z 64
_cell_length_a 8.501461
_cell_length_b 14.082900
_cell_length_c 25.669510
_cell_angle_alpha 90.000000
_cell_angle_beta 90.000000
_cell_angle_gamma 90.000000
_cell_volume 3073.287863
_symmetry_space_group_name_H-M "P B C M"
_symmetry_group_IT_number 57
_symmetry_cell_setting 'orthorhombic'
loop_
_space_group_symop_operation_xyz
x,y,z
-x,-y,1/2+z
x,1/2-y,-z
-x,1/2+y,1/2-z
-x,-y,-z
x,y,1/2-z
-x,1/2+y,z
x,1/2-y,1/2+z
loop_
_atom_site_type_symbol
_atom_site_label
_atom_site_fract_x
_atom_site_fract_y
_atom_site_fract_z
Si Si1 0.178097 0.993451 0.192038
Si Si2 0.309377 0.993535 0.082505
Si Si3 0.484369 0.758407 0.896817
Si Si4 0.729038 0.840915 0.524094
Si Si5 0.720522 0.794192 0.809881
Si Si6 0.631543 0.559483 0.919970
Si Si7 0.083804 0.376061 0.138103
Si Si8 0.173070 0.699440 0.944035
O O1 0.233074 0.966647 0.250000
O O2 0.284012 0.968164 0.142540
O O3 0.020276 0.936539 0.178144
O O4 0.179806 0.108084 0.190296
O O5 0.494066 0.017040 0.076006
O O6 0.256610 0.903778 0.048196
O O7 0.205130 0.085391 0.066608
O O8 0.581998 0.793446 0.946917
O O9 0.564416 0.805133 0.845986
O O10 0.538846 0.648427 0.894496
O O11 0.299794 0.759370 0.909484
O O12 0.817373 0.750000 0.500000
O O13 0.682066 0.908638 0.477136
O O14 0.678291 0.773493 0.750000
O O15 0.823687 0.709582 0.834240
O O16 0.790249 0.551747 0.887521
O O17 0.976712 0.328635 0.092122
O O18 0.153153 0.750000 0.000000
#
# Coordination Sequence:
#
# PCOD9434647 Si02
#       8
#     8   8   8   8   8   8   8   8
#     4  10  21  40  62  86 117 157 200 248 303 353
#     4  10  19  37  59  88 118 152 202 250 299 347
#     4   9  17  34  57  83 111 148 200 247 291 347
#     4  10  18  32  58  87 117 153 194 240 298 346
#     4  10  20  38  62  86 116 158 203 255 305 351
#     4   9  19  33  56  85 113 151 192 236 288 353
#     4  10  22  40  58  86 125 161 197 238 299 365
#     4  10  21  38  58  87 124 160 198 244 298 362
#
# _framework density 20.824603
#
# number of rings (size 3 to 8) (size 9 to 14) (size 15 to 20)
#    0.000    2.250    1.250    2.625    0.000    2.500 
#    4.500   12.500    0.000    3.000    0.000    0.000 
#    0.000    0.000    0.000    0.000    0.000    0.000 
#
# Total GULP energy -356330.791640 kJ/mol
# GULP energy per Si atom -5567.668619 kJ/mol
# Density = 2.077721 g / cm^3
# Si number density = 20.824603 Si / 1000 Ang^3
#
#
#
# Elastic Constant Matrix: (Units=GPa)
#
#
# Indices 1 2 3 4 5 6 
#
# 1 68.3831 21.6569 43.1326 0.0000 0.0000 0.0000
# 2 21.6569 81.2068 37.9973 0.0000 0.0000 0.0000
# 3 43.1326 37.9973 141.4760 0.0000 0.0000 0.0000
# 4 0.0000 0.0000 0.0000 31.2880 0.0000 0.0000
# 5 0.0000 0.0000 0.0000 0.0000 12.8234 0.0000
# 6 0.0000 0.0000 0.0000 0.0000 0.0000 13.6474
#
#
#
# Elastic Compliance Matrix: (Units=1/GPa)
#
#
# Indices 1 2 3 4 5 6 
#
# 1 0.018586 -0.002637 -0.004958 0.000000 0.000000 0.000000
# 2 -0.002637 0.014458 -0.003079 0.000000 0.000000 0.000000
# 3 -0.004958 -0.003079 0.009407 0.000000 0.000000 0.000000
# 4 0.000000 0.000000 0.000000 0.031961 0.000000 0.000000
# 5 0.000000 0.000000 0.000000 0.000000 0.077982 0.000000
# 6 0.000000 0.000000 0.000000 0.000000 0.000000 0.073274
#
#
# Mechanical properties :
#
#
# Convention : Reuss Voigt Hill
#
# Bulk Modulus (GPa) = 47.38714 55.18217 51.28465
# Shear Modulus (GPa) = 19.68106 24.10369 21.89238
#
# Velocity S-wave (km/s) = 3.07756 3.40584 3.24585
# Velocity P-wave (km/s) = 5.95259 6.48247 6.22317
#
# Compressibility (1/GPa) = 0.02110277
#
# Stress axis : x y z
#
# Youngs Moduli (GPa) = 53.80406 69.16469 106.30354
#
# Poissons Ratio (x) = 0.18236 0.52708
# Poissons Ratio (y) = 0.14186 0.32734
# Poissons Ratio (z) = 0.26677 0.21298
#
# Static dielectric constant tensor:
#      x y z
#    x 1.810090 0.000000 0.000000 
#    y 0.000000 1.847520 0.000000 
#    z 0.000000 0.000000 1.762160 
# 
# From -- ./inp_files/26916.got.cif
#   From: 2010.05.17/outbox.cif.g08.bks.cpg/sg57_14_cif.got.tgz:26916.got - 2010.06.03 13:58:18.
