data_PCOD9434866
_publ_section_title
;
Structure prediction by ZEFSAII (Michael W. Deem and Ramdas Pophale) SiO2 
 PCOD9434866
Probable space group: P B C M
;
_chemical_formula_sum "Si O2"
_cell_formula_units_Z 56
_cell_length_a 15.096653
_cell_length_b 27.398686
_cell_length_c 7.717156
_cell_angle_alpha 90.000000
_cell_angle_beta 90.000000
_cell_angle_gamma 90.000000
_cell_volume 3192.035315
_symmetry_space_group_name_H-M "P B C M"
_symmetry_group_IT_number 57
_symmetry_cell_setting 'orthorhombic'
loop_
_space_group_symop_operation_xyz
x,y,z
-x,-y,1/2+z
x,1/2-y,-z
-x,1/2+y,1/2-z
-x,-y,-z
x,y,1/2-z
-x,1/2+y,z
x,1/2-y,1/2+z
loop_
_atom_site_type_symbol
_atom_site_label
_atom_site_fract_x
_atom_site_fract_y
_atom_site_fract_z
Si Si1 0.110668 0.306422 0.041912
Si Si2 0.572568 0.571489 0.548139
Si Si3 0.025679 0.611636 0.958978
Si Si4 0.196057 0.563058 0.454849
Si Si5 0.740186 0.623294 0.960804
Si Si6 0.613127 0.463729 0.046406
Si Si7 0.880227 0.538441 0.959956
O O1 0.111603 0.311017 0.250000
O O2 0.203747 0.329882 0.979083
O O3 0.030075 0.341227 0.980764
O O4 0.100471 0.250000 0.000000
O O5 0.561525 0.584324 0.750000
O O6 0.642479 0.610081 0.472461
O O7 0.473726 0.564137 0.475365
O O8 0.616469 0.517465 0.537769
O O9 0.022700 0.611431 0.750000
O O10 0.970602 0.563901 0.022304
O O11 0.127335 0.606464 0.011617
O O12 0.205667 0.556982 0.250000
O O13 0.295278 0.564717 0.525686
O O14 0.148799 0.514064 0.527701
O O15 0.734536 0.625785 0.750000
O O16 0.803331 0.577277 0.000239
O O17 0.597917 0.472774 0.250000
O O18 0.886447 0.535309 0.750000
#
# Coordination Sequence:
#
# PCOD9434866 Si02
#       7
#     8   8   8   8   8   8   8
#     4   9  18  32  51  70  91 115 142 182 230 276
#     4   9  16  29  46  62  86 121 158 188 219 264
#     4   9  18  31  45  63  87 116 149 187 225 265
#     4  11  19  28  43  62  88 125 157 187 219 260
#     4   8  13  26  47  66  86 118 152 180 217 269
#     4  10  19  27  40  64  92 122 155 191 223 257
#     4   8  14  25  42  61  85 117 151 181 214 254
#
# _framework density 17.543666000000002
#
# number of rings (size 3 to 8) (size 9 to 14) (size 15 to 20)
#    0.000    2.857    1.429    3.000    0.000    1.143 
#    0.000    1.429    0.000    0.000    0.000    1.000 
#    0.000    2.286    0.000    0.000    0.000    0.000 
#
# Total GULP energy -311957.891905 kJ/mol
# GULP energy per Si atom -5570.676641 kJ/mol
# Density = 1.750374 g / cm^3
# Si number density = 17.543666 Si / 1000 Ang^3
#
#
#
# Elastic Constant Matrix: (Units=GPa)
#
#
# Indices 1 2 3 4 5 6 
#
# 1 144.9152 50.2627 -1.2915 0.0000 0.0000 0.0000
# 2 50.2627 69.8745 -1.1998 0.0000 0.0000 0.0000
# 3 -1.2915 -1.1998 28.7588 0.0000 0.0000 0.0000
# 4 0.0000 0.0000 0.0000 14.0482 0.0000 0.0000
# 5 0.0000 0.0000 0.0000 0.0000 10.1592 0.0000
# 6 0.0000 0.0000 0.0000 0.0000 0.0000 14.3497
#
#
#
# Elastic Compliance Matrix: (Units=1/GPa)
#
#
# Indices 1 2 3 4 5 6 
#
# 1 0.009195 -0.006612 0.000137 0.000000 0.000000 0.000000
# 2 -0.006612 0.019076 0.000499 0.000000 0.000000 0.000000
# 3 0.000137 0.000499 0.034799 0.000000 0.000000 0.000000
# 4 0.000000 0.000000 0.000000 0.071183 0.000000 0.000000
# 5 0.000000 0.000000 0.000000 0.000000 0.098433 0.000000
# 6 0.000000 0.000000 0.000000 0.000000 0.000000 0.069688
#
#
# Mechanical properties :
#
#
# Convention : Reuss Voigt Hill
#
# Bulk Modulus (GPa) = 19.56249 37.67681 28.61965
# Shear Modulus (GPa) = 15.08907 20.76323 17.92615
#
# Velocity S-wave (km/s) = 2.93590 3.44396 3.20003
# Velocity P-wave (km/s) = 4.76106 6.11041 5.47744
#
# Compressibility (1/GPa) = 0.05111825
#
# Stress axis : x y z
#
# Youngs Moduli (GPa) = 108.75345 52.42167 28.73650
#
# Poissons Ratio (x) = 0.34661 -0.00394
# Poissons Ratio (y) = 0.71907 -0.01434
# Poissons Ratio (z) = -0.01491 -0.02615
#
# Static dielectric constant tensor:
#      x y z
#    x 1.649970 0.000000 0.000000 
#    y 0.000000 1.581080 0.000000 
#    z 0.000000 0.000000 1.646440 
# 
# From -- ./inp_files/5901.got.cif
#   From: 2010.05.17/outbox.cif.g08.bks.cpg/sg57_3_cif.got.tgz:5901.got - 2010.06.03 13:58:18.
