data_PCOD9434657
_publ_section_title
;
Structure prediction by ZEFSAII (Michael W. Deem and Ramdas Pophale) SiO2 
 PCOD9434657
Probable space group: P B C M
;
_chemical_formula_sum "Si O2"
_cell_formula_units_Z 64
_cell_length_a 16.122846
_cell_length_b 29.321564
_cell_length_c 8.605587
_cell_angle_alpha 90.000000
_cell_angle_beta 90.000000
_cell_angle_gamma 90.000000
_cell_volume 4068.265961
_symmetry_space_group_name_H-M "P B C M"
_symmetry_group_IT_number 57
_symmetry_cell_setting 'orthorhombic'
loop_
_space_group_symop_operation_xyz
x,y,z
-x,-y,1/2+z
x,1/2-y,-z
-x,1/2+y,1/2-z
-x,-y,-z
x,y,1/2-z
-x,1/2+y,z
x,1/2-y,1/2+z
loop_
_atom_site_type_symbol
_atom_site_label
_atom_site_fract_x
_atom_site_fract_y
_atom_site_fract_z
Si Si1 0.659071 0.108006 0.561564
Si Si2 0.597876 0.299128 0.564749
Si Si3 0.667229 0.893279 0.062408
Si Si4 0.173617 0.056004 0.064177
Si Si5 0.999927 0.051624 0.563719
Si Si6 0.495959 0.051044 0.562551
Si Si7 0.817612 0.049927 0.938803
Si Si8 0.411348 0.298771 0.063392
O O1 0.659483 0.110669 0.750000
O O2 0.651952 0.158601 0.494255
O O3 0.576653 0.079977 0.514568
O O4 0.740305 0.080207 0.509364
O O5 0.625532 0.250000 0.500000
O O6 0.595568 0.297616 0.750000
O O7 0.504189 0.306425 0.501210
O O8 0.671912 0.895289 0.250000
O O9 0.588442 0.923911 0.012587
O O10 0.645996 0.841300 0.018529
O O11 0.751039 0.913283 0.993224
O O12 0.170880 0.055303 0.250000
O O13 0.187799 0.003185 0.010680
O O14 0.084271 0.072562 0.002252
O O15 0.004342 0.051112 0.750000
O O16 0.908473 0.069283 0.517643
O O17 0.000000 0.000000 0.500000
O O18 0.496169 0.049806 0.750000
O O19 0.500000 0.000000 0.500000
O O20 0.814836 0.049029 0.750000
O O21 0.417026 0.297226 0.250000
O O22 0.382430 0.250000 0.000000
#
# Coordination Sequence:
#
# PCOD9434657 Si02
#       8
#     8   8   8   8   8   8   8   8
#     4  10  18  33  50  67  95 129 161 198 238 283
#     4  11  21  33  50  71  93 121 159 201 244 287
#     4  10  20  33  47  67  96 129 160 196 242 286
#     4  10  19  31  48  71  96 129 168 203 239 281
#     4   9  16  29  47  70  97 127 162 200 243 286
#     4  10  20  32  45  64  96 133 165 194 232 278
#     4   8  16  29  48  70  95 128 162 195 236 281
#     4  10  19  34  52  70  93 122 158 199 247 289
#
# _framework density 15.731517
#
# number of rings (size 3 to 8) (size 9 to 14) (size 15 to 20)
#    0.000    2.250    1.250    4.500    0.000    3.000 
#    0.000    3.750    0.000    0.000    0.000    0.875 
#    0.000    4.000    0.000    0.000    0.000    0.000 
#
# Total GULP energy -356865.775616 kJ/mol
# GULP energy per Si atom -5576.027744 kJ/mol
# Density = 1.569571 g / cm^3
# Si number density = 15.731517 Si / 1000 Ang^3
#
#
#
# Elastic Constant Matrix: (Units=GPa)
#
#
# Indices 1 2 3 4 5 6 
#
# 1 123.4368 56.1113 28.7216 0.0000 0.0000 0.0000
# 2 56.1113 103.7992 27.4682 0.0000 0.0000 0.0000
# 3 28.7216 27.4682 39.0248 0.0000 0.0000 0.0000
# 4 0.0000 0.0000 0.0000 25.4216 0.0000 0.0000
# 5 0.0000 0.0000 0.0000 0.0000 19.1300 0.0000
# 6 0.0000 0.0000 0.0000 0.0000 0.0000 8.9335
#
#
#
# Elastic Compliance Matrix: (Units=1/GPa)
#
#
# Indices 1 2 3 4 5 6 
#
# 1 0.011488 -0.004882 -0.005019 0.000000 0.000000 0.000000
# 2 -0.004882 0.013914 -0.006200 0.000000 0.000000 0.000000
# 3 -0.005019 -0.006200 0.033683 0.000000 0.000000 0.000000
# 4 0.000000 0.000000 0.000000 0.039337 0.000000 0.000000
# 5 0.000000 0.000000 0.000000 0.000000 0.052274 0.000000
# 6 0.000000 0.000000 0.000000 0.000000 0.000000 0.111938
#
#
# Mechanical properties :
#
#
# Convention : Reuss Voigt Hill
#
# Bulk Modulus (GPa) = 37.19921 54.54034 45.86977
# Shear Modulus (GPa) = 16.45835 20.96100 18.70968
#
# Velocity S-wave (km/s) = 3.23801 3.65419 3.45238
# Velocity P-wave (km/s) = 6.13818 7.24906 6.71663
#
# Compressibility (1/GPa) = 0.02688229
#
# Stress axis : x y z
#
# Youngs Moduli (GPa) = 87.04386 71.87025 29.68882
#
# Poissons Ratio (x) = 0.35089 0.14901
# Poissons Ratio (y) = 0.42497 0.18408
# Poissons Ratio (z) = 0.43686 0.44562
#
# Static dielectric constant tensor:
#      x y z
#    x 1.531410 0.000000 0.000000 
#    y 0.000000 1.508060 0.000000 
#    z 0.000000 0.000000 1.530090 
# 
# From -- ./inp_files/6076.got.cif
#   From: 2010.05.17/outbox.cif.g08.bks.cpg/sg57_4_cif.got.tgz:6076.got - 2010.06.03 13:58:18.
