data_PCOD9434745
_publ_section_title
;
Structure prediction by ZEFSAII (Michael W. Deem and Ramdas Pophale) SiO2 
 PCOD9434745
Probable space group: P B C M
;
_chemical_formula_sum "Si O2"
_cell_formula_units_Z 48
_cell_length_a 11.365336
_cell_length_b 11.943761
_cell_length_c 18.887699
_cell_angle_alpha 90.000000
_cell_angle_beta 90.000000
_cell_angle_gamma 90.000000
_cell_volume 2563.907997
_symmetry_space_group_name_H-M "P B C M"
_symmetry_group_IT_number 57
_symmetry_cell_setting 'orthorhombic'
loop_
_space_group_symop_operation_xyz
x,y,z
-x,-y,1/2+z
x,1/2-y,-z
-x,1/2+y,1/2-z
-x,-y,-z
x,y,1/2-z
-x,1/2+y,z
x,1/2-y,1/2+z
loop_
_atom_site_type_symbol
_atom_site_label
_atom_site_fract_x
_atom_site_fract_y
_atom_site_fract_z
Si Si1 0.265474 0.991433 0.435875
Si Si2 0.196895 0.063547 0.911421
Si Si3 0.610499 0.274428 0.083382
Si Si4 0.172862 0.835908 0.666363
Si Si5 0.657077 0.731762 0.085604
Si Si6 0.050691 0.675536 0.930739
O O1 0.368850 0.907892 0.411929
O O2 0.144802 0.924369 0.421850
O O3 0.263565 0.011090 0.520632
O O4 0.282122 0.112546 0.401112
O O5 0.276857 0.162729 0.880845
O O6 0.077595 0.122917 0.937976
O O7 0.164559 0.963747 0.859082
O O8 0.709823 0.214466 0.129689
O O9 0.480525 0.234907 0.103264
O O10 0.629483 0.250000 0.000000
O O11 0.178263 0.826933 0.750000
O O12 0.067638 0.760969 0.634061
O O13 0.664830 0.750000 0.000000
O O14 0.078749 0.750000 0.000000
#
# Coordination Sequence:
#
# PCOD9434745 Si02
#       6
#     8   8   8   8   8   8
#     4  10  18  34  57  93 117 144 188 242 298 339
#     4  11  21  35  60  88 120 147 188 244 299 349
#     4  10  19  37  61  85 116 155 192 247 294 345
#     4  11  24  40  58  82 117 160 199 236 295 357
#     4   9  21  30  57  94 119 141 188 243 299 345
#     4  11  21  37  65  88 115 152 197 247 292 344
#
# _framework density 18.721419999999998
#
# number of rings (size 3 to 8) (size 9 to 14) (size 15 to 20)
#    0.000    1.667    3.333    3.000    4.667    2.667 
#    0.000    0.833    0.000    1.000    0.000    0.000 
#    0.000    0.000    0.000    0.000    0.000    0.000 
#
# Total GULP energy -267860.034290 kJ/mol
# GULP energy per Si atom -5580.417381 kJ/mol
# Density = 1.867881 g / cm^3
# Si number density = 18.721420 Si / 1000 Ang^3
#
#
#
# Elastic Constant Matrix: (Units=GPa)
#
#
# Indices 1 2 3 4 5 6 
#
# 1 65.0568 29.6214 2.9446 0.0000 0.0000 0.0000
# 2 29.6214 123.0674 20.9728 0.0000 0.0000 0.0000
# 3 2.9446 20.9728 53.8712 0.0000 0.0000 0.0000
# 4 0.0000 0.0000 0.0000 10.1331 0.0000 0.0000
# 5 0.0000 0.0000 0.0000 0.0000 1.5583 0.0000
# 6 0.0000 0.0000 0.0000 0.0000 0.0000 20.5592
#
#
#
# Elastic Compliance Matrix: (Units=1/GPa)
#
#
# Indices 1 2 3 4 5 6 
#
# 1 0.017289 -0.004285 0.000723 0.000000 0.000000 0.000000
# 2 -0.004285 0.009765 -0.003567 0.000000 0.000000 0.000000
# 3 0.000723 -0.003567 0.019912 0.000000 0.000000 0.000000
# 4 0.000000 0.000000 0.000000 0.098687 0.000000 0.000000
# 5 0.000000 0.000000 0.000000 0.000000 0.641718 0.000000
# 6 0.000000 0.000000 0.000000 0.000000 0.000000 0.048640
#
#
# Mechanical properties :
#
#
# Convention : Reuss Voigt Hill
#
# Bulk Modulus (GPa) = 30.57330 38.78591 34.67961
# Shear Modulus (GPa) = 5.80604 19.01389 12.40996
#
# Velocity S-wave (km/s) = 1.76296 3.19034 2.57743
# Velocity P-wave (km/s) = 4.52881 5.85947 5.23658
#
# Compressibility (1/GPa) = 0.03270828
#
# Stress axis : x y z
#
# Youngs Moduli (GPa) = 57.83915 102.40804 50.22073
#
# Poissons Ratio (x) = 0.43878 -0.03631
# Poissons Ratio (y) = 0.24782 0.17916
# Poissons Ratio (z) = -0.04182 0.36533
#
# Static dielectric constant tensor:
#      x y z
#    x 1.653610 0.000000 0.000000 
#    y 0.000000 1.681920 0.000000 
#    z 0.000000 0.000000 1.610550 
# 
# From -- ./inp_files/21818.got.cif
#   From: 2010.05.17/outbox.cif.g08.bks.cpg/sg57_11_cif.got.tgz:21818.got - 2010.06.03 13:58:18.
