data_PCOD9434594
_publ_section_title
;
Structure prediction by ZEFSAII (Michael W. Deem and Ramdas Pophale) SiO2 
 PCOD9434594
Probable space group: P B C M
;
_chemical_formula_sum "Si O2"
_cell_formula_units_Z 64
_cell_length_a 15.765482
_cell_length_b 23.045788
_cell_length_c 8.371797
_cell_angle_alpha 90.000000
_cell_angle_beta 90.000000
_cell_angle_gamma 90.000000
_cell_volume 3041.707891
_symmetry_space_group_name_H-M "P B C M"
_symmetry_group_IT_number 57
_symmetry_cell_setting 'orthorhombic'
loop_
_space_group_symop_operation_xyz
x,y,z
-x,-y,1/2+z
x,1/2-y,-z
-x,1/2+y,1/2-z
-x,-y,-z
x,y,1/2-z
-x,1/2+y,z
x,1/2-y,1/2+z
loop_
_atom_site_type_symbol
_atom_site_label
_atom_site_fract_x
_atom_site_fract_y
_atom_site_fract_z
Si Si1 0.869509 0.014336 0.062028
Si Si2 0.250778 0.685589 0.060876
Si Si3 0.923726 0.364646 0.062480
Si Si4 0.601064 0.099801 0.059214
Si Si5 0.535842 0.812011 0.059144
Si Si6 0.686644 0.994440 0.937659
Si Si7 0.105815 0.118991 0.555384
Si Si8 0.293896 0.365891 0.443162
O O1 0.888422 0.021319 0.250000
O O2 0.894235 0.949317 0.009698
O O3 0.910869 0.066450 0.965010
O O4 0.768453 0.017331 0.035107
O O5 0.259437 0.685752 0.250000
O O6 0.319324 0.639063 0.998993
O O7 0.268218 0.750000 0.000000
O O8 0.155262 0.666808 0.018412
O O9 0.919554 0.351596 0.250000
O O10 0.018687 0.351452 0.000746
O O11 0.605883 0.093314 0.250000
O O12 0.518396 0.135908 0.013575
O O13 0.609953 0.036941 0.980193
O O14 0.529785 0.814533 0.250000
O O15 0.634216 0.820345 0.010881
O O16 0.503535 0.750000 0.000000
O O17 0.705201 0.997162 0.750000
O O18 0.676869 0.928159 0.990274
O O19 0.104347 0.119701 0.750000
O O20 0.196707 0.144219 0.503432
O O21 0.292167 0.369947 0.250000
#
# Coordination Sequence:
#
# PCOD9434594 Si02
#       8
#     8   8   8   8   8   8   8   8
#     4  10  18  32  52  79 119 159 193 232 284 345
#     4  11  24  40  58  80 112 155 196 242 296 352
#     4  11  20  32  54  83 114 151 196 242 284 340
#     4  11  23  40  63  88 120 155 191 239 296 358
#     4  11  24  42  66  91 116 151 197 247 296 350
#     4  11  21  34  58  91 124 156 195 240 293 353
#     4   8  17  33  55  82 114 152 193 237 287 337
#     4   9  20  41  63  85 120 160 197 242 297 353
#
# _framework density 21.04081
#
# number of rings (size 3 to 8) (size 9 to 14) (size 15 to 20)
#    0.000    1.750    1.250    4.500    0.000    4.000 
#    0.000    6.250    0.000    1.500    0.000    0.000 
#    0.000    0.000    0.000    0.000    0.000    0.000 
#
# Total GULP energy -357570.204738 kJ/mol
# GULP energy per Si atom -5587.034449 kJ/mol
# Density = 2.099292 g / cm^3
# Si number density = 21.040810 Si / 1000 Ang^3
#
#
#
# Elastic Constant Matrix: (Units=GPa)
#
#
# Indices 1 2 3 4 5 6 
#
# 1 74.8461 22.8312 3.1871 0.0000 0.0000 0.0000
# 2 22.8312 12.8143 -1.9225 0.0000 0.0000 0.0000
# 3 3.1871 -1.9225 23.1703 0.0000 0.0000 0.0000
# 4 0.0000 0.0000 0.0000 22.6434 0.0000 0.0000
# 5 0.0000 0.0000 0.0000 0.0000 11.4141 0.0000
# 6 0.0000 0.0000 0.0000 0.0000 0.0000 2.1406
#
#
#
# Elastic Compliance Matrix: (Units=1/GPa)
#
#
# Indices 1 2 3 4 5 6 
#
# 1 0.031001 -0.056578 -0.008959 0.000000 0.000000 0.000000
# 2 -0.056578 0.182278 0.022907 0.000000 0.000000 0.000000
# 3 -0.008959 0.022907 0.046292 0.000000 0.000000 0.000000
# 4 0.000000 0.000000 0.000000 0.044163 0.000000 0.000000
# 5 0.000000 0.000000 0.000000 0.000000 0.087611 0.000000
# 6 0.000000 0.000000 0.000000 0.000000 0.000000 0.467148
#
#
# Mechanical properties :
#
#
# Convention : Reuss Voigt Hill
#
# Bulk Modulus (GPa) = 5.73687 17.66913 11.70300
# Shear Modulus (GPa) = 4.99074 13.02197 9.00635
#
# Velocity S-wave (km/s) = 1.54178 2.49045 2.07116
# Velocity P-wave (km/s) = 2.42938 4.08480 3.36062
#
# Compressibility (1/GPa) = 0.17431104
#
# Stress axis : x y z
#
# Youngs Moduli (GPa) = 32.25724 5.48612 21.60215
#
# Poissons Ratio (x) = 0.31039 0.19353
# Poissons Ratio (y) = 1.82504 -0.49483
# Poissons Ratio (z) = 0.28898 -0.12567
#
# Static dielectric constant tensor:
#      x y z
#    x 1.812280 0.000000 0.000000 
#    y 0.000000 1.734560 0.000000 
#    z 0.000000 0.000000 1.737080 
# 
# From -- ./inp_files/5579.got.cif
#   From: 2010.05.17/outbox.cif.g08.bks.cpg/sg57_3_cif.got.tgz:5579.got - 2010.06.03 13:58:18.
