data_PCOD9434239
_publ_section_title
;
Structure prediction by ZEFSAII (Michael W. Deem and Ramdas Pophale) SiO2 
 PCOD9434239
Probable space group: P B C M
;
_chemical_formula_sum "Si O2"
_cell_formula_units_Z 64
_cell_length_a 20.094723
_cell_length_b 22.561118
_cell_length_c 7.995188
_cell_angle_alpha 90.000000
_cell_angle_beta 90.000000
_cell_angle_gamma 90.000000
_cell_volume 3624.693769
_symmetry_space_group_name_H-M "P B C M"
_symmetry_group_IT_number 57
_symmetry_cell_setting 'orthorhombic'
loop_
_space_group_symop_operation_xyz
x,y,z
-x,-y,1/2+z
x,1/2-y,-z
-x,1/2+y,1/2-z
-x,-y,-z
x,y,1/2-z
-x,1/2+y,z
x,1/2-y,1/2+z
loop_
_atom_site_type_symbol
_atom_site_label
_atom_site_fract_x
_atom_site_fract_y
_atom_site_fract_z
Si Si1 0.171984 0.014169 0.448407
Si Si2 0.540782 0.940005 0.549958
Si Si3 0.903885 0.103530 0.053911
Si Si4 0.338675 0.625067 0.954122
Si Si5 0.204860 0.684096 0.949126
Si Si6 0.962543 0.939076 0.951313
Si Si7 0.528689 0.316538 0.448852
Si Si8 0.323302 0.008816 0.045532
O O1 0.177516 0.024911 0.250000
O O2 0.112938 0.056743 0.517292
O O3 0.247349 0.018486 0.515193
O O4 0.140158 0.948525 0.469688
O O5 0.540299 0.939737 0.750000
O O6 0.512182 0.876296 0.493864
O O7 0.617509 0.947832 0.491806
O O8 0.500000 0.000000 0.500000
O O9 0.905502 0.088521 0.250000
O O10 0.980347 0.106621 0.993090
O O11 0.863917 0.163117 0.026574
O O12 0.339028 0.627025 0.750000
O O13 0.265883 0.644218 0.010471
O O14 0.396918 0.668195 0.014917
O O15 0.347751 0.556980 0.002988
O O16 0.200101 0.678253 0.750000
O O17 0.221128 0.750000 0.000000
O O18 0.956593 0.935753 0.750000
O O19 0.000000 0.000000 0.000000
O O20 0.507018 0.250000 0.500000
O O21 0.531602 0.315094 0.250000
O O22 0.320778 0.009722 0.250000
#
# Coordination Sequence:
#
# PCOD9434239 Si02
#       8
#     8   8   8   8   8   8   8   8
#     4   9  15  28  48  67  90 124 159 191 232 282
#     4  11  21  35  54  77 105 137 171 212 259 306
#     4  10  18  28  41  64  95 123 154 195 236 278
#     4   9  17  31  50  71  97 130 167 206 242 289
#     4  11  21  33  47  64  90 127 168 203 240 283
#     4   8  15  25  41  64  89 117 150 185 224 270
#     4  11  22  38  56  76 102 133 173 216 259 307
#     4   9  16  29  50  74  99 130 167 204 245 296
#
# _framework density 17.656663999999999
#
# number of rings (size 3 to 8) (size 9 to 14) (size 15 to 20)
#    0.000    2.250    2.500    1.875    0.000    0.500 
#    0.000    4.375    0.000    0.000    0.000    0.875 
#    0.000    0.000    0.000    0.000    0.000    0.000 
#
# Total GULP energy -356272.317261 kJ/mol
# GULP energy per Si atom -5566.754957 kJ/mol
# Density = 1.761648 g / cm^3
# Si number density = 17.656664 Si / 1000 Ang^3
#
#
#
# Elastic Constant Matrix: (Units=GPa)
#
#
# Indices 1 2 3 4 5 6 
#
# 1 118.7290 45.3958 12.8612 0.0000 0.0000 0.0000
# 2 45.3958 78.6309 9.9723 0.0000 0.0000 0.0000
# 3 12.8612 9.9723 21.5309 0.0000 0.0000 0.0000
# 4 0.0000 0.0000 0.0000 20.3524 0.0000 0.0000
# 5 0.0000 0.0000 0.0000 0.0000 11.7155 0.0000
# 6 0.0000 0.0000 0.0000 0.0000 0.0000 22.6930
#
#
#
# Elastic Compliance Matrix: (Units=1/GPa)
#
#
# Indices 1 2 3 4 5 6 
#
# 1 0.011107 -0.005919 -0.003893 0.000000 0.000000 0.000000
# 2 -0.005919 0.016665 -0.004183 0.000000 0.000000 0.000000
# 3 -0.003893 -0.004183 0.050708 0.000000 0.000000 0.000000
# 4 0.000000 0.000000 0.000000 0.049134 0.000000 0.000000
# 5 0.000000 0.000000 0.000000 0.000000 0.085357 0.000000
# 6 0.000000 0.000000 0.000000 0.000000 0.000000 0.044066
#
#
# Mechanical properties :
#
#
# Convention : Reuss Voigt Hill
#
# Bulk Modulus (GPa) = 19.80597 39.48326 29.64461
# Shear Modulus (GPa) = 16.56402 20.99629 18.78016
#
# Velocity S-wave (km/s) = 3.06619 3.45214 3.26487
# Velocity P-wave (km/s) = 4.87617 6.18869 5.57122
#
# Compressibility (1/GPa) = 0.05048983
#
# Stress axis : x y z
#
# Youngs Moduli (GPa) = 90.03059 60.00512 19.72069
#
# Poissons Ratio (x) = 0.35516 0.07678
# Poissons Ratio (y) = 0.53287 0.08250
# Poissons Ratio (z) = 0.35053 0.25101
#
# Static dielectric constant tensor:
#      x y z
#    x 1.670180 0.000000 0.000000 
#    y 0.000000 1.605780 0.000000 
#    z 0.000000 0.000000 1.642700 
# 
# From -- ./inp_files/8705.got.cif
#   From: 2010.05.17/outbox.cif.g08.bks.cpg/sg57_5_cif.got.tgz:8705.got - 2010.06.03 13:58:18.
