data_PCOD9434840
_publ_section_title
;
Structure prediction by ZEFSAII (Michael W. Deem and Ramdas Pophale) SiO2 
 PCOD9434840
Probable space group: P B C M
;
_chemical_formula_sum "Si O2"
_cell_formula_units_Z 40
_cell_length_a 11.158127
_cell_length_b 13.091467
_cell_length_c 14.665991
_cell_angle_alpha 90.000000
_cell_angle_beta 90.000000
_cell_angle_gamma 90.000000
_cell_volume 2142.352988
_symmetry_space_group_name_H-M "P B C M"
_symmetry_group_IT_number 57
_symmetry_cell_setting 'orthorhombic'
loop_
_space_group_symop_operation_xyz
x,y,z
-x,-y,1/2+z
x,1/2-y,-z
-x,1/2+y,1/2-z
-x,-y,-z
x,y,1/2-z
-x,1/2+y,z
x,1/2-y,1/2+z
loop_
_atom_site_type_symbol
_atom_site_label
_atom_site_fract_x
_atom_site_fract_y
_atom_site_fract_z
Si Si1 0.163591 0.405200 0.750000
Si Si2 0.153971 0.070036 0.050846
Si Si3 0.409267 0.636562 0.750000
Si Si4 0.952528 0.155024 0.557559
Si Si5 0.572867 0.529313 0.089759
Si Si6 0.148463 0.651928 0.750000
Si Si7 0.562674 0.670587 0.250000
O O1 0.107466 0.388276 0.850049
O O2 0.175136 0.529263 0.750000
O O3 0.293744 0.351069 0.750000
O O4 0.296820 0.069166 0.057486
O O5 0.114742 0.952078 0.038439
O O6 0.089265 0.133571 0.972243
O O7 0.412327 0.566381 0.659185
O O8 0.282426 0.696399 0.750000
O O9 0.519463 0.714108 0.750000
O O10 0.905759 0.250000 0.500000
O O11 0.927917 0.177075 0.662072
O O12 0.518091 0.614930 0.157484
O O13 0.500000 0.500000 0.000000
#
# Coordination Sequence:
#
# PCOD9434840 Si02
#       7
#     4   8   4   8   8   4   4
#     4   8  14  36  58  73 112 151 179 230 300 339
#     4   9  18  37  58  79 113 156 186 234 299 352
#     4  11  19  38  58  84 115 158 198 240 294 362
#     4  10  20  34  58  86 110 149 206 231 284 357
#     4  10  20  39  59  85 122 156 191 246 302 350
#     4  10  18  38  59  80 123 156 183 250 300 335
#     4   9  19  34  57  87 110 157 200 226 294 356
#
# _framework density 18.671060000000001
#
# number of rings (size 3 to 8) (size 9 to 14) (size 15 to 20)
#    0.000    2.400    6.000    0.000    0.000    3.200 
#    7.200    3.000    0.000    0.000    0.000    0.000 
#    0.000    0.000    0.000    0.000    0.000    0.000 
#
# Total GULP energy -222681.290478 kJ/mol
# GULP energy per Si atom -5567.032262 kJ/mol
# Density = 1.862856 g / cm^3
# Si number density = 18.671060 Si / 1000 Ang^3
#
#
#
# Elastic Constant Matrix: (Units=GPa)
#
#
# Indices 1 2 3 4 5 6 
#
# 1 62.2658 17.6313 53.9123 0.0000 0.0000 0.0000
# 2 17.6313 48.3404 35.7306 0.0000 0.0000 0.0000
# 3 53.9123 35.7306 153.4851 0.0000 0.0000 0.0000
# 4 0.0000 0.0000 0.0000 9.9025 0.0000 0.0000
# 5 0.0000 0.0000 0.0000 0.0000 30.7771 0.0000
# 6 0.0000 0.0000 0.0000 0.0000 0.0000 23.8599
#
#
#
# Elastic Compliance Matrix: (Units=1/GPa)
#
#
# Indices 1 2 3 4 5 6 
#
# 1 0.023428 -0.002974 -0.007537 0.000000 0.000000 0.000000
# 2 -0.002974 0.025364 -0.004860 0.000000 0.000000 0.000000
# 3 -0.007537 -0.004860 0.010294 0.000000 0.000000 0.000000
# 4 0.000000 0.000000 0.000000 0.100985 0.000000 0.000000
# 5 0.000000 0.000000 0.000000 0.000000 0.032492 0.000000
# 6 0.000000 0.000000 0.000000 0.000000 0.000000 0.041911
#
#
# Mechanical properties :
#
#
# Convention : Reuss Voigt Hill
#
# Bulk Modulus (GPa) = 35.28091 53.18220 44.23156
# Shear Modulus (GPa) = 18.20412 23.36236 20.78324
#
# Velocity S-wave (km/s) = 3.12587 3.54115 3.33997
# Velocity P-wave (km/s) = 5.65377 6.72795 6.21412
#
# Compressibility (1/GPa) = 0.02834394
#
# Stress axis : x y z
#
# Youngs Moduli (GPa) = 42.68381 39.42668 97.14408
#
# Poissons Ratio (x) = 0.11726 0.73216
# Poissons Ratio (y) = 0.12695 0.47210
# Poissons Ratio (z) = 0.32170 0.19161
#
# Static dielectric constant tensor:
#      x y z
#    x 1.664600 0.000000 0.000000 
#    y 0.000000 1.679730 0.000000 
#    z 0.000000 0.000000 1.676910 
# 
# From -- ./inp_files/17485.got.cif
#   From: 2010.05.17/outbox.cif.g08.bks.cpg/sg57_9_cif.got.tgz:17485.got - 2010.06.03 13:58:18.
