data_PCOD9434648
_publ_section_title
;
Structure prediction by ZEFSAII (Michael W. Deem and Ramdas Pophale) SiO2 
 PCOD9434648
Probable space group: P B C M
;
_chemical_formula_sum "Si O2"
_cell_formula_units_Z 56
_cell_length_a 8.047470
_cell_length_b 19.561548
_cell_length_c 17.353844
_cell_angle_alpha 90.000000
_cell_angle_beta 90.000000
_cell_angle_gamma 90.000000
_cell_volume 2731.858968
_symmetry_space_group_name_H-M "P B C M"
_symmetry_group_IT_number 57
_symmetry_cell_setting 'orthorhombic'
loop_
_space_group_symop_operation_xyz
x,y,z
-x,-y,1/2+z
x,1/2-y,-z
-x,1/2+y,1/2-z
-x,-y,-z
x,y,1/2-z
-x,1/2+y,z
x,1/2-y,1/2+z
loop_
_atom_site_type_symbol
_atom_site_label
_atom_site_fract_x
_atom_site_fract_y
_atom_site_fract_z
Si Si1 0.466521 0.318743 0.963092
Si Si2 0.727732 0.947450 0.559627
Si Si3 0.077294 0.834626 0.406079
Si Si4 0.171239 0.685486 0.413927
Si Si5 0.958784 0.055366 0.334268
Si Si6 0.235682 0.426454 0.377700
Si Si7 0.590113 0.408631 0.107011
O O1 0.345192 0.371998 0.921415
O O2 0.632314 0.297458 0.917965
O O3 0.388935 0.250000 0.000000
O O4 0.542567 0.365382 0.031078
O O5 0.745281 0.949531 0.467456
O O6 0.902724 0.956341 0.601127
O O7 0.618910 0.011714 0.587095
O O8 0.083180 0.754680 0.387614
O O9 0.105477 0.835284 0.499890
O O10 0.233474 0.875880 0.369024
O O11 0.905018 0.868442 0.381348
O O12 0.138730 0.623056 0.358090
O O13 0.036936 0.062257 0.250000
O O14 0.836326 0.991500 0.335021
O O15 0.416645 0.404301 0.347339
#
# Coordination Sequence:
#
# PCOD9434648 Si02
#       7
#     8   8   8   8   8   8   8
#     4  10  18  32  58  95 124 145 194 264 314 356
#     4  11  21  35  61  88 121 157 204 258 309 352
#     4  10  18  35  64  94 118 150 195 257 304 359
#     4  10  19  37  57  90 127 151 195 248 312 361
#     4  12  25  39  57  86 127 169 205 245 307 380
#     4  11  20  37  65  88 117 155 204 259 302 348
#     4  10  19  34  56  94 116 149 197 259 307 349
#
# _framework density 20.498863
#
# number of rings (size 3 to 8) (size 9 to 14) (size 15 to 20)
#    0.000    1.429    5.714    4.714    0.000    2.286 
#    0.000    3.571    0.000    0.000    0.000    0.000 
#    0.000    0.000    0.000    0.000    0.000    0.000 
#
# Total GULP energy -312394.262978 kJ/mol
# GULP energy per Si atom -5578.468982 kJ/mol
# Density = 2.045221 g / cm^3
# Si number density = 20.498863 Si / 1000 Ang^3
#
#
#
# Elastic Constant Matrix: (Units=GPa)
#
#
# Indices 1 2 3 4 5 6 
#
# 1 114.9686 56.6336 4.4727 0.0000 0.0000 0.0000
# 2 56.6336 155.3439 8.0771 0.0000 0.0000 0.0000
# 3 4.4727 8.0771 33.7316 0.0000 0.0000 0.0000
# 4 0.0000 0.0000 0.0000 -13.3463 0.0000 0.0000
# 5 0.0000 0.0000 0.0000 0.0000 -8.7001 0.0000
# 6 0.0000 0.0000 0.0000 0.0000 0.0000 38.0880
#
#
#
# Elastic Compliance Matrix: (Units=1/GPa)
#
#
# Indices 1 2 3 4 5 6 
#
# 1 0.010610 -0.003843 -0.000487 0.000000 0.000000 0.000000
# 2 -0.003843 0.007910 -0.001385 0.000000 0.000000 0.000000
# 3 -0.000487 -0.001385 0.030042 0.000000 0.000000 0.000000
# 4 0.000000 0.000000 0.000000 -0.074927 0.000000 0.000000
# 5 0.000000 0.000000 0.000000 0.000000 -0.114941 0.000000
# 6 0.000000 0.000000 0.000000 0.000000 0.000000 0.026255
#
#
# Mechanical properties :
#
#
# Convention : Reuss Voigt Hill
#
# Bulk Modulus (GPa) = 26.92949 49.15676 38.04312
# Shear Modulus (GPa) = -54.79764 18.86570 -17.96597
#
# Velocity S-wave (km/s) = -5.17591 3.03698 -2.96368
# Velocity P-wave (km/s) = 4.74916 6.02744 2.62445
#
# Compressibility (1/GPa) = 0.03713402
#
# Stress axis : x y z
#
# Youngs Moduli (GPa) = 94.25170 126.41800 33.28685
#
# Poissons Ratio (x) = 0.48579 0.01620
# Poissons Ratio (y) = 0.36218 0.04609
# Poissons Ratio (z) = 0.04587 0.17504
#
# Static dielectric constant tensor:
#      x y z
#    x 1.796770 0.000000 0.000000 
#    y 0.000000 1.779380 0.000000 
#    z 0.000000 0.000000 1.723330 
# 
# From -- ./inp_files/24539.got.cif
#   From: 2010.05.17/outbox.cif.g08.bks.cpg/sg57_13_cif.got.tgz:24539.got - 2010.06.03 13:58:18.
