data_PCOD9434035
_publ_section_title
;
Structure prediction by ZEFSAII (Michael W. Deem and Ramdas Pophale) SiO2 
 PCOD9434035
Probable space group: P B C M
;
_chemical_formula_sum "Si O2"
_cell_formula_units_Z 48
_cell_length_a 15.779733
_cell_length_b 21.949656
_cell_length_c 8.720124
_cell_angle_alpha 90.000000
_cell_angle_beta 90.000000
_cell_angle_gamma 90.000000
_cell_volume 3020.299630
_symmetry_space_group_name_H-M "P B C M"
_symmetry_group_IT_number 57
_symmetry_cell_setting 'orthorhombic'
loop_
_space_group_symop_operation_xyz
x,y,z
-x,-y,1/2+z
x,1/2-y,-z
-x,1/2+y,1/2-z
-x,-y,-z
x,y,1/2-z
-x,1/2+y,z
x,1/2-y,1/2+z
loop_
_atom_site_type_symbol
_atom_site_label
_atom_site_fract_x
_atom_site_fract_y
_atom_site_fract_z
Si Si1 0.337993 0.908278 0.935439
Si Si2 0.480186 0.066844 0.065541
Si Si3 0.121206 0.040934 0.933089
Si Si4 0.060803 0.587680 0.933346
Si Si5 0.298239 0.042645 0.433860
Si Si6 0.188710 0.682508 0.433670
O O1 0.333081 0.915198 0.750000
O O2 0.436307 0.894767 0.977417
O O3 0.271728 0.856482 0.981235
O O4 0.312397 0.973008 0.009082
O O5 0.479273 0.063713 0.250000
O O6 0.383260 0.079676 0.018652
O O7 0.500000 0.000000 0.000000
O O8 0.125071 0.034017 0.750000
O O9 0.038895 0.081434 0.971401
O O10 0.210405 0.064794 0.994846
O O11 0.103733 0.974445 0.005378
O O12 0.069611 0.589712 0.750000
O O13 0.108107 0.644551 0.007105
O O14 0.291802 0.042654 0.250000
O O15 0.190671 0.750000 0.500000
O O16 0.187071 0.684885 0.250000
#
# Coordination Sequence:
#
# PCOD9434035 Si02
#       6
#     8   8   8   8   8   8
#     4   9  17  30  45  62  90 124 156 191 231 275
#     4   8  15  26  40  62  90 119 150 183 223 268
#     4  10  19  30  46  68  96 127 154 189 241 292
#     4  10  20  33  48  67  92 122 159 200 238 283
#     4  10  17  25  43  69  95 123 153 188 228 279
#     4  11  22  34  50  69  93 126 161 197 237 281
#
# _framework density 15.892462999999999
#
# number of rings (size 3 to 8) (size 9 to 14) (size 15 to 20)
#    0.000    2.333    1.667    2.000    0.000    3.333 
#    0.000    0.000    0.000    0.000    0.000    1.167 
#    0.000    5.333    0.000    0.000    0.000    0.000 
#
# Total GULP energy -267392.245369 kJ/mol
# GULP energy per Si atom -5570.671779 kJ/mol
# Density = 1.585629 g / cm^3
# Si number density = 15.892463 Si / 1000 Ang^3
#
#
#
# Elastic Constant Matrix: (Units=GPa)
#
#
# Indices 1 2 3 4 5 6 
#
# 1 168.6012 46.0763 39.6088 0.0000 0.0000 0.0000
# 2 46.0763 62.9514 22.1098 0.0000 0.0000 0.0000
# 3 39.6088 22.1098 32.3148 0.0000 0.0000 0.0000
# 4 0.0000 0.0000 0.0000 17.0113 0.0000 0.0000
# 5 0.0000 0.0000 0.0000 0.0000 24.9232 0.0000
# 6 0.0000 0.0000 0.0000 0.0000 0.0000 13.7688
#
#
#
# Elastic Compliance Matrix: (Units=1/GPa)
#
#
# Indices 1 2 3 4 5 6 
#
# 1 0.008887 -0.003526 -0.008480 0.000000 0.000000 0.000000
# 2 -0.003526 0.022309 -0.010942 0.000000 0.000000 0.000000
# 3 -0.008480 -0.010942 0.048827 0.000000 0.000000 0.000000
# 4 0.000000 0.000000 0.000000 0.058785 0.000000 0.000000
# 5 0.000000 0.000000 0.000000 0.000000 0.040123 0.000000
# 6 0.000000 0.000000 0.000000 0.000000 0.000000 0.072628
#
#
# Mechanical properties :
#
#
# Convention : Reuss Voigt Hill
#
# Bulk Modulus (GPa) = 29.30320 53.27303 41.28812
# Shear Modulus (GPa) = 16.19008 21.54548 18.86778
#
# Velocity S-wave (km/s) = 3.19521 3.68598 3.44934
# Velocity P-wave (km/s) = 5.66489 7.19090 6.47302
#
# Compressibility (1/GPa) = 0.03412596
#
# Stress axis : x y z
#
# Youngs Moduli (GPa) = 112.52263 44.82445 20.48065
#
# Poissons Ratio (x) = 0.15806 0.17368
# Poissons Ratio (y) = 0.39679 0.22410
# Poissons Ratio (z) = 0.95424 0.49046
#
# Static dielectric constant tensor:
#      x y z
#    x 1.600220 0.000000 0.000000 
#    y 0.000000 1.475780 0.000000 
#    z 0.000000 0.000000 1.530650 
# 
# From -- ./inp_files/4884.got.cif
#   From: 2010.05.17/outbox.cif.g08.bks.cpg/sg57_3_cif.got.tgz:4884.got - 2010.06.03 13:58:18.
