data_PCOD9434264
_publ_section_title
;
Structure prediction by ZEFSAII (Michael W. Deem and Ramdas Pophale) SiO2 
 PCOD9434264
Probable space group: P B C M
;
_chemical_formula_sum "Si O2"
_cell_formula_units_Z 64
_cell_length_a 14.643503
_cell_length_b 18.144646
_cell_length_c 14.756726
_cell_angle_alpha 90.000000
_cell_angle_beta 90.000000
_cell_angle_gamma 90.000000
_cell_volume 3920.879484
_symmetry_space_group_name_H-M "P B C M"
_symmetry_group_IT_number 57
_symmetry_cell_setting 'orthorhombic'
loop_
_space_group_symop_operation_xyz
x,y,z
-x,-y,1/2+z
x,1/2-y,-z
-x,1/2+y,1/2-z
-x,-y,-z
x,y,1/2-z
-x,1/2+y,z
x,1/2-y,1/2+z
loop_
_atom_site_type_symbol
_atom_site_label
_atom_site_fract_x
_atom_site_fract_y
_atom_site_fract_z
Si Si1 0.657650 0.724295 0.396978
Si Si2 0.543281 0.635143 0.648365
Si Si3 0.042837 0.364557 0.355999
Si Si4 0.853688 0.430801 0.355804
Si Si5 0.639595 0.927284 0.525983
Si Si6 0.645104 0.071055 0.855268
Si Si7 0.143369 0.428087 0.518594
Si Si8 0.133746 0.208515 0.352021
O O1 0.674153 0.750000 0.500000
O O2 0.587728 0.783831 0.357875
O O3 0.620841 0.641201 0.405931
O O4 0.757255 0.724050 0.352526
O O5 0.562829 0.606355 0.750000
O O6 0.586433 0.587271 0.567196
O O7 0.434001 0.631714 0.635654
O O8 0.063578 0.379627 0.250000
O O9 0.091346 0.421308 0.423925
O O10 0.082070 0.283638 0.376514
O O11 0.933997 0.371799 0.367783
O O12 0.857651 0.455412 0.250000
O O13 0.749645 0.404771 0.372202
O O14 0.872802 0.498715 0.422859
O O15 0.747630 0.923049 0.504506
O O16 0.623043 0.003620 0.577488
O O17 0.642448 0.045296 0.750000
O O18 0.116304 0.357473 0.578987
O O19 0.107059 0.187194 0.250000
#
# Coordination Sequence:
#
# PCOD9434264 Si02
#       8
#     8   8   8   8   8   8   8   8
#     4   9  17  28  43  66  93 118 141 173 219 266
#     4  10  18  28  44  67  93 119 144 176 218 262
#     4  10  19  29  44  66  92 118 144 178 220 262
#     4   9  18  32  47  65  87 115 152 186 214 250
#     4   9  18  30  46  67  92 117 142 178 220 263
#     4   9  18  31  47  65  86 116 153 185 214 249
#     4  10  18  30  47  67  91 117 143 177 220 265
#     4  10  18  28  45  69  93 116 141 175 220 267
#
# _framework density 16.322870000000002
#
# number of rings (size 3 to 8) (size 9 to 14) (size 15 to 20)
#    0.000    2.500    0.000    4.125    0.000    5.000 
#    0.000    0.000    0.000    4.500    0.000    0.000 
#    0.000   14.000    0.000    0.000    0.000    0.000 
#
# Total GULP energy -356462.807769 kJ/mol
# GULP energy per Si atom -5569.731371 kJ/mol
# Density = 1.628572 g / cm^3
# Si number density = 16.322870 Si / 1000 Ang^3
#
#
#
# Elastic Constant Matrix: (Units=GPa)
#
#
# Indices 1 2 3 4 5 6 
#
# 1 74.7507 39.4245 37.6122 0.0000 0.0000 0.0000
# 2 39.4245 41.9447 17.0873 0.0000 0.0000 0.0000
# 3 37.6122 17.0873 65.3879 0.0000 0.0000 0.0000
# 4 0.0000 0.0000 0.0000 14.3513 0.0000 0.0000
# 5 0.0000 0.0000 0.0000 0.0000 23.6400 0.0000
# 6 0.0000 0.0000 0.0000 0.0000 0.0000 19.7085
#
#
#
# Elastic Compliance Matrix: (Units=1/GPa)
#
#
# Indices 1 2 3 4 5 6 
#
# 1 0.033619 -0.026547 -0.012401 0.000000 0.000000 0.000000
# 2 -0.026547 0.047644 0.002820 0.000000 0.000000 0.000000
# 3 -0.012401 0.002820 0.021690 0.000000 0.000000 0.000000
# 4 0.000000 0.000000 0.000000 0.069680 0.000000 0.000000
# 5 0.000000 0.000000 0.000000 0.000000 0.042301 0.000000
# 6 0.000000 0.000000 0.000000 0.000000 0.000000 0.050740
#
#
# Mechanical properties :
#
#
# Convention : Reuss Voigt Hill
#
# Bulk Modulus (GPa) = 32.57693 41.14793 36.86243
# Shear Modulus (GPa) = 14.36117 17.40392 15.88255
#
# Velocity S-wave (km/s) = 2.96939 3.26886 3.12272
# Velocity P-wave (km/s) = 5.63538 6.28576 5.96943
#
# Compressibility (1/GPa) = 0.03069657
#
# Stress axis : x y z
#
# Youngs Moduli (GPa) = 29.74539 20.98896 46.10514
#
# Poissons Ratio (x) = 0.55719 0.57173
# Poissons Ratio (y) = 0.78965 -0.13001
# Poissons Ratio (z) = 0.36886 -0.05918
#
# Static dielectric constant tensor:
#      x y z
#    x 1.551170 0.000000 0.000000 
#    y 0.000000 1.546210 0.000000 
#    z 0.000000 0.000000 1.566260 
# 
# From -- ./inp_files/18700.got.cif
#   From: 2010.05.17/outbox.cif.g08.bks.cpg/sg57_10_cif.got.tgz:18700.got - 2010.06.03 13:58:18.
