data_PCOD9434560
_publ_section_title
;
Structure prediction by ZEFSAII (Michael W. Deem and Ramdas Pophale) SiO2 
 PCOD9434560
Probable space group: P B C M
;
_chemical_formula_sum "Si O2"
_cell_formula_units_Z 48
_cell_length_a 29.252942
_cell_length_b 8.209970
_cell_length_c 10.299865
_cell_angle_alpha 90.000000
_cell_angle_beta 90.000000
_cell_angle_gamma 90.000000
_cell_volume 2473.675073
_symmetry_space_group_name_H-M "P B C M"
_symmetry_group_IT_number 57
_symmetry_cell_setting 'orthorhombic'
loop_
_space_group_symop_operation_xyz
x,y,z
-x,-y,1/2+z
x,1/2-y,-z
-x,1/2+y,1/2-z
-x,-y,-z
x,y,1/2-z
-x,1/2+y,z
x,1/2-y,1/2+z
loop_
_atom_site_type_symbol
_atom_site_label
_atom_site_fract_x
_atom_site_fract_y
_atom_site_fract_z
Si Si1 0.604972 0.551547 0.484405
Si Si2 0.937241 0.062105 0.250000
Si Si3 0.298397 0.096877 0.098457
Si Si4 0.801709 0.901148 0.599721
Si Si5 0.561225 0.984863 0.250000
Si Si6 0.898527 0.555565 0.482291
Si Si7 0.458153 0.403767 0.750000
Si Si8 0.961054 0.438588 0.250000
O O1 0.606557 0.750000 0.500000
O O2 0.655617 0.501619 0.438957
O O3 0.589583 0.478381 0.620649
O O4 0.566720 0.521648 0.375751
O O5 0.950570 0.249177 0.250000
O O6 0.909720 0.021087 0.379530
O O7 0.984901 0.964646 0.250000
O O8 0.303627 0.148890 0.250000
O O9 0.248205 0.015959 0.087363
O O10 0.296946 0.250000 0.000000
O O11 0.801037 0.750000 0.500000
O O12 0.805323 0.844905 0.750000
O O13 0.848244 0.996012 0.567966
O O14 0.551791 0.789714 0.250000
O O15 0.511943 0.068011 0.250000
O O16 0.898299 0.750000 0.500000
O O17 0.936950 0.513213 0.376890
#
# Coordination Sequence:
#
# PCOD9434560 Si02
#       8
#     8   4   8   8   4   8   4   4
#     4   9  17  28  44  68  97 130 165 211 260 315
#     4  12  26  40  63  86 118 156 197 242 285 338
#     4   9  16  27  45  73 105 136 168 213 270 322
#     4   9  18  31  52  81 113 143 178 224 277 335
#     4  10  20  30  47  66  98 128 171 210 263 308
#     4  11  22  39  61  89 120 154 189 235 288 342
#     4  10  18  32  45  68  92 130 165 210 257 310
#     4  12  24  44  61  88 118 156 199 238 285 340
#
# _framework density 19.404328
#
# number of rings (size 3 to 8) (size 9 to 14) (size 15 to 20)
#    0.000    2.000    1.667    3.000    7.000    0.000 
#    0.000    0.000    0.000    0.000    0.000    7.000 
#    0.000    0.000    0.000    0.000    0.000    0.000 
#
# Total GULP energy -267693.426950 kJ/mol
# GULP energy per Si atom -5576.946395 kJ/mol
# Density = 1.936016 g / cm^3
# Si number density = 19.404328 Si / 1000 Ang^3
#
#
#
# Elastic Constant Matrix: (Units=GPa)
#
#
# Indices 1 2 3 4 5 6 
#
# 1 144.3833 1.4587 70.9732 0.0000 0.0000 0.0000
# 2 1.4587 30.6363 8.6561 0.0000 0.0000 0.0000
# 3 70.9732 8.6561 166.0684 0.0000 0.0000 0.0000
# 4 0.0000 0.0000 0.0000 18.1283 0.0000 0.0000
# 5 0.0000 0.0000 0.0000 0.0000 41.5724 0.0000
# 6 0.0000 0.0000 0.0000 0.0000 0.0000 10.1734
#
#
#
# Elastic Compliance Matrix: (Units=1/GPa)
#
#
# Indices 1 2 3 4 5 6 
#
# 1 0.008781 0.000652 -0.003787 0.000000 0.000000 0.000000
# 2 0.000652 0.033177 -0.002008 0.000000 0.000000 0.000000
# 3 -0.003787 -0.002008 0.007745 0.000000 0.000000 0.000000
# 4 0.000000 0.000000 0.000000 0.055162 0.000000 0.000000
# 5 0.000000 0.000000 0.000000 0.000000 0.024054 0.000000
# 6 0.000000 0.000000 0.000000 0.000000 0.000000 0.098295
#
#
# Mechanical properties :
#
#
# Convention : Reuss Voigt Hill
#
# Bulk Modulus (GPa) = 25.36966 55.91823 40.64394
# Shear Modulus (GPa) = 19.94899 31.30818 25.62858
#
# Velocity S-wave (km/s) = 3.20983 4.02115 3.63818
# Velocity P-wave (km/s) = 5.18073 7.10208 6.21609
#
# Compressibility (1/GPa) = 0.03941716
#
# Stress axis : x y z
#
# Youngs Moduli (GPa) = 113.88498 30.14114 129.12248
#
# Poissons Ratio (x) = -0.01965 0.48894
# Poissons Ratio (y) = -0.07423 0.25926
# Poissons Ratio (z) = 0.43124 0.06052
#
# Static dielectric constant tensor:
#      x y z
#    x 1.732010 0.000000 0.000000 
#    y 0.000000 1.672380 0.000000 
#    z 0.000000 0.000000 1.670210 
# 
# From -- ./inp_files/10212.got.cif
#   From: 2010.05.17/outbox.cif.g08.bks.cpg/sg57_6_cif.got.tgz:10212.got - 2010.06.03 13:58:18.
