data_PCOD9434608
_publ_section_title
;
Structure prediction by ZEFSAII (Michael W. Deem and Ramdas Pophale) SiO2 
 PCOD9434608
Probable space group: P B C M
;
_chemical_formula_sum "Si O2"
_cell_formula_units_Z 64
_cell_length_a 15.498569
_cell_length_b 24.014659
_cell_length_c 8.616588
_cell_angle_alpha 90.000000
_cell_angle_beta 90.000000
_cell_angle_gamma 90.000000
_cell_volume 3207.032441
_symmetry_space_group_name_H-M "P B C M"
_symmetry_group_IT_number 57
_symmetry_cell_setting 'orthorhombic'
loop_
_space_group_symop_operation_xyz
x,y,z
-x,-y,1/2+z
x,1/2-y,-z
-x,1/2+y,1/2-z
-x,-y,-z
x,y,1/2-z
-x,1/2+y,z
x,1/2-y,1/2+z
loop_
_atom_site_type_symbol
_atom_site_label
_atom_site_fract_x
_atom_site_fract_y
_atom_site_fract_z
Si Si1 0.869714 0.014865 0.930368
Si Si2 0.240269 0.689586 0.935892
Si Si3 0.926233 0.367458 0.566329
Si Si4 0.607062 0.107033 0.939292
Si Si5 0.542544 0.809795 0.062506
Si Si6 0.665615 0.990906 0.569605
Si Si7 0.103105 0.106032 0.563708
Si Si8 0.295781 0.373513 0.435652
O O1 0.896479 0.018499 0.750000
O O2 0.765651 0.010883 0.934316
O O3 0.899162 0.069812 0.018550
O O4 0.903557 0.957777 0.004926
O O5 0.241275 0.690958 0.750000
O O6 0.308800 0.642502 0.987040
O O7 0.264754 0.750000 0.000000
O O8 0.145544 0.672537 0.993219
O O9 0.925907 0.361476 0.750000
O O10 0.022449 0.359986 0.500952
O O11 0.608842 0.104408 0.750000
O O12 0.523864 0.142123 0.986527
O O13 0.611505 0.043199 0.992978
O O14 0.541417 0.808182 0.250000
O O15 0.638396 0.826601 0.007756
O O16 0.516074 0.750000 0.000000
O O17 0.643783 0.980267 0.750000
O O18 0.663717 0.933408 0.478010
O O19 0.101411 0.106195 0.750000
O O20 0.197061 0.127299 0.507373
O O21 0.291760 0.369567 0.250000
#
# Coordination Sequence:
#
# PCOD9434608 Si02
#       8
#     8   8   8   8   8   8   8   8
#     4  10  18  32  53  80 114 150 186 227 275 332
#     4  11  22  39  58  81 113 151 190 232 283 337
#     4  12  23  35  53  80 110 147 191 233 279 333
#     4   9  18  35  59  85 116 149 181 225 280 337
#     4  10  21  39  61  84 112 145 188 234 281 332
#     4   9  17  32  55  83 115 153 186 220 277 342
#     4  10  20  35  54  78 111 149 188 232 283 335
#     4   9  20  37  56  82 115 149 185 236 288 331
#
# _framework density 19.956143000000001
#
# number of rings (size 3 to 8) (size 9 to 14) (size 15 to 20)
#    0.000    2.000    1.250    3.000    0.000    2.000 
#    0.000    1.875    0.000    1.500    0.000    0.000 
#    0.000    0.000    0.000    0.000    0.000    0.000 
#
# Total GULP energy -357465.624007 kJ/mol
# GULP energy per Si atom -5585.400375 kJ/mol
# Density = 1.991072 g / cm^3
# Si number density = 19.956143 Si / 1000 Ang^3
#
#
#
# Elastic Constant Matrix: (Units=GPa)
#
#
# Indices 1 2 3 4 5 6 
#
# 1 57.8998 12.3669 5.6321 0.0000 0.0000 0.0000
# 2 12.3669 10.3352 -7.1067 0.0000 0.0000 0.0000
# 3 5.6321 -7.1067 34.8734 0.0000 0.0000 0.0000
# 4 0.0000 0.0000 0.0000 27.1469 0.0000 0.0000
# 5 0.0000 0.0000 0.0000 0.0000 13.2711 0.0000
# 6 0.0000 0.0000 0.0000 0.0000 0.0000 19.8726
#
#
#
# Elastic Compliance Matrix: (Units=1/GPa)
#
#
# Indices 1 2 3 4 5 6 
#
# 1 0.027444 -0.041735 -0.012937 0.000000 0.000000 0.000000
# 2 -0.041735 0.175993 0.042605 0.000000 0.000000 0.000000
# 3 -0.012937 0.042605 0.039447 0.000000 0.000000 0.000000
# 4 0.000000 0.000000 0.000000 0.036837 0.000000 0.000000
# 5 0.000000 0.000000 0.000000 0.000000 0.075352 0.000000
# 6 0.000000 0.000000 0.000000 0.000000 0.000000 0.050321
#
#
# Mechanical properties :
#
#
# Convention : Reuss Voigt Hill
#
# Bulk Modulus (GPa) = 4.57144 13.87699 9.22421
# Shear Modulus (GPa) = 9.95138 18.20585 14.07861
#
# Velocity S-wave (km/s) = 2.23550 3.02370 2.65896
# Velocity P-wave (km/s) = 2.99316 4.37712 3.74954
#
# Compressibility (1/GPa) = 0.21874961
#
# Stress axis : x y z
#
# Youngs Moduli (GPa) = 36.43798 5.68205 25.35051
#
# Poissons Ratio (x) = 0.23714 0.32797
# Poissons Ratio (y) = 1.52074 -1.08006
# Poissons Ratio (z) = 0.47141 -0.24209
#
# Static dielectric constant tensor:
#      x y z
#    x 1.747540 0.000000 0.000000 
#    y 0.000000 1.718690 0.000000 
#    z 0.000000 0.000000 1.670730 
# 
# From -- ./inp_files/5575.got.cif
#   From: 2010.05.17/outbox.cif.g08.bks.cpg/sg57_3_cif.got.tgz:5575.got - 2010.06.03 13:58:18.
