data_PCOD9434562
_publ_section_title
;
Structure prediction by ZEFSAII (Michael W. Deem and Ramdas Pophale) SiO2 
 PCOD9434562
Probable space group: P B C M
;
_chemical_formula_sum "Si O2"
_cell_formula_units_Z 64
_cell_length_a 14.612374
_cell_length_b 8.652799
_cell_length_c 30.807389
_cell_angle_alpha 90.000000
_cell_angle_beta 90.000000
_cell_angle_gamma 90.000000
_cell_volume 3895.222652
_symmetry_space_group_name_H-M "P B C M"
_symmetry_group_IT_number 57
_symmetry_cell_setting 'orthorhombic'
loop_
_space_group_symop_operation_xyz
x,y,z
-x,-y,1/2+z
x,1/2-y,-z
-x,1/2+y,1/2-z
-x,-y,-z
x,y,1/2-z
-x,1/2+y,z
x,1/2-y,1/2+z
loop_
_atom_site_type_symbol
_atom_site_label
_atom_site_fract_x
_atom_site_fract_y
_atom_site_fract_z
Si Si1 0.806542 0.332250 0.671472
Si Si2 0.063536 0.861553 0.909692
Si Si3 0.095537 0.359863 0.843036
Si Si4 0.958891 0.872021 0.031875
Si Si5 0.627515 0.497171 0.696805
Si Si6 0.443776 0.335600 0.698119
Si Si7 0.740243 0.995838 0.698681
Si Si8 0.045072 0.054212 0.703044
O O1 0.860640 0.314422 0.625770
O O2 0.720121 0.446303 0.673344
O O3 0.770322 0.170982 0.689936
O O4 0.883638 0.414219 0.700580
O O5 0.037636 0.726571 0.943480
O O6 0.965226 0.892488 0.885671
O O7 0.091885 0.022085 0.932730
O O8 0.201567 0.391376 0.834991
O O9 0.072478 0.184373 0.830960
O O10 0.050900 0.478483 0.808475
O O11 0.908984 0.750000 0.000000
O O12 0.000000 0.000000 0.000000
O O13 0.640994 0.489968 0.750000
O O14 0.544203 0.384885 0.683341
O O15 0.595629 0.669771 0.684908
O O16 0.452986 0.325333 0.750000
O O17 0.366708 0.464986 0.689876
O O18 0.755600 0.955317 0.750000
O O19 0.045293 0.128262 0.750000
#
# Coordination Sequence:
#
# PCOD9434562 Si02
#       8
#     8   8   8   8   8   8   8   8
#     4  11  21  30  46  65  93 126 154 201 248 281
#     4  10  19  33  46  71  97 120 154 185 234 285
#     4  11  21  30  44  61  91 126 155 201 243 271
#     4   9  18  33  54  70  88 120 149 180 221 281
#     4  10  18  32  47  65  88 125 170 211 250 281
#     4   9  19  31  47  63  85 119 172 226 254 278
#     4  11  20  31  43  63  89 129 175 208 238 272
#     4  11  20  30  40  58  84 125 171 202 227 271
#
# _framework density 16.430382000000002
#
# number of rings (size 3 to 8) (size 9 to 14) (size 15 to 20)
#    0.000    1.750    0.000    7.500    0.000    3.000 
#    0.000    0.000    0.000    0.000    0.000    0.000 
#    0.000    0.000    0.000  148.500    0.000    0.375 
#
# Total GULP energy -356605.215326 kJ/mol
# GULP energy per Si atom -5571.956489 kJ/mol
# Density = 1.639299 g / cm^3
# Si number density = 16.430382 Si / 1000 Ang^3
#
#
#
# Elastic Constant Matrix: (Units=GPa)
#
#
# Indices 1 2 3 4 5 6 
#
# 1 56.0888 -1.5735 12.3137 0.0000 0.0000 0.0000
# 2 -1.5735 62.6505 14.3595 0.0000 0.0000 0.0000
# 3 12.3137 14.3595 57.2489 0.0000 0.0000 0.0000
# 4 0.0000 0.0000 0.0000 28.2152 0.0000 0.0000
# 5 0.0000 0.0000 0.0000 0.0000 8.0123 0.0000
# 6 0.0000 0.0000 0.0000 0.0000 0.0000 26.6313
#
#
#
# Elastic Compliance Matrix: (Units=1/GPa)
#
#
# Indices 1 2 3 4 5 6 
#
# 1 0.018842 0.001488 -0.004426 0.000000 0.000000 0.000000
# 2 0.001488 0.017053 -0.004597 0.000000 0.000000 0.000000
# 3 -0.004426 -0.004597 0.019573 0.000000 0.000000 0.000000
# 4 0.000000 0.000000 0.000000 0.035442 0.000000 0.000000
# 5 0.000000 0.000000 0.000000 0.000000 0.124808 0.000000
# 6 0.000000 0.000000 0.000000 0.000000 0.000000 0.037550
#
#
# Mechanical properties :
#
#
# Convention : Reuss Voigt Hill
#
# Bulk Modulus (GPa) = 24.75460 25.13197 24.94328
# Shear Modulus (GPa) = 17.74282 22.63098 20.18690
#
# Velocity S-wave (km/s) = 3.28972 3.71534 3.50899
# Velocity P-wave (km/s) = 5.43403 5.80812 5.62419
#
# Compressibility (1/GPa) = 0.04039653
#
# Stress axis : x y z
#
# Youngs Moduli (GPa) = 53.07215 58.64204 51.09168
#
# Poissons Ratio (x) = -0.08724 0.22613
# Poissons Ratio (y) = -0.07895 0.23488
# Poissons Ratio (z) = 0.23489 0.26959
#
# Static dielectric constant tensor:
#      x y z
#    x 1.547100 0.000000 0.000000 
#    y 0.000000 1.616460 0.000000 
#    z 0.000000 0.000000 1.577230 
# 
# From -- ./inp_files/29891.got.cif
#   From: 2010.05.17/outbox.cif.g08.bks.cpg/sg57_15_cif.got.tgz:29891.got - 2010.06.03 13:58:18.
