data_PCOD9434691
_publ_section_title
;
Structure prediction by ZEFSAII (Michael W. Deem and Ramdas Pophale) SiO2 
 PCOD9434691
Probable space group: P B C M
;
_chemical_formula_sum "Si O2"
_cell_formula_units_Z 64
_cell_length_a 10.008009
_cell_length_b 18.862310
_cell_length_c 18.548489
_cell_angle_alpha 90.000000
_cell_angle_beta 90.000000
_cell_angle_gamma 90.000000
_cell_volume 3501.475583
_symmetry_space_group_name_H-M "P B C M"
_symmetry_group_IT_number 57
_symmetry_cell_setting 'orthorhombic'
loop_
_space_group_symop_operation_xyz
x,y,z
-x,-y,1/2+z
x,1/2-y,-z
-x,1/2+y,1/2-z
-x,-y,-z
x,y,1/2-z
-x,1/2+y,z
x,1/2-y,1/2+z
loop_
_atom_site_type_symbol
_atom_site_label
_atom_site_fract_x
_atom_site_fract_y
_atom_site_fract_z
Si Si1 0.828866 0.240478 0.420514
Si Si2 0.582901 0.150703 0.915063
Si Si3 0.355099 0.252063 0.588028
Si Si4 0.081701 0.221524 0.165409
Si Si5 0.518426 0.898233 0.926979
Si Si6 0.261400 0.981466 0.423290
Si Si7 0.764973 0.425740 0.584204
Si Si8 0.971212 0.553094 0.334935
O O1 0.889989 0.250000 0.500000
O O2 0.698979 0.290129 0.417723
O O3 0.784837 0.159127 0.413509
O O4 0.943350 0.255190 0.362562
O O5 0.450842 0.188603 0.885222
O O6 0.653655 0.080797 0.884589
O O7 0.537096 0.125932 0.994944
O O8 0.348883 0.250000 0.500000
O O9 0.208295 0.251059 0.620947
O O10 0.426154 0.326564 0.608521
O O11 0.100286 0.233718 0.250000
O O12 0.066604 0.136370 0.153754
O O13 0.388984 0.935806 0.892279
O O14 0.638552 0.952954 0.934662
O O15 0.217930 0.953300 0.502275
O O16 0.135227 0.006318 0.377782
O O17 0.880297 0.457687 0.633735
O O18 0.966815 0.539319 0.250000
#
# Coordination Sequence:
#
# PCOD9434691 Si02
#       8
#     8   8   8   8   8   8   8   8
#     4  11  17  34  58  83 111 143 187 238 289 332
#     4  10  19  33  58  87 116 142 178 242 294 335
#     4  10  18  35  57  85 115 145 182 235 291 335
#     4  10  22  37  54  79 113 153 195 232 274 337
#     4  10  18  33  57  88 116 140 187 238 286 340
#     4  11  20  35  59  88 114 148 191 238 286 345
#     4  10  19  33  58  85 111 144 191 238 285 336
#     4  10  22  39  54  77 117 157 193 232 277 340
#
# _framework density 18.278009000000001
#
# number of rings (size 3 to 8) (size 9 to 14) (size 15 to 20)
#    0.000    1.750    5.000    2.625    0.000    0.000 
#    0.000    4.375    0.000    0.000    0.000    0.875 
#    0.000    0.000    0.000    0.000    0.000    0.000 
#
# Total GULP energy -356780.103351 kJ/mol
# GULP energy per Si atom -5574.689115 kJ/mol
# Density = 1.823641 g / cm^3
# Si number density = 18.278009 Si / 1000 Ang^3
#
#
#
# Elastic Constant Matrix: (Units=GPa)
#
#
# Indices 1 2 3 4 5 6 
#
# 1 124.3946 31.5574 35.9530 0.0000 0.0000 0.0000
# 2 31.5574 53.6948 11.5976 0.0000 0.0000 0.0000
# 3 35.9530 11.5976 39.2878 0.0000 0.0000 0.0000
# 4 0.0000 0.0000 0.0000 15.6080 0.0000 0.0000
# 5 0.0000 0.0000 0.0000 0.0000 -3.2125 0.0000
# 6 0.0000 0.0000 0.0000 0.0000 0.0000 -15.2225
#
#
#
# Elastic Compliance Matrix: (Units=1/GPa)
#
#
# Indices 1 2 3 4 5 6 
#
# 1 0.012082 -0.005034 -0.009571 0.000000 0.000000 0.000000
# 2 -0.005034 0.021989 -0.001885 0.000000 0.000000 0.000000
# 3 -0.009571 -0.001885 0.034768 0.000000 0.000000 0.000000
# 4 0.000000 0.000000 0.000000 0.064070 0.000000 0.000000
# 5 0.000000 0.000000 0.000000 0.000000 -0.311280 0.000000
# 6 0.000000 0.000000 0.000000 0.000000 0.000000 -0.065692
#
#
# Mechanical properties :
#
#
# Convention : Reuss Voigt Hill
#
# Bulk Modulus (GPa) = 27.88533 41.73256 34.80895
# Shear Modulus (GPa) = -25.10899 8.65254 -8.22823
#
# Velocity S-wave (km/s) = -3.71040 2.17810 -2.12402
# Velocity P-wave (km/s) = 1.75122 5.40437 3.61527
#
# Compressibility (1/GPa) = 0.03586115
#
# Stress axis : x y z
#
# Youngs Moduli (GPa) = 82.76738 45.47677 28.76223
#
# Poissons Ratio (x) = 0.22892 0.27527
# Poissons Ratio (y) = 0.41663 0.05421
# Poissons Ratio (z) = 0.79213 0.08571
#
# Static dielectric constant tensor:
#      x y z
#    x 1.646270 0.000000 0.000000 
#    y 0.000000 1.653250 0.000000 
#    z 0.000000 0.000000 1.604870 
# 
# From -- ./inp_files/24588.got.cif
#   From: 2010.05.17/outbox.cif.g08.bks.cpg/sg57_13_cif.got.tgz:24588.got - 2010.06.03 13:58:18.
