data_PCOD9434815
_publ_section_title
;
Structure prediction by ZEFSAII (Michael W. Deem and Ramdas Pophale) SiO2 
 PCOD9434815
Probable space group: P B C M
;
_chemical_formula_sum "Si O2"
_cell_formula_units_Z 48
_cell_length_a 8.988698
_cell_length_b 11.482992
_cell_length_c 19.230681
_cell_angle_alpha 90.000000
_cell_angle_beta 90.000000
_cell_angle_gamma 90.000000
_cell_volume 1984.936032
_symmetry_space_group_name_H-M "P B C M"
_symmetry_group_IT_number 57
_symmetry_cell_setting 'orthorhombic'
loop_
_space_group_symop_operation_xyz
x,y,z
-x,-y,1/2+z
x,1/2-y,-z
-x,1/2+y,1/2-z
-x,-y,-z
x,y,1/2-z
-x,1/2+y,z
x,1/2-y,1/2+z
loop_
_atom_site_type_symbol
_atom_site_label
_atom_site_fract_x
_atom_site_fract_y
_atom_site_fract_z
Si Si1 0.296873 0.860206 0.035559
Si Si2 0.734209 0.471436 0.893731
Si Si3 0.990788 0.406987 0.394043
Si Si4 0.404362 0.227560 0.893495
Si Si5 0.642683 0.473740 0.750000
Si Si6 0.638111 0.853410 0.750000
Si Si7 0.113392 0.184843 0.750000
Si Si8 0.826290 0.750000 0.500000
O O1 0.438907 0.806205 0.073210
O O2 0.181252 0.919013 0.087658
O O3 0.216824 0.750000 0.000000
O O4 0.332391 0.934466 0.967252
O O5 0.913282 0.474332 0.894813
O O6 0.674012 0.602587 0.885040
O O7 0.688055 0.411286 0.822026
O O8 0.021830 0.343386 0.320336
O O9 0.071751 0.337502 0.456795
O O10 0.412778 0.290472 0.820467
O O11 0.293430 0.299912 0.943882
O O12 0.460404 0.473643 0.750000
O O13 0.749825 0.588944 0.750000
O O14 0.814131 0.815167 0.750000
#
# Coordination Sequence:
#
# PCOD9434815 Si02
#       8
#     8   8   8   8   4   4   4   4
#     4  12  23  36  59  97 123 153 211 273 311 370
#     4  10  21  41  61  87 127 168 206 252 328 380
#     4  10  21  39  64  83 126 168 209 252 322 388
#     4  11  22  38  63  92 126 160 211 263 322 376
#     4  10  20  36  65  94 121 163 212 260 303 385
#     4  12  20  39  67  90 118 170 210 254 314 370
#     4  10  20  43  60  92 127 175 210 258 331 377
#     4  10  18  36  60  90 116 160 204 260 306 384
#
# _framework density 24.182137999999998
#
# number of rings (size 3 to 8) (size 9 to 14) (size 15 to 20)
#    0.000    1.333    6.667    2.000    0.000    0.667 
#    0.000    0.833    0.000    0.000    0.000    0.000 
#    0.000    0.000    0.000    0.000    0.000    0.000 
#
# Total GULP energy -267523.652656 kJ/mol
# GULP energy per Si atom -5573.409430 kJ/mol
# Density = 2.412710 g / cm^3
# Si number density = 24.182138 Si / 1000 Ang^3
#
#
#
# Elastic Constant Matrix: (Units=GPa)
#
#
# Indices 1 2 3 4 5 6 
#
# 1 85.5393 -3.5192 44.7746 0.0000 0.0000 0.0000
# 2 -3.5192 24.7644 10.3048 0.0000 0.0000 0.0000
# 3 44.7746 10.3048 186.2570 0.0000 0.0000 0.0000
# 4 0.0000 0.0000 0.0000 11.5503 0.0000 0.0000
# 5 0.0000 0.0000 0.0000 0.0000 -107.4684 0.0000
# 6 0.0000 0.0000 0.0000 0.0000 0.0000 3.7821
#
#
#
# Elastic Compliance Matrix: (Units=1/GPa)
#
#
# Indices 1 2 3 4 5 6 
#
# 1 0.013644 0.003382 -0.003467 0.000000 0.000000 0.000000
# 2 0.003382 0.042170 -0.003146 0.000000 0.000000 0.000000
# 3 -0.003467 -0.003146 0.006376 0.000000 0.000000 0.000000
# 4 0.000000 0.000000 0.000000 0.086578 0.000000 0.000000
# 5 0.000000 0.000000 0.000000 0.000000 -0.009305 0.000000
# 6 0.000000 0.000000 0.000000 0.000000 0.000000 0.264407
#
#
# Mechanical properties :
#
#
# Convention : Reuss Voigt Hill
#
# Bulk Modulus (GPa) = 17.94421 44.40901 31.17661
# Shear Modulus (GPa) = 11.65748 -2.09383 4.78182
#
# Velocity S-wave (km/s) = 2.19799 -0.93152 1.40773
# Velocity P-wave (km/s) = 3.72533 4.15298 3.94496
#
# Compressibility (1/GPa) = 0.05572828
#
# Stress axis : x y z
#
# Youngs Moduli (GPa) = 73.28974 23.71340 156.82719
#
# Poissons Ratio (x) = -0.08019 0.54374
# Poissons Ratio (y) = -0.24784 0.49338
# Poissons Ratio (z) = 0.25410 0.07460
#
# Static dielectric constant tensor:
#      x y z
#    x 2.010710 0.000000 0.000000 
#    y 0.000000 2.028190 0.000000 
#    z 0.000000 0.000000 0.847810 
# 
# From -- ./inp_files/21036.got.cif
#   From: 2010.05.17/outbox.cif.g08.bks.cpg/sg57_11_cif.got.tgz:21036.got - 2010.06.03 13:58:18.
