data_PCOD9434004
_publ_section_title
;
Structure prediction by ZEFSAII (Michael W. Deem and Ramdas Pophale) SiO2 
 PCOD9434004
Probable space group: P B C M
;
_chemical_formula_sum "Si O2"
_cell_formula_units_Z 44
_cell_length_a 16.667489
_cell_length_b 5.309437
_cell_length_c 34.206026
_cell_angle_alpha 90.000000
_cell_angle_beta 90.000000
_cell_angle_gamma 90.000000
_cell_volume 3027.061682
_symmetry_space_group_name_H-M "P B C M"
_symmetry_group_IT_number 57
_symmetry_cell_setting 'orthorhombic'
loop_
_space_group_symop_operation_xyz
x,y,z
-x,-y,1/2+z
x,1/2-y,-z
-x,1/2+y,1/2-z
-x,-y,-z
x,y,1/2-z
-x,1/2+y,z
x,1/2-y,1/2+z
loop_
_atom_site_type_symbol
_atom_site_label
_atom_site_fract_x
_atom_site_fract_y
_atom_site_fract_z
Si Si1 0.326747 0.509481 0.320580
Si Si2 0.449358 0.906745 0.750000
Si Si3 0.767265 0.503884 0.202626
Si Si4 0.045828 0.436803 0.797500
Si Si5 0.591105 0.500002 0.982736
Si Si6 0.446233 0.000587 0.891390
O O1 0.395239 0.548001 0.287914
O O2 0.281123 0.249448 0.311400
O O3 0.372067 0.501281 0.361800
O O4 0.268399 0.748923 0.315641
O O5 0.517273 0.122717 0.750000
O O6 0.760184 0.485441 0.250000
O O7 0.860843 0.536421 0.192416
O O8 0.042857 0.434721 0.750000
O O9 0.005590 0.177042 0.810846
O O10 0.583049 0.500056 0.936293
O O11 0.630149 0.250000 0.000000
O O12 0.500000 0.500000 0.000000
O O13 0.630155 0.750000 0.000000
O O14 0.499611 0.251350 0.885146
#
# Coordination Sequence:
#
# PCOD9434004 Si02
#       6
#     8   4   8   8   8   8
#     4  12  23  34  47  65  88 126 162 195 252 267
#     4  12  22  36  46  56  80 118 172 212 228 256
#     4  11  20  36  50  64  93 125 154 192 237 292
#     4   9  17  29  49  73  88 107 146 192 229 271
#     4  10  16  30  49  67  85 107 142 193 243 293
#     4  12  21  33  48  67  89 115 160 213 231 274
#
# _framework density 14.535549
#
# number of rings (size 3 to 8) (size 9 to 14) (size 15 to 20)
#    0.000    1.091    5.455    4.364    0.000    2.909 
#    0.000    0.000    0.000    0.000    0.000    0.000 
#    0.000    0.000    0.000    0.000    0.000   63.636 
#
# Total GULP energy -245568.673553 kJ/mol
# GULP energy per Si atom -5581.106217 kJ/mol
# Density = 1.450246 g / cm^3
# Si number density = 14.535549 Si / 1000 Ang^3
#
#
#
# Elastic Constant Matrix: (Units=GPa)
#
#
# Indices 1 2 3 4 5 6 
#
# 1 40.2177 2.4163 22.4259 0.0000 0.0000 0.0000
# 2 2.4163 91.2679 2.5749 0.0000 0.0000 0.0000
# 3 22.4259 2.5749 77.6183 0.0000 0.0000 0.0000
# 4 0.0000 0.0000 0.0000 12.9353 0.0000 0.0000
# 5 0.0000 0.0000 0.0000 0.0000 -38.4807 0.0000
# 6 0.0000 0.0000 0.0000 0.0000 0.0000 25.8165
#
#
#
# Elastic Compliance Matrix: (Units=1/GPa)
#
#
# Indices 1 2 3 4 5 6 
#
# 1 0.029667 -0.000544 -0.008553 0.000000 0.000000 0.000000
# 2 -0.000544 0.010977 -0.000207 0.000000 0.000000 0.000000
# 3 -0.008553 -0.000207 0.015362 0.000000 0.000000 0.000000
# 4 0.000000 0.000000 0.000000 0.077308 0.000000 0.000000
# 5 0.000000 0.000000 0.000000 0.000000 -0.025987 0.000000
# 6 0.000000 0.000000 0.000000 0.000000 0.000000 0.038735
#
#
# Mechanical properties :
#
#
# Convention : Reuss Voigt Hill
#
# Bulk Modulus (GPa) = 26.74041 29.32646 28.03343
# Shear Modulus (GPa) = 28.22690 12.16668 20.19679
#
# Velocity S-wave (km/s) = 4.41150 2.89628 3.73161
# Velocity P-wave (km/s) = 6.66221 5.60394 6.15585
#
# Compressibility (1/GPa) = 0.03739659
#
# Stress axis : x y z
#
# Youngs Moduli (GPa) = 33.70759 91.09963 65.09681
#
# Poissons Ratio (x) = 0.04957 0.55680
# Poissons Ratio (y) = 0.01834 0.01347
# Poissons Ratio (z) = 0.28832 0.01885
#
# Static dielectric constant tensor:
#      x y z
#    x 1.400100 0.000000 0.000000 
#    y 0.000000 1.462760 0.000000 
#    z 0.000000 0.000000 1.456840 
# 
# From -- ./inp_files/29818.got.cif
#   From: 2010.05.17/outbox.cif.g08.bks.cpg/sg57_15_cif.got.tgz:29818.got - 2010.06.03 13:58:18.
