data_PCOD9434943
_publ_section_title
;
Structure prediction by ZEFSAII (Michael W. Deem and Ramdas Pophale) SiO2 
 PCOD9434943
Probable space group: P B C M
;
_chemical_formula_sum "Si O2"
_cell_formula_units_Z 48
_cell_length_a 17.999858
_cell_length_b 13.253747
_cell_length_c 9.096178
_cell_angle_alpha 90.000000
_cell_angle_beta 90.000000
_cell_angle_gamma 90.000000
_cell_volume 2170.034835
_symmetry_space_group_name_H-M "P B C M"
_symmetry_group_IT_number 57
_symmetry_cell_setting 'orthorhombic'
loop_
_space_group_symop_operation_xyz
x,y,z
-x,-y,1/2+z
x,1/2-y,-z
-x,1/2+y,1/2-z
-x,-y,-z
x,y,1/2-z
-x,1/2+y,z
x,1/2-y,1/2+z
loop_
_atom_site_type_symbol
_atom_site_label
_atom_site_fract_x
_atom_site_fract_y
_atom_site_fract_z
Si Si1 0.733802 0.081526 0.574338
Si Si2 0.894737 0.440658 0.425108
Si Si3 0.584772 0.118600 0.415518
Si Si4 0.709192 0.652173 0.078375
Si Si5 0.439199 0.377557 0.413713
Si Si6 0.943518 0.645077 0.575346
O O1 0.719743 0.092127 0.750000
O O2 0.817486 0.114437 0.537999
O O3 0.666696 0.129749 0.483515
O O4 0.734802 0.960810 0.539634
O O5 0.892179 0.462517 0.250000
O O6 0.903419 0.546812 0.508959
O O7 0.968713 0.376423 0.453613
O O8 0.579196 0.160545 0.250000
O O9 0.520669 0.148814 0.529206
O O10 0.569429 0.998403 0.402861
O O11 0.719461 0.664512 0.250000
O O12 0.743182 0.750000 0.000000
O O13 0.622564 0.650873 0.032561
O O14 0.424061 0.336921 0.250000
O O15 0.922533 0.750000 0.500000
O O16 0.931799 0.650149 0.750000
#
# Coordination Sequence:
#
# PCOD9434943 Si02
#       6
#     8   8   8   8   8   8
#     4   9  18  32  49  70  98 130 165 208 256 307
#     4   9  19  36  56  80 109 141 179 221 265 317
#     4   9  16  26  43  67  91 117 154 198 244 294
#     4  10  19  30  44  64  93 128 165 207 256 309
#     4   9  16  27  43  62  86 118 157 199 241 288
#     4  10  20  35  57  82 109 141 177 218 264 317
#
# _framework density 22.119458999999999
#
# number of rings (size 3 to 8) (size 9 to 14) (size 15 to 20)
#    0.000    2.667    0.000    2.000    0.000    6.667 
#    0.000    1.667    0.000    1.000    0.000    4.667 
#    0.000    0.000    0.000    0.000    0.000    0.000 
#
# Total GULP energy -268058.947023 kJ/mol
# GULP energy per Si atom -5584.561396 kJ/mol
# Density = 2.206911 g / cm^3
# Si number density = 22.119459 Si / 1000 Ang^3
#
#
#
# Elastic Constant Matrix: (Units=GPa)
#
#
# Indices 1 2 3 4 5 6 
#
# 1 134.0341 -13.5426 26.5762 0.0000 0.0000 0.0000
# 2 -13.5426 70.7574 18.5203 0.0000 0.0000 0.0000
# 3 26.5762 18.5203 42.1334 0.0000 0.0000 0.0000
# 4 0.0000 0.0000 0.0000 23.4094 0.0000 0.0000
# 5 0.0000 0.0000 0.0000 0.0000 18.4188 0.0000
# 6 0.0000 0.0000 0.0000 0.0000 0.0000 -8.6676
#
#
#
# Elastic Compliance Matrix: (Units=1/GPa)
#
#
# Indices 1 2 3 4 5 6 
#
# 1 0.009336 0.003761 -0.007542 0.000000 0.000000 0.000000
# 2 0.003761 0.017485 -0.010058 0.000000 0.000000 0.000000
# 3 -0.007542 -0.010058 0.032913 0.000000 0.000000 0.000000
# 4 0.000000 0.000000 0.000000 0.042718 0.000000 0.000000
# 5 0.000000 0.000000 0.000000 0.000000 0.054292 0.000000
# 6 0.000000 0.000000 0.000000 0.000000 0.000000 -0.115373
#
#
# Mechanical properties :
#
#
# Convention : Reuss Voigt Hill
#
# Bulk Modulus (GPa) = 31.19590 34.44810 32.82200
# Shear Modulus (GPa) = 62.70732 20.99020 41.84876
#
# Velocity S-wave (km/s) = 5.33019 3.08384 4.35437
# Velocity P-wave (km/s) = 7.21216 5.31861 6.33651
#
# Compressibility (1/GPa) = 0.03205550
#
# Stress axis : x y z
#
# Youngs Moduli (GPa) = 107.10940 57.19081 30.38344
#
# Poissons Ratio (x) = -0.21510 0.22916
# Poissons Ratio (y) = -0.40284 0.30560
# Poissons Ratio (z) = 0.80784 0.57524
#
# Static dielectric constant tensor:
#      x y z
#    x 1.821650 0.000000 0.000000 
#    y 0.000000 1.812620 0.000000 
#    z 0.000000 0.000000 1.767250 
# 
# From -- ./inp_files/6535.got.cif
#   From: 2010.05.17/outbox.cif.g08.bks.cpg/sg57_4_cif.got.tgz:6535.got - 2010.06.03 13:58:18.
