data_PCOD9434859
_publ_section_title
;
Structure prediction by ZEFSAII (Michael W. Deem and Ramdas Pophale) SiO2 
 PCOD9434859
Probable space group: P B C M
;
_chemical_formula_sum "Si O2"
_cell_formula_units_Z 44
_cell_length_a 5.530847
_cell_length_b 14.331409
_cell_length_c 23.318715
_cell_angle_alpha 90.000000
_cell_angle_beta 90.000000
_cell_angle_gamma 90.000000
_cell_volume 1848.353991
_symmetry_space_group_name_H-M "P B C M"
_symmetry_group_IT_number 57
_symmetry_cell_setting 'orthorhombic'
loop_
_space_group_symop_operation_xyz
x,y,z
-x,-y,1/2+z
x,1/2-y,-z
-x,1/2+y,1/2-z
-x,-y,-z
x,y,1/2-z
-x,1/2+y,z
x,1/2-y,1/2+z
loop_
_atom_site_type_symbol
_atom_site_label
_atom_site_fract_x
_atom_site_fract_y
_atom_site_fract_z
Si Si1 0.273462 0.176156 0.250000
Si Si2 0.234032 0.348982 0.530353
Si Si3 0.262607 0.909320 0.556205
Si Si4 0.467088 0.270602 0.869699
Si Si5 0.594762 0.485493 0.250000
Si Si6 0.710939 0.931561 0.147588
Si Si7 0.971045 0.348133 0.250000
O O1 0.434861 0.202466 0.195585
O O2 0.210975 0.067341 0.250000
O O3 0.039036 0.240860 0.250000
O O4 0.262702 0.250000 0.500000
O O5 0.480206 0.407495 0.522797
O O6 0.246566 0.323065 0.597800
O O7 0.974715 0.392648 0.518410
O O8 0.308074 0.818024 0.597630
O O9 0.223556 0.000131 0.595729
O O10 0.433204 0.159520 0.875104
O O11 0.448022 0.492297 0.308430
O O12 0.699395 0.381690 0.250000
O O13 0.913699 0.890888 0.191336
#
# Coordination Sequence:
#
# PCOD9434859 Si02
#       7
#     4   8   8   8   4   8   4
#     4  10  18  40  56  94 129 167 211 249 335 365
#     4  10  22  44  66  92 126 170 211 266 322 375
#     4  10  22  40  67  91 121 168 205 264 317 376
#     4   9  22  39  63  91 131 163 211 265 313 383
#     4  11  19  37  59  82 133 172 211 263 305 390
#     4  10  21  39  56  94 121 167 219 255 323 373
#     4   9  23  33  57  84 132 167 208 266 298 397
#
# _framework density 23.804963999999998
#
# number of rings (size 3 to 8) (size 9 to 14) (size 15 to 20)
#    1.091    1.091    1.818    1.091    5.091    2.909 
#    0.000    2.727    0.000    0.000    0.000    0.000 
#    0.000    0.000    0.000    0.000    0.000    0.000 
#
# Total GULP energy -245440.049785 kJ/mol
# GULP energy per Si atom -5578.182950 kJ/mol
# Density = 2.375078 g / cm^3
# Si number density = 23.804964 Si / 1000 Ang^3
#
#
#
# Elastic Constant Matrix: (Units=GPa)
#
#
# Indices 1 2 3 4 5 6 
#
# 1 103.8687 16.5489 22.6645 0.0000 0.0000 0.0000
# 2 16.5489 119.7202 18.9248 0.0000 0.0000 0.0000
# 3 22.6645 18.9248 54.5994 0.0000 0.0000 0.0000
# 4 0.0000 0.0000 0.0000 24.7739 0.0000 0.0000
# 5 0.0000 0.0000 0.0000 0.0000 -14.7111 0.0000
# 6 0.0000 0.0000 0.0000 0.0000 0.0000 150.7371
#
#
#
# Elastic Compliance Matrix: (Units=1/GPa)
#
#
# Indices 1 2 3 4 5 6 
#
# 1 0.010662 -0.000819 -0.004142 0.000000 0.000000 0.000000
# 2 -0.000819 0.008900 -0.002745 0.000000 0.000000 0.000000
# 3 -0.004142 -0.002745 0.020986 0.000000 0.000000 0.000000
# 4 0.000000 0.000000 0.000000 0.040365 0.000000 0.000000
# 5 0.000000 0.000000 0.000000 0.000000 -0.067976 0.000000
# 6 0.000000 0.000000 0.000000 0.000000 0.000000 0.006634
#
#
# Mechanical properties :
#
#
# Convention : Reuss Voigt Hill
#
# Bulk Modulus (GPa) = 39.78337 43.82942 41.80640
# Shear Modulus (GPa) = 115.31056 46.82998 81.07027
#
# Velocity S-wave (km/s) = 6.96741 4.44017 5.84209
# Velocity P-wave (km/s) = 9.02635 6.68869 7.94398
#
# Compressibility (1/GPa) = 0.02513613
#
# Stress axis : x y z
#
# Youngs Moduli (GPa) = 93.79268 112.36055 47.65092
#
# Poissons Ratio (x) = 0.09203 0.19737
# Poissons Ratio (y) = 0.07682 0.13079
# Poissons Ratio (z) = 0.38848 0.30841
#
# Static dielectric constant tensor:
#      x y z
#    x 1.932380 0.000000 0.000000 
#    y 0.000000 1.889930 0.000000 
#    z 0.000000 0.000000 1.936580 
# 
# From -- ./inp_files/26195.got.cif
#   From: 2010.05.17/outbox.cif.g08.bks.cpg/sg57_14_cif.got.tgz:26195.got - 2010.06.03 13:58:18.
