data_PCOD9434507
_publ_section_title
;
Structure prediction by ZEFSAII (Michael W. Deem and Ramdas Pophale) SiO2 
 PCOD9434507
Probable space group: P B C M
;
_chemical_formula_sum "Si O2"
_cell_formula_units_Z 56
_cell_length_a 15.241176
_cell_length_b 23.401414
_cell_length_c 7.727629
_cell_angle_alpha 90.000000
_cell_angle_beta 90.000000
_cell_angle_gamma 90.000000
_cell_volume 2756.175334
_symmetry_space_group_name_H-M "P B C M"
_symmetry_group_IT_number 57
_symmetry_cell_setting 'orthorhombic'
loop_
_space_group_symop_operation_xyz
x,y,z
-x,-y,1/2+z
x,1/2-y,-z
-x,1/2+y,1/2-z
-x,-y,-z
x,y,1/2-z
-x,1/2+y,z
x,1/2-y,1/2+z
loop_
_atom_site_type_symbol
_atom_site_label
_atom_site_fract_x
_atom_site_fract_y
_atom_site_fract_z
Si Si1 0.423659 0.186444 0.044984
Si Si2 0.910251 0.424117 0.045785
Si Si3 0.294221 0.087784 0.461999
Si Si4 0.597644 0.020733 0.542060
Si Si5 0.618104 0.149164 0.956964
Si Si6 0.194259 0.686805 0.958315
Si Si7 0.892961 0.946371 0.960082
O O1 0.423936 0.180183 0.250000
O O2 0.357654 0.138243 0.975030
O O3 0.394410 0.250000 0.000000
O O4 0.524130 0.177414 0.988944
O O5 0.889789 0.426041 0.250000
O O6 0.860649 0.368142 0.976253
O O7 0.885139 0.487428 0.978163
O O8 0.014950 0.421132 0.022078
O O9 0.295681 0.088595 0.250000
O O10 0.192841 0.088624 0.514032
O O11 0.335442 0.027529 0.518744
O O12 0.605456 0.023256 0.750000
O O13 0.614500 0.084229 0.474244
O O14 0.500000 0.000000 0.500000
O O15 0.627498 0.146035 0.750000
O O16 0.705114 0.180565 0.023046
O O17 0.194536 0.683367 0.750000
O O18 0.159966 0.750000 0.000000
O O19 0.896064 0.947657 0.750000
#
# Coordination Sequence:
#
# PCOD9434507 Si02
#       7
#     8   8   8   8   8   8   8
#     4  11  22  36  52  71 100 138 179 217 254 300
#     4   9  18  34  55  80 107 132 165 213 264 311
#     4   9  18  33  53  76 103 136 171 208 253 308
#     4  10  18  31  51  77 106 135 169 210 258 306
#     4  10  20  34  54  78 105 138 175 213 259 311
#     4  10  21  36  53  76 106 142 178 214 259 311
#     4   9  17  33  58  81 102 133 170 208 259 319
#
# _framework density 20.318012
#
# number of rings (size 3 to 8) (size 9 to 14) (size 15 to 20)
#    0.000    2.286    1.429    1.714    0.000    5.714 
#    0.000    2.857    0.000    6.857    0.000    0.000 
#    0.000    0.000    0.000    0.000    0.000    0.000 
#
# Total GULP energy -312555.224746 kJ/mol
# GULP energy per Si atom -5581.343299 kJ/mol
# Density = 2.027177 g / cm^3
# Si number density = 20.318012 Si / 1000 Ang^3
#
#
#
# Elastic Constant Matrix: (Units=GPa)
#
#
# Indices 1 2 3 4 5 6 
#
# 1 111.7437 50.1912 -4.4359 0.0000 0.0000 0.0000
# 2 50.1912 112.6338 2.3733 0.0000 0.0000 0.0000
# 3 -4.4359 2.3733 30.2647 0.0000 0.0000 0.0000
# 4 0.0000 0.0000 0.0000 15.3270 0.0000 0.0000
# 5 0.0000 0.0000 0.0000 0.0000 22.1234 0.0000
# 6 0.0000 0.0000 0.0000 0.0000 0.0000 21.0605
#
#
#
# Elastic Compliance Matrix: (Units=1/GPa)
#
#
# Indices 1 2 3 4 5 6 
#
# 1 0.011315 -0.005085 0.002057 0.000000 0.000000 0.000000
# 2 -0.005085 0.011179 -0.001622 0.000000 0.000000 0.000000
# 3 0.002057 -0.001622 0.033471 0.000000 0.000000 0.000000
# 4 0.000000 0.000000 0.000000 0.065244 0.000000 0.000000
# 5 0.000000 0.000000 0.000000 0.000000 0.045201 0.000000
# 6 0.000000 0.000000 0.000000 0.000000 0.000000 0.047482
#
#
# Mechanical properties :
#
#
# Convention : Reuss Voigt Hill
#
# Bulk Modulus (GPa) = 21.42992 38.98881 30.20937
# Shear Modulus (GPa) = 20.94271 25.46976 23.20623
#
# Velocity S-wave (km/s) = 3.21401 3.54440 3.38324
# Velocity P-wave (km/s) = 4.93389 5.99844 5.49202
#
# Compressibility (1/GPa) = 0.04666373
#
# Stress axis : x y z
#
# Youngs Moduli (GPa) = 88.37900 89.45629 29.87703
#
# Poissons Ratio (x) = 0.45492 -0.06146
# Poissons Ratio (y) = 0.44945 0.04846
# Poissons Ratio (z) = -0.18182 0.14510
#
# Static dielectric constant tensor:
#      x y z
#    x 1.711230 0.000000 0.000000 
#    y 0.000000 1.673220 0.000000 
#    z 0.000000 0.000000 1.772180 
# 
# From -- ./inp_files/5238.got.cif
#   From: 2010.05.17/outbox.cif.g08.bks.cpg/sg57_3_cif.got.tgz:5238.got - 2010.06.03 13:58:18.
