data_PCOD9434367
_publ_section_title
;
Structure prediction by ZEFSAII (Michael W. Deem and Ramdas Pophale) SiO2 
 PCOD9434367
Probable space group: P B C M
;
_chemical_formula_sum "Si O2"
_cell_formula_units_Z 64
_cell_length_a 17.836236
_cell_length_b 27.141642
_cell_length_c 8.469371
_cell_angle_alpha 90.000000
_cell_angle_beta 90.000000
_cell_angle_gamma 90.000000
_cell_volume 4100.062579
_symmetry_space_group_name_H-M "P B C M"
_symmetry_group_IT_number 57
_symmetry_cell_setting 'orthorhombic'
loop_
_space_group_symop_operation_xyz
x,y,z
-x,-y,1/2+z
x,1/2-y,-z
-x,1/2+y,1/2-z
-x,-y,-z
x,y,1/2-z
-x,1/2+y,z
x,1/2-y,1/2+z
loop_
_atom_site_type_symbol
_atom_site_label
_atom_site_fract_x
_atom_site_fract_y
_atom_site_fract_z
Si Si1 0.331791 0.935957 0.936139
Si Si2 0.593657 0.694879 0.059886
Si Si3 0.395838 0.036167 0.436980
Si Si4 0.983400 0.054963 0.061670
Si Si5 0.145396 0.423253 0.941067
Si Si6 0.710063 0.620516 0.563466
Si Si7 0.521765 0.389302 0.942090
Si Si8 0.171974 0.962755 0.437298
O O1 0.320784 0.929339 0.750000
O O2 0.392730 0.896007 0.995079
O O3 0.372202 0.988178 0.968432
O O4 0.250748 0.939292 0.014747
O O5 0.597968 0.693730 0.250000
O O6 0.524861 0.658904 0.009931
O O7 0.583247 0.750000 0.000000
O O8 0.668817 0.670365 0.989281
O O9 0.600662 0.974963 0.750000
O O10 0.332607 0.077469 0.467284
O O11 0.472167 0.063122 0.489880
O O12 0.981474 0.054037 0.250000
O O13 0.058141 0.084798 0.015090
O O14 0.900520 0.066356 0.000479
O O15 0.000000 0.000000 0.000000
O O16 0.151982 0.421017 0.750000
O O17 0.167171 0.479624 0.991497
O O18 0.203322 0.385765 0.018583
O O19 0.699443 0.613011 0.750000
O O20 0.522095 0.389828 0.750000
O O21 0.166313 0.964688 0.250000
#
# Coordination Sequence:
#
# PCOD9434367 Si02
#       8
#     8   8   8   8   8   8   8   8
#     4  11  19  28  43  63  87 119 158 191 225 270
#     4  10  20  37  55  70  92 117 146 188 236 281
#     4  10  18  30  43  59  89 122 151 189 232 265
#     4   9  17  28  42  59  83 117 157 192 225 263
#     4   9  17  29  43  60  88 120 152 190 230 264
#     4  11  20  29  46  70  91 119 157 189 224 273
#     4   8  18  32  46  64  87 116 148 187 230 273
#     4  10  19  29  41  59  88 124 157 191 233 264
#
# _framework density 15.609517
#
# number of rings (size 3 to 8) (size 9 to 14) (size 15 to 20)
#    0.000    2.250    1.250    4.875    0.000    2.500 
#    0.000    6.875    0.000    0.000    0.000    0.000 
#    0.000    1.000    0.000    6.750    0.000    4.875 
#
# Total GULP energy -356690.741607 kJ/mol
# GULP energy per Si atom -5573.292838 kJ/mol
# Density = 1.557399 g / cm^3
# Si number density = 15.609517 Si / 1000 Ang^3
#
#
#
# Elastic Constant Matrix: (Units=GPa)
#
#
# Indices 1 2 3 4 5 6 
#
# 1 149.4111 39.8170 23.2342 0.0000 0.0000 0.0000
# 2 39.8170 45.5195 3.1251 0.0000 0.0000 0.0000
# 3 23.2342 3.1251 31.7489 0.0000 0.0000 0.0000
# 4 0.0000 0.0000 0.0000 15.3006 0.0000 0.0000
# 5 0.0000 0.0000 0.0000 0.0000 20.7474 0.0000
# 6 0.0000 0.0000 0.0000 0.0000 0.0000 11.2811
#
#
#
# Elastic Compliance Matrix: (Units=1/GPa)
#
#
# Indices 1 2 3 4 5 6 
#
# 1 0.009876 -0.008198 -0.006420 0.000000 0.000000 0.000000
# 2 -0.008198 0.028923 0.003153 0.000000 0.000000 0.000000
# 3 -0.006420 0.003153 0.035885 0.000000 0.000000 0.000000
# 4 0.000000 0.000000 0.000000 0.065357 0.000000 0.000000
# 5 0.000000 0.000000 0.000000 0.000000 0.048199 0.000000
# 6 0.000000 0.000000 0.000000 0.000000 0.000000 0.088644
#
#
# Mechanical properties :
#
#
# Convention : Reuss Voigt Hill
#
# Bulk Modulus (GPa) = 19.32269 39.89243 29.60756
# Shear Modulus (GPa) = 15.76953 20.16604 17.96779
#
# Velocity S-wave (km/s) = 3.18189 3.59821 3.39644
# Velocity P-wave (km/s) = 5.08969 6.54788 5.86429
#
# Compressibility (1/GPa) = 0.05175262
#
# Stress axis : x y z
#
# Youngs Moduli (GPa) = 101.25470 34.57427 27.86650
#
# Poissons Ratio (x) = 0.28344 0.17892
# Poissons Ratio (y) = 0.83009 -0.08785
# Poissons Ratio (z) = 0.65010 -0.10900
#
# Static dielectric constant tensor:
#      x y z
#    x 1.576460 0.000000 0.000000 
#    y 0.000000 1.494090 0.000000 
#    z 0.000000 0.000000 1.531150 
# 
# From -- ./inp_files/7457.got.cif
#   From: 2010.05.17/outbox.cif.g08.bks.cpg/sg57_4_cif.got.tgz:7457.got - 2010.06.03 13:58:18.
