data_PCOD9434605
_publ_section_title
;
Structure prediction by ZEFSAII (Michael W. Deem and Ramdas Pophale) SiO2 
 PCOD9434605
Probable space group: P B C M
;
_chemical_formula_sum "Si O2"
_cell_formula_units_Z 40
_cell_length_a 26.620256
_cell_length_b 9.724917
_cell_length_c 8.615301
_cell_angle_alpha 90.000000
_cell_angle_beta 90.000000
_cell_angle_gamma 90.000000
_cell_volume 2230.327229
_symmetry_space_group_name_H-M "P B C M"
_symmetry_group_IT_number 57
_symmetry_cell_setting 'orthorhombic'
loop_
_space_group_symop_operation_xyz
x,y,z
-x,-y,1/2+z
x,1/2-y,-z
-x,1/2+y,1/2-z
-x,-y,-z
x,y,1/2-z
-x,1/2+y,z
x,1/2-y,1/2+z
loop_
_atom_site_type_symbol
_atom_site_label
_atom_site_fract_x
_atom_site_fract_y
_atom_site_fract_z
Si Si1 0.342779 0.095409 0.436688
Si Si2 0.543168 0.596905 0.435348
Si Si3 0.044699 0.593785 0.436115
Si Si4 0.255033 0.594832 0.435317
Si Si5 0.150227 0.906278 0.064177
O O1 0.336005 0.250000 0.500000
O O2 0.338044 0.095313 0.250000
O O3 0.399966 0.052135 0.477581
O O4 0.301734 0.995859 0.510281
O O5 0.536382 0.750000 0.500000
O O6 0.500000 0.500000 0.500000
O O7 0.540303 0.600389 0.250000
O O8 0.039526 0.750000 0.500000
O O9 0.044671 0.597680 0.250000
O O10 0.098298 0.536025 0.496664
O O11 0.000000 0.500000 0.500000
O O12 0.260763 0.750000 0.500000
O O13 0.251521 0.600532 0.250000
O O14 0.202822 0.534302 0.503550
O O15 0.148933 0.905693 0.250000
O O16 0.150962 0.750000 0.000000
#
# Coordination Sequence:
#
# PCOD9434605 Si02
#       5
#     8   8   8   8   8
#     4  10  21  38  57  80 109 144 179 218 268 324
#     4  10  21  37  58  81 109 142 180 221 267 318
#     4  11  21  36  56  81 110 144 182 223 270 322
#     4  11  21  35  56  82 109 141 180 225 267 314
#     4  10  18  32  53  78 107 141 178 221 268 318
#
# _framework density 17.934588000000002
#
# number of rings (size 3 to 8) (size 9 to 14) (size 15 to 20)
#    0.000    1.600    0.000    9.000    0.000    3.200 
#    0.000    1.000    0.000    0.000    0.000    0.000 
#    0.000    0.000    0.000    0.000    0.000    0.000 
#
# Total GULP energy -223357.583614 kJ/mol
# GULP energy per Si atom -5583.939590 kJ/mol
# Density = 1.789377 g / cm^3
# Si number density = 17.934588 Si / 1000 Ang^3
#
#
#
# Elastic Constant Matrix: (Units=GPa)
#
#
# Indices 1 2 3 4 5 6 
#
# 1 212.8562 85.7147 91.5146 0.0000 0.0000 0.0000
# 2 85.7147 56.9346 43.7231 0.0000 0.0000 0.0000
# 3 91.5146 43.7231 171.7053 0.0000 0.0000 0.0000
# 4 0.0000 0.0000 0.0000 30.6485 0.0000 0.0000
# 5 0.0000 0.0000 0.0000 0.0000 36.1709 0.0000
# 6 0.0000 0.0000 0.0000 0.0000 0.0000 35.7490
#
#
#
# Elastic Compliance Matrix: (Units=1/GPa)
#
#
# Indices 1 2 3 4 5 6 
#
# 1 0.012653 -0.017241 -0.002353 0.000000 0.000000 0.000000
# 2 -0.017241 0.045328 -0.002353 0.000000 0.000000 0.000000
# 3 -0.002353 -0.002353 0.007677 0.000000 0.000000 0.000000
# 4 0.000000 0.000000 0.000000 0.032628 0.000000 0.000000
# 5 0.000000 0.000000 0.000000 0.000000 0.027647 0.000000
# 6 0.000000 0.000000 0.000000 0.000000 0.000000 0.027973
#
#
# Mechanical properties :
#
#
# Convention : Reuss Voigt Hill
#
# Bulk Modulus (GPa) = 45.95068 98.15565 72.05317
# Shear Modulus (GPa) = 24.38383 35.21661 29.80022
#
# Velocity S-wave (km/s) = 3.69127 4.43608 4.08070
# Velocity P-wave (km/s) = 6.62150 9.00483 7.90352
#
# Compressibility (1/GPa) = 0.02176246
#
# Stress axis : x y z
#
# Youngs Moduli (GPa) = 79.03551 22.06162 130.25385
#
# Poissons Ratio (x) = 0.38037 0.30651
# Poissons Ratio (y) = 1.36267 0.30650
# Poissons Ratio (z) = 0.18598 0.05191
#
# Static dielectric constant tensor:
#      x y z
#    x 1.647480 0.000000 0.000000 
#    y 0.000000 1.606180 0.000000 
#    z 0.000000 0.000000 1.595930 
# 
# From -- ./inp_files/7795.got.cif
#   From: 2010.05.17/outbox.cif.g08.bks.cpg/sg57_4_cif.got.tgz:7795.got - 2010.06.03 13:58:18.
