data_PCOD9434480
_publ_section_title
;
Structure prediction by ZEFSAII (Michael W. Deem and Ramdas Pophale) SiO2 
 PCOD9434480
Probable space group: P B C M
;
_chemical_formula_sum "Si O2"
_cell_formula_units_Z 64
_cell_length_a 15.110123
_cell_length_b 30.401394
_cell_length_c 8.918152
_cell_angle_alpha 90.000000
_cell_angle_beta 90.000000
_cell_angle_gamma 90.000000
_cell_volume 4096.720807
_symmetry_space_group_name_H-M "P B C M"
_symmetry_group_IT_number 57
_symmetry_cell_setting 'orthorhombic'
loop_
_space_group_symop_operation_xyz
x,y,z
-x,-y,1/2+z
x,1/2-y,-z
-x,1/2+y,1/2-z
-x,-y,-z
x,y,1/2-z
-x,1/2+y,z
x,1/2-y,1/2+z
loop_
_atom_site_type_symbol
_atom_site_label
_atom_site_fract_x
_atom_site_fract_y
_atom_site_fract_z
Si Si1 0.873645 0.940564 0.069872
Si Si2 0.962102 0.388390 0.929756
Si Si3 0.820394 0.462391 0.930271
Si Si4 0.208204 0.204468 0.929568
Si Si5 0.000187 0.703255 0.929991
Si Si6 0.455228 0.064193 0.428463
Si Si7 0.699071 0.615062 0.930081
Si Si8 0.627520 0.468659 0.071144
O O1 0.887037 0.937020 0.250000
O O2 0.778037 0.919295 0.035656
O O3 0.869166 0.991890 0.026680
O O4 0.950000 0.912987 0.989568
O O5 0.966972 0.384197 0.750000
O O6 0.880626 0.420583 0.968464
O O7 0.954906 0.340253 0.003130
O O8 0.809759 0.463979 0.750000
O O9 0.724076 0.460947 0.003820
O O10 0.212303 0.207234 0.750000
O O11 0.264598 0.162553 0.977303
O O12 0.104576 0.198244 0.968400
O O13 0.238778 0.250000 0.000000
O O14 0.008665 0.704426 0.750000
O O15 0.029154 0.750000 0.000000
O O16 0.464091 0.066574 0.250000
O O17 0.391005 0.101470 0.490927
O O18 0.551518 0.062383 0.503102
O O19 0.405576 0.018140 0.466520
O O20 0.687156 0.614564 0.750000
O O21 0.629779 0.464539 0.250000
#
# Coordination Sequence:
#
# PCOD9434480 Si02
#       8
#     8   8   8   8   8   8   8   8
#     4  10  19  33  49  67  99 140 174 208 247 289
#     4  11  22  33  48  73 101 134 173 210 250 300
#     4  10  21  35  50  69  99 137 174 213 253 291
#     4   9  18  31  47  69  95 127 162 201 246 292
#     4  10  19  34  52  72  97 129 166 208 256 298
#     4  10  20  32  49  73  98 126 161 202 247 293
#     4  10  18  31  50  71  98 132 168 202 245 296
#     4  10  20  33  50  72  96 127 165 205 247 292
#
# _framework density 15.622251
#
# number of rings (size 3 to 8) (size 9 to 14) (size 15 to 20)
#    0.000    2.000    2.500    1.875    0.000    4.000 
#    0.000    0.000    0.000    0.000    0.000    0.875 
#    0.000    2.000    0.000    0.000    0.000    0.000 
#
# Total GULP energy -357125.828861 kJ/mol
# GULP energy per Si atom -5580.091076 kJ/mol
# Density = 1.558669 g / cm^3
# Si number density = 15.622251 Si / 1000 Ang^3
#
#
#
# Elastic Constant Matrix: (Units=GPa)
#
#
# Indices 1 2 3 4 5 6 
#
# 1 69.2431 44.6034 29.3591 0.0000 0.0000 0.0000
# 2 44.6034 132.8120 40.0318 0.0000 0.0000 0.0000
# 3 29.3591 40.0318 25.1381 0.0000 0.0000 0.0000
# 4 0.0000 0.0000 0.0000 26.8686 0.0000 0.0000
# 5 0.0000 0.0000 0.0000 0.0000 26.0313 0.0000
# 6 0.0000 0.0000 0.0000 0.0000 0.0000 22.0643
#
#
#
# Elastic Compliance Matrix: (Units=1/GPa)
#
#
# Indices 1 2 3 4 5 6 
#
# 1 0.028664 0.000892 -0.034898 0.000000 0.000000 0.000000
# 2 0.000892 0.014507 -0.024145 0.000000 0.000000 0.000000
# 3 -0.034898 -0.024145 0.118988 0.000000 0.000000 0.000000
# 4 0.000000 0.000000 0.000000 0.037218 0.000000 0.000000
# 5 0.000000 0.000000 0.000000 0.000000 0.038415 0.000000
# 6 0.000000 0.000000 0.000000 0.000000 0.000000 0.045322
#
#
# Mechanical properties :
#
#
# Convention : Reuss Voigt Hill
#
# Bulk Modulus (GPa) = 21.80628 50.57576 36.19102
# Shear Modulus (GPa) = 12.05688 22.53945 17.29816
#
# Velocity S-wave (km/s) = 2.78110 3.80251 3.33119
# Velocity P-wave (km/s) = 4.92965 7.19189 6.16542
#
# Compressibility (1/GPa) = 0.04585834
#
# Stress axis : x y z
#
# Youngs Moduli (GPa) = 34.88742 68.93012 8.40423
#
# Poissons Ratio (x) = -0.06151 0.29329
# Poissons Ratio (y) = -0.03113 0.20292
# Poissons Ratio (z) = 1.21749 1.66432
#
# Static dielectric constant tensor:
#      x y z
#    x 1.493140 0.000000 0.000000 
#    y 0.000000 1.523390 0.000000 
#    z 0.000000 0.000000 1.521380 
# 
# From -- ./inp_files/6025.got.cif
#   From: 2010.05.17/outbox.cif.g08.bks.cpg/sg57_4_cif.got.tgz:6025.got - 2010.06.03 13:58:18.
