data_PCOD9434810
_publ_section_title
;
Structure prediction by ZEFSAII (Michael W. Deem and Ramdas Pophale) SiO2 
 PCOD9434810
Probable space group: P B C M
;
_chemical_formula_sum "Si O2"
_cell_formula_units_Z 56
_cell_length_a 9.313708
_cell_length_b 20.305428
_cell_length_c 16.310088
_cell_angle_alpha 90.000000
_cell_angle_beta 90.000000
_cell_angle_gamma 90.000000
_cell_volume 3084.544714
_symmetry_space_group_name_H-M "P B C M"
_symmetry_group_IT_number 57
_symmetry_cell_setting 'orthorhombic'
loop_
_space_group_symop_operation_xyz
x,y,z
-x,-y,1/2+z
x,1/2-y,-z
-x,1/2+y,1/2-z
-x,-y,-z
x,y,1/2-z
-x,1/2+y,z
x,1/2-y,1/2+z
loop_
_atom_site_type_symbol
_atom_site_label
_atom_site_fract_x
_atom_site_fract_y
_atom_site_fract_z
Si Si1 0.831999 0.128908 0.930045
Si Si2 0.218984 0.761450 0.652350
Si Si3 0.053900 0.307171 0.555942
Si Si4 0.771787 0.482650 0.554684
Si Si5 0.722403 0.583021 0.082319
Si Si6 0.587599 0.110607 0.152813
Si Si7 0.947218 0.011171 0.657775
O O1 0.750817 0.192921 0.895399
O O2 0.906624 0.087136 0.858007
O O3 0.753188 0.074014 0.985094
O O4 0.952895 0.154264 0.992170
O O5 0.226149 0.752062 0.750000
O O6 0.322564 0.823027 0.630143
O O7 0.057370 0.781039 0.624183
O O8 0.118882 0.250000 0.500000
O O9 0.176064 0.353914 0.588049
O O10 0.728308 0.549483 0.508150
O O11 0.677973 0.454196 0.628367
O O12 0.932931 0.490188 0.590784
O O13 0.563696 0.602428 0.108090
O O14 0.803159 0.530432 0.140717
O O15 0.565653 0.113411 0.250000
O O16 0.998697 0.999842 0.750000
#
# Coordination Sequence:
#
# PCOD9434810 Si02
#       7
#     8   8   8   8   8   8   8
#     4  10  18  36  58  85 113 145 193 234 278 343
#     4  10  21  36  58  83 114 150 189 239 285 335
#     4  10  19  36  59  83 110 143 189 235 280 335
#     4  11  20  37  59  84 114 151 193 235 284 346
#     4  11  21  38  55  84 116 149 192 234 286 342
#     4  11  23  37  55  83 115 153 193 232 284 341
#     4  11  20  33  61  91 118 148 187 244 293 337
#
# _framework density 18.15503
#
# number of rings (size 3 to 8) (size 9 to 14) (size 15 to 20)
#    0.000    1.429    4.286    2.571    0.000    2.286 
#    2.571    0.000    0.000    0.000    0.000    0.000 
#    0.000    0.000    0.000    0.000    0.000    0.000 
#
# Total GULP energy -312123.935366 kJ/mol
# GULP energy per Si atom -5573.641703 kJ/mol
# Density = 1.811371 g / cm^3
# Si number density = 18.155030 Si / 1000 Ang^3
#
#
#
# Elastic Constant Matrix: (Units=GPa)
#
#
# Indices 1 2 3 4 5 6 
#
# 1 58.9122 15.8108 17.7021 0.0000 0.0000 0.0000
# 2 15.8108 55.8820 23.3094 0.0000 0.0000 0.0000
# 3 17.7021 23.3094 68.9021 0.0000 0.0000 0.0000
# 4 0.0000 0.0000 0.0000 24.0350 0.0000 0.0000
# 5 0.0000 0.0000 0.0000 0.0000 19.7409 0.0000
# 6 0.0000 0.0000 0.0000 0.0000 0.0000 14.2837
#
#
#
# Elastic Compliance Matrix: (Units=1/GPa)
#
#
# Indices 1 2 3 4 5 6 
#
# 1 0.019101 -0.003909 -0.003585 0.000000 0.000000 0.000000
# 2 -0.003909 0.021635 -0.006315 0.000000 0.000000 0.000000
# 3 -0.003585 -0.006315 0.017571 0.000000 0.000000 0.000000
# 4 0.000000 0.000000 0.000000 0.041606 0.000000 0.000000
# 5 0.000000 0.000000 0.000000 0.000000 0.050656 0.000000
# 6 0.000000 0.000000 0.000000 0.000000 0.000000 0.070010
#
#
# Mechanical properties :
#
#
# Convention : Reuss Voigt Hill
#
# Bulk Modulus (GPa) = 32.58492 33.03789 32.81141
# Shear Modulus (GPa) = 19.34798 20.07018 19.70908
#
# Velocity S-wave (km/s) = 3.26806 3.32850 3.29842
# Velocity P-wave (km/s) = 5.67692 5.74535 5.71124
#
# Compressibility (1/GPa) = 0.03068904
#
# Stress axis : x y z
#
# Youngs Moduli (GPa) = 52.35417 46.22192 56.91318
#
# Poissons Ratio (x) = 0.18067 0.20403
# Poissons Ratio (y) = 0.20464 0.35939
# Poissons Ratio (z) = 0.18769 0.29188
#
# Static dielectric constant tensor:
#      x y z
#    x 1.609260 0.000000 0.000000 
#    y 0.000000 1.681790 0.000000 
#    z 0.000000 0.000000 1.656980 
# 
# From -- ./inp_files/16722.got.cif
#   From: 2010.05.17/outbox.cif.g08.bks.cpg/sg57_9_cif.got.tgz:16722.got - 2010.06.03 13:58:18.
