data_PCOD9434813
_publ_section_title
;
Structure prediction by ZEFSAII (Michael W. Deem and Ramdas Pophale) SiO2 
 PCOD9434813
Probable space group: P B C M
;
_chemical_formula_sum "Si O2"
_cell_formula_units_Z 64
_cell_length_a 14.853778
_cell_length_b 25.696399
_cell_length_c 8.557342
_cell_angle_alpha 90.000000
_cell_angle_beta 90.000000
_cell_angle_gamma 90.000000
_cell_volume 3266.239940
_symmetry_space_group_name_H-M "P B C M"
_symmetry_group_IT_number 57
_symmetry_cell_setting 'orthorhombic'
loop_
_space_group_symop_operation_xyz
x,y,z
-x,-y,1/2+z
x,1/2-y,-z
-x,1/2+y,1/2-z
-x,-y,-z
x,y,1/2-z
-x,1/2+y,z
x,1/2-y,1/2+z
loop_
_atom_site_type_symbol
_atom_site_label
_atom_site_fract_x
_atom_site_fract_y
_atom_site_fract_z
Si Si1 0.180888 0.304421 0.564078
Si Si2 0.992600 0.335902 0.065435
Si Si3 0.968070 0.054535 0.069107
Si Si4 0.207485 0.978765 0.433065
Si Si5 0.354884 0.894318 0.066786
Si Si6 0.724457 0.910034 0.940221
Si Si7 0.789402 0.192824 0.939271
Si Si8 0.473614 0.443128 0.935644
O O1 0.217492 0.250000 0.500000
O O2 0.187345 0.304130 0.750000
O O3 0.076062 0.308726 0.517540
O O4 0.232712 0.355974 0.504275
O O5 0.997729 0.326090 0.250000
O O6 0.892215 0.320043 0.009577
O O7 0.003105 0.396870 0.028174
O O8 0.992672 0.060284 0.250000
O O9 0.861274 0.051470 0.042277
O O10 0.000000 0.000000 0.000000
O O11 0.178120 0.974693 0.250000
O O12 0.302037 0.949269 0.442432
O O13 0.216625 0.038908 0.478057
O O14 0.373430 0.884561 0.250000
O O15 0.284860 0.849946 0.011642
O O16 0.447766 0.902528 0.978037
O O17 0.722914 0.908198 0.750000
O O18 0.623075 0.922399 0.994414
O O19 0.790819 0.191653 0.750000
O O20 0.766057 0.250000 0.000000
O O21 0.466676 0.448417 0.750000
O O22 0.500000 0.500000 0.000000
#
# Coordination Sequence:
#
# PCOD9434813 Si02
#       8
#     8   8   8   8   8   8   8   8
#     4  11  23  41  62  87 117 158 203 249 299 352
#     4  11  22  40  62  87 117 156 202 254 302 353
#     4  12  24  36  53  83 121 161 203 246 298 360
#     4  10  18  36  60  82 117 156 191 239 300 357
#     4  10  20  38  60  86 120 156 192 242 302 352
#     4   9  20  38  61  85 116 155 194 238 299 359
#     4  10  22  39  60  85 119 159 198 242 296 352
#     4  11  21  37  61  91 120 154 195 244 300 363
#
# _framework density 19.594394999999999
#
# number of rings (size 3 to 8) (size 9 to 14) (size 15 to 20)
#    0.000    1.500    2.500    3.375    0.000    4.000 
#    0.000    3.750    0.000    3.000    0.000    0.000 
#    0.000    0.000    0.000    0.000    0.000    0.000 
#
# Total GULP energy -357485.597421 kJ/mol
# GULP energy per Si atom -5585.712460 kJ/mol
# Density = 1.954980 g / cm^3
# Si number density = 19.594395 Si / 1000 Ang^3
#
#
#
# Elastic Constant Matrix: (Units=GPa)
#
#
# Indices 1 2 3 4 5 6 
#
# 1 82.6837 38.1250 12.8711 0.0000 0.0000 0.0000
# 2 38.1250 140.8246 9.3133 0.0000 0.0000 0.0000
# 3 12.8711 9.3133 25.3284 0.0000 0.0000 0.0000
# 4 0.0000 0.0000 0.0000 31.2147 0.0000 0.0000
# 5 0.0000 0.0000 0.0000 0.0000 25.9592 0.0000
# 6 0.0000 0.0000 0.0000 0.0000 0.0000 16.3156
#
#
#
# Elastic Compliance Matrix: (Units=1/GPa)
#
#
# Indices 1 2 3 4 5 6 
#
# 1 0.014700 -0.003573 -0.006156 0.000000 0.000000 0.000000
# 2 -0.003573 0.008146 -0.001180 0.000000 0.000000 0.000000
# 3 -0.006156 -0.001180 0.043044 0.000000 0.000000 0.000000
# 4 0.000000 0.000000 0.000000 0.032036 0.000000 0.000000
# 5 0.000000 0.000000 0.000000 0.000000 0.038522 0.000000
# 6 0.000000 0.000000 0.000000 0.000000 0.000000 0.061291
#
#
# Mechanical properties :
#
#
# Convention : Reuss Voigt Hill
#
# Bulk Modulus (GPa) = 22.69007 41.05061 31.87034
# Shear Modulus (GPa) = 21.34493 27.26639 24.30566
#
# Velocity S-wave (km/s) = 3.30409 3.73438 3.52581
# Velocity P-wave (km/s) = 5.11479 6.29204 5.73371
#
# Compressibility (1/GPa) = 0.04407213
#
# Stress axis : x y z
#
# Youngs Moduli (GPa) = 68.02771 122.75607 23.23218
#
# Poissons Ratio (x) = 0.43855 0.14303
# Poissons Ratio (y) = 0.24303 0.02741
# Poissons Ratio (z) = 0.41881 0.14485
#
# Static dielectric constant tensor:
#      x y z
#    x 1.729100 0.000000 0.000000 
#    y 0.000000 1.721110 0.000000 
#    z 0.000000 0.000000 1.678110 
# 
# From -- ./inp_files/5767.got.cif
#   From: 2010.05.17/outbox.cif.g08.bks.cpg/sg57_3_cif.got.tgz:5767.got - 2010.06.03 13:58:18.
