data_PCOD9434751
_publ_section_title
;
Structure prediction by ZEFSAII (Michael W. Deem and Ramdas Pophale) SiO2 
 PCOD9434751
Probable space group: P B C M
;
_chemical_formula_sum "Si O2"
_cell_formula_units_Z 60
_cell_length_a 17.156940
_cell_length_b 20.314985
_cell_length_c 8.138252
_cell_angle_alpha 90.000000
_cell_angle_beta 90.000000
_cell_angle_gamma 90.000000
_cell_volume 2836.530594
_symmetry_space_group_name_H-M "P B C M"
_symmetry_group_IT_number 57
_symmetry_cell_setting 'orthorhombic'
loop_
_space_group_symop_operation_xyz
x,y,z
-x,-y,1/2+z
x,1/2-y,-z
-x,1/2+y,1/2-z
-x,-y,-z
x,y,1/2-z
-x,1/2+y,z
x,1/2-y,1/2+z
loop_
_atom_site_type_symbol
_atom_site_label
_atom_site_fract_x
_atom_site_fract_y
_atom_site_fract_z
Si Si1 0.457810 0.676712 0.945149
Si Si2 0.263854 0.469855 0.052031
Si Si3 0.301205 0.613898 0.447939
Si Si4 0.146298 0.677663 0.448698
Si Si5 0.129544 0.373211 0.438310
Si Si6 0.023394 0.927062 0.938830
Si Si7 0.238278 0.250000 0.500000
Si Si8 0.634639 0.650714 0.548978
O O1 0.460600 0.673474 0.750000
O O2 0.546013 0.662099 0.001607
O O3 0.437221 0.750000 0.000000
O O4 0.389012 0.630151 0.004556
O O5 0.254924 0.473791 0.250000
O O6 0.275206 0.542574 0.987869
O O7 0.188818 0.428898 0.995869
O O8 0.338365 0.423779 0.022707
O O9 0.298503 0.612388 0.250000
O O10 0.235673 0.665804 0.503096
O O11 0.118538 0.750000 0.500000
O O12 0.143706 0.675904 0.250000
O O13 0.094415 0.616073 0.511806
O O14 0.108277 0.388895 0.250000
O O15 0.051432 0.379390 0.541531
O O16 0.176612 0.304315 0.433354
O O17 0.043907 0.937443 0.750000
O O18 0.000000 0.000000 0.000000
O O19 0.304854 0.303689 0.551563
O O20 0.644990 0.664338 0.750000
#
# Coordination Sequence:
#
# PCOD9434751 Si02
#       8
#     8   8   8   8   8   8   4   8
#     4  11  22  36  55  82 114 148 192 241 292 348
#     4   8  16  34  58  82 113 154 193 230 286 351
#     4  10  20  37  60  83 110 147 194 242 290 347
#     4  10  23  41  61  86 117 156 201 248 298 355
#     4  10  21  37  61  90 121 157 196 239 293 355
#     4  11  24  42  64  91 122 159 203 251 305 365
#     4  10  18  34  58  88 120 156 192 236 286 350
#     4   9  18  33  54  81 116 156 191 233 288 349
#
# _framework density 21.152601000000001
#
# number of rings (size 3 to 8) (size 9 to 14) (size 15 to 20)
#    0.000    2.133    0.667    3.200    0.933    6.400 
#    0.000    2.000    0.000    2.400    0.000    0.000 
#    0.000    0.000    0.000    0.000    0.000    0.000 
#
# Total GULP energy -334157.156797 kJ/mol
# GULP energy per Si atom -5569.285947 kJ/mol
# Density = 2.110446 g / cm^3
# Si number density = 21.152601 Si / 1000 Ang^3
#
#
#
# Elastic Constant Matrix: (Units=GPa)
#
#
# Indices 1 2 3 4 5 6 
#
# 1 94.5955 30.1417 3.6542 0.0000 0.0000 0.0000
# 2 30.1417 101.4135 12.1329 0.0000 0.0000 0.0000
# 3 3.6542 12.1329 15.9412 0.0000 0.0000 0.0000
# 4 0.0000 0.0000 0.0000 16.9901 0.0000 0.0000
# 5 0.0000 0.0000 0.0000 0.0000 -5.6283 0.0000
# 6 0.0000 0.0000 0.0000 0.0000 0.0000 27.4100
#
#
#
# Elastic Compliance Matrix: (Units=1/GPa)
#
#
# Indices 1 2 3 4 5 6 
#
# 1 0.011677 -0.003466 -0.000039 0.000000 0.000000 0.000000
# 2 -0.003466 0.011877 -0.008245 0.000000 0.000000 0.000000
# 3 -0.000039 -0.008245 0.069015 0.000000 0.000000 0.000000
# 4 0.000000 0.000000 0.000000 0.058858 0.000000 0.000000
# 5 0.000000 0.000000 0.000000 0.000000 -0.177672 0.000000
# 6 0.000000 0.000000 0.000000 0.000000 0.000000 0.036483
#
#
# Mechanical properties :
#
#
# Convention : Reuss Voigt Hill
#
# Bulk Modulus (GPa) = 14.47820 33.75643 24.11731
# Shear Modulus (GPa) = 88.08781 18.82245 53.45513
#
# Velocity S-wave (km/s) = 6.46021 2.98626 5.03250
# Velocity P-wave (km/s) = 7.90603 5.28048 6.72268
#
# Compressibility (1/GPa) = 0.06906937
#
# Stress axis : x y z
#
# Youngs Moduli (GPa) = 85.63674 84.19473 14.48958
#
# Poissons Ratio (x) = 0.29182 0.00056
# Poissons Ratio (y) = 0.29682 0.11947
# Poissons Ratio (z) = 0.00332 0.69421
#
# Static dielectric constant tensor:
#      x y z
#    x 1.764420 0.000000 0.000000 
#    y 0.000000 1.769870 0.000000 
#    z 0.000000 0.000000 1.781150 
# 
# From -- ./inp_files/6868.got.cif
#   From: 2010.05.17/outbox.cif.g08.bks.cpg/sg57_4_cif.got.tgz:6868.got - 2010.06.03 13:58:18.
