data_PCOD9434620
_publ_section_title
;
Structure prediction by ZEFSAII (Michael W. Deem and Ramdas Pophale) SiO2 
 PCOD9434620
Probable space group: P B C M
;
_chemical_formula_sum "Si O2"
_cell_formula_units_Z 32
_cell_length_a 21.457558
_cell_length_b 9.196131
_cell_length_c 8.562695
_cell_angle_alpha 90.000000
_cell_angle_beta 90.000000
_cell_angle_gamma 90.000000
_cell_volume 1689.646757
_symmetry_space_group_name_H-M "P B C M"
_symmetry_group_IT_number 57
_symmetry_cell_setting 'orthorhombic'
loop_
_space_group_symop_operation_xyz
x,y,z
-x,-y,1/2+z
x,1/2-y,-z
-x,1/2+y,1/2-z
-x,-y,-z
x,y,1/2-z
-x,1/2+y,z
x,1/2-y,1/2+z
loop_
_atom_site_type_symbol
_atom_site_label
_atom_site_fract_x
_atom_site_fract_y
_atom_site_fract_z
Si Si1 0.810346 0.916081 0.436837
Si Si2 0.059542 0.414846 0.936858
Si Si3 0.679427 0.584535 0.062981
Si Si4 0.440078 0.913775 0.562821
O O1 0.810484 0.750000 0.500000
O O2 0.810110 0.915336 0.250000
O O3 0.875110 0.980089 0.500065
O O4 0.745489 0.977697 0.501575
O O5 0.060630 0.413417 0.750000
O O6 0.055594 0.250000 0.000000
O O7 0.000000 0.500000 0.000000
O O8 0.679741 0.588050 0.250000
O O9 0.673440 0.750000 0.000000
O O10 0.621894 0.492226 0.999783
O O11 0.442345 0.750000 0.500000
O O12 0.440309 0.914460 0.750000
O O13 0.500000 0.000000 0.500000
#
# Coordination Sequence:
#
# PCOD9434620 Si02
#       4
#     8   8   8   8
#     4  10  18  32  54  82 112 148 189 234 281 336
#     4  11  21  36  56  82 113 150 191 237 286 340
#     4  11  21  37  60  88 117 151 190 235 283 336
#     4  12  25  43  63  88 118 153 191 234 282 336
#
# _framework density 18.938870000000001
#
# number of rings (size 3 to 8) (size 9 to 14) (size 15 to 20)
#    0.000    1.000    0.000   12.750    0.000    0.000 
#    0.000    1.250    0.000    0.000    0.000    0.000 
#    0.000    0.000    0.000    0.000    0.000    0.000 
#
# Total GULP energy -178898.207620 kJ/mol
# GULP energy per Si atom -5590.568988 kJ/mol
# Density = 1.889576 g / cm^3
# Si number density = 18.938870 Si / 1000 Ang^3
#
#
#
# Elastic Constant Matrix: (Units=GPa)
#
#
# Indices 1 2 3 4 5 6 
#
# 1 243.3310 79.9491 105.4729 0.0000 0.0000 0.0000
# 2 79.9491 77.7438 50.3090 0.0000 0.0000 0.0000
# 3 105.4729 50.3090 257.7466 0.0000 0.0000 0.0000
# 4 0.0000 0.0000 0.0000 29.1190 0.0000 0.0000
# 5 0.0000 0.0000 0.0000 0.0000 41.2220 0.0000
# 6 0.0000 0.0000 0.0000 0.0000 0.0000 35.3735
#
#
#
# Elastic Compliance Matrix: (Units=1/GPa)
#
#
# Indices 1 2 3 4 5 6 
#
# 1 0.006743 -0.005893 -0.001609 0.000000 0.000000 0.000000
# 2 -0.005893 0.019873 -0.001467 0.000000 0.000000 0.000000
# 3 -0.001609 -0.001467 0.004825 0.000000 0.000000 0.000000
# 4 0.000000 0.000000 0.000000 0.034342 0.000000 0.000000
# 5 0.000000 0.000000 0.000000 0.000000 0.024259 0.000000
# 6 0.000000 0.000000 0.000000 0.000000 0.000000 0.028270
#
#
# Mechanical properties :
#
#
# Convention : Reuss Voigt Hill
#
# Bulk Modulus (GPa) = 74.06743 116.69815 95.38279
# Shear Modulus (GPa) = 35.52355 44.01561 39.76958
#
# Velocity S-wave (km/s) = 4.33563 4.82611 4.58743
# Velocity P-wave (km/s) = 8.01606 9.63365 8.86184
#
# Compressibility (1/GPa) = 0.01350121
#
# Stress axis : x y z
#
# Youngs Moduli (GPa) = 148.29104 50.31985 207.26802
#
# Poissons Ratio (x) = 0.29656 0.33353
# Poissons Ratio (y) = 0.87395 0.30412
# Poissons Ratio (z) = 0.23863 0.07383
#
# Static dielectric constant tensor:
#      x y z
#    x 1.694070 0.000000 0.000000 
#    y 0.000000 1.662900 0.000000 
#    z 0.000000 0.000000 1.625040 
# 
# From -- ./inp_files/7543.got.cif
#   From: 2010.05.17/outbox.cif.g08.bks.cpg/sg57_4_cif.got.tgz:7543.got - 2010.06.03 13:58:18.
