data_PCOD9434150
_publ_section_title
;
Structure prediction by ZEFSAII (Michael W. Deem and Ramdas Pophale) SiO2 
 PCOD9434150
Probable space group: P B C M
;
_chemical_formula_sum "Si O2"
_cell_formula_units_Z 64
_cell_length_a 11.845818
_cell_length_b 16.701469
_cell_length_c 17.522251
_cell_angle_alpha 90.000000
_cell_angle_beta 90.000000
_cell_angle_gamma 90.000000
_cell_volume 3466.647032
_symmetry_space_group_name_H-M "P B C M"
_symmetry_group_IT_number 57
_symmetry_cell_setting 'orthorhombic'
loop_
_space_group_symop_operation_xyz
x,y,z
-x,-y,1/2+z
x,1/2-y,-z
-x,1/2+y,1/2-z
-x,-y,-z
x,y,1/2-z
-x,1/2+y,z
x,1/2-y,1/2+z
loop_
_atom_site_type_symbol
_atom_site_label
_atom_site_fract_x
_atom_site_fract_y
_atom_site_fract_z
Si Si1 0.244546 0.338845 0.466702
Si Si2 0.081024 0.045437 0.439213
Si Si3 0.844476 0.124546 0.596004
Si Si4 0.650307 0.216243 0.836760
Si Si5 0.710800 0.131518 0.441943
Si Si6 0.884327 0.051563 0.336493
Si Si7 0.917896 0.860062 0.336594
Si Si8 0.499425 0.340606 0.034127
O O1 0.246477 0.250000 0.500000
O O2 0.162517 0.394685 0.516809
O O3 0.190817 0.332327 0.382875
O O4 0.372258 0.371495 0.466639
O O5 0.995486 0.085701 0.379041
O O6 0.149485 0.971918 0.402328
O O7 0.000000 0.000000 0.500000
O O8 0.757864 0.158371 0.657330
O O9 0.795614 0.148598 0.512852
O O10 0.968691 0.156999 0.615362
O O11 0.623583 0.237185 0.750000
O O12 0.685457 0.292981 0.887612
O O13 0.549628 0.171514 0.881371
O O14 0.775568 0.068608 0.388699
O O15 0.591994 0.112076 0.483475
O O16 0.870484 0.081472 0.250000
O O17 0.906842 0.956671 0.333669
O O18 0.926264 0.830313 0.250000
O O19 0.497736 0.250000 0.000000
#
# Coordination Sequence:
#
# PCOD9434150 Si02
#       8
#     8   8   8   8   8   8   8   8
#     4  11  21  37  59  82 104 141 188 226 258 321
#     4  11  19  38  56  79 110 147 180 211 277 327
#     4  10  18  33  53  75 109 143 180 218 267 337
#     4  10  20  33  53  81 110 141 180 232 281 316
#     4  10  17  33  54  78 106 140 187 231 267 318
#     4  10  19  33  55  81 111 143 176 221 275 328
#     4  10  20  34  52  77 111 144 173 218 280 332
#     4   8  19  35  53  75 105 143 183 222 274 320
#
# _framework density 18.461644
#
# number of rings (size 3 to 8) (size 9 to 14) (size 15 to 20)
#    0.000    2.000    3.750    1.875    0.000    3.000 
#    0.000    7.500    0.000    3.750    0.000    0.000 
#    0.000    0.000    0.000    0.000    0.000    0.000 
#
# Total GULP energy -356782.059065 kJ/mol
# GULP energy per Si atom -5574.719673 kJ/mol
# Density = 1.841962 g / cm^3
# Si number density = 18.461644 Si / 1000 Ang^3
#
#
#
# Elastic Constant Matrix: (Units=GPa)
#
#
# Indices 1 2 3 4 5 6 
#
# 1 148.4595 24.3644 68.2161 0.0000 0.0000 0.0000
# 2 24.3644 23.7227 9.3160 0.0000 0.0000 0.0000
# 3 68.2161 9.3160 139.8335 0.0000 0.0000 0.0000
# 4 0.0000 0.0000 0.0000 24.0875 0.0000 0.0000
# 5 0.0000 0.0000 0.0000 0.0000 8.4407 0.0000
# 6 0.0000 0.0000 0.0000 0.0000 0.0000 32.9159
#
#
#
# Elastic Compliance Matrix: (Units=1/GPa)
#
#
# Indices 1 2 3 4 5 6 
#
# 1 0.010186 -0.008738 -0.004387 0.000000 0.000000 0.000000
# 2 -0.008738 0.050783 0.000880 0.000000 0.000000 0.000000
# 3 -0.004387 0.000880 0.009233 0.000000 0.000000 0.000000
# 4 0.000000 0.000000 0.000000 0.041515 0.000000 0.000000
# 5 0.000000 0.000000 0.000000 0.000000 0.118474 0.000000
# 6 0.000000 0.000000 0.000000 0.000000 0.000000 0.030380
#
#
# Mechanical properties :
#
#
# Convention : Reuss Voigt Hill
#
# Bulk Modulus (GPa) = 21.87684 57.31210 39.59447
# Shear Modulus (GPa) = 16.65006 27.09676 21.87341
#
# Velocity S-wave (km/s) = 3.00638 3.83526 3.44583
# Velocity P-wave (km/s) = 4.89149 7.12204 6.10943
#
# Compressibility (1/GPa) = 0.04571045
#
# Stress axis : x y z
#
# Youngs Moduli (GPa) = 98.17728 19.69157 108.30963
#
# Poissons Ratio (x) = 0.17207 0.47513
# Poissons Ratio (y) = 0.85792 -0.09528
# Poissons Ratio (z) = 0.43068 -0.01732
#
# Static dielectric constant tensor:
#      x y z
#    x 1.652400 0.000000 0.000000 
#    y 0.000000 1.656850 0.000000 
#    z 0.000000 0.000000 1.665530 
# 
# From -- ./inp_files/22147.got.cif
#   From: 2010.05.17/outbox.cif.g08.bks.cpg/sg57_12_cif.got.tgz:22147.got - 2010.06.03 13:58:18.
