data_PCOD9434437
_publ_section_title
;
Structure prediction by ZEFSAII (Michael W. Deem and Ramdas Pophale) SiO2 
 PCOD9434437
Probable space group: P B C M
;
_chemical_formula_sum "Si O2"
_cell_formula_units_Z 32
_cell_length_a 20.128463
_cell_length_b 7.366170
_cell_length_c 9.291336
_cell_angle_alpha 90.000000
_cell_angle_beta 90.000000
_cell_angle_gamma 90.000000
_cell_volume 1377.623418
_symmetry_space_group_name_H-M "P B C M"
_symmetry_group_IT_number 57
_symmetry_cell_setting 'orthorhombic'
loop_
_space_group_symop_operation_xyz
x,y,z
-x,-y,1/2+z
x,1/2-y,-z
-x,1/2+y,1/2-z
-x,-y,-z
x,y,1/2-z
-x,1/2+y,z
x,1/2-y,1/2+z
loop_
_atom_site_type_symbol
_atom_site_label
_atom_site_fract_x
_atom_site_fract_y
_atom_site_fract_z
Si Si1 0.095656 0.548776 0.250000
Si Si2 0.430818 0.054564 0.574290
Si Si3 0.841185 0.969525 0.974006
Si Si4 0.056150 0.123983 0.250000
Si Si5 0.694098 0.943276 0.917980
O O1 0.141228 0.582012 0.385939
O O2 0.080609 0.331645 0.250000
O O3 0.022647 0.630481 0.250000
O O4 0.423140 0.250000 0.500000
O O5 0.433551 0.051044 0.750000
O O6 0.364178 0.960029 0.510577
O O7 0.500000 0.000000 0.500000
O O8 0.908327 0.978006 0.881008
O O9 0.768642 0.023224 0.917596
O O10 0.836657 0.750000 0.000000
O O11 0.673791 0.920100 0.750000
O O12 0.703140 0.750000 0.000000
#
# Coordination Sequence:
#
# PCOD9434437 Si02
#       5
#     4   8   8   4   8
#     4  10  20  30  52  68 103 126 172 208 265 312
#     4  11  22  37  59  87 118 150 187 228 279 332
#     4   9  18  29  48  73 101 129 170 216 262 306
#     4  10  18  34  46  76  93 136 162 216 259 316
#     4  10  18  30  51  79 108 136 178 226 270 313
#
# _framework density 23.228408999999999
#
# number of rings (size 3 to 8) (size 9 to 14) (size 15 to 20)
#    0.000    2.000    1.250    5.250    7.000    0.000 
#    0.000    0.000    0.000    3.000    0.000    0.000 
#    0.000    0.000    0.000    0.000    0.000    0.000 
#
# Total GULP energy -178182.766767 kJ/mol
# GULP energy per Si atom -5568.211461 kJ/mol
# Density = 2.317554 g / cm^3
# Si number density = 23.228409 Si / 1000 Ang^3
#
#
#
# Elastic Constant Matrix: (Units=GPa)
#
#
# Indices 1 2 3 4 5 6 
#
# 1 206.3065 14.2246 83.6947 0.0000 0.0000 0.0000
# 2 14.2246 41.8545 9.5418 0.0000 0.0000 0.0000
# 3 83.6947 9.5418 210.5551 0.0000 0.0000 0.0000
# 4 0.0000 0.0000 0.0000 -284.0936 0.0000 0.0000
# 5 0.0000 0.0000 0.0000 0.0000 42.8236 0.0000
# 6 0.0000 0.0000 0.0000 0.0000 0.0000 24.5772
#
#
#
# Elastic Compliance Matrix: (Units=1/GPa)
#
#
# Indices 1 2 3 4 5 6 
#
# 1 0.005868 -0.001478 -0.002266 0.000000 0.000000 0.000000
# 2 -0.001478 0.024514 -0.000523 0.000000 0.000000 0.000000
# 3 -0.002266 -0.000523 0.005674 0.000000 0.000000 0.000000
# 4 0.000000 0.000000 0.000000 -0.003520 0.000000 0.000000
# 5 0.000000 0.000000 0.000000 0.000000 0.023352 0.000000
# 6 0.000000 0.000000 0.000000 0.000000 0.000000 0.040688
#
#
# Mechanical properties :
#
#
# Convention : Reuss Voigt Hill
#
# Bulk Modulus (GPa) = 36.33473 74.84869 55.59171
# Shear Modulus (GPa) = 43.75094 -19.92155 11.91469
#
# Velocity S-wave (km/s) = 4.34465 -2.93172 2.26727
# Velocity P-wave (km/s) = 6.39096 4.56430 5.55325
#
# Compressibility (1/GPa) = 0.02752188
#
# Stress axis : x y z
#
# Youngs Moduli (GPa) = 170.41105 40.79319 176.25377
#
# Poissons Ratio (x) = 0.06029 0.39932
# Poissons Ratio (y) = 0.25184 0.09226
# Poissons Ratio (z) = 0.38608 0.02135
#
# Static dielectric constant tensor:
#      x y z
#    x 1.979440 0.000000 0.000000 
#    y 0.000000 1.002790 0.000000 
#    z 0.000000 0.000000 1.903450 
# 
# From -- ./inp_files/4059.got.cif
#   From: 2010.05.17/outbox.cif.g08.bks.cpg/sg57_3_cif.got.tgz:4059.got - 2010.06.03 13:58:18.
