data_PCOD9434603
_publ_section_title
;
Structure prediction by ZEFSAII (Michael W. Deem and Ramdas Pophale) SiO2 
 PCOD9434603
Probable space group: P B C M
;
_chemical_formula_sum "Si O2"
_cell_formula_units_Z 24
_cell_length_a 9.385573
_cell_length_b 16.656213
_cell_length_c 8.565843
_cell_angle_alpha 90.000000
_cell_angle_beta 90.000000
_cell_angle_gamma 90.000000
_cell_volume 1339.081987
_symmetry_space_group_name_H-M "P B C M"
_symmetry_group_IT_number 57
_symmetry_cell_setting 'orthorhombic'
loop_
_space_group_symop_operation_xyz
x,y,z
-x,-y,1/2+z
x,1/2-y,-z
-x,1/2+y,1/2-z
-x,-y,-z
x,y,1/2-z
-x,1/2+y,z
x,1/2-y,1/2+z
loop_
_atom_site_type_symbol
_atom_site_label
_atom_site_fract_x
_atom_site_fract_y
_atom_site_fract_z
Si Si1 0.082802 0.421410 0.436879
Si Si2 0.176121 0.664335 0.436572
Si Si3 0.340808 0.507887 0.563188
O O1 0.081335 0.420368 0.250000
O O2 0.241667 0.435411 0.499285
O O3 0.000000 0.500000 0.500000
O O4 0.985705 0.350341 0.503393
O O5 0.226437 0.750000 0.500000
O O6 0.178739 0.661759 0.250000
O O7 0.270959 0.591077 0.502354
O O8 0.500000 0.500000 0.500000
O O9 0.337452 0.507541 0.750000
#
# Coordination Sequence:
#
# PCOD9434603 Si02
#       3
#     8   8   8
#     4  10  18  32  53  78 104 137 176 217 259 311
#     4  11  21  36  56  81 109 142 180 225 272 320
#     4  11  21  36  56  81 110 145 182 222 268 323
#
# _framework density 17.922727999999999
#
# number of rings (size 3 to 8) (size 9 to 14) (size 15 to 20)
#    0.000    1.333    0.000   13.000    0.000    0.000 
#    0.000    1.667    0.000    0.000    0.000    0.000 
#    0.000    0.000    0.000    0.000    0.000    0.000 
#
# Total GULP energy -133974.794681 kJ/mol
# GULP energy per Si atom -5582.283112 kJ/mol
# Density = 1.788194 g / cm^3
# Si number density = 17.922728 Si / 1000 Ang^3
#
#
#
# Elastic Constant Matrix: (Units=GPa)
#
#
# Indices 1 2 3 4 5 6 
#
# 1 141.0213 33.9844 56.2850 0.0000 0.0000 0.0000
# 2 33.9844 78.8532 37.5543 0.0000 0.0000 0.0000
# 3 56.2850 37.5543 221.7842 0.0000 0.0000 0.0000
# 4 0.0000 0.0000 0.0000 25.9594 0.0000 0.0000
# 5 0.0000 0.0000 0.0000 0.0000 34.0433 0.0000
# 6 0.0000 0.0000 0.0000 0.0000 0.0000 20.3940
#
#
#
# Elastic Compliance Matrix: (Units=1/GPa)
#
#
# Indices 1 2 3 4 5 6 
#
# 1 0.008440 -0.002847 -0.001660 0.000000 0.000000 0.000000
# 2 -0.002847 0.014755 -0.001776 0.000000 0.000000 0.000000
# 3 -0.001660 -0.001776 0.005231 0.000000 0.000000 0.000000
# 4 0.000000 0.000000 0.000000 0.038522 0.000000 0.000000
# 5 0.000000 0.000000 0.000000 0.000000 0.029374 0.000000
# 6 0.000000 0.000000 0.000000 0.000000 0.000000 0.049034
#
#
# Mechanical properties :
#
#
# Convention : Reuss Voigt Hill
#
# Bulk Modulus (GPa) = 63.05194 77.47847 70.26521
# Shear Modulus (GPa) = 30.63599 37.00167 33.81883
#
# Velocity S-wave (km/s) = 4.13890 4.54862 4.34859
# Velocity P-wave (km/s) = 7.62213 8.42078 8.03139
#
# Compressibility (1/GPa) = 0.01585994
#
# Stress axis : x y z
#
# Youngs Moduli (GPa) = 118.48844 67.77588 191.17472
#
# Poissons Ratio (x) = 0.19295 0.31731
# Poissons Ratio (y) = 0.33732 0.33950
# Poissons Ratio (z) = 0.19666 0.12036
#
# Static dielectric constant tensor:
#      x y z
#    x 1.636930 0.000000 0.000000 
#    y 0.000000 1.606820 0.000000 
#    z 0.000000 0.000000 1.589040 
# 
# From -- ./inp_files/1008.got.cif
#   From: 2010.05.17/outbox.cif.g08.bks.cpg/sg57_1_cif.got.tgz:1008.got - 2010.06.03 13:58:18.
