data_PCOD9434339
_publ_section_title
;
Structure prediction by ZEFSAII (Michael W. Deem and Ramdas Pophale) SiO2 
 PCOD9434339
Probable space group: P B C M
;
_chemical_formula_sum "Si O2"
_cell_formula_units_Z 64
_cell_length_a 11.274709
_cell_length_b 34.273452
_cell_length_c 9.098386
_cell_angle_alpha 90.000000
_cell_angle_beta 90.000000
_cell_angle_gamma 90.000000
_cell_volume 3515.827412
_symmetry_space_group_name_H-M "P B C M"
_symmetry_group_IT_number 57
_symmetry_cell_setting 'orthorhombic'
loop_
_space_group_symop_operation_xyz
x,y,z
-x,-y,1/2+z
x,1/2-y,-z
-x,1/2+y,1/2-z
-x,-y,-z
x,y,1/2-z
-x,1/2+y,z
x,1/2-y,1/2+z
loop_
_atom_site_type_symbol
_atom_site_label
_atom_site_fract_x
_atom_site_fract_y
_atom_site_fract_z
Si Si1 0.788711 0.864519 0.081760
Si Si2 0.702790 0.516149 0.074627
Si Si3 0.078826 0.440806 0.425101
Si Si4 0.341592 0.874590 0.926013
Si Si5 0.443836 0.080092 0.921231
Si Si6 0.425698 0.709712 0.426297
Si Si7 0.295690 0.209910 0.075691
Si Si8 0.809018 0.435384 0.074576
O O1 0.797814 0.850823 0.250000
O O2 0.893792 0.894940 0.051104
O O3 0.670455 0.891253 0.071266
O O4 0.775713 0.827632 0.977995
O O5 0.690933 0.520709 0.250000
O O6 0.717913 0.470473 0.040073
O O7 0.825993 0.535596 0.019579
O O8 0.599361 0.539568 0.992313
O O9 0.099464 0.448372 0.250000
O O10 0.942534 0.448786 0.461347
O O11 0.344507 0.876464 0.750000
O O12 0.356111 0.829340 0.970250
O O13 0.452398 0.898457 0.992084
O O14 0.228022 0.896674 0.989770
O O15 0.475473 0.074677 0.750000
O O16 0.386071 0.750000 0.500000
O O17 0.419152 0.713608 0.250000
O O18 0.565059 0.703784 0.465168
O O19 0.289490 0.213863 0.250000
O O20 0.256686 0.250000 0.000000
O O21 0.805472 0.428691 0.250000
#
# Coordination Sequence:
#
# PCOD9434339 Si02
#       8
#     8   8   8   8   8   8   8   8
#     4   9  17  30  50  75 101 132 167 209 258 309
#     4  10  20  34  55  80 106 135 175 224 269 312
#     4   9  19  36  56  77 103 135 177 221 263 314
#     4  11  22  36  54  79 110 140 177 222 260 309
#     4  10  20  34  53  76 105 142 177 210 264 321
#     4   9  19  33  51  77 106 136 169 209 255 305
#     4  10  18  29  47  74 107 135 163 204 254 311
#     4  10  22  38  54  76 105 142 182 219 262 312
#
# _framework density 18.203396999999999
#
# number of rings (size 3 to 8) (size 9 to 14) (size 15 to 20)
#    0.000    2.250    1.250    2.625    0.000    5.500 
#    0.000    0.000    0.000    0.750    0.000    1.750 
#    0.000    0.000    0.000    0.000    0.000    0.000 
#
# Total GULP energy -357218.649768 kJ/mol
# GULP energy per Si atom -5581.541403 kJ/mol
# Density = 1.816197 g / cm^3
# Si number density = 18.203397 Si / 1000 Ang^3
#
#
#
# Elastic Constant Matrix: (Units=GPa)
#
#
# Indices 1 2 3 4 5 6 
#
# 1 26.3440 11.4511 4.3608 0.0000 0.0000 0.0000
# 2 11.4511 105.4097 40.1134 0.0000 0.0000 0.0000
# 3 4.3608 40.1134 40.8521 0.0000 0.0000 0.0000
# 4 0.0000 0.0000 0.0000 31.9780 0.0000 0.0000
# 5 0.0000 0.0000 0.0000 0.0000 23.0038 0.0000
# 6 0.0000 0.0000 0.0000 0.0000 0.0000 21.7253
#
#
#
# Elastic Compliance Matrix: (Units=1/GPa)
#
#
# Indices 1 2 3 4 5 6 
#
# 1 0.039841 -0.004326 -0.000005 0.000000 0.000000 0.000000
# 2 -0.004326 0.015616 -0.014872 0.000000 0.000000 0.000000
# 3 -0.000005 -0.014872 0.039082 0.000000 0.000000 0.000000
# 4 0.000000 0.000000 0.000000 0.031272 0.000000 0.000000
# 5 0.000000 0.000000 0.000000 0.000000 0.043471 0.000000
# 6 0.000000 0.000000 0.000000 0.000000 0.000000 0.046029
#
#
# Mechanical properties :
#
#
# Convention : Reuss Voigt Hill
#
# Bulk Modulus (GPa) = 17.81492 31.60629 24.71061
# Shear Modulus (GPa) = 18.35346 23.12014 20.73680
#
# Velocity S-wave (km/s) = 3.17873 3.56771 3.37882
# Velocity P-wave (km/s) = 4.82496 5.86276 5.36900
#
# Compressibility (1/GPa) = 0.05613272
#
# Stress axis : x y z
#
# Youngs Moduli (GPa) = 25.10004 64.03559 25.58706
#
# Poissons Ratio (x) = 0.27703 0.00013
# Poissons Ratio (y) = 0.10859 0.38053
# Poissons Ratio (z) = 0.00012 0.95235
#
# Static dielectric constant tensor:
#      x y z
#    x 1.630100 0.000000 0.000000 
#    y 0.000000 1.622990 0.000000 
#    z 0.000000 0.000000 1.608670 
# 
# From -- ./inp_files/3918.got.cif
#   From: 2010.05.17/outbox.cif.g08.bks.cpg/sg57_2_cif.got.tgz:3918.got - 2010.06.03 13:58:18.
