data_PCOD9434453
_publ_section_title
;
Structure prediction by ZEFSAII (Michael W. Deem and Ramdas Pophale) SiO2 
 PCOD9434453
Probable space group: P B C M
;
_chemical_formula_sum "Si O2"
_cell_formula_units_Z 64
_cell_length_a 17.816445
_cell_length_b 22.579112
_cell_length_c 8.653979
_cell_angle_alpha 90.000000
_cell_angle_beta 90.000000
_cell_angle_gamma 90.000000
_cell_volume 3481.318407
_symmetry_space_group_name_H-M "P B C M"
_symmetry_group_IT_number 57
_symmetry_cell_setting 'orthorhombic'
loop_
_space_group_symop_operation_xyz
x,y,z
-x,-y,1/2+z
x,1/2-y,-z
-x,1/2+y,1/2-z
-x,-y,-z
x,y,1/2-z
-x,1/2+y,z
x,1/2-y,1/2+z
loop_
_atom_site_type_symbol
_atom_site_label
_atom_site_fract_x
_atom_site_fract_y
_atom_site_fract_z
Si Si1 0.245930 0.941842 0.570737
Si Si2 0.662223 0.841763 0.069439
Si Si3 0.933870 0.578915 0.436314
Si Si4 0.589193 0.077611 0.068977
Si Si5 0.093843 0.557633 0.934583
Si Si6 0.504952 0.810536 0.933959
Si Si7 0.174430 0.186835 0.435709
Si Si8 0.653092 0.532460 0.428386
O O1 0.238715 0.959959 0.750000
O O2 0.322472 0.903428 0.561498
O O3 0.016920 0.913941 0.494439
O O4 0.168726 0.915936 0.510090
O O5 0.660786 0.827531 0.250000
O O6 0.591120 0.813773 0.984973
O O7 0.741429 0.823028 0.997779
O O8 0.651997 0.911638 0.038689
O O9 0.938528 0.579700 0.250000
O O10 0.908479 0.512318 0.481338
O O11 0.877299 0.631088 0.483970
O O12 0.572514 0.065530 0.250000
O O13 0.536454 0.129719 0.010938
O O14 0.590768 0.016382 0.974149
O O15 0.097393 0.561005 0.750000
O O16 0.269428 0.502478 0.963225
O O17 0.499590 0.809857 0.750000
O O18 0.471505 0.750000 0.000000
O O19 0.146942 0.250000 0.500000
O O20 0.176154 0.188549 0.250000
O O21 0.647252 0.550260 0.250000
#
# Coordination Sequence:
#
# PCOD9434453 Si02
#       8
#     8   8   8   8   8   8   8   8
#     4   9  17  32  52  78 111 146 179 216 271 331
#     4  12  24  38  57  82 111 147 189 230 282 337
#     4   9  20  35  52  77 111 148 182 224 277 329
#     4   8  19  37  56  80 110 147 182 223 278 337
#     4  10  18  30  53  85 114 142 182 228 275 327
#     4  11  23  41  60  80 108 142 188 237 282 331
#     4  11  23  40  59  80 111 152 195 233 276 328
#     4  10  19  33  55  83 113 144 180 227 278 329
#
# _framework density 18.383838999999998
#
# number of rings (size 3 to 8) (size 9 to 14) (size 15 to 20)
#    0.750    1.250    0.000    4.500    0.000    4.000 
#    0.000    0.000    0.000    0.750    0.000    1.750 
#    0.000    0.000    0.000    0.000    0.000    0.000 
#
# Total GULP energy -356893.986166 kJ/mol
# GULP energy per Si atom -5576.468534 kJ/mol
# Density = 1.834200 g / cm^3
# Si number density = 18.383839 Si / 1000 Ang^3
#
#
#
# Elastic Constant Matrix: (Units=GPa)
#
#
# Indices 1 2 3 4 5 6 
#
# 1 78.8939 19.4058 5.3611 0.0000 0.0000 0.0000
# 2 19.4058 64.7698 4.8449 0.0000 0.0000 0.0000
# 3 5.3611 4.8449 37.5023 0.0000 0.0000 0.0000
# 4 0.0000 0.0000 0.0000 26.2598 0.0000 0.0000
# 5 0.0000 0.0000 0.0000 0.0000 23.1050 0.0000
# 6 0.0000 0.0000 0.0000 0.0000 0.0000 0.5969
#
#
#
# Elastic Compliance Matrix: (Units=1/GPa)
#
#
# Indices 1 2 3 4 5 6 
#
# 1 0.013761 -0.004015 -0.001449 0.000000 0.000000 0.000000
# 2 -0.004015 0.016761 -0.001591 0.000000 0.000000 0.000000
# 3 -0.001449 -0.001591 0.027078 0.000000 0.000000 0.000000
# 4 0.000000 0.000000 0.000000 0.038081 0.000000 0.000000
# 5 0.000000 0.000000 0.000000 0.000000 0.043281 0.000000
# 6 0.000000 0.000000 0.000000 0.000000 0.000000 1.675447
#
#
# Mechanical properties :
#
#
# Convention : Reuss Voigt Hill
#
# Bulk Modulus (GPa) = 22.99339 26.70994 24.85167
# Shear Modulus (GPa) = 2.71295 20.09596 11.40445
#
# Velocity S-wave (km/s) = 1.21611 3.30984 2.49339
# Velocity P-wave (km/s) = 3.80873 5.40068 4.67299
#
# Compressibility (1/GPa) = 0.04349076
#
# Stress axis : x y z
#
# Youngs Moduli (GPa) = 72.66820 59.66172 36.93072
#
# Poissons Ratio (x) = 0.23952 0.05350
# Poissons Ratio (y) = 0.29174 0.05877
# Poissons Ratio (z) = 0.10526 0.09495
#
# Static dielectric constant tensor:
#      x y z
#    x 1.653250 0.000000 0.000000 
#    y 0.000000 1.585680 0.000000 
#    z 0.000000 0.000000 1.613030 
# 
# From -- ./inp_files/5581.got.cif
#   From: 2010.05.17/outbox.cif.g08.bks.cpg/sg57_3_cif.got.tgz:5581.got - 2010.06.03 13:58:18.
