data_PCOD9434388
_publ_section_title
;
Structure prediction by ZEFSAII (Michael W. Deem and Ramdas Pophale) SiO2 
 PCOD9434388
Probable space group: P B C M
;
_chemical_formula_sum "Si O2"
_cell_formula_units_Z 48
_cell_length_a 11.987885
_cell_length_b 30.208427
_cell_length_c 8.896235
_cell_angle_alpha 90.000000
_cell_angle_beta 90.000000
_cell_angle_gamma 90.000000
_cell_volume 3221.639386
_symmetry_space_group_name_H-M "P B C M"
_symmetry_group_IT_number 57
_symmetry_cell_setting 'orthorhombic'
loop_
_space_group_symop_operation_xyz
x,y,z
-x,-y,1/2+z
x,1/2-y,-z
-x,1/2+y,1/2-z
-x,-y,-z
x,y,1/2-z
-x,1/2+y,z
x,1/2-y,1/2+z
loop_
_atom_site_type_symbol
_atom_site_label
_atom_site_fract_x
_atom_site_fract_y
_atom_site_fract_z
Si Si1 0.920559 0.037460 0.069288
Si Si2 0.873895 0.702124 0.426807
Si Si3 0.278888 0.375243 0.926344
Si Si4 0.051462 0.116369 0.570864
Si Si5 0.662943 0.476497 0.569824
Si Si6 0.541534 0.568790 0.929074
O O1 0.929777 0.036803 0.250000
O O2 0.791844 0.028715 0.028242
O O3 0.963051 0.084114 0.004882
O O4 0.000000 0.000000 0.000000
O O5 0.874760 0.750000 0.500000
O O6 0.899650 0.704413 0.250000
O O7 0.754703 0.676527 0.441878
O O8 0.954496 0.666725 0.509325
O O9 0.272844 0.386366 0.750000
O O10 0.175728 0.398154 0.015024
O O11 0.394683 0.390440 0.995241
O O12 0.045596 0.114727 0.750000
O O13 0.653254 0.471500 0.750000
O O14 0.581104 0.441524 0.491099
O O15 0.615289 0.525155 0.531569
O O16 0.539883 0.573505 0.750000
#
# Coordination Sequence:
#
# PCOD9434388 Si02
#       6
#     8   8   8   8   8   8
#     4  11  21  33  48  68  96 132 170 206 245 292
#     4   9  18  31  49  74 100 128 158 197 246 297
#     4   9  18  30  47  69  96 125 155 192 240 290
#     4  10  19  31  47  69  98 128 160 200 243 291
#     4   9  20  33  45  63  92 128 164 200 239 283
#     4  10  18  30  48  69  91 122 163 202 241 284
#
# _framework density 14.899247000000001
#
# number of rings (size 3 to 8) (size 9 to 14) (size 15 to 20)
#    1.000    1.333    0.000    4.000    0.000    3.333 
#    0.000    0.000    0.000    0.000    0.000    1.167 
#    0.000    5.333    0.000    0.000    0.000    0.000 
#
# Total GULP energy -267229.633563 kJ/mol
# GULP energy per Si atom -5567.284033 kJ/mol
# Density = 1.486534 g / cm^3
# Si number density = 14.899247 Si / 1000 Ang^3
#
#
#
# Elastic Constant Matrix: (Units=GPa)
#
#
# Indices 1 2 3 4 5 6 
#
# 1 102.8691 48.6316 50.9176 0.0000 0.0000 0.0000
# 2 48.6316 85.1866 44.5413 0.0000 0.0000 0.0000
# 3 50.9176 44.5413 80.7715 0.0000 0.0000 0.0000
# 4 0.0000 0.0000 0.0000 26.8434 0.0000 0.0000
# 5 0.0000 0.0000 0.0000 0.0000 22.9020 0.0000
# 6 0.0000 0.0000 0.0000 0.0000 0.0000 18.1302
#
#
#
# Elastic Compliance Matrix: (Units=1/GPa)
#
#
# Indices 1 2 3 4 5 6 
#
# 1 0.015673 -0.005314 -0.006950 0.000000 0.000000 0.000000
# 2 -0.005314 0.018296 -0.006740 0.000000 0.000000 0.000000
# 3 -0.006950 -0.006740 0.020479 0.000000 0.000000 0.000000
# 4 0.000000 0.000000 0.000000 0.037253 0.000000 0.000000
# 5 0.000000 0.000000 0.000000 0.000000 0.043664 0.000000
# 6 0.000000 0.000000 0.000000 0.000000 0.000000 0.055156
#
#
# Mechanical properties :
#
#
# Convention : Reuss Voigt Hill
#
# Bulk Modulus (GPa) = 60.82322 61.88979 61.35650
# Shear Modulus (GPa) = 21.36664 21.89091 21.62877
#
# Velocity S-wave (km/s) = 3.79103 3.83725 3.81421
# Velocity P-wave (km/s) = 7.75075 7.82699 7.78896
#
# Compressibility (1/GPa) = 0.01644109
#
# Stress axis : x y z
#
# Youngs Moduli (GPa) = 63.80309 54.65534 48.83162
#
# Poissons Ratio (x) = 0.29042 0.33938
# Poissons Ratio (y) = 0.33903 0.32912
# Poissons Ratio (z) = 0.44343 0.36837
#
# Static dielectric constant tensor:
#      x y z
#    x 1.486450 0.000000 0.000000 
#    y 0.000000 1.491880 0.000000 
#    z 0.000000 0.000000 1.491530 
# 
# From -- ./inp_files/3310.got.cif
#   From: 2010.05.17/outbox.cif.g08.bks.cpg/sg57_2_cif.got.tgz:3310.got - 2010.06.03 13:58:18.
