data_PCOD9434786
_publ_section_title
;
Structure prediction by ZEFSAII (Michael W. Deem and Ramdas Pophale) SiO2 
 PCOD9434786
Probable space group: P B C M
;
_chemical_formula_sum "Si O2"
_cell_formula_units_Z 48
_cell_length_a 8.474101
_cell_length_b 17.474329
_cell_length_c 14.769688
_cell_angle_alpha 90.000000
_cell_angle_beta 90.000000
_cell_angle_gamma 90.000000
_cell_volume 2187.084009
_symmetry_space_group_name_H-M "P B C M"
_symmetry_group_IT_number 57
_symmetry_cell_setting 'orthorhombic'
loop_
_space_group_symop_operation_xyz
x,y,z
-x,-y,1/2+z
x,1/2-y,-z
-x,1/2+y,1/2-z
-x,-y,-z
x,y,1/2-z
-x,1/2+y,z
x,1/2-y,1/2+z
loop_
_atom_site_type_symbol
_atom_site_label
_atom_site_fract_x
_atom_site_fract_y
_atom_site_fract_z
Si Si1 0.413416 0.026973 0.855610
Si Si2 0.805191 0.393031 0.854523
Si Si3 0.565818 0.255443 0.891713
Si Si4 0.271680 0.594494 0.646015
Si Si5 0.967672 0.333237 0.485010
Si Si6 0.753033 0.691915 0.649959
O O1 0.433766 0.005012 0.750000
O O2 0.592053 0.037323 0.890509
O O3 0.333832 0.110056 0.856485
O O4 0.289173 0.966338 0.892662
O O5 0.849984 0.404130 0.750000
O O6 0.673998 0.325911 0.861969
O O7 0.954561 0.371179 0.916495
O O8 0.645859 0.178239 0.854216
O O9 0.384754 0.254748 0.858311
O O10 0.553281 0.250000 0.000000
O O11 0.229679 0.575330 0.750000
O O12 0.125264 0.608837 0.580819
O O13 0.886209 0.250000 0.500000
O O14 0.123913 0.310193 0.431287
O O15 0.828905 0.698077 0.750000
#
# Coordination Sequence:
#
# PCOD9434786 Si02
#       6
#     8   8   8   8   8   8
#     4   8  19  37  60  88 116 155 201 242 291 357
#     4  11  21  37  62  90 123 155 195 254 305 339
#     4  11  19  37  60  88 116 149 198 246 290 353
#     4  10  18  35  59  83 114 154 198 241 286 345
#     4  12  23  36  56  92 118 154 204 245 289 361
#     4  10  22  40  61  85 120 161 196 240 298 360
#
# _framework density 21.947030999999999
#
# number of rings (size 3 to 8) (size 9 to 14) (size 15 to 20)
#    0.000    1.667    3.333    3.500    0.000    2.000 
#    0.000    0.000    3.667    0.000    0.000    0.000 
#    0.000    0.000    0.000    0.000    0.000    0.000 
#
# Total GULP energy -267718.803599 kJ/mol
# GULP energy per Si atom -5577.475075 kJ/mol
# Density = 2.189708 g / cm^3
# Si number density = 21.947031 Si / 1000 Ang^3
#
#
#
# Elastic Constant Matrix: (Units=GPa)
#
#
# Indices 1 2 3 4 5 6 
#
# 1 62.5262 -18.4758 31.2228 0.0000 0.0000 0.0000
# 2 -18.4758 18.8526 -13.0617 0.0000 0.0000 0.0000
# 3 31.2228 -13.0617 122.9221 0.0000 0.0000 0.0000
# 4 0.0000 0.0000 0.0000 16.2604 0.0000 0.0000
# 5 0.0000 0.0000 0.0000 0.0000 28.0875 0.0000
# 6 0.0000 0.0000 0.0000 0.0000 0.0000 2.0530
#
#
#
# Elastic Compliance Matrix: (Units=1/GPa)
#
#
# Indices 1 2 3 4 5 6 
#
# 1 0.024132 0.020945 -0.003904 0.000000 0.000000 0.000000
# 2 0.020945 0.075437 0.002696 0.000000 0.000000 0.000000
# 3 -0.003904 0.002696 0.009413 0.000000 0.000000 0.000000
# 4 0.000000 0.000000 0.000000 0.061499 0.000000 0.000000
# 5 0.000000 0.000000 0.000000 0.000000 0.035603 0.000000
# 6 0.000000 0.000000 0.000000 0.000000 0.000000 0.487097
#
#
# Mechanical properties :
#
#
# Convention : Reuss Voigt Hill
#
# Bulk Modulus (GPa) = 6.73603 22.63014 14.68308
# Shear Modulus (GPa) = 7.11042 22.92122 15.01582
#
# Velocity S-wave (km/s) = 1.80190 3.23521 2.61853
# Velocity P-wave (km/s) = 2.72121 4.92839 3.98083
#
# Compressibility (1/GPa) = 0.14845536
#
# Stress axis : x y z
#
# Youngs Moduli (GPa) = 41.43929 13.25607 106.23231
#
# Poissons Ratio (x) = -0.27764 0.41473
# Poissons Ratio (y) = -0.86793 -0.28640
# Poissons Ratio (z) = 0.16178 -0.03574
#
# Static dielectric constant tensor:
#      x y z
#    x 1.873230 0.000000 0.000000 
#    y 0.000000 1.796560 0.000000 
#    z 0.000000 0.000000 1.861650 
# 
# From -- ./inp_files/16333.got.cif
#   From: 2010.05.17/outbox.cif.g08.bks.cpg/sg57_9_cif.got.tgz:16333.got - 2010.06.03 13:58:18.
