data_PCOD9434375
_publ_section_title
;
Structure prediction by ZEFSAII (Michael W. Deem and Ramdas Pophale) SiO2 
 PCOD9434375
Probable space group: P B C M
;
_chemical_formula_sum "Si O2"
_cell_formula_units_Z 64
_cell_length_a 14.625072
_cell_length_b 30.612641
_cell_length_c 7.996866
_cell_angle_alpha 90.000000
_cell_angle_beta 90.000000
_cell_angle_gamma 90.000000
_cell_volume 3580.293500
_symmetry_space_group_name_H-M "P B C M"
_symmetry_group_IT_number 57
_symmetry_cell_setting 'orthorhombic'
loop_
_space_group_symop_operation_xyz
x,y,z
-x,-y,1/2+z
x,1/2-y,-z
-x,1/2+y,1/2-z
-x,-y,-z
x,y,1/2-z
-x,1/2+y,z
x,1/2-y,1/2+z
loop_
_atom_site_type_symbol
_atom_site_label
_atom_site_fract_x
_atom_site_fract_y
_atom_site_fract_z
Si Si1 0.010103 0.551038 0.047178
Si Si2 0.477270 0.062780 0.942535
Si Si3 0.308037 0.013764 0.546677
Si Si4 0.174742 0.092312 0.052699
Si Si5 0.211546 0.924343 0.954451
Si Si6 0.487593 0.298226 0.056872
Si Si7 0.344317 0.361798 0.553406
Si Si8 0.623610 0.127450 0.055193
O O1 0.009931 0.552142 0.250000
O O2 0.923681 0.578905 0.981508
O O3 0.107130 0.570667 0.990126
O O4 0.000000 0.500000 0.000000
O O5 0.502767 0.055484 0.750000
O O6 0.412311 0.023705 0.007947
O O7 0.405037 0.103361 0.951817
O O8 0.562933 0.082938 0.039586
O O9 0.308251 0.016176 0.750000
O O10 0.240532 0.050799 0.477737
O O11 0.264811 0.968209 0.494697
O O12 0.160035 0.098569 0.250000
O O13 0.239310 0.132536 0.996412
O O14 0.211479 0.923364 0.750000
O O15 0.275512 0.884290 0.009809
O O16 0.464566 0.297130 0.250000
O O17 0.513996 0.250000 0.000000
O O18 0.397368 0.316517 0.964675
O O19 0.568320 0.333479 0.029545
O O20 0.349015 0.374368 0.750000
O O21 0.628666 0.138609 0.250000
#
# Coordination Sequence:
#
# PCOD9434375 Si02
#       8
#     8   8   8   8   8   8   8   8
#     4  10  18  30  46  66  91 126 170 212 246 276
#     4   9  16  26  41  61  87 120 159 198 234 273
#     4   9  16  27  42  60  85 123 164 199 238 279
#     4   9  17  27  43  67  94 123 160 203 242 275
#     4   9  18  30  44  62  90 127 166 204 240 277
#     4  11  21  35  55  78  99 120 146 181 228 285
#     4   9  16  28  45  69  98 124 150 186 230 279
#     4  10  19  32  47  65  92 126 159 192 233 281
#
# _framework density 17.875630000000001
#
# number of rings (size 3 to 8) (size 9 to 14) (size 15 to 20)
#    0.000    2.500    1.250    3.750    0.000    1.500 
#    0.000    2.500    0.000    0.000    0.000    0.875 
#    0.000    0.000    0.000    0.000    0.000    0.000 
#
# Total GULP energy -356597.839389 kJ/mol
# GULP energy per Si atom -5571.841240 kJ/mol
# Density = 1.783494 g / cm^3
# Si number density = 17.875630 Si / 1000 Ang^3
#
#
#
# Elastic Constant Matrix: (Units=GPa)
#
#
# Indices 1 2 3 4 5 6 
#
# 1 148.2101 48.3986 0.4536 0.0000 0.0000 0.0000
# 2 48.3986 60.5584 2.3535 0.0000 0.0000 0.0000
# 3 0.4536 2.3535 32.7896 0.0000 0.0000 0.0000
# 4 0.0000 0.0000 0.0000 18.0448 0.0000 0.0000
# 5 0.0000 0.0000 0.0000 0.0000 10.3038 0.0000
# 6 0.0000 0.0000 0.0000 0.0000 0.0000 13.4551
#
#
#
# Elastic Compliance Matrix: (Units=1/GPa)
#
#
# Indices 1 2 3 4 5 6 
#
# 1 0.009135 -0.007316 0.000399 0.000000 0.000000 0.000000
# 2 -0.007316 0.022419 -0.001508 0.000000 0.000000 0.000000
# 3 0.000399 -0.001508 0.030600 0.000000 0.000000 0.000000
# 4 0.000000 0.000000 0.000000 0.055418 0.000000 0.000000
# 5 0.000000 0.000000 0.000000 0.000000 0.097051 0.000000
# 6 0.000000 0.000000 0.000000 0.000000 0.000000 0.074321
#
#
# Mechanical properties :
#
#
# Convention : Reuss Voigt Hill
#
# Bulk Modulus (GPa) = 22.07354 38.21883 30.14619
# Shear Modulus (GPa) = 15.58137 21.05092 18.31614
#
# Velocity S-wave (km/s) = 2.95558 3.43539 3.20448
# Velocity P-wave (km/s) = 4.90127 6.09612 5.53106
#
# Compressibility (1/GPa) = 0.04530310
#
# Stress axis : x y z
#
# Youngs Moduli (GPa) = 109.46737 44.60532 32.67958
#
# Poissons Ratio (x) = 0.32635 -0.01303
# Poissons Ratio (y) = 0.80090 0.04928
# Poissons Ratio (z) = -0.04365 0.06726
#
# Static dielectric constant tensor:
#      x y z
#    x 1.667280 0.000000 0.000000 
#    y 0.000000 1.632060 0.000000 
#    z 0.000000 0.000000 1.616230 
# 
# From -- ./inp_files/6073.got.cif
#   From: 2010.05.17/outbox.cif.g08.bks.cpg/sg57_4_cif.got.tgz:6073.got - 2010.06.03 13:58:18.
