data_PCOD9434548
_publ_section_title
;
Structure prediction by ZEFSAII (Michael W. Deem and Ramdas Pophale) SiO2 
 PCOD9434548
Probable space group: P B C M
;
_chemical_formula_sum "Si O2"
_cell_formula_units_Z 36
_cell_length_a 21.106232
_cell_length_b 7.565005
_cell_length_c 9.699039
_cell_angle_alpha 90.000000
_cell_angle_beta 90.000000
_cell_angle_gamma 90.000000
_cell_volume 1548.633439
_symmetry_space_group_name_H-M "P B C M"
_symmetry_group_IT_number 57
_symmetry_cell_setting 'orthorhombic'
loop_
_space_group_symop_operation_xyz
x,y,z
-x,-y,1/2+z
x,1/2-y,-z
-x,1/2+y,1/2-z
-x,-y,-z
x,y,1/2-z
-x,1/2+y,z
x,1/2-y,1/2+z
loop_
_atom_site_type_symbol
_atom_site_label
_atom_site_fract_x
_atom_site_fract_y
_atom_site_fract_z
Si Si1 0.904782 0.957627 0.250000
Si Si2 0.749614 0.945495 0.750000
Si Si3 0.451906 0.487567 0.750000
Si Si4 0.857592 0.457417 0.468050
Si Si5 0.354124 0.553793 0.530315
Si Si6 0.406040 0.412554 0.250000
Si Si7 0.954589 0.360702 0.250000
O O1 0.865172 0.938534 0.389168
O O2 0.927330 0.162552 0.250000
O O3 0.970202 0.853040 0.250000
O O4 0.804614 0.966621 0.630671
O O5 0.694230 0.955035 0.870315
O O6 0.420007 0.574430 0.615204
O O7 0.527146 0.485266 0.750000
O O8 0.427943 0.287900 0.750000
O O9 0.842171 0.250000 0.500000
O O10 0.924330 0.452172 0.385005
O O11 0.328577 0.750000 0.500000
O O12 0.367280 0.459535 0.386431
#
# Coordination Sequence:
#
# PCOD9434548 Si02
#       7
#     4   4   4   8   8   4   4
#     4  10  18  31  54  82 111 149 191 240 302 362
#     4  10  21  37  56  84 120 154 202 259 297 344
#     4  11  24  42  64  94 130 160 195 247 303 369
#     4   9  18  32  53  81 112 149 193 246 298 351
#     4  11  23  39  62  93 123 158 203 254 304 358
#     4  12  23  41  66  92 125 165 201 244 305 368
#     4   9  18  31  50  78 112 142 185 238 297 359
#
# _framework density 23.246302
#
# number of rings (size 3 to 8) (size 9 to 14) (size 15 to 20)
#    0.000    1.778    0.000    6.000    0.000    0.889 
#    0.000    0.000    0.000   21.333    0.000    3.111 
#    0.000    0.000    0.000    0.000    0.000    0.000 
#
# Total GULP energy -200529.464550 kJ/mol
# GULP energy per Si atom -5570.262904 kJ/mol
# Density = 2.319339 g / cm^3
# Si number density = 23.246302 Si / 1000 Ang^3
#
#
#
# Elastic Constant Matrix: (Units=GPa)
#
#
# Indices 1 2 3 4 5 6 
#
# 1 139.9754 19.7875 90.2191 0.0000 0.0000 0.0000
# 2 19.7875 48.7663 19.8500 0.0000 0.0000 0.0000
# 3 90.2191 19.8500 231.4875 0.0000 0.0000 0.0000
# 4 0.0000 0.0000 0.0000 5.8157 0.0000 0.0000
# 5 0.0000 0.0000 0.0000 0.0000 22.0463 0.0000
# 6 0.0000 0.0000 0.0000 0.0000 0.0000 -11.4786
#
#
#
# Elastic Compliance Matrix: (Units=1/GPa)
#
#
# Indices 1 2 3 4 5 6 
#
# 1 0.009830 -0.002517 -0.003615 0.000000 0.000000 0.000000
# 2 -0.002517 0.021892 -0.000896 0.000000 0.000000 0.000000
# 3 -0.003615 -0.000896 0.005806 0.000000 0.000000 0.000000
# 4 0.000000 0.000000 0.000000 0.171947 0.000000 0.000000
# 5 0.000000 0.000000 0.000000 0.000000 0.045359 0.000000
# 6 0.000000 0.000000 0.000000 0.000000 0.000000 -0.087119
#
#
# Mechanical properties :
#
#
# Convention : Reuss Voigt Hill
#
# Bulk Modulus (GPa) = 42.60636 75.54918 59.07777
# Shear Modulus (GPa) = 26.37182 22.63486 24.50334
#
# Velocity S-wave (km/s) = 3.37182 3.12380 3.25017
# Velocity P-wave (km/s) = 5.79024 6.75136 6.28918
#
# Compressibility (1/GPa) = 0.02347068
#
# Stress axis : x y z
#
# Youngs Moduli (GPa) = 101.72789 45.67857 172.24264
#
# Poissons Ratio (x) = 0.11498 0.62271
# Poissons Ratio (y) = 0.25606 0.15437
# Poissons Ratio (z) = 0.36778 0.04094
#
# Static dielectric constant tensor:
#      x y z
#    x 1.835440 0.000000 0.000000 
#    y 0.000000 1.953910 0.000000 
#    z 0.000000 0.000000 1.785750 
# 
# From -- ./inp_files/7733.got.cif
#   From: 2010.05.17/outbox.cif.g08.bks.cpg/sg57_4_cif.got.tgz:7733.got - 2010.06.03 13:58:18.
