data_PCOD9434355
_publ_section_title
;
Structure prediction by ZEFSAII (Michael W. Deem and Ramdas Pophale) SiO2 
 PCOD9434355
Probable space group: P B C M
;
_chemical_formula_sum "Si O2"
_cell_formula_units_Z 64
_cell_length_a 11.538332
_cell_length_b 18.197473
_cell_length_c 13.497632
_cell_angle_alpha 90.000000
_cell_angle_beta 90.000000
_cell_angle_gamma 90.000000
_cell_volume 2834.077343
_symmetry_space_group_name_H-M "P B C M"
_symmetry_group_IT_number 57
_symmetry_cell_setting 'orthorhombic'
loop_
_space_group_symop_operation_xyz
x,y,z
-x,-y,1/2+z
x,1/2-y,-z
-x,1/2+y,1/2-z
-x,-y,-z
x,y,1/2-z
-x,1/2+y,z
x,1/2-y,1/2+z
loop_
_atom_site_type_symbol
_atom_site_label
_atom_site_fract_x
_atom_site_fract_y
_atom_site_fract_z
Si Si1 0.466201 0.933267 0.637624
Si Si2 0.779374 0.168117 0.520177
Si Si3 0.651099 0.044286 0.925749
Si Si4 0.175283 0.077714 0.453623
Si Si5 0.350673 0.195643 0.131551
Si Si6 0.994818 0.286202 0.357487
Si Si7 0.749873 0.656260 0.634833
Si Si8 0.935546 0.385604 0.636761
O O1 0.417746 0.926609 0.750000
O O2 0.393401 0.951222 0.539513
O O3 0.538750 0.857703 0.614227
O O4 0.555737 0.001959 0.637108
O O5 0.735708 0.250000 0.500000
O O6 0.691693 0.126850 0.592306
O O7 0.905507 0.178359 0.568232
O O8 0.814272 0.121376 0.422113
O O9 0.765581 0.995307 0.914084
O O10 0.240461 0.148343 0.405898
O O11 0.222075 0.086632 0.566417
O O12 0.040249 0.077626 0.425491
O O13 0.338392 0.200257 0.250000
O O14 0.343902 0.282094 0.100274
O O15 0.968711 0.317779 0.250000
O O16 0.973170 0.199765 0.355887
O O17 0.128158 0.301169 0.376927
O O18 0.730216 0.637568 0.750000
O O19 0.927018 0.414138 0.750000
#
# Coordination Sequence:
#
# PCOD9434355 Si02
#       8
#     8   8   8   8   8   8   8   8
#     4   9  20  42  64  82 111 150 189 246 300 338
#     4  10  21  38  59  82 115 157 194 234 287 331
#     4  10  23  39  59  86 111 147 200 242 287 356
#     4  11  19  31  53  79 120 152 182 232 286 336
#     4   9  17  30  55  84 107 142 190 233 283 339
#     4   9  17  31  52  78 114 152 188 223 269 332
#     4  10  18  29  49  82 117 149 186 228 277 336
#     4  10  19  32  52  80 114 155 194 224 269 338
#
# _framework density 22.582305000000002
#
# number of rings (size 3 to 8) (size 9 to 14) (size 15 to 20)
#    0.000    2.250    2.500    0.750    0.000    2.500 
#    0.000    3.750    0.000    1.500    0.000    0.000 
#    0.000    0.000    0.000    0.000    0.000    0.000 
#
# Total GULP energy -356583.760862 kJ/mol
# GULP energy per Si atom -5571.621263 kJ/mol
# Density = 2.253091 g / cm^3
# Si number density = 22.582305 Si / 1000 Ang^3
#
#
#
# Elastic Constant Matrix: (Units=GPa)
#
#
# Indices 1 2 3 4 5 6 
#
# 1 20.4361 9.5400 5.4469 0.0000 0.0000 0.0000
# 2 9.5400 28.4721 10.3620 0.0000 0.0000 0.0000
# 3 5.4469 10.3620 66.1840 0.0000 0.0000 0.0000
# 4 0.0000 0.0000 0.0000 14.1015 0.0000 0.0000
# 5 0.0000 0.0000 0.0000 0.0000 13.2964 0.0000
# 6 0.0000 0.0000 0.0000 0.0000 0.0000 22.1529
#
#
#
# Elastic Compliance Matrix: (Units=1/GPa)
#
#
# Indices 1 2 3 4 5 6 
#
# 1 0.058217 -0.018836 -0.001842 0.000000 0.000000 0.000000
# 2 -0.018836 0.043339 -0.005235 0.000000 0.000000 0.000000
# 3 -0.001842 -0.005235 0.016081 0.000000 0.000000 0.000000
# 4 0.000000 0.000000 0.000000 0.070914 0.000000 0.000000
# 5 0.000000 0.000000 0.000000 0.000000 0.075208 0.000000
# 6 0.000000 0.000000 0.000000 0.000000 0.000000 0.045141
#
#
# Mechanical properties :
#
#
# Convention : Reuss Voigt Hill
#
# Bulk Modulus (GPa) = 15.19534 18.42111 16.80822
# Shear Modulus (GPa) = 13.06635 15.89306 14.47971
#
# Velocity S-wave (km/s) = 2.40804 2.65577 2.53493
# Velocity P-wave (km/s) = 3.80461 4.19275 4.00339
#
# Compressibility (1/GPa) = 0.06580967
#
# Stress axis : x y z
#
# Youngs Moduli (GPa) = 17.17713 23.07414 62.18664
#
# Poissons Ratio (x) = 0.43462 0.11456
# Poissons Ratio (y) = 0.32355 0.32555
# Poissons Ratio (z) = 0.03164 0.12079
#
# Static dielectric constant tensor:
#      x y z
#    x 1.823140 0.000000 0.000000 
#    y 0.000000 1.863690 0.000000 
#    z 0.000000 0.000000 1.941980 
# 
# From -- ./inp_files/17961.got.cif
#   From: 2010.05.17/outbox.cif.g08.bks.cpg/sg57_9_cif.got.tgz:17961.got - 2010.06.03 13:58:18.
