data_PCOD9434729
_publ_section_title
;
Structure prediction by ZEFSAII (Michael W. Deem and Ramdas Pophale) SiO2 
 PCOD9434729
Probable space group: P B C M
;
_chemical_formula_sum "Si O2"
_cell_formula_units_Z 48
_cell_length_a 9.605937
_cell_length_b 7.550518
_cell_length_c 27.000100
_cell_angle_alpha 90.000000
_cell_angle_beta 90.000000
_cell_angle_gamma 90.000000
_cell_volume 1958.311859
_symmetry_space_group_name_H-M "P B C M"
_symmetry_group_IT_number 57
_symmetry_cell_setting 'orthorhombic'
loop_
_space_group_symop_operation_xyz
x,y,z
-x,-y,1/2+z
x,1/2-y,-z
-x,1/2+y,1/2-z
-x,-y,-z
x,y,1/2-z
-x,1/2+y,z
x,1/2-y,1/2+z
loop_
_atom_site_type_symbol
_atom_site_label
_atom_site_fract_x
_atom_site_fract_y
_atom_site_fract_z
Si Si1 0.952768 0.401675 0.750000
Si Si2 0.678140 0.668369 0.854346
Si Si3 0.536551 0.637569 0.551277
Si Si4 0.762404 0.743434 0.250000
Si Si5 0.161433 0.680270 0.144387
Si Si6 0.886251 0.559489 0.402112
Si Si7 0.748590 0.051140 0.991480
O O1 0.867848 0.586698 0.750000
O O2 0.904805 0.308512 0.699282
O O3 0.121392 0.411516 0.750000
O O4 0.556502 0.707037 0.893724
O O5 0.669279 0.743141 0.798929
O O6 0.711299 0.458215 0.851668
O O7 0.807519 0.777224 0.877119
O O8 0.538433 0.750000 0.500000
O O9 0.384566 0.555022 0.546218
O O10 0.673975 0.518901 0.540909
O O11 0.171419 0.875772 0.121290
O O12 0.046604 0.581359 0.110711
O O13 0.859346 0.559426 0.461037
O O14 0.797228 0.250000 0.000000
#
# Coordination Sequence:
#
# PCOD9434729 Si02
#       7
#     4   8   8   4   8   8   8
#     4  10  18  34  54  82 116 161 211 246 273 351
#     4  11  22  38  61  90 125 158 202 252 304 357
#     4  10  20  40  64  87 113 151 206 260 295 349
#     4  10  20  32  58  88 118 163 199 248 297 359
#     4  11  22  36  58  87 126 160 204 245 299 363
#     4  12  21  37  61  89 121 159 198 247 306 359
#     4  10  22  39  63  88 110 154 211 252 300 360
#
# _framework density 24.510905000000001
#
# number of rings (size 3 to 8) (size 9 to 14) (size 15 to 20)
#    0.000    1.333    5.000    2.000    0.000    0.000 
#    0.000    4.167    0.000    3.000    0.000    0.000 
#    0.000    0.000    0.000    0.000    0.000    0.000 
#
# Total GULP energy -268120.553361 kJ/mol
# GULP energy per Si atom -5585.844862 kJ/mol
# Density = 2.445512 g / cm^3
# Si number density = 24.510905 Si / 1000 Ang^3
#
#
#
# Elastic Constant Matrix: (Units=GPa)
#
#
# Indices 1 2 3 4 5 6 
#
# 1 34.9424 4.4745 49.1755 0.0000 0.0000 0.0000
# 2 4.4745 94.4644 4.7658 0.0000 0.0000 0.0000
# 3 49.1755 4.7658 166.7652 0.0000 0.0000 0.0000
# 4 0.0000 0.0000 0.0000 31.3491 0.0000 0.0000
# 5 0.0000 0.0000 0.0000 0.0000 32.2226 0.0000
# 6 0.0000 0.0000 0.0000 0.0000 0.0000 14.9100
#
#
#
# Elastic Compliance Matrix: (Units=1/GPa)
#
#
# Indices 1 2 3 4 5 6 
#
# 1 0.049160 -0.001600 -0.014451 0.000000 0.000000 0.000000
# 2 -0.001600 0.010653 0.000167 0.000000 0.000000 0.000000
# 3 -0.014451 0.000167 0.010253 0.000000 0.000000 0.000000
# 4 0.000000 0.000000 0.000000 0.031899 0.000000 0.000000
# 5 0.000000 0.000000 0.000000 0.000000 0.031034 0.000000
# 6 0.000000 0.000000 0.000000 0.000000 0.000000 0.067069
#
#
# Mechanical properties :
#
#
# Convention : Reuss Voigt Hill
#
# Bulk Modulus (GPa) = 26.10930 45.88928 35.99929
# Shear Modulus (GPa) = 20.44147 31.54674 25.99411
#
# Velocity S-wave (km/s) = 2.89099 3.59144 3.26008
# Velocity P-wave (km/s) = 4.67109 5.99671 5.37492
#
# Compressibility (1/GPa) = 0.03830053
#
# Stress axis : x y z
#
# Youngs Moduli (GPa) = 20.34172 93.86738 97.53408
#
# Poissons Ratio (x) = 0.15014 1.40942
# Poissons Ratio (y) = 0.03254 -0.01631
# Poissons Ratio (z) = 0.29395 -0.01570
#
# Static dielectric constant tensor:
#      x y z
#    x 1.941380 0.000000 0.000000 
#    y 0.000000 2.095040 0.000000 
#    z 0.000000 0.000000 1.945180 
# 
# From -- ./inp_files/28534.got.cif
#   From: 2010.05.17/outbox.cif.g08.bks.cpg/sg57_15_cif.got.tgz:28534.got - 2010.06.03 13:58:18.
