data_PCOD9434794
_publ_section_title
;
Structure prediction by ZEFSAII (Michael W. Deem and Ramdas Pophale) SiO2 
 PCOD9434794
Probable space group: P B C M
;
_chemical_formula_sum "Si O2"
_cell_formula_units_Z 64
_cell_length_a 23.206544
_cell_length_b 9.229050
_cell_length_c 14.845546
_cell_angle_alpha 90.000000
_cell_angle_beta 90.000000
_cell_angle_gamma 90.000000
_cell_volume 3179.535238
_symmetry_space_group_name_H-M "P B C M"
_symmetry_group_IT_number 57
_symmetry_cell_setting 'orthorhombic'
loop_
_space_group_symop_operation_xyz
x,y,z
-x,-y,1/2+z
x,1/2-y,-z
-x,1/2+y,1/2-z
-x,-y,-z
x,y,1/2-z
-x,1/2+y,z
x,1/2-y,1/2+z
loop_
_atom_site_type_symbol
_atom_site_label
_atom_site_fract_x
_atom_site_fract_y
_atom_site_fract_z
Si Si1 0.042990 0.130524 0.921996
Si Si2 0.814507 0.560002 0.356340
Si Si3 0.919044 0.112258 0.946236
Si Si4 0.646969 0.581320 0.982863
Si Si5 0.241503 0.921225 0.983507
Si Si6 0.572486 0.989360 0.854459
Si Si7 0.458075 0.347091 0.145313
Si Si8 0.834795 0.893138 0.148579
O O1 0.096138 0.131200 0.854306
O O2 0.977220 0.148162 0.889517
O O3 0.052160 0.250000 0.000000
O O4 0.054243 0.980356 0.972596
O O5 0.808751 0.538239 0.250000
O O6 0.873140 0.480921 0.390998
O O7 0.766000 0.489909 0.417642
O O8 0.813231 0.731771 0.374776
O O9 0.894335 0.250000 0.000000
O O10 0.624699 0.510988 0.075877
O O11 0.664184 0.750000 0.000000
O O12 0.699259 0.486589 0.945238
O O13 0.592109 0.588572 0.916622
O O14 0.190446 0.989982 0.921484
O O15 0.240947 0.750000 0.000000
O O16 0.588720 0.015329 0.750000
O O17 0.521217 0.097644 0.880942
O O18 0.546930 0.826296 0.860492
O O19 0.449491 0.389089 0.250000
O O20 0.817429 0.932303 0.250000
#
# Coordination Sequence:
#
# PCOD9434794 Si02
#       8
#     8   8   8   8   8   8   8   8
#     4  10  18  35  61  86 122 156 192 236 291 359
#     4  11  23  41  64  87 116 157 203 246 298 364
#     4  10  20  34  59  92 120 156 190 238 298 347
#     4  10  21  37  59  82 112 154 199 240 286 351
#     4  12  26  44  61  85 119 153 199 259 311 352
#     4   9  18  33  55  85 119 152 188 232 284 341
#     4   9  18  33  55  85 119 152 188 232 282 339
#     4  11  23  41  66  88 113 157 204 244 295 366
#
# _framework density 20.128729
#
# number of rings (size 3 to 8) (size 9 to 14) (size 15 to 20)
#    0.000    1.750    2.500    1.875    0.000    3.000 
#    0.000    2.500    0.000    0.000    0.000    0.000 
#    0.000    0.000    0.000    0.000    0.000    0.000 
#
# Total GULP energy -356939.454178 kJ/mol
# GULP energy per Si atom -5577.178972 kJ/mol
# Density = 2.008292 g / cm^3
# Si number density = 20.128729 Si / 1000 Ang^3
#
#
#
# Elastic Constant Matrix: (Units=GPa)
#
#
# Indices 1 2 3 4 5 6 
#
# 1 64.5792 11.4165 12.0099 0.0000 0.0000 0.0000
# 2 11.4165 77.4548 30.1018 0.0000 0.0000 0.0000
# 3 12.0099 30.1018 56.7435 0.0000 0.0000 0.0000
# 4 0.0000 0.0000 0.0000 16.9280 0.0000 0.0000
# 5 0.0000 0.0000 0.0000 0.0000 5.3090 0.0000
# 6 0.0000 0.0000 0.0000 0.0000 0.0000 21.0195
#
#
#
# Elastic Compliance Matrix: (Units=1/GPa)
#
#
# Indices 1 2 3 4 5 6 
#
# 1 0.016228 -0.001332 -0.002728 0.000000 0.000000 0.000000
# 2 -0.001332 0.016373 -0.008404 0.000000 0.000000 0.000000
# 3 -0.002728 -0.008404 0.022659 0.000000 0.000000 0.000000
# 4 0.000000 0.000000 0.000000 0.059074 0.000000 0.000000
# 5 0.000000 0.000000 0.000000 0.000000 0.188359 0.000000
# 6 0.000000 0.000000 0.000000 0.000000 0.000000 0.047575
#
#
# Mechanical properties :
#
#
# Convention : Reuss Voigt Hill
#
# Bulk Modulus (GPa) = 32.96843 33.98154 33.47499
# Shear Modulus (GPa) = 12.97673 18.33459 15.65566
#
# Velocity S-wave (km/s) = 2.54182 3.02133 2.79189
# Velocity P-wave (km/s) = 5.00288 5.39352 5.20187
#
# Compressibility (1/GPa) = 0.03033205
#
# Stress axis : x y z
#
# Youngs Moduli (GPa) = 61.62331 61.07580 44.13307
#
# Poissons Ratio (x) = 0.08133 0.12040
# Poissons Ratio (y) = 0.08206 0.37089
# Poissons Ratio (z) = 0.16812 0.51327
#
# Static dielectric constant tensor:
#      x y z
#    x 1.794090 0.000000 0.000000 
#    y 0.000000 1.773810 0.000000 
#    z 0.000000 0.000000 1.799680 
# 
# From -- ./inp_files/19510.got.cif
#   From: 2010.05.17/outbox.cif.g08.bks.cpg/sg57_10_cif.got.tgz:19510.got - 2010.06.03 13:58:18.
