data_PCOD9434214
_publ_section_title
;
Structure prediction by ZEFSAII (Michael W. Deem and Ramdas Pophale) SiO2 
 PCOD9434214
Probable space group: P B C M
;
_chemical_formula_sum "Si O2"
_cell_formula_units_Z 64
_cell_length_a 17.468351
_cell_length_b 24.830890
_cell_length_c 8.197491
_cell_angle_alpha 90.000000
_cell_angle_beta 90.000000
_cell_angle_gamma 90.000000
_cell_volume 3555.700267
_symmetry_space_group_name_H-M "P B C M"
_symmetry_group_IT_number 57
_symmetry_cell_setting 'orthorhombic'
loop_
_space_group_symop_operation_xyz
x,y,z
-x,-y,1/2+z
x,1/2-y,-z
-x,1/2+y,1/2-z
-x,-y,-z
x,y,1/2-z
-x,1/2+y,z
x,1/2-y,1/2+z
loop_
_atom_site_type_symbol
_atom_site_label
_atom_site_fract_x
_atom_site_fract_y
_atom_site_fract_z
Si Si1 0.181592 0.025639 0.945292
Si Si2 0.129552 0.190647 0.055830
Si Si3 0.141692 0.589230 0.449989
Si Si4 0.243119 0.688086 0.447127
Si Si5 0.274895 0.372824 0.444789
Si Si6 0.587487 0.187849 0.444837
Si Si7 0.966666 0.587317 0.446400
Si Si8 0.423608 0.187639 0.555663
O O1 0.190455 0.025034 0.750000
O O2 0.240632 0.070681 0.011150
O O3 0.187421 0.964227 0.002986
O O4 0.095654 0.046447 0.981952
O O5 0.139757 0.189672 0.250000
O O6 0.065676 0.146560 0.013068
O O7 0.108985 0.250000 0.000000
O O8 0.208589 0.170868 0.976294
O O9 0.141130 0.589998 0.250000
O O10 0.180674 0.644819 0.503918
O O11 0.053726 0.582676 0.503054
O O12 0.230968 0.750000 0.500000
O O13 0.242616 0.688324 0.250000
O O14 0.328474 0.668729 0.499493
O O15 0.283561 0.379293 0.250000
O O16 0.354532 0.349221 0.510284
O O17 0.586397 0.250000 0.500000
O O18 0.584684 0.185095 0.250000
O O19 0.507521 0.165319 0.510022
O O20 0.965383 0.581100 0.250000
O O21 0.416175 0.250000 0.500000
O O22 0.418296 0.188930 0.750000
#
# Coordination Sequence:
#
# PCOD9434214 Si02
#       8
#     8   8   8   8   8   8   8   8
#     4   9  17  31  50  68  88 117 152 188 223 261
#     4  10  19  29  42  61  89 123 152 181 221 266
#     4   9  17  31  51  70  89 116 150 186 223 265
#     4   9  18  32  49  70  94 119 147 181 223 269
#     4   9  18  30  44  65  90 117 151 186 220 261
#     4   9  16  27  44  65  89 116 146 179 217 262
#     4   9  18  31  46  66  91 118 149 188 229 263
#     4  10  18  27  42  65  91 116 145 180 217 261
#
# _framework density 17.999267
#
# number of rings (size 3 to 8) (size 9 to 14) (size 15 to 20)
#    0.000    2.750    0.000    2.625    0.000    3.500 
#    0.000    1.250    0.000    0.750    0.000    0.000 
#    0.000    0.000    0.000    0.000    0.000    2.625 
#
# Total GULP energy -356534.075659 kJ/mol
# GULP energy per Si atom -5570.844932 kJ/mol
# Density = 1.795830 g / cm^3
# Si number density = 17.999267 Si / 1000 Ang^3
#
#
#
# Elastic Constant Matrix: (Units=GPa)
#
#
# Indices 1 2 3 4 5 6 
#
# 1 70.9811 38.3077 5.8272 0.0000 0.0000 0.0000
# 2 38.3077 103.0040 5.5375 0.0000 0.0000 0.0000
# 3 5.8272 5.5375 7.1867 0.0000 0.0000 0.0000
# 4 0.0000 0.0000 0.0000 11.2495 0.0000 0.0000
# 5 0.0000 0.0000 0.0000 0.0000 -21.5021 0.0000
# 6 0.0000 0.0000 0.0000 0.0000 0.0000 103.6060
#
#
#
# Elastic Compliance Matrix: (Units=1/GPa)
#
#
# Indices 1 2 3 4 5 6 
#
# 1 0.018290 -0.006264 -0.010003 0.000000 0.000000 0.000000
# 2 -0.006264 0.012273 -0.004378 0.000000 0.000000 0.000000
# 3 -0.010003 -0.004378 0.150630 0.000000 0.000000 0.000000
# 4 0.000000 0.000000 0.000000 0.088893 0.000000 0.000000
# 5 0.000000 0.000000 0.000000 0.000000 -0.046507 0.000000
# 6 0.000000 0.000000 0.000000 0.000000 0.000000 0.009652
#
#
# Mechanical properties :
#
#
# Convention : Reuss Voigt Hill
#
# Bulk Modulus (GPa) = 7.14781 31.16850 19.15816
# Shear Modulus (GPa) = 15.56872 27.43732 21.50302
#
# Velocity S-wave (km/s) = 2.94422 3.90854 3.46014
# Velocity P-wave (km/s) = 3.94179 6.14191 5.16046
#
# Compressibility (1/GPa) = 0.13990299
#
# Stress axis : x y z
#
# Youngs Moduli (GPa) = 54.67365 81.47644 6.63878
#
# Poissons Ratio (x) = 0.51041 0.06641
# Poissons Ratio (y) = 0.34250 0.02906
# Poissons Ratio (z) = 0.54692 0.35667
#
# Static dielectric constant tensor:
#      x y z
#    x 1.641640 0.000000 0.000000 
#    y 0.000000 1.615580 0.000000 
#    z 0.000000 0.000000 1.633550 
# 
# From -- ./inp_files/7448.got.cif
#   From: 2010.05.17/outbox.cif.g08.bks.cpg/sg57_4_cif.got.tgz:7448.got - 2010.06.03 13:58:18.
