data_PCOD9434153
_publ_section_title
;
Structure prediction by ZEFSAII (Michael W. Deem and Ramdas Pophale) SiO2 
 PCOD9434153
Probable space group: P B C M
;
_chemical_formula_sum "Si O2"
_cell_formula_units_Z 44
_cell_length_a 18.982877
_cell_length_b 5.222155
_cell_length_c 25.610835
_cell_angle_alpha 90.000000
_cell_angle_beta 90.000000
_cell_angle_gamma 90.000000
_cell_volume 2538.841157
_symmetry_space_group_name_H-M "P B C M"
_symmetry_group_IT_number 57
_symmetry_cell_setting 'orthorhombic'
loop_
_space_group_symop_operation_xyz
x,y,z
-x,-y,1/2+z
x,1/2-y,-z
-x,1/2+y,1/2-z
-x,-y,-z
x,y,1/2-z
-x,1/2+y,z
x,1/2-y,1/2+z
loop_
_atom_site_type_symbol
_atom_site_label
_atom_site_fract_x
_atom_site_fract_y
_atom_site_fract_z
Si Si1 0.547008 0.819779 0.750000
Si Si2 0.276501 0.301220 0.557109
Si Si3 0.972449 0.061090 0.441402
Si Si4 0.329735 0.281180 0.831183
Si Si5 0.815503 0.200036 0.080639
Si Si6 0.237219 0.778562 0.807778
O O1 0.489453 0.595823 0.750000
O O2 0.597091 0.789705 0.699377
O O3 0.308071 0.250000 0.500000
O O4 0.330117 0.306440 0.605858
O O5 0.229011 0.559089 0.558857
O O6 0.225198 0.061142 0.567487
O O7 0.894089 0.171010 0.440284
O O8 0.021663 0.279588 0.416445
O O9 0.000000 0.000000 0.500000
O O10 0.283146 0.520563 0.811861
O O11 0.289294 0.019341 0.816782
O O12 0.815559 0.226055 0.143474
O O13 0.205934 0.797977 0.750000
#
# Coordination Sequence:
#
# PCOD9434153 Si02
#       6
#     4   8   8   8   8   8
#     4  12  22  34  58  84 114 144 172 214 250 320
#     4  10  21  33  55  76 107 138 171 233 258 312
#     4  10  21  32  46  65  99 143 165 217 265 310
#     4  10  20  35  52  81 112 136 175 210 274 304
#     4  10  21  32  50  79  99 135 188 211 275 326
#     4  10  17  33  56  75 104 137 165 236 267 311
#
# _framework density 17.330741
#
# number of rings (size 3 to 8) (size 9 to 14) (size 15 to 20)
#    0.000    1.818    1.818    2.727    7.636    0.000 
#    0.000    0.000    0.000    2.182    0.000    0.000 
#    0.000    0.000    0.000    0.000    0.000    0.000 
#
# Total GULP energy -245302.501100 kJ/mol
# GULP energy per Si atom -5575.056843 kJ/mol
# Density = 1.729130 g / cm^3
# Si number density = 17.330741 Si / 1000 Ang^3
#
#
#
# Elastic Constant Matrix: (Units=GPa)
#
#
# Indices 1 2 3 4 5 6 
#
# 1 34.0650 -51.3228 -4.8381 0.0000 0.0000 0.0000
# 2 -51.3228 -43.3246 -124.8687 0.0000 0.0000 0.0000
# 3 -4.8381 -124.8687 25.9219 0.0000 0.0000 0.0000
# 4 0.0000 0.0000 0.0000 20.3104 0.0000 0.0000
# 5 0.0000 0.0000 0.0000 0.0000 29.2763 0.0000
# 6 0.0000 0.0000 0.0000 0.0000 0.0000 11.9800
#
#
#
# Elastic Compliance Matrix: (Units=1/GPa)
#
#
# Indices 1 2 3 4 5 6 
#
# 1 0.023924 -0.002769 -0.008872 0.000000 0.000000 0.000000
# 2 -0.002769 -0.001230 -0.006444 0.000000 0.000000 0.000000
# 3 -0.008872 -0.006444 0.005882 0.000000 0.000000 0.000000
# 4 0.000000 0.000000 0.000000 0.049236 0.000000 0.000000
# 5 0.000000 0.000000 0.000000 0.000000 0.034157 0.000000
# 6 0.000000 0.000000 0.000000 0.000000 0.000000 0.083472
#
#
# Mechanical properties :
#
#
# Convention : Reuss Voigt Hill
#
# Bulk Modulus (GPa) = -131.69142 -38.37744 -85.03443
# Shear Modulus (GPa) = 21.82646 25.49281 23.65964
#
# Velocity S-wave (km/s) = 3.55266 3.83947 3.69885
# Velocity P-wave (km/s) = 7.70218 1.59275 5.56149
#
# Compressibility (1/GPa) = -0.00759351
#
# Stress axis : x y z
#
# Youngs Moduli (GPa) = 41.79908 -812.77749 170.00057
#
# Poissons Ratio (x) = -2.25043 1.50832
# Poissons Ratio (y) = 0.11573 1.09540
# Poissons Ratio (z) = 0.37086 -5.23714
#
# Static dielectric constant tensor:
#      x y z
#    x 1.563500 0.000000 0.000000 
#    y 0.000000 1.658200 0.000000 
#    z 0.000000 0.000000 1.654500 
# 
# From -- ./inp_files/27533.got.cif
#   From: 2010.05.17/outbox.cif.g08.bks.cpg/sg57_14_cif.got.tgz:27533.got - 2010.06.03 13:58:18.
