data_PCOD9434820
_publ_section_title
;
Structure prediction by ZEFSAII (Michael W. Deem and Ramdas Pophale) SiO2 
 PCOD9434820
Probable space group: P B C M
;
_chemical_formula_sum "Si O2"
_cell_formula_units_Z 28
_cell_length_a 6.597873
_cell_length_b 13.408056
_cell_length_c 14.236023
_cell_angle_alpha 90.000000
_cell_angle_beta 90.000000
_cell_angle_gamma 90.000000
_cell_volume 1259.384802
_symmetry_space_group_name_H-M "P B C M"
_symmetry_group_IT_number 57
_symmetry_cell_setting 'orthorhombic'
loop_
_space_group_symop_operation_xyz
x,y,z
-x,-y,1/2+z
x,1/2-y,-z
-x,1/2+y,1/2-z
-x,-y,-z
x,y,1/2-z
-x,1/2+y,z
x,1/2-y,1/2+z
loop_
_atom_site_type_symbol
_atom_site_label
_atom_site_fract_x
_atom_site_fract_y
_atom_site_fract_z
Si Si1 0.134132 0.557821 0.750000
Si Si2 0.827568 0.667939 0.250000
Si Si3 0.794300 0.551374 0.591955
Si Si4 0.948185 0.343753 0.557212
Si Si5 0.463575 0.149076 0.750000
O O1 0.235661 0.448222 0.750000
O O2 0.297053 0.644056 0.750000
O O3 0.989588 0.561398 0.660205
O O4 0.966014 0.684988 0.158607
O O5 0.641846 0.743769 0.250000
O O6 0.857149 0.613797 0.500815
O O7 0.614334 0.592001 0.656156
O O8 0.789767 0.434633 0.566218
O O9 0.866669 0.250000 0.500000
#
# Coordination Sequence:
#
# PCOD9434820 Si02
#       5
#     4   4   8   8   4
#     4   9  21  39  57  92 120 148 203 239 281 361
#     4  10  20  36  60  86 118 158 192 242 300 342
#     4   9  20  37  62  86 115 159 190 243 295 339
#     4  10  18  36  62  85 116 151 198 238 290 352
#     4  11  19  39  63  84 126 158 187 239 301 339
#
# _framework density 22.233077000000002
#
# number of rings (size 3 to 8) (size 9 to 14) (size 15 to 20)
#    0.000    2.286    2.857    0.857    0.000    0.000 
#    5.143   12.857    0.000    0.000    0.000    0.000 
#    0.000    0.000    0.000    0.000    0.000    0.000 
#
# Total GULP energy -156575.564051 kJ/mol
# GULP energy per Si atom -5591.984430 kJ/mol
# Density = 2.218247 g / cm^3
# Si number density = 22.233077 Si / 1000 Ang^3
#
#
#
# Elastic Constant Matrix: (Units=GPa)
#
#
# Indices 1 2 3 4 5 6 
#
# 1 32.4586 18.9881 7.5814 0.0000 0.0000 0.0000
# 2 18.9881 101.9959 34.6928 0.0000 0.0000 0.0000
# 3 7.5814 34.6928 148.7608 0.0000 0.0000 0.0000
# 4 0.0000 0.0000 0.0000 31.6555 0.0000 0.0000
# 5 0.0000 0.0000 0.0000 0.0000 -3.1389 0.0000
# 6 0.0000 0.0000 0.0000 0.0000 0.0000 17.3323
#
#
#
# Elastic Compliance Matrix: (Units=1/GPa)
#
#
# Indices 1 2 3 4 5 6 
#
# 1 0.034585 -0.006342 -0.000284 0.000000 0.000000 0.000000
# 2 -0.006342 0.011812 -0.002431 0.000000 0.000000 0.000000
# 3 -0.000284 -0.002431 0.007304 0.000000 0.000000 0.000000
# 4 0.000000 0.000000 0.000000 0.031590 0.000000 0.000000
# 5 0.000000 0.000000 0.000000 0.000000 -0.318584 0.000000
# 6 0.000000 0.000000 0.000000 0.000000 0.000000 0.057696
#
#
# Mechanical properties :
#
#
# Convention : Reuss Voigt Hill
#
# Bulk Modulus (GPa) = 28.10064 45.08223 36.59143
# Shear Modulus (GPa) = -34.33564 23.96665 -5.18449
#
# Velocity S-wave (km/s) = -3.93408 3.28681 -1.52871
# Velocity P-wave (km/s) = 2.82303 5.89282 3.65758
#
# Compressibility (1/GPa) = 0.03558638
#
# Stress axis : x y z
#
# Youngs Moduli (GPa) = 28.91441 84.65937 136.91683
#
# Poissons Ratio (x) = 0.53692 0.03882
# Poissons Ratio (y) = 0.18338 0.33291
# Poissons Ratio (z) = 0.00820 0.20585
#
# Static dielectric constant tensor:
#      x y z
#    x 1.758280 0.000000 0.000000 
#    y 0.000000 1.872260 0.000000 
#    z 0.000000 0.000000 1.868050 
# 
# From -- ./inp_files/15656.got.cif
#   From: 2010.05.17/outbox.cif.g08.bks.cpg/sg57_8_cif.got.tgz:15656.got - 2010.06.03 13:58:18.
