data_PCOD9434842
_publ_section_title
;
Structure prediction by ZEFSAII (Michael W. Deem and Ramdas Pophale) SiO2 
 PCOD9434842
Probable space group: P B C M
;
_chemical_formula_sum "Si O2"
_cell_formula_units_Z 48
_cell_length_a 8.399315
_cell_length_b 10.292128
_cell_length_c 23.168395
_cell_angle_alpha 90.000000
_cell_angle_beta 90.000000
_cell_angle_gamma 90.000000
_cell_volume 2002.834190
_symmetry_space_group_name_H-M "P B C M"
_symmetry_group_IT_number 57
_symmetry_cell_setting 'orthorhombic'
loop_
_space_group_symop_operation_xyz
x,y,z
-x,-y,1/2+z
x,1/2-y,-z
-x,1/2+y,1/2-z
-x,-y,-z
x,y,1/2-z
-x,1/2+y,z
x,1/2-y,1/2+z
loop_
_atom_site_type_symbol
_atom_site_label
_atom_site_fract_x
_atom_site_fract_y
_atom_site_fract_z
Si Si1 0.630727 0.825257 0.164569
Si Si2 0.262183 0.625307 0.415452
Si Si3 0.143554 0.900241 0.093965
Si Si4 0.590488 0.951350 0.642846
Si Si5 0.204737 0.130650 0.542343
Si Si6 0.071367 0.004651 0.813341
O O1 0.470643 0.912406 0.170913
O O2 0.627800 0.674529 0.181521
O O3 0.685986 0.832034 0.097327
O O4 0.775616 0.903126 0.192180
O O5 0.242332 0.775610 0.425003
O O6 0.434043 0.598394 0.389675
O O7 0.245493 0.521871 0.467299
O O8 0.129028 0.591230 0.365417
O O9 0.265594 0.019828 0.098859
O O10 0.981502 0.885077 0.058150
O O11 0.072205 0.911443 0.159721
O O12 0.222435 0.250000 0.500000
O O13 0.035463 0.948734 0.750000
#
# Coordination Sequence:
#
# PCOD9434842 Si02
#       6
#     8   8   8   8   8   8
#     4   9  20  37  62  79 115 149 188 231 284 333
#     4   9  20  38  58  80 113 149 186 233 278 338
#     4  10  20  35  60  82 110 149 189 227 283 333
#     4  10  18  38  60  80 111 150 185 232 282 332
#     4   9  21  37  57  84 113 145 188 235 280 334
#     4   9  21  37  57  84 113 145 188 235 280 334
#
# _framework density 23.966038000000001
#
# number of rings (size 3 to 8) (size 9 to 14) (size 15 to 20)
#    0.000    3.333    1.667    0.000    9.333    1.333 
#    0.000   13.333    0.000    0.000    0.000    0.000 
#    0.000    0.000    0.000    0.000    0.000    0.000 
#
# Total GULP energy -267293.284147 kJ/mol
# GULP energy per Si atom -5568.610086 kJ/mol
# Density = 2.391149 g / cm^3
# Si number density = 23.966038 Si / 1000 Ang^3
#
#
#
# Elastic Constant Matrix: (Units=GPa)
#
#
# Indices 1 2 3 4 5 6 
#
# 1 54.4877 1.6632 -3.6428 0.0000 0.0000 0.0000
# 2 1.6632 137.5536 14.9213 0.0000 0.0000 0.0000
# 3 -3.6428 14.9213 67.0160 0.0000 0.0000 0.0000
# 4 0.0000 0.0000 0.0000 -98.5038 0.0000 0.0000
# 5 0.0000 0.0000 0.0000 0.0000 -50.4295 0.0000
# 6 0.0000 0.0000 0.0000 0.0000 0.0000 24.5462
#
#
#
# Elastic Compliance Matrix: (Units=1/GPa)
#
#
# Indices 1 2 3 4 5 6 
#
# 1 0.018435 -0.000340 0.001078 0.000000 0.000000 0.000000
# 2 -0.000340 0.007456 -0.001679 0.000000 0.000000 0.000000
# 3 0.001078 -0.001679 0.015354 0.000000 0.000000 0.000000
# 4 0.000000 0.000000 0.000000 -0.010152 0.000000 0.000000
# 5 0.000000 0.000000 0.000000 0.000000 -0.019830 0.000000
# 6 0.000000 0.000000 0.000000 0.000000 0.000000 0.040740
#
#
# Mechanical properties :
#
#
# Convention : Reuss Voigt Hill
#
# Bulk Modulus (GPa) = 25.40385 31.66008 28.53197
# Shear Modulus (GPa) = 74.62012 -8.46971 33.07520
#
# Velocity S-wave (km/s) = 5.58600 -1.88195 3.71898
# Velocity P-wave (km/s) = 7.22686 2.91835 5.51109
#
# Compressibility (1/GPa) = 0.03936411
#
# Stress axis : x y z
#
# Youngs Moduli (GPa) = 54.24408 134.11858 65.12900
#
# Poissons Ratio (x) = 0.04558 -0.07019
# Poissons Ratio (y) = 0.01843 0.10933
# Poissons Ratio (z) = -0.05846 0.22513
#
# Static dielectric constant tensor:
#      x y z
#    x 1.897800 0.000000 0.000000 
#    y 0.000000 1.999280 0.000000 
#    z 0.000000 0.000000 1.905970 
# 
# From -- ./inp_files/28286.got.cif
#   From: 2010.05.17/outbox.cif.g08.bks.cpg/sg57_15_cif.got.tgz:28286.got - 2010.06.03 13:58:18.
