data_PCOD9434658
_publ_section_title
;
Structure prediction by ZEFSAII (Michael W. Deem and Ramdas Pophale) SiO2 
 PCOD9434658
Probable space group: P B C M
;
_chemical_formula_sum "Si O2"
_cell_formula_units_Z 64
_cell_length_a 15.301951
_cell_length_b 30.450835
_cell_length_c 8.655228
_cell_angle_alpha 90.000000
_cell_angle_beta 90.000000
_cell_angle_gamma 90.000000
_cell_volume 4032.965675
_symmetry_space_group_name_H-M "P B C M"
_symmetry_group_IT_number 57
_symmetry_cell_setting 'orthorhombic'
loop_
_space_group_symop_operation_xyz
x,y,z
-x,-y,1/2+z
x,1/2-y,-z
-x,1/2+y,1/2-z
-x,-y,-z
x,y,1/2-z
-x,1/2+y,z
x,1/2-y,1/2+z
loop_
_atom_site_type_symbol
_atom_site_label
_atom_site_fract_x
_atom_site_fract_y
_atom_site_fract_z
Si Si1 0.962997 0.107714 0.437962
Si Si2 0.209517 0.295577 0.067260
Si Si3 0.625921 0.027466 0.565623
Si Si4 0.136532 0.054332 0.436133
Si Si5 0.184067 0.539815 0.435393
Si Si6 0.704932 0.619990 0.067230
Si Si7 0.557900 0.564501 0.566896
Si Si8 0.013993 0.203157 0.435290
O O1 0.964089 0.108139 0.250000
O O2 0.879796 0.079147 0.486375
O O3 0.965702 0.158571 0.487516
O O4 0.051462 0.082100 0.485007
O O5 0.197694 0.291998 0.250000
O O6 0.245261 0.250000 0.000000
O O7 0.269211 0.336405 0.022988
O O8 0.114479 0.302025 0.989313
O O9 0.628789 0.019702 0.750000
O O10 0.719709 0.042927 0.507491
O O11 0.545200 0.060144 0.533064
O O12 0.600564 0.981819 0.483706
O O13 0.133272 0.048719 0.250000
O O14 0.223060 0.082623 0.472302
O O15 0.143293 0.006786 0.512905
O O16 0.190562 0.540433 0.250000
O O17 0.711802 0.628003 0.250000
O O18 0.610550 0.601702 0.022315
O O19 0.569304 0.570169 0.750000
O O20 0.982173 0.250000 0.500000
O O21 0.012260 0.205139 0.250000
#
# Coordination Sequence:
#
# PCOD9434658 Si02
#       8
#     8   8   8   8   8   8   8   8
#     4   9  19  34  49  67  97 134 166 202 248 294
#     4  11  21  33  50  73 101 131 168 205 246 295
#     4  10  20  34  49  69  98 129 160 204 252 288
#     4  10  19  33  48  66  98 137 168 200 243 288
#     4  11  21  32  49  71  96 131 173 210 243 289
#     4  11  20  32  52  74 101 133 165 202 250 296
#     4  10  20  33  51  72  95 126 165 203 243 295
#     4  10  18  33  51  70  97 127 164 207 253 295
#
# _framework density 15.869215000000001
#
# number of rings (size 3 to 8) (size 9 to 14) (size 15 to 20)
#    0.000    1.750    2.500    4.125    0.000    2.000 
#    0.000    3.125    0.000    0.000    0.000    0.875 
#    0.000    4.000    0.000    0.000    0.000    0.000 
#
# Total GULP energy -357216.928250 kJ/mol
# GULP energy per Si atom -5581.514504 kJ/mol
# Density = 1.583310 g / cm^3
# Si number density = 15.869215 Si / 1000 Ang^3
#
#
#
# Elastic Constant Matrix: (Units=GPa)
#
#
# Indices 1 2 3 4 5 6 
#
# 1 80.8133 44.0928 15.5551 0.0000 0.0000 0.0000
# 2 44.0928 104.6741 22.7637 0.0000 0.0000 0.0000
# 3 15.5551 22.7637 40.8601 0.0000 0.0000 0.0000
# 4 0.0000 0.0000 0.0000 24.3281 0.0000 0.0000
# 5 0.0000 0.0000 0.0000 0.0000 21.4335 0.0000
# 6 0.0000 0.0000 0.0000 0.0000 0.0000 16.7977
#
#
#
# Elastic Compliance Matrix: (Units=1/GPa)
#
#
# Indices 1 2 3 4 5 6 
#
# 1 0.016327 -0.006288 -0.002713 0.000000 0.000000 0.000000
# 2 -0.006288 0.013292 -0.005011 0.000000 0.000000 0.000000
# 3 -0.002713 -0.005011 0.028298 0.000000 0.000000 0.000000
# 4 0.000000 0.000000 0.000000 0.041105 0.000000 0.000000
# 5 0.000000 0.000000 0.000000 0.000000 0.046656 0.000000
# 6 0.000000 0.000000 0.000000 0.000000 0.000000 0.059532
#
#
# Mechanical properties :
#
#
# Convention : Reuss Voigt Hill
#
# Bulk Modulus (GPa) = 33.45171 43.46342 38.45757
# Shear Modulus (GPa) = 20.55938 22.10757 21.33348
#
# Velocity S-wave (km/s) = 3.60328 3.73649 3.67049
# Velocity P-wave (km/s) = 6.19975 6.78698 6.50000
#
# Compressibility (1/GPa) = 0.02989384
#
# Stress axis : x y z
#
# Youngs Moduli (GPa) = 61.24841 75.23370 35.33776
#
# Poissons Ratio (x) = 0.47304 0.09586
# Poissons Ratio (y) = 0.38511 0.17709
# Poissons Ratio (z) = 0.16614 0.37703
#
# Static dielectric constant tensor:
#      x y z
#    x 1.519780 0.000000 0.000000 
#    y 0.000000 1.532500 0.000000 
#    z 0.000000 0.000000 1.548840 
# 
# From -- ./inp_files/6068.got.cif
#   From: 2010.05.17/outbox.cif.g08.bks.cpg/sg57_4_cif.got.tgz:6068.got - 2010.06.03 13:58:18.
