data_PCOD9434475
_publ_section_title
;
Structure prediction by ZEFSAII (Michael W. Deem and Ramdas Pophale) SiO2 
 PCOD9434475
Probable space group: P B C M
;
_chemical_formula_sum "Si O2"
_cell_formula_units_Z 48
_cell_length_a 16.781532
_cell_length_b 4.900259
_cell_length_c 28.565941
_cell_angle_alpha 90.000000
_cell_angle_beta 90.000000
_cell_angle_gamma 90.000000
_cell_volume 2349.087399
_symmetry_space_group_name_H-M "P B C M"
_symmetry_group_IT_number 57
_symmetry_cell_setting 'orthorhombic'
loop_
_space_group_symop_operation_xyz
x,y,z
-x,-y,1/2+z
x,1/2-y,-z
-x,1/2+y,1/2-z
-x,-y,-z
x,y,1/2-z
-x,1/2+y,z
x,1/2-y,1/2+z
loop_
_atom_site_type_symbol
_atom_site_label
_atom_site_fract_x
_atom_site_fract_y
_atom_site_fract_z
Si Si1 0.415075 0.848430 0.750000
Si Si2 0.311815 0.160192 0.250000
Si Si3 0.180416 0.560969 0.873537
Si Si4 0.947426 0.801494 0.695590
Si Si5 0.721697 0.589559 0.849901
Si Si6 0.947705 0.226434 0.055627
Si Si7 0.453664 0.841759 0.644646
O O1 0.335066 0.657289 0.750000
O O2 0.392963 0.165729 0.750000
O O3 0.455215 0.792263 0.700794
O O4 0.274993 0.263964 0.298724
O O5 0.119043 0.412813 0.838574
O O6 0.245455 0.325880 0.884016
O O7 0.128696 0.673031 0.916521
O O8 0.223056 0.823113 0.850999
O O9 0.923774 0.836199 0.750000
O O10 0.025613 0.991063 0.688177
O O11 0.632990 0.479048 0.861662
O O12 0.022483 0.423889 0.067351
O O13 0.934630 0.250000 0.000000
O O14 0.522759 0.043931 0.626901
#
# Coordination Sequence:
#
# PCOD9434475 Si02
#       7
#     4   4   8   8   8   8   8
#     4  10  18  31  50  68  90 135 191 240 277 315
#     4  10  20  35  46  68 106 143 187 228 273 321
#     4  12  22  36  56  80 115 144 182 234 286 337
#     4  10  21  35  51  71  99 141 189 220 254 312
#     4  11  24  34  52  79 110 149 191 233 282 340
#     4  10  21  39  64  90 114 144 183 228 288 354
#     4  11  20  34  51  70 102 142 191 237 279 324
#
# _framework density 20.433465999999999
#
# number of rings (size 3 to 8) (size 9 to 14) (size 15 to 20)
#    0.000    1.333    0.000    8.500    2.333    0.000 
#    0.000    0.000    0.000    0.000    0.000    0.000 
#    0.000   13.333    0.000    0.000    0.000    0.000 
#
# Total GULP energy -268130.795870 kJ/mol
# GULP energy per Si atom -5586.058247 kJ/mol
# Density = 2.038696 g / cm^3
# Si number density = 20.433466 Si / 1000 Ang^3
#
#
#
# Elastic Constant Matrix: (Units=GPa)
#
#
# Indices 1 2 3 4 5 6 
#
# 1 83.1879 19.7196 24.7372 0.0000 0.0000 0.0000
# 2 19.7196 80.6344 -1.7197 0.0000 0.0000 0.0000
# 3 24.7372 -1.7197 25.4012 0.0000 0.0000 0.0000
# 4 0.0000 0.0000 0.0000 14.1207 0.0000 0.0000
# 5 0.0000 0.0000 0.0000 0.0000 19.5588 0.0000
# 6 0.0000 0.0000 0.0000 0.0000 0.0000 45.6646
#
#
#
# Elastic Compliance Matrix: (Units=1/GPa)
#
#
# Indices 1 2 3 4 5 6 
#
# 1 0.018722 -0.004975 -0.018570 0.000000 0.000000 0.000000
# 2 -0.004975 0.013741 0.005775 0.000000 0.000000 0.000000
# 3 -0.018570 0.005775 0.057843 0.000000 0.000000 0.000000
# 4 0.000000 0.000000 0.000000 0.070818 0.000000 0.000000
# 5 0.000000 0.000000 0.000000 0.000000 0.051128 0.000000
# 6 0.000000 0.000000 0.000000 0.000000 0.000000 0.021899
#
#
# Mechanical properties :
#
#
# Convention : Reuss Voigt Hill
#
# Bulk Modulus (GPa) = 18.25871 30.52196 24.39034
# Shear Modulus (GPa) = 17.36433 25.63457 21.49945
#
# Velocity S-wave (km/s) = 2.91829 3.54579 3.24723
# Velocity P-wave (km/s) = 4.50670 5.63322 5.10115
#
# Compressibility (1/GPa) = 0.05476837
#
# Stress axis : x y z
#
# Youngs Moduli (GPa) = 53.41267 72.77288 17.28806
#
# Poissons Ratio (x) = 0.36202 0.32103
# Poissons Ratio (y) = 0.26571 -0.09984
# Poissons Ratio (z) = 0.99185 -0.42026
#
# Static dielectric constant tensor:
#      x y z
#    x 1.786940 0.000000 0.000000 
#    y 0.000000 1.737760 0.000000 
#    z 0.000000 0.000000 1.713820 
# 
# From -- ./inp_files/29844.got.cif
#   From: 2010.05.17/outbox.cif.g08.bks.cpg/sg57_15_cif.got.tgz:29844.got - 2010.06.03 13:58:18.
