data_PCOD9434889
_publ_section_title
;
Structure prediction by ZEFSAII (Michael W. Deem and Ramdas Pophale) SiO2 
 PCOD9434889
Probable space group: P B C M
;
_chemical_formula_sum "Si O2"
_cell_formula_units_Z 64
_cell_length_a 18.474522
_cell_length_b 24.799400
_cell_length_c 9.178461
_cell_angle_alpha 90.000000
_cell_angle_beta 90.000000
_cell_angle_gamma 90.000000
_cell_volume 4205.176715
_symmetry_space_group_name_H-M "P B C M"
_symmetry_group_IT_number 57
_symmetry_cell_setting 'orthorhombic'
loop_
_space_group_symop_operation_xyz
x,y,z
-x,-y,1/2+z
x,1/2-y,-z
-x,1/2+y,1/2-z
-x,-y,-z
x,y,1/2-z
-x,1/2+y,z
x,1/2-y,1/2+z
loop_
_atom_site_type_symbol
_atom_site_label
_atom_site_fract_x
_atom_site_fract_y
_atom_site_fract_z
Si Si1 0.479962 0.084626 0.420735
Si Si2 0.045168 0.422167 0.418190
Si Si3 0.904762 0.048107 0.081662
Si Si4 0.542999 0.694090 0.921469
Si Si5 0.385430 0.502989 0.079323
Si Si6 0.186505 0.107418 0.419465
Si Si7 0.763470 0.017414 0.919868
Si Si8 0.716968 0.805568 0.420868
O O1 0.462484 0.091999 0.250000
O O2 0.488868 0.141698 0.499563
O O3 0.417293 0.049736 0.498935
O O4 0.552407 0.048531 0.431461
O O5 0.040315 0.405302 0.250000
O O6 0.069610 0.485268 0.418711
O O7 0.108172 0.391465 0.504274
O O8 0.968153 0.420233 0.498490
O O9 0.898048 0.064538 0.250000
O O10 0.828542 0.049124 0.998257
O O11 0.525290 0.695511 0.750000
O O12 0.630252 0.688560 0.934987
O O13 0.522452 0.750000 0.000000
O O14 0.373073 0.491112 0.250000
O O15 0.312243 0.522279 0.002993
O O16 0.181450 0.122461 0.250000
O O17 0.241954 0.145560 0.503085
O O18 0.214516 0.045818 0.426720
O O19 0.757322 0.032186 0.750000
O O20 0.737400 0.750000 0.500000
O O21 0.734330 0.803379 0.250000
#
# Coordination Sequence:
#
# PCOD9434889 Si02
#       8
#     8   8   8   8   8   8   8   8
#     4  10  20  33  48  66  90 119 152 189 228 273
#     4   9  16  26  40  58  81 110 143 175 208 247
#     4   9  16  26  40  58  83 112 141 175 211 248
#     4  10  20  33  50  69  90 117 150 188 229 272
#     4  10  20  32  46  65  90 121 154 188 228 273
#     4  10  19  29  42  61  85 114 147 181 217 258
#     4  10  19  29  43  63  87 116 149 183 219 262
#     4  10  20  32  45  62  84 111 143 180 220 259
#
# _framework density 15.219336
#
# number of rings (size 3 to 8) (size 9 to 14) (size 15 to 20)
#    0.000    2.250    0.000    3.750    0.000    9.500 
#    0.000    0.000    0.000    0.000    0.000    0.000 
#    0.000    1.000    0.000    7.000    0.000    5.875 
#
# Total GULP energy -357039.677865 kJ/mol
# GULP energy per Si atom -5578.744967 kJ/mol
# Density = 1.518470 g / cm^3
# Si number density = 15.219336 Si / 1000 Ang^3
#
#
#
# Elastic Constant Matrix: (Units=GPa)
#
#
# Indices 1 2 3 4 5 6 
#
# 1 60.8204 -3.1970 45.4252 0.0000 0.0000 0.0000
# 2 -3.1970 47.2540 32.1815 0.0000 0.0000 0.0000
# 3 45.4252 32.1815 143.5800 0.0000 0.0000 0.0000
# 4 0.0000 0.0000 0.0000 23.2184 0.0000 0.0000
# 5 0.0000 0.0000 0.0000 0.0000 27.6063 0.0000
# 6 0.0000 0.0000 0.0000 0.0000 0.0000 15.0919
#
#
#
# Elastic Compliance Matrix: (Units=1/GPa)
#
#
# Indices 1 2 3 4 5 6 
#
# 1 0.023821 0.007959 -0.009320 0.000000 0.000000 0.000000
# 2 0.007959 0.027634 -0.008712 0.000000 0.000000 0.000000
# 3 -0.009320 -0.008712 0.011866 0.000000 0.000000 0.000000
# 4 0.000000 0.000000 0.000000 0.043069 0.000000 0.000000
# 5 0.000000 0.000000 0.000000 0.000000 0.036224 0.000000
# 6 0.000000 0.000000 0.000000 0.000000 0.000000 0.066261
#
#
# Mechanical properties :
#
#
# Convention : Reuss Voigt Hill
#
# Bulk Modulus (GPa) = 23.16144 44.49710 33.82927
# Shear Modulus (GPa) = 20.54124 24.99964 22.77044
#
# Velocity S-wave (km/s) = 3.67779 4.05733 3.87221
# Velocity P-wave (km/s) = 5.76943 7.15890 6.50139
#
# Compressibility (1/GPa) = 0.04317520
#
# Stress axis : x y z
#
# Youngs Moduli (GPa) = 41.97898 36.18759 84.27316
#
# Poissons Ratio (x) = -0.28803 0.78547
# Poissons Ratio (y) = -0.33412 0.73417
# Poissons Ratio (z) = 0.39126 0.31526
#
# Static dielectric constant tensor:
#      x y z
#    x 1.493520 0.000000 0.000000 
#    y 0.000000 1.481910 0.000000 
#    z 0.000000 0.000000 1.510240 
# 
# From -- ./inp_files/7398.got.cif
#   From: 2010.05.17/outbox.cif.g08.bks.cpg/sg57_4_cif.got.tgz:7398.got - 2010.06.03 13:58:18.
