data_PCOD9434468
_publ_section_title
;
Structure prediction by ZEFSAII (Michael W. Deem and Ramdas Pophale) SiO2 
 PCOD9434468
Probable space group: P B C M
;
_chemical_formula_sum "Si O2"
_cell_formula_units_Z 64
_cell_length_a 15.877040
_cell_length_b 9.061585
_cell_length_c 24.525794
_cell_angle_alpha 90.000000
_cell_angle_beta 90.000000
_cell_angle_gamma 90.000000
_cell_volume 3528.554126
_symmetry_space_group_name_H-M "P B C M"
_symmetry_group_IT_number 57
_symmetry_cell_setting 'orthorhombic'
loop_
_space_group_symop_operation_xyz
x,y,z
-x,-y,1/2+z
x,1/2-y,-z
-x,1/2+y,1/2-z
-x,-y,-z
x,y,1/2-z
-x,1/2+y,z
x,1/2-y,1/2+z
loop_
_atom_site_type_symbol
_atom_site_label
_atom_site_fract_x
_atom_site_fract_y
_atom_site_fract_z
Si Si1 0.560250 0.100786 0.187142
Si Si2 0.248869 0.403864 0.604862
Si Si3 0.479945 0.629909 0.540474
Si Si4 0.916193 0.738655 0.066536
Si Si5 0.351195 0.106245 0.597757
Si Si6 0.065186 0.950300 0.952509
Si Si7 0.395260 0.564126 0.847873
Si Si8 0.746850 0.080895 0.007496
O O1 0.577772 0.066572 0.250000
O O2 0.583973 0.273444 0.176947
O O3 0.613467 0.995092 0.146737
O O4 0.461967 0.056284 0.175775
O O5 0.149473 0.363458 0.598977
O O6 0.292262 0.243966 0.611117
O O7 0.298495 0.506378 0.649167
O O8 0.263840 0.481762 0.546317
O O9 0.446038 0.750000 0.500000
O O10 0.500000 0.500000 0.500000
O O11 0.567226 0.676883 0.568466
O O12 0.421074 0.583396 0.589214
O O13 0.011128 0.680084 0.073068
O O14 0.916510 0.908179 0.084661
O O15 0.893840 0.750000 0.000000
O O16 0.303599 0.999454 0.555619
O O17 0.154343 0.911312 0.977490
O O18 0.000000 0.000000 0.000000
O O19 0.722613 0.250000 0.000000
#
# Coordination Sequence:
#
# PCOD9434468 Si02
#       8
#     8   8   8   8   8   8   8   8
#     4  11  24  45  64  82 109 147 193 257 312 351
#     4  12  21  35  52  81 121 157 190 239 281 338
#     4  11  20  32  49  71 109 148 181 217 262 331
#     4  10  18  32  49  73 113 165 206 231 265 318
#     4  11  22  36  54  80 108 149 201 234 289 350
#     4  10  18  31  48  73 111 167 209 219 264 327
#     4  11  23  37  59  85 109 149 198 236 292 363
#     4  12  21  31  50  80 122 164 193 232 274 332
#
# _framework density 18.137740000000001
#
# number of rings (size 3 to 8) (size 9 to 14) (size 15 to 20)
#    0.000    1.000    3.750    7.875    0.000    1.000 
#    0.000    0.625    0.000    0.000    0.000    0.000 
#    0.000    5.000    0.000    0.000    0.000    0.000 
#
# Total GULP energy -356738.880398 kJ/mol
# GULP energy per Si atom -5574.045006 kJ/mol
# Density = 1.809646 g / cm^3
# Si number density = 18.137740 Si / 1000 Ang^3
#
#
#
# Elastic Constant Matrix: (Units=GPa)
#
#
# Indices 1 2 3 4 5 6 
#
# 1 128.9344 27.2505 24.2596 0.0000 0.0000 0.0000
# 2 27.2505 105.6501 22.6085 0.0000 0.0000 0.0000
# 3 24.2596 22.6085 53.1132 0.0000 0.0000 0.0000
# 4 0.0000 0.0000 0.0000 15.4693 0.0000 0.0000
# 5 0.0000 0.0000 0.0000 0.0000 49.2358 0.0000
# 6 0.0000 0.0000 0.0000 0.0000 0.0000 13.3819
#
#
#
# Elastic Compliance Matrix: (Units=1/GPa)
#
#
# Indices 1 2 3 4 5 6 
#
# 1 0.008705 -0.001534 -0.003323 0.000000 0.000000 0.000000
# 2 -0.001534 0.010684 -0.003847 0.000000 0.000000 0.000000
# 3 -0.003323 -0.003847 0.021983 0.000000 0.000000 0.000000
# 4 0.000000 0.000000 0.000000 0.064644 0.000000 0.000000
# 5 0.000000 0.000000 0.000000 0.000000 0.020310 0.000000
# 6 0.000000 0.000000 0.000000 0.000000 0.000000 0.074728
#
#
# Mechanical properties :
#
#
# Convention : Reuss Voigt Hill
#
# Bulk Modulus (GPa) = 41.72977 48.43722 45.08350
# Shear Modulus (GPa) = 22.07971 29.85600 25.96786
#
# Velocity S-wave (km/s) = 3.49282 4.06158 3.78789
# Velocity P-wave (km/s) = 6.27084 6.98272 6.63634
#
# Compressibility (1/GPa) = 0.02396371
#
# Stress axis : x y z
#
# Youngs Moduli (GPa) = 114.87101 93.59616 45.48941
#
# Poissons Ratio (x) = 0.14360 0.15117
# Poissons Ratio (y) = 0.17624 0.17500
# Poissons Ratio (z) = 0.38173 0.36008
#
# Static dielectric constant tensor:
#      x y z
#    x 1.694120 0.000000 0.000000 
#    y 0.000000 1.691730 0.000000 
#    z 0.000000 0.000000 1.590970 
# 
# From -- ./inp_files/27601.got.cif
#   From: 2010.05.17/outbox.cif.g08.bks.cpg/sg57_14_cif.got.tgz:27601.got - 2010.06.03 13:58:18.
