data_PCOD9434672
_publ_section_title
;
Structure prediction by ZEFSAII (Michael W. Deem and Ramdas Pophale) SiO2 
 PCOD9434672
Probable space group: P B C M
;
_chemical_formula_sum "Si O2"
_cell_formula_units_Z 64
_cell_length_a 24.461131
_cell_length_b 14.946269
_cell_length_c 8.609093
_cell_angle_alpha 90.000000
_cell_angle_beta 90.000000
_cell_angle_gamma 90.000000
_cell_volume 3147.507163
_symmetry_space_group_name_H-M "P B C M"
_symmetry_group_IT_number 57
_symmetry_cell_setting 'orthorhombic'
loop_
_space_group_symop_operation_xyz
x,y,z
-x,-y,1/2+z
x,1/2-y,-z
-x,1/2+y,1/2-z
-x,-y,-z
x,y,1/2-z
-x,1/2+y,z
x,1/2-y,1/2+z
loop_
_atom_site_type_symbol
_atom_site_label
_atom_site_fract_x
_atom_site_fract_y
_atom_site_fract_z
Si Si1 0.982517 0.097022 0.063826
Si Si2 0.126845 0.538563 0.935046
Si Si3 0.345738 0.850361 0.062840
Si Si4 0.757072 0.037651 0.066003
Si Si5 0.386421 0.340450 0.925002
Si Si6 0.255026 0.156290 0.427133
Si Si7 0.560359 0.018931 0.561640
Si Si8 0.092676 0.156367 0.565282
O O1 0.987246 0.102489 0.250000
O O2 0.028530 0.155889 0.981759
O O3 0.919780 0.101308 0.010924
O O4 0.000000 0.000000 0.000000
O O5 0.120905 0.539085 0.750000
O O6 0.117300 0.435418 0.993299
O O7 0.186715 0.569565 0.987053
O O8 0.343407 0.850223 0.250000
O O9 0.403871 0.894865 0.014179
O O10 0.340430 0.750000 0.000000
O O11 0.296015 0.912629 0.002610
O O12 0.758925 0.050703 0.250000
O O13 0.756050 0.931776 0.026618
O O14 0.406943 0.340719 0.750000
O O15 0.320979 0.338112 0.921278
O O16 0.405193 0.433159 0.996378
O O17 0.407105 0.250000 0.000000
O O18 0.236451 0.250000 0.500000
O O19 0.234772 0.145006 0.250000
O O20 0.558658 0.021710 0.750000
O O21 0.500000 0.000000 0.500000
O O22 0.115321 0.250000 0.500000
O O23 0.099035 0.347798 0.250000
#
# Coordination Sequence:
#
# PCOD9434672 Si02
#       8
#     8   8   8   8   8   8   8   8
#     4  10  18  33  55  81 112 151 196 243 294 355
#     4  11  22  38  59  85 117 157 200 251 306 362
#     4  11  24  46  69  93 125 165 210 262 313 371
#     4  12  24  40  63  92 123 165 212 259 315 377
#     4   9  18  34  55  82 116 152 189 235 289 351
#     4  10  19  35  57  85 119 156 198 246 300 363
#     4  10  22  40  62  90 126 161 201 251 306 363
#     4  11  21  36  57  86 121 159 201 249 305 368
#
# _framework density 20.333552999999998
#
# number of rings (size 3 to 8) (size 9 to 14) (size 15 to 20)
#    0.000    1.500    1.250    6.750    0.000    3.000 
#    0.000    5.625    0.000    0.000    0.000    0.000 
#    0.000    0.000    0.000    0.000    0.000    0.000 
#
# Total GULP energy -357276.386282 kJ/mol
# GULP energy per Si atom -5582.443536 kJ/mol
# Density = 2.028727 g / cm^3
# Si number density = 20.333553 Si / 1000 Ang^3
#
#
#
# Elastic Constant Matrix: (Units=GPa)
#
#
# Indices 1 2 3 4 5 6 
#
# 1 117.7174 35.0113 21.7031 0.0000 0.0000 0.0000
# 2 35.0113 82.0293 9.6658 0.0000 0.0000 0.0000
# 3 21.7031 9.6658 104.5327 0.0000 0.0000 0.0000
# 4 0.0000 0.0000 0.0000 28.4931 0.0000 0.0000
# 5 0.0000 0.0000 0.0000 0.0000 27.4602 0.0000
# 6 0.0000 0.0000 0.0000 0.0000 0.0000 3.0835
#
#
#
# Elastic Compliance Matrix: (Units=1/GPa)
#
#
# Indices 1 2 3 4 5 6 
#
# 1 0.010021 -0.004077 -0.001704 0.000000 0.000000 0.000000
# 2 -0.004077 0.013983 -0.000447 0.000000 0.000000 0.000000
# 3 -0.001704 -0.000447 0.009961 0.000000 0.000000 0.000000
# 4 0.000000 0.000000 0.000000 0.035096 0.000000 0.000000
# 5 0.000000 0.000000 0.000000 0.000000 0.036416 0.000000
# 6 0.000000 0.000000 0.000000 0.000000 0.000000 0.324306
#
#
# Mechanical properties :
#
#
# Convention : Reuss Voigt Hill
#
# Bulk Modulus (GPa) = 46.48475 48.55998 47.52237
# Shear Modulus (GPa) = 11.12571 27.66730 19.39650
#
# Velocity S-wave (km/s) = 2.34168 3.69273 3.09190
# Velocity P-wave (km/s) = 5.49746 6.48962 6.01404
#
# Compressibility (1/GPa) = 0.02151243
#
# Stress axis : x y z
#
# Youngs Moduli (GPa) = 99.78569 71.51369 100.38740
#
# Poissons Ratio (x) = 0.29153 0.17103
# Poissons Ratio (y) = 0.40678 0.04483
# Poissons Ratio (z) = 0.17001 0.03194
#
# Static dielectric constant tensor:
#      x y z
#    x 1.764210 0.000000 0.000000 
#    y 0.000000 1.723610 0.000000 
#    z 0.000000 0.000000 1.697660 
# 
# From -- ./inp_files/9471.got.cif
#   From: 2010.05.17/outbox.cif.g08.bks.cpg/sg57_5_cif.got.tgz:9471.got - 2010.06.03 13:58:18.
