data_PCOD9434359
_publ_section_title
;
Structure prediction by ZEFSAII (Michael W. Deem and Ramdas Pophale) SiO2 
 PCOD9434359
Probable space group: P B C M
;
_chemical_formula_sum "Si O2"
_cell_formula_units_Z 64
_cell_length_a 8.573443
_cell_length_b 20.004194
_cell_length_c 20.416931
_cell_angle_alpha 90.000000
_cell_angle_beta 90.000000
_cell_angle_gamma 90.000000
_cell_volume 3501.602015
_symmetry_space_group_name_H-M "P B C M"
_symmetry_group_IT_number 57
_symmetry_cell_setting 'orthorhombic'
loop_
_space_group_symop_operation_xyz
x,y,z
-x,-y,1/2+z
x,1/2-y,-z
-x,1/2+y,1/2-z
-x,-y,-z
x,y,1/2-z
-x,1/2+y,z
x,1/2-y,1/2+z
loop_
_atom_site_type_symbol
_atom_site_label
_atom_site_fract_x
_atom_site_fract_y
_atom_site_fract_z
Si Si1 0.879149 0.818580 0.043742
Si Si2 0.098067 0.614028 0.057399
Si Si3 0.408599 0.556140 0.039089
Si Si4 0.882885 0.624729 0.323507
Si Si5 0.522860 0.683340 0.957689
Si Si6 0.999924 0.774017 0.179526
Si Si7 0.483929 0.104967 0.173882
Si Si8 0.691165 0.273212 0.626391
O O1 0.699793 0.834659 0.061028
O O2 0.965682 0.812062 0.112771
O O3 0.883109 0.750000 0.000000
O O4 0.972769 0.869395 0.997981
O O5 0.221444 0.558055 0.036626
O O6 0.203320 0.680743 0.076031
O O7 0.001133 0.597235 0.122637
O O8 0.452646 0.557842 0.115999
O O9 0.500000 0.500000 0.000000
O O10 0.461438 0.624508 0.003397
O O11 0.925012 0.603029 0.250000
O O12 0.702140 0.609419 0.335431
O O13 0.902212 0.705089 0.325707
O O14 0.399319 0.709786 0.904156
O O15 0.539738 0.750000 0.000000
O O16 0.964290 0.805753 0.250000
O O17 0.179965 0.752329 0.176608
O O18 0.515155 0.087212 0.250000
O O19 0.567019 0.175956 0.158155
#
# Coordination Sequence:
#
# PCOD9434359 Si02
#       8
#     8   8   8   8   8   8   8   8
#     4  11  19  30  52  78 107 145 182 222 282 331
#     4  10  19  31  52  78 107 140 180 224 273 328
#     4  11  24  38  56  84 115 150 195 237 283 337
#     4   9  17  29  48  80 112 140 175 226 278 332
#     4  11  20  34  57  82 112 145 182 232 276 333
#     4  10  19  28  44  75 116 142 175 225 281 337
#     4  10  19  33  55  80 113 148 186 231 283 340
#     4  10  18  29  50  83 110 144 175 227 275 329
#
# _framework density 18.277349000000001
#
# number of rings (size 3 to 8) (size 9 to 14) (size 15 to 20)
#    0.000    1.750    5.000    2.625    0.000    3.000 
#    0.000    3.125    0.000    4.500    0.000    0.000 
#    0.000    0.000    0.000    0.000    0.000    0.000 
#
# Total GULP energy -356552.083594 kJ/mol
# GULP energy per Si atom -5571.126306 kJ/mol
# Density = 1.823575 g / cm^3
# Si number density = 18.277349 Si / 1000 Ang^3
#
#
#
# Elastic Constant Matrix: (Units=GPa)
#
#
# Indices 1 2 3 4 5 6 
#
# 1 60.7268 -4.7194 12.1349 0.0000 0.0000 0.0000
# 2 -4.7194 11.3749 5.5966 0.0000 0.0000 0.0000
# 3 12.1349 5.5966 88.3497 0.0000 0.0000 0.0000
# 4 0.0000 0.0000 0.0000 10.2854 0.0000 0.0000
# 5 0.0000 0.0000 0.0000 0.0000 22.6895 0.0000
# 6 0.0000 0.0000 0.0000 0.0000 0.0000 -137.5718
#
#
#
# Elastic Compliance Matrix: (Units=1/GPa)
#
#
# Indices 1 2 3 4 5 6 
#
# 1 0.017753 0.008841 -0.002999 0.000000 0.000000 0.000000
# 2 0.008841 0.095144 -0.007241 0.000000 0.000000 0.000000
# 3 -0.002999 -0.007241 0.012189 0.000000 0.000000 0.000000
# 4 0.000000 0.000000 0.000000 0.097225 0.000000 0.000000
# 5 0.000000 0.000000 0.000000 0.000000 0.044073 0.000000
# 6 0.000000 0.000000 0.000000 0.000000 0.000000 -0.007269
#
#
# Mechanical properties :
#
#
# Convention : Reuss Voigt Hill
#
# Bulk Modulus (GPa) = 8.17733 20.71952 14.44843
# Shear Modulus (GPa) = 16.51929 -11.09009 2.71460
#
# Velocity S-wave (km/s) = 3.00961 -2.46594 1.22002
# Velocity P-wave (km/s) = 4.06949 1.80361 3.14752
#
# Compressibility (1/GPa) = 0.12228924
#
# Stress axis : x y z
#
# Youngs Moduli (GPa) = 56.32697 10.51039 82.03972
#
# Poissons Ratio (x) = -0.09292 0.24600
# Poissons Ratio (y) = -0.49800 0.59408
# Poissons Ratio (z) = 0.16890 0.07611
#
# Static dielectric constant tensor:
#      x y z
#    x 1.668900 0.000000 0.000000 
#    y 0.000000 1.608220 0.000000 
#    z 0.000000 0.000000 1.654600 
# 
# From -- ./inp_files/24709.got.cif
#   From: 2010.05.17/outbox.cif.g08.bks.cpg/sg57_13_cif.got.tgz:24709.got - 2010.06.03 13:58:18.
