data_PCOD9434604
_publ_section_title
;
Structure prediction by ZEFSAII (Michael W. Deem and Ramdas Pophale) SiO2 
 PCOD9434604
Probable space group: P B C M
;
_chemical_formula_sum "Si O2"
_cell_formula_units_Z 48
_cell_length_a 21.100718
_cell_length_b 14.122630
_cell_length_c 8.496734
_cell_angle_alpha 90.000000
_cell_angle_beta 90.000000
_cell_angle_gamma 90.000000
_cell_volume 2532.006621
_symmetry_space_group_name_H-M "P B C M"
_symmetry_group_IT_number 57
_symmetry_cell_setting 'orthorhombic'
loop_
_space_group_symop_operation_xyz
x,y,z
-x,-y,1/2+z
x,1/2-y,-z
-x,1/2+y,1/2-z
-x,-y,-z
x,y,1/2-z
-x,1/2+y,z
x,1/2-y,1/2+z
loop_
_atom_site_type_symbol
_atom_site_label
_atom_site_fract_x
_atom_site_fract_y
_atom_site_fract_z
Si Si1 0.468945 0.646301 0.061928
Si Si2 0.985732 0.894845 0.437667
Si Si3 0.725233 0.856991 0.439629
Si Si4 0.116120 0.848120 0.565345
Si Si5 0.144432 0.443056 0.936598
Si Si6 0.593929 0.952649 0.440013
O O1 0.468669 0.648938 0.250000
O O2 0.423203 0.559919 0.009771
O O3 0.452224 0.750000 0.000000
O O4 0.538821 0.615309 0.004850
O O5 0.995002 0.886215 0.250000
O O6 0.912295 0.883096 0.481680
O O7 0.040680 0.842075 0.531655
O O8 0.000000 0.000000 0.500000
O O9 0.718753 0.750000 0.500000
O O10 0.729445 0.857228 0.250000
O O11 0.788428 0.902872 0.509903
O O12 0.662901 0.916218 0.487363
O O13 0.144472 0.750000 0.500000
O O14 0.127427 0.855937 0.750000
O O15 0.138683 0.945980 0.485321
O O16 0.135968 0.435987 0.750000
O O17 0.590609 0.949604 0.250000
#
# Coordination Sequence:
#
# PCOD9434604 Si02
#       6
#     8   8   8   8   8   8
#     4  10  19  33  56  86 117 149 185 227 274 324
#     4  10  18  32  53  78 106 139 177 223 275 324
#     4  11  23  40  59  81 109 144 185 229 278 332
#     4  11  21  36  57  83 112 145 184 229 279 333
#     4  11  22  38  57  81 111 146 186 229 278 332
#     4   9  20  37  57  82 114 150 188 230 274 323
#
# _framework density 18.957295999999999
#
# number of rings (size 3 to 8) (size 9 to 14) (size 15 to 20)
#    0.000    1.667    0.000    8.000    0.000    4.000 
#    0.000    4.167    0.000    2.000    0.000    0.000 
#    0.000    0.000    0.000    0.000    0.000    0.000 
#
# Total GULP energy -267919.076724 kJ/mol
# GULP energy per Si atom -5581.647432 kJ/mol
# Density = 1.891415 g / cm^3
# Si number density = 18.957296 Si / 1000 Ang^3
#
#
#
# Elastic Constant Matrix: (Units=GPa)
#
#
# Indices 1 2 3 4 5 6 
#
# 1 114.9599 36.8397 10.3838 0.0000 0.0000 0.0000
# 2 36.8397 101.0439 -3.5598 0.0000 0.0000 0.0000
# 3 10.3838 -3.5598 62.5549 0.0000 0.0000 0.0000
# 4 0.0000 0.0000 0.0000 26.9118 0.0000 0.0000
# 5 0.0000 0.0000 0.0000 0.0000 24.5822 0.0000
# 6 0.0000 0.0000 0.0000 0.0000 0.0000 16.4216
#
#
#
# Elastic Compliance Matrix: (Units=1/GPa)
#
#
# Indices 1 2 3 4 5 6 
#
# 1 0.010066 -0.003736 -0.001884 0.000000 0.000000 0.000000
# 2 -0.003736 0.011303 0.001263 0.000000 0.000000 0.000000
# 3 -0.001884 0.001263 0.016371 0.000000 0.000000 0.000000
# 4 0.000000 0.000000 0.000000 0.037158 0.000000 0.000000
# 5 0.000000 0.000000 0.000000 0.000000 0.040680 0.000000
# 6 0.000000 0.000000 0.000000 0.000000 0.000000 0.060895
#
#
# Mechanical properties :
#
#
# Convention : Reuss Voigt Hill
#
# Bulk Modulus (GPa) = 34.45050 40.65402 37.55226
# Shear Modulus (GPa) = 25.65912 29.24279 27.45095
#
# Velocity S-wave (km/s) = 3.68302 3.93181 3.80944
# Velocity P-wave (km/s) = 6.02481 6.48874 6.26107
#
# Compressibility (1/GPa) = 0.02902715
#
# Stress axis : x y z
#
# Youngs Moduli (GPa) = 99.34257 88.46853 61.08546
#
# Poissons Ratio (x) = 0.33055 0.11506
# Poissons Ratio (y) = 0.37118 -0.07718
# Poissons Ratio (z) = 0.18712 -0.11178
#
# Static dielectric constant tensor:
#      x y z
#    x 1.654320 0.000000 0.000000 
#    y 0.000000 1.638630 0.000000 
#    z 0.000000 0.000000 1.635920 
# 
# From -- ./inp_files/6527.got.cif
#   From: 2010.05.17/outbox.cif.g08.bks.cpg/sg57_4_cif.got.tgz:6527.got - 2010.06.03 13:58:18.
