data_PCOD9434323
_publ_section_title
;
Structure prediction by ZEFSAII (Michael W. Deem and Ramdas Pophale) SiO2 
 PCOD9434323
Probable space group: P B C M
;
_chemical_formula_sum "Si O2"
_cell_formula_units_Z 48
_cell_length_a 16.861498
_cell_length_b 18.817140
_cell_length_c 8.571418
_cell_angle_alpha 90.000000
_cell_angle_beta 90.000000
_cell_angle_gamma 90.000000
_cell_volume 2719.583804
_symmetry_space_group_name_H-M "P B C M"
_symmetry_group_IT_number 57
_symmetry_cell_setting 'orthorhombic'
loop_
_space_group_symop_operation_xyz
x,y,z
-x,-y,1/2+z
x,1/2-y,-z
-x,1/2+y,1/2-z
-x,-y,-z
x,y,1/2-z
-x,1/2+y,z
x,1/2-y,1/2+z
loop_
_atom_site_type_symbol
_atom_site_label
_atom_site_fract_x
_atom_site_fract_y
_atom_site_fract_z
Si Si1 0.736849 0.457942 0.438622
Si Si2 0.822801 0.600908 0.439040
Si Si3 0.659976 0.827637 0.562664
Si Si4 0.155263 0.670584 0.562938
Si Si5 0.417919 0.469561 0.435511
Si Si6 0.985265 0.830165 0.562090
O O1 0.728132 0.459743 0.250000
O O2 0.797131 0.521512 0.482992
O O3 0.775408 0.383361 0.484052
O O4 0.653242 0.478164 0.512880
O O5 0.824498 0.603419 0.250000
O O6 0.750105 0.651900 0.488561
O O7 0.909036 0.625387 0.492882
O O8 0.638659 0.750000 0.500000
O O9 0.658115 0.827431 0.750000
O O10 0.604887 0.891953 0.503345
O O11 0.167463 0.750000 0.500000
O O12 0.151544 0.672825 0.750000
O O13 0.070090 0.644197 0.500540
O O14 0.500000 0.500000 0.500000
O O15 0.421142 0.464721 0.250000
O O16 0.975582 0.750000 0.500000
O O17 0.987531 0.829138 0.750000
#
# Coordination Sequence:
#
# PCOD9434323 Si02
#       6
#     8   8   8   8   8   8
#     4   9  19  37  56  75 101 134 171 213 265 318
#     4   8  16  30  49  73 103 137 172 213 259 307
#     4  10  19  34  55  81 113 145 178 216 260 311
#     4  10  20  34  52  72 100 137 176 219 263 307
#     4  11  22  38  60  84 109 138 172 213 264 319
#     4  10  18  29  46  69 100 137 176 216 256 301
#
# _framework density 17.649759
#
# number of rings (size 3 to 8) (size 9 to 14) (size 15 to 20)
#    0.000    2.333    0.000    5.500    0.000    2.000 
#    0.000    8.333    0.000    2.000    0.000    0.000 
#    0.000    0.000    0.000    0.000    0.000    0.000 
#
# Total GULP energy -267798.478345 kJ/mol
# GULP energy per Si atom -5579.134966 kJ/mol
# Density = 1.760959 g / cm^3
# Si number density = 17.649759 Si / 1000 Ang^3
#
#
#
# Elastic Constant Matrix: (Units=GPa)
#
#
# Indices 1 2 3 4 5 6 
#
# 1 140.4856 95.7968 47.6343 0.0000 0.0000 0.0000
# 2 95.7968 111.9144 43.5459 0.0000 0.0000 0.0000
# 3 47.6343 43.5459 71.0129 0.0000 0.0000 0.0000
# 4 0.0000 0.0000 0.0000 25.1899 0.0000 0.0000
# 5 0.0000 0.0000 0.0000 0.0000 27.1057 0.0000
# 6 0.0000 0.0000 0.0000 0.0000 0.0000 20.6662
#
#
#
# Elastic Compliance Matrix: (Units=1/GPa)
#
#
# Indices 1 2 3 4 5 6 
#
# 1 0.017699 -0.013831 -0.003391 0.000000 0.000000 0.000000
# 2 -0.013831 0.022543 -0.004546 0.000000 0.000000 0.000000
# 3 -0.003391 -0.004546 0.019145 0.000000 0.000000 0.000000
# 4 0.000000 0.000000 0.000000 0.039698 0.000000 0.000000
# 5 0.000000 0.000000 0.000000 0.000000 0.036893 0.000000
# 6 0.000000 0.000000 0.000000 0.000000 0.000000 0.048388
#
#
# Mechanical properties :
#
#
# Convention : Reuss Voigt Hill
#
# Bulk Modulus (GPa) = 63.08943 77.48519 70.28731
# Shear Modulus (GPa) = 21.44215 23.68810 22.56513
#
# Velocity S-wave (km/s) = 3.48928 3.66747 3.57948
# Velocity P-wave (km/s) = 7.21500 7.86960 7.54940
#
# Compressibility (1/GPa) = 0.01585052
#
# Stress axis : x y z
#
# Youngs Moduli (GPa) = 56.50033 44.35949 52.23412
#
# Poissons Ratio (x) = 0.61352 0.17713
# Poissons Ratio (y) = 0.78143 0.23748
# Poissons Ratio (z) = 0.19160 0.20168
#
# Static dielectric constant tensor:
#      x y z
#    x 1.592490 0.000000 0.000000 
#    y 0.000000 1.595970 0.000000 
#    z 0.000000 0.000000 1.597550 
# 
# From -- ./inp_files/6700.got.cif
#   From: 2010.05.17/outbox.cif.g08.bks.cpg/sg57_4_cif.got.tgz:6700.got - 2010.06.03 13:58:18.
