data_PCOD9434240
_publ_section_title
;
Structure prediction by ZEFSAII (Michael W. Deem and Ramdas Pophale) SiO2 
 PCOD9434240
Probable space group: P B C M
;
_chemical_formula_sum "Si O2"
_cell_formula_units_Z 64
_cell_length_a 22.960448
_cell_length_b 18.551995
_cell_length_c 7.681070
_cell_angle_alpha 90.000000
_cell_angle_beta 90.000000
_cell_angle_gamma 90.000000
_cell_volume 3271.844834
_symmetry_space_group_name_H-M "P B C M"
_symmetry_group_IT_number 57
_symmetry_cell_setting 'orthorhombic'
loop_
_space_group_symop_operation_xyz
x,y,z
-x,-y,1/2+z
x,1/2-y,-z
-x,1/2+y,1/2-z
-x,-y,-z
x,y,1/2-z
-x,1/2+y,z
x,1/2-y,1/2+z
loop_
_atom_site_type_symbol
_atom_site_label
_atom_site_fract_x
_atom_site_fract_y
_atom_site_fract_z
Si Si1 0.995704 0.414875 0.958673
Si Si2 0.130270 0.588213 0.452820
Si Si3 0.742996 0.103089 0.462538
Si Si4 0.624306 0.330208 0.958563
Si Si5 0.435334 0.975030 0.959038
Si Si6 0.318817 0.046127 0.961944
Si Si7 0.765984 0.666532 0.957204
Si Si8 0.879292 0.577588 0.045060
O O1 0.992745 0.405321 0.750000
O O2 0.932825 0.389888 0.029386
O O3 0.059238 0.388414 0.018786
O O4 0.000000 0.500000 0.000000
O O5 0.129844 0.609383 0.250000
O O6 0.191532 0.615598 0.528431
O O7 0.132157 0.500473 0.459744
O O8 0.745093 0.105418 0.250000
O O9 0.690580 0.154899 0.521390
O O10 0.721296 0.022556 0.508897
O O11 0.626396 0.336479 0.750000
O O12 0.583158 0.395171 0.022630
O O13 0.604742 0.250000 0.000000
O O14 0.431201 0.973268 0.750000
O O15 0.384193 0.028695 0.021893
O O16 0.500000 0.000000 0.000000
O O17 0.320397 0.047942 0.750000
O O18 0.287857 0.118441 0.024450
O O19 0.766882 0.659088 0.750000
O O20 0.761387 0.750000 0.000000
O O21 0.825663 0.630705 0.021412
O O22 0.886099 0.562067 0.250000
#
# Coordination Sequence:
#
# PCOD9434240 Si02
#       8
#     8   8   8   8   8   8   8   8
#     4   8  15  24  38  62  90 118 151 195 242 290
#     4   9  14  25  46  68  89 122 164 200 244 297
#     4   8  13  25  48  72  91 121 162 198 235 285
#     4   9  18  32  51  75 104 133 163 199 239 285
#     4   9  18  34  56  80 104 133 166 200 238 284
#     4   8  15  30  51  71  93 123 159 197 238 286
#     4  11  21  34  51  69  91 126 168 210 256 304
#     4  10  18  28  41  64  97 125 156 205 254 297
#
# _framework density 19.560829999999999
#
# number of rings (size 3 to 8) (size 9 to 14) (size 15 to 20)
#    0.000    3.000    1.250    2.250    0.000    1.000 
#    0.000    2.500    0.000    3.750    0.000    1.750 
#    0.000    0.000    0.000    0.000    0.000    0.000 
#
# Total GULP energy -356445.666888 kJ/mol
# GULP energy per Si atom -5569.463545 kJ/mol
# Density = 1.951631 g / cm^3
# Si number density = 19.560830 Si / 1000 Ang^3
#
#
#
# Elastic Constant Matrix: (Units=GPa)
#
#
# Indices 1 2 3 4 5 6 
#
# 1 198.1880 61.7475 5.1565 0.0000 0.0000 0.0000
# 2 61.7475 79.3326 -4.6092 0.0000 0.0000 0.0000
# 3 5.1565 -4.6092 35.8684 0.0000 0.0000 0.0000
# 4 0.0000 0.0000 0.0000 13.8294 0.0000 0.0000
# 5 0.0000 0.0000 0.0000 0.0000 12.8982 0.0000
# 6 0.0000 0.0000 0.0000 0.0000 0.0000 16.8315
#
#
#
# Elastic Compliance Matrix: (Units=1/GPa)
#
#
# Indices 1 2 3 4 5 6 
#
# 1 0.006758 -0.005356 -0.001660 0.000000 0.000000 0.000000
# 2 -0.005356 0.016945 0.002948 0.000000 0.000000 0.000000
# 3 -0.001660 0.002948 0.028497 0.000000 0.000000 0.000000
# 4 0.000000 0.000000 0.000000 0.072310 0.000000 0.000000
# 5 0.000000 0.000000 0.000000 0.000000 0.077530 0.000000
# 6 0.000000 0.000000 0.000000 0.000000 0.000000 0.059412
#
#
# Mechanical properties :
#
#
# Convention : Reuss Voigt Hill
#
# Bulk Modulus (GPa) = 22.69462 48.66428 35.67945
# Shear Modulus (GPa) = 17.58849 25.45143 21.51996
#
# Velocity S-wave (km/s) = 3.00187 3.61105 3.32046
# Velocity P-wave (km/s) = 4.86233 6.50528 5.74286
#
# Compressibility (1/GPa) = 0.04406330
#
# Stress axis : x y z
#
# Youngs Moduli (GPa) = 147.97984 59.01325 35.09127
#
# Poissons Ratio (x) = 0.31609 0.05824
# Poissons Ratio (y) = 0.79261 -0.10343
# Poissons Ratio (z) = 0.24561 -0.17394
#
# Static dielectric constant tensor:
#      x y z
#    x 1.740300 0.000000 0.000000 
#    y 0.000000 1.643270 0.000000 
#    z 0.000000 0.000000 1.739700 
# 
# From -- ./inp_files/9556.got.cif
#   From: 2010.05.17/outbox.cif.g08.bks.cpg/sg57_5_cif.got.tgz:9556.got - 2010.06.03 13:58:18.
