data_PCOD9434578
_publ_section_title
;
Structure prediction by ZEFSAII (Michael W. Deem and Ramdas Pophale) SiO2 
 PCOD9434578
Probable space group: P B C M
;
_chemical_formula_sum "Si O2"
_cell_formula_units_Z 60
_cell_length_a 16.038012
_cell_length_b 5.460866
_cell_length_c 30.448353
_cell_angle_alpha 90.000000
_cell_angle_beta 90.000000
_cell_angle_gamma 90.000000
_cell_volume 2666.710432
_symmetry_space_group_name_H-M "P B C M"
_symmetry_group_IT_number 57
_symmetry_cell_setting 'orthorhombic'
loop_
_space_group_symop_operation_xyz
x,y,z
-x,-y,1/2+z
x,1/2-y,-z
-x,1/2+y,1/2-z
-x,-y,-z
x,y,1/2-z
-x,1/2+y,z
x,1/2-y,1/2+z
loop_
_atom_site_type_symbol
_atom_site_label
_atom_site_fract_x
_atom_site_fract_y
_atom_site_fract_z
Si Si1 0.554628 0.036588 0.203446
Si Si2 0.160155 0.500724 0.840346
Si Si3 0.944010 0.999555 0.750000
Si Si4 0.825400 0.500709 0.873924
Si Si5 0.628589 0.999839 0.481652
Si Si6 0.004630 0.998442 0.405061
Si Si7 0.554352 0.969709 0.390370
Si Si8 0.821684 0.000018 0.480039
O O1 0.600994 0.017632 0.250000
O O2 0.510452 0.305028 0.203194
O O3 0.597497 0.000759 0.156871
O O4 0.114518 0.499697 0.793428
O O5 0.206772 0.247328 0.850957
O O6 0.089566 0.501486 0.878330
O O7 0.206572 0.754842 0.850630
O O8 0.999982 0.749533 0.750000
O O9 0.927993 0.501446 0.869957
O O10 0.818499 0.499976 0.926937
O O11 0.591037 0.750000 0.500000
O O12 0.724972 0.000012 0.495353
O O13 0.591332 0.250000 0.500000
O O14 0.618223 0.994897 0.429753
O O15 0.000017 0.248447 0.430849
O O16 0.490675 0.203149 0.393515
O O17 0.857452 0.750000 0.500000
O O18 0.857472 0.250000 0.500000
#
# Coordination Sequence:
#
# PCOD9434578 Si02
#       8
#     8   8   4   8   8   8   8   8
#     4   8  14  25  41  64  94 124 155 194 227 264
#     4  10  19  30  48  74 102 133 160 201 248 305
#     4  12  20  30  48  78 112 138 170 202 248 308
#     4  10  18  32  51  69  94 128 168 202 254 295
#     4  10  21  35  50  72 103 130 165 212 252 297
#     4   8  14  25  41  62  88 117 143 182 230 282
#     4  10  19  30  48  75 104 134 165 195 247 315
#     4  10  21  37  55  73  93 123 173 224 252 292
#
# _framework density 22.499631999999998
#
# number of rings (size 3 to 8) (size 9 to 14) (size 15 to 20)
#    0.000    2.400    0.000    4.800    0.000    1.600 
#    0.000    0.000    0.000   21.600    3.467    0.000 
#    4.000    0.000    0.000    0.000    0.000    0.000 
#
# Total GULP energy -334278.603764 kJ/mol
# GULP energy per Si atom -5571.310063 kJ/mol
# Density = 2.244842 g / cm^3
# Si number density = 22.499632 Si / 1000 Ang^3
#
#
#
# Elastic Constant Matrix: (Units=GPa)
#
#
# Indices 1 2 3 4 5 6 
#
# 1 27.3281 6.6750 -7.3636 0.0000 0.0000 0.0000
# 2 6.6750 261.5838 65.3864 0.0000 0.0000 0.0000
# 3 -7.3636 65.3864 149.7790 0.0000 0.0000 0.0000
# 4 0.0000 0.0000 0.0000 24.2604 0.0000 0.0000
# 5 0.0000 0.0000 0.0000 0.0000 -192.9828 0.0000
# 6 0.0000 0.0000 0.0000 0.0000 0.0000 0.8579
#
#
#
# Elastic Compliance Matrix: (Units=1/GPa)
#
#
# Indices 1 2 3 4 5 6 
#
# 1 0.037670 -0.001599 0.002550 0.000000 0.000000 0.000000
# 2 -0.001599 0.004359 -0.001982 0.000000 0.000000 0.000000
# 3 0.002550 -0.001982 0.007667 0.000000 0.000000 0.000000
# 4 0.000000 0.000000 0.000000 0.041219 0.000000 0.000000
# 5 0.000000 0.000000 0.000000 0.000000 -0.005182 0.000000
# 6 0.000000 0.000000 0.000000 0.000000 0.000000 1.165606
#
#
# Mechanical properties :
#
#
# Convention : Reuss Voigt Hill
#
# Bulk Modulus (GPa) = 20.99288 63.12073 42.05681
# Shear Modulus (GPa) = 3.93925 -8.64004 -2.35040
#
# Velocity S-wave (km/s) = 1.32462 -1.96174 -1.02318
# Velocity P-wave (km/s) = 3.41907 4.79414 4.16376
#
# Compressibility (1/GPa) = 0.04763519
#
# Stress axis : x y z
#
# Youngs Moduli (GPa) = 26.54640 229.41215 130.43083
#
# Poissons Ratio (x) = 0.36674 -0.33258
# Poissons Ratio (y) = 0.04244 0.25845
# Poissons Ratio (z) = -0.06769 0.45458
#
# Static dielectric constant tensor:
#      x y z
#    x 1.837970 0.000000 0.000000 
#    y 0.000000 1.972140 0.000000 
#    z 0.000000 0.000000 1.807990 
# 
# From -- ./inp_files/29934.got.cif
#   From: 2010.05.17/outbox.cif.g08.bks.cpg/sg57_15_cif.got.tgz:29934.got - 2010.06.03 13:58:18.
