data_PCOD9434028
_publ_section_title
;
Structure prediction by ZEFSAII (Michael W. Deem and Ramdas Pophale) SiO2 
 PCOD9434028
Probable space group: P B C M
;
_chemical_formula_sum "Si O2"
_cell_formula_units_Z 64
_cell_length_a 17.688267
_cell_length_b 28.155083
_cell_length_c 7.459020
_cell_angle_alpha 90.000000
_cell_angle_beta 90.000000
_cell_angle_gamma 90.000000
_cell_volume 3714.701052
_symmetry_space_group_name_H-M "P B C M"
_symmetry_group_IT_number 57
_symmetry_cell_setting 'orthorhombic'
loop_
_space_group_symop_operation_xyz
x,y,z
-x,-y,1/2+z
x,1/2-y,-z
-x,1/2+y,1/2-z
-x,-y,-z
x,y,1/2-z
-x,1/2+y,z
x,1/2-y,1/2+z
loop_
_atom_site_type_symbol
_atom_site_label
_atom_site_fract_x
_atom_site_fract_y
_atom_site_fract_z
Si Si1 0.348961 0.948471 0.970346
Si Si2 0.587213 0.694419 0.035284
Si Si3 0.413110 0.047295 0.540998
Si Si4 0.022725 0.945333 0.964373
Si Si5 0.134606 0.416813 0.961353
Si Si6 0.713140 0.622483 0.467471
Si Si7 0.535240 0.376564 0.952937
Si Si8 0.180791 0.974387 0.532811
O O1 0.350106 0.948636 0.750000
O O2 0.389999 0.900478 0.032642
O O3 0.262619 0.956363 0.026801
O O4 0.397573 0.994516 0.027249
O O5 0.585694 0.687648 0.250000
O O6 0.662935 0.667301 0.971764
O O7 0.513563 0.666130 0.963738
O O8 0.586804 0.750000 0.000000
O O9 0.433631 0.044946 0.750000
O O10 0.334856 0.076325 0.523567
O O11 0.475540 0.079660 0.447368
O O12 0.024822 0.938232 0.750000
O O13 0.109099 0.942821 0.029468
O O14 0.950900 0.915858 0.036064
O O15 0.000000 0.000000 0.000000
O O16 0.128285 0.406701 0.750000
O O17 0.201226 0.383389 0.033686
O O18 0.164737 0.471085 0.978856
O O19 0.715102 0.622858 0.250000
O O20 0.554652 0.362142 0.750000
O O21 0.180937 0.974178 0.750000
#
# Coordination Sequence:
#
# PCOD9434028 Si02
#       8
#     8   8   8   8   8   8   8   8
#     4   9  16  25  38  55  78 105 131 157 185 220
#     4   9  18  31  45  57  71  94 121 157 201 239
#     4  10  17  25  38  57  78 101 130 160 187 214
#     4   8  14  22  34  51  73 102 132 157 179 205
#     4   9  15  24  37  54  76 103 133 158 180 216
#     4   9  17  28  41  57  78 104 130 155 191 233
#     4   9  18  31  42  54  74 101 128 153 192 237
#     4   9  15  24  36  53  78 106 132 158 185 208
#
# _framework density 17.228842
#
# number of rings (size 3 to 8) (size 9 to 14) (size 15 to 20)
#    0.000    3.000    1.250    1.500    0.000    2.000 
#    0.000    1.250    0.000    0.000    0.000    0.000 
#    0.000    1.000    0.000    0.750    0.000    1.500 
#
# Total GULP energy -356389.746135 kJ/mol
# GULP energy per Si atom -5568.589783 kJ/mol
# Density = 1.718963 g / cm^3
# Si number density = 17.228842 Si / 1000 Ang^3
#
#
#
# Elastic Constant Matrix: (Units=GPa)
#
#
# Indices 1 2 3 4 5 6 
#
# 1 81.9214 41.7627 -3.3117 0.0000 0.0000 0.0000
# 2 41.7627 84.9060 -1.7828 0.0000 0.0000 0.0000
# 3 -3.3117 -1.7828 55.8377 0.0000 0.0000 0.0000
# 4 0.0000 0.0000 0.0000 7.4217 0.0000 0.0000
# 5 0.0000 0.0000 0.0000 0.0000 6.4352 0.0000
# 6 0.0000 0.0000 0.0000 0.0000 0.0000 14.6744
#
#
#
# Elastic Compliance Matrix: (Units=1/GPa)
#
#
# Indices 1 2 3 4 5 6 
#
# 1 0.016320 -0.008013 0.000712 0.000000 0.000000 0.000000
# 2 -0.008013 0.015719 0.000027 0.000000 0.000000 0.000000
# 3 0.000712 0.000027 0.017952 0.000000 0.000000 0.000000
# 4 0.000000 0.000000 0.000000 0.134741 0.000000 0.000000
# 5 0.000000 0.000000 0.000000 0.000000 0.155395 0.000000
# 6 0.000000 0.000000 0.000000 0.000000 0.000000 0.068146
#
#
# Mechanical properties :
#
#
# Convention : Reuss Voigt Hill
#
# Bulk Modulus (GPa) = 28.21320 32.88907 30.55114
# Shear Modulus (GPa) = 11.50389 18.10605 14.80497
#
# Velocity S-wave (km/s) = 2.58681 3.24530 2.93458
# Velocity P-wave (km/s) = 5.03322 5.75965 5.40864
#
# Compressibility (1/GPa) = 0.03544440
#
# Stress axis : x y z
#
# Youngs Moduli (GPa) = 61.27337 63.61566 55.70372
#
# Poissons Ratio (x) = 0.50972 -0.03967
# Poissons Ratio (y) = 0.49095 -0.00149
# Poissons Ratio (z) = -0.04363 -0.00170
#
# Static dielectric constant tensor:
#      x y z
#    x 1.657350 0.000000 0.000000 
#    y 0.000000 1.549650 0.000000 
#    z 0.000000 0.000000 1.644250 
# 
# From -- ./inp_files/7459.got.cif
#   From: 2010.05.17/outbox.cif.g08.bks.cpg/sg57_4_cif.got.tgz:7459.got - 2010.06.03 13:58:18.
