data_PCOD9434662
_publ_section_title
;
Structure prediction by ZEFSAII (Michael W. Deem and Ramdas Pophale) SiO2 
 PCOD9434662
Probable space group: P B C M
;
_chemical_formula_sum "Si O2"
_cell_formula_units_Z 64
_cell_length_a 8.698178
_cell_length_b 23.181013
_cell_length_c 16.669481
_cell_angle_alpha 90.000000
_cell_angle_beta 90.000000
_cell_angle_gamma 90.000000
_cell_volume 3361.110416
_symmetry_space_group_name_H-M "P B C M"
_symmetry_group_IT_number 57
_symmetry_cell_setting 'orthorhombic'
loop_
_space_group_symop_operation_xyz
x,y,z
-x,-y,1/2+z
x,1/2-y,-z
-x,1/2+y,1/2-z
-x,-y,-z
x,y,1/2-z
-x,1/2+y,z
x,1/2-y,1/2+z
loop_
_atom_site_type_symbol
_atom_site_label
_atom_site_fract_x
_atom_site_fract_y
_atom_site_fract_z
Si Si1 0.431352 0.088383 0.057882
Si Si2 0.995958 0.403702 0.001382
Si Si3 0.697786 0.464873 0.479532
Si Si4 0.800358 0.296124 0.436665
Si Si5 0.830447 0.880909 0.839783
Si Si6 0.411627 0.882788 0.158002
Si Si7 0.717072 0.855266 0.416698
Si Si8 0.902873 0.754381 0.156696
O O1 0.345550 0.101394 0.140295
O O2 0.353871 0.030692 0.020205
O O3 0.609515 0.072111 0.048656
O O4 0.382004 0.140235 0.998727
O O5 0.877950 0.455126 0.015455
O O6 0.891278 0.346371 0.014922
O O7 0.133460 0.394739 0.065364
O O8 0.068556 0.405442 0.912925
O O9 0.639354 0.436743 0.396379
O O10 0.736868 0.250000 0.500000
O O11 0.674339 0.327955 0.382058
O O12 0.930113 0.265111 0.382293
O O13 0.873163 0.899281 0.750000
O O14 0.853763 0.812118 0.845826
O O15 0.366640 0.888830 0.250000
O O16 0.594891 0.875989 0.148727
O O17 0.784069 0.793606 0.392877
O O18 0.904476 0.772841 0.250000
#
# Coordination Sequence:
#
# PCOD9434662 Si02
#       8
#     8   8   8   8   8   8   8   8
#     4   9  19  36  57  81 105 142 187 227 280 340
#     4   9  18  34  56  78 103 140 185 223 269 331
#     4   9  19  37  59  79 106 144 185 233 281 331
#     4  10  18  33  52  77 105 146 189 219 264 325
#     4  10  20  33  51  77 111 145 177 224 278 334
#     4  10  20  35  53  81 112 142 184 236 283 328
#     4   9  19  33  54  77 106 141 180 230 271 330
#     4  10  19  33  52  76 110 146 177 222 279 328
#
# _framework density 19.041326999999999
#
# number of rings (size 3 to 8) (size 9 to 14) (size 15 to 20)
#    0.000    2.500    1.250    0.750    0.000    2.500 
#    9.000    1.250    0.000   12.750    0.000    0.000 
#    0.000    0.000    0.000    0.000    0.000    0.000 
#
# Total GULP energy -356651.404698 kJ/mol
# GULP energy per Si atom -5572.678198 kJ/mol
# Density = 1.899799 g / cm^3
# Si number density = 19.041327 Si / 1000 Ang^3
#
#
#
# Elastic Constant Matrix: (Units=GPa)
#
#
# Indices 1 2 3 4 5 6 
#
# 1 95.7420 29.2442 30.3375 0.0000 0.0000 0.0000
# 2 29.2442 42.7722 25.1916 0.0000 0.0000 0.0000
# 3 30.3375 25.1916 95.0699 0.0000 0.0000 0.0000
# 4 0.0000 0.0000 0.0000 11.8513 0.0000 0.0000
# 5 0.0000 0.0000 0.0000 0.0000 19.7418 0.0000
# 6 0.0000 0.0000 0.0000 0.0000 0.0000 23.6095
#
#
#
# Elastic Compliance Matrix: (Units=1/GPa)
#
#
# Indices 1 2 3 4 5 6 
#
# 1 0.013586 -0.007981 -0.002221 0.000000 0.000000 0.000000
# 2 -0.007981 0.032392 -0.006036 0.000000 0.000000 0.000000
# 3 -0.002221 -0.006036 0.012827 0.000000 0.000000 0.000000
# 4 0.000000 0.000000 0.000000 0.084379 0.000000 0.000000
# 5 0.000000 0.000000 0.000000 0.000000 0.050654 0.000000
# 6 0.000000 0.000000 0.000000 0.000000 0.000000 0.042356
#
#
# Mechanical properties :
#
#
# Convention : Reuss Voigt Hill
#
# Bulk Modulus (GPa) = 37.98182 44.79228 41.38705
# Shear Modulus (GPa) = 18.02153 20.96123 19.49138
#
# Velocity S-wave (km/s) = 3.07977 3.32147 3.20290
# Velocity P-wave (km/s) = 5.71288 6.18744 5.95489
#
# Compressibility (1/GPa) = 0.02632839
#
# Stress axis : x y z
#
# Youngs Moduli (GPa) = 73.60387 30.87198 77.96251
#
# Poissons Ratio (x) = 0.24640 0.17312
# Poissons Ratio (y) = 0.58746 0.47060
# Poissons Ratio (z) = 0.16344 0.18635
#
# Static dielectric constant tensor:
#      x y z
#    x 1.712590 0.000000 0.000000 
#    y 0.000000 1.684130 0.000000 
#    z 0.000000 0.000000 1.664590 
# 
# From -- ./inp_files/16919.got.cif
#   From: 2010.05.17/outbox.cif.g08.bks.cpg/sg57_9_cif.got.tgz:16919.got - 2010.06.03 13:58:18.
