data_PCOD9434363
_publ_section_title
;
Structure prediction by ZEFSAII (Michael W. Deem and Ramdas Pophale) SiO2 
 PCOD9434363
Probable space group: P B C M
;
_chemical_formula_sum "Si O2"
_cell_formula_units_Z 32
_cell_length_a 9.811913
_cell_length_b 28.000907
_cell_length_c 5.402424
_cell_angle_alpha 90.000000
_cell_angle_beta 90.000000
_cell_angle_gamma 90.000000
_cell_volume 1484.275278
_symmetry_space_group_name_H-M "P B C M"
_symmetry_group_IT_number 57
_symmetry_cell_setting 'orthorhombic'
loop_
_space_group_symop_operation_xyz
x,y,z
-x,-y,1/2+z
x,1/2-y,-z
-x,1/2+y,1/2-z
-x,-y,-z
x,y,1/2-z
-x,1/2+y,z
x,1/2-y,1/2+z
loop_
_atom_site_type_symbol
_atom_site_label
_atom_site_fract_x
_atom_site_fract_y
_atom_site_fract_z
Si Si1 0.223361 0.122976 0.750000
Si Si2 0.505361 0.577665 0.750000
Si Si3 0.616226 0.123796 0.250000
Si Si4 0.665797 0.263919 0.750000
Si Si5 0.867926 0.911596 0.750000
Si Si6 0.716746 0.003121 0.750000
Si Si7 0.637278 0.775488 0.250000
Si Si8 0.838437 0.451603 0.750000
O O1 0.332681 0.079830 0.750000
O O2 0.137696 0.118708 0.500140
O O3 0.313728 0.170520 0.750000
O O4 0.454703 0.604547 0.500644
O O5 0.434658 0.525650 0.750000
O O6 0.622654 0.180878 0.250000
O O7 0.765697 0.100152 0.250000
O O8 0.741368 0.250000 0.500000
O O9 0.527049 0.231662 0.750000
O O10 0.000497 0.944771 0.750000
O O11 0.737325 0.946731 0.750000
O O12 0.788442 0.022799 0.500546
O O13 0.686039 0.750000 0.500000
#
# Coordination Sequence:
#
# PCOD9434363 Si02
#       8
#     4   4   4   4   4   4   4   4
#     4  12  24  36  56  86 121 153 186 232 291 355
#     4  10  20  35  55  84 116 149 187 233 289 337
#     4  10  19  35  59  85 110 139 186 246 287 323
#     4  10  18  29  52  81 107 132 172 230 287 334
#     4  12  24  38  57  85 121 159 193 231 282 350
#     4  10  21  38  62  84 111 153 201 246 281 326
#     4  10  19  34  55  77 105 142 185 228 272 338
#     4  10  21  39  62  84 111 151 200 244 281 329
#
# _framework density 21.559341
#
# number of rings (size 3 to 8) (size 9 to 14) (size 15 to 20)
#    0.000    1.500    0.000    7.500    0.000    1.000 
#    0.000    0.000    0.000    4.500    0.000    0.000 
#    0.000    0.000    0.000    0.000    0.000    0.000 
#
# Total GULP energy -178919.650801 kJ/mol
# GULP energy per Si atom -5591.239088 kJ/mol
# Density = 2.151027 g / cm^3
# Si number density = 21.559341 Si / 1000 Ang^3
#
#
#
# Elastic Constant Matrix: (Units=GPa)
#
#
# Indices 1 2 3 4 5 6 
#
# 1 26.6903 1.3672 21.9195 0.0000 0.0000 0.0000
# 2 1.3672 68.4769 35.7932 0.0000 0.0000 0.0000
# 3 21.9195 35.7932 220.0292 0.0000 0.0000 0.0000
# 4 0.0000 0.0000 0.0000 32.7207 0.0000 0.0000
# 5 0.0000 0.0000 0.0000 0.0000 13.9306 0.0000
# 6 0.0000 0.0000 0.0000 0.0000 0.0000 21.1331
#
#
#
# Elastic Compliance Matrix: (Units=1/GPa)
#
#
# Indices 1 2 3 4 5 6 
#
# 1 0.040934 0.001436 -0.004312 0.000000 0.000000 0.000000
# 2 0.001436 0.016011 -0.002748 0.000000 0.000000 0.000000
# 3 -0.004312 -0.002748 0.005421 0.000000 0.000000 0.000000
# 4 0.000000 0.000000 0.000000 0.030562 0.000000 0.000000
# 5 0.000000 0.000000 0.000000 0.000000 0.071784 0.000000
# 6 0.000000 0.000000 0.000000 0.000000 0.000000 0.047319
#
#
# Mechanical properties :
#
#
# Convention : Reuss Voigt Hill
#
# Bulk Modulus (GPa) = 19.56154 48.15070 33.85612
# Shear Modulus (GPa) = 20.80579 30.63131 25.71855
#
# Velocity S-wave (km/s) = 3.10989 3.77343 3.45761
# Velocity P-wave (km/s) = 4.68917 6.43176 5.62831
#
# Compressibility (1/GPa) = 0.05112073
#
# Stress axis : x y z
#
# Youngs Moduli (GPa) = 24.42950 62.45703 184.45582
#
# Poissons Ratio (x) = -0.08971 0.79529
# Poissons Ratio (y) = -0.03509 0.50683
# Poissons Ratio (z) = 0.10533 0.17161
#
# Static dielectric constant tensor:
#      x y z
#    x 1.744730 0.000000 0.000000 
#    y 0.000000 1.765010 0.000000 
#    z 0.000000 0.000000 1.859410 
# 
# From -- ./inp_files/206.got.cif
#   From: 2010.05.17/outbox.cif.g08.bks.cpg/sg57_1_cif.got.tgz:206.got - 2010.06.03 13:58:18.
