data_PCOD9434342
_publ_section_title
;
Structure prediction by ZEFSAII (Michael W. Deem and Ramdas Pophale) SiO2 
 PCOD9434342
Probable space group: P B C M
;
_chemical_formula_sum "Si O2"
_cell_formula_units_Z 64
_cell_length_a 15.285898
_cell_length_b 30.753554
_cell_length_c 8.716778
_cell_angle_alpha 90.000000
_cell_angle_beta 90.000000
_cell_angle_gamma 90.000000
_cell_volume 4097.719765
_symmetry_space_group_name_H-M "P B C M"
_symmetry_group_IT_number 57
_symmetry_cell_setting 'orthorhombic'
loop_
_space_group_symop_operation_xyz
x,y,z
-x,-y,1/2+z
x,1/2-y,-z
-x,1/2+y,1/2-z
-x,-y,-z
x,y,1/2-z
-x,1/2+y,z
x,1/2-y,1/2+z
loop_
_atom_site_type_symbol
_atom_site_label
_atom_site_fract_x
_atom_site_fract_y
_atom_site_fract_z
Si Si1 0.630776 0.028622 0.066918
Si Si2 0.789589 0.795591 0.434405
Si Si3 0.005717 0.203772 0.565009
Si Si4 0.178205 0.537698 0.566127
Si Si5 0.135427 0.055503 0.935250
Si Si6 0.445270 0.439218 0.932946
Si Si7 0.299909 0.115700 0.564872
Si Si8 0.038267 0.608471 0.936890
O O1 0.641854 0.027312 0.250000
O O2 0.548222 0.059448 0.028370
O O3 0.722428 0.040694 0.991666
O O4 0.599873 0.981146 0.010593
O O5 0.757636 0.750000 0.500000
O O6 0.787866 0.794289 0.250000
O O7 0.891617 0.800776 0.479050
O O8 0.734278 0.837146 0.484030
O O9 0.973891 0.250000 0.500000
O O10 0.001408 0.205824 0.750000
O O11 0.960610 0.158827 0.513204
O O12 0.177324 0.536251 0.750000
O O13 0.137860 0.492567 0.504298
O O14 0.119104 0.578433 0.514750
O O15 0.133616 0.052118 0.750000
O O16 0.224188 0.081033 0.977581
O O17 0.051583 0.084091 0.982836
O O18 0.437631 0.443702 0.750000
O O19 0.390833 0.398354 0.991336
O O20 0.307006 0.114918 0.750000
O O21 0.037183 0.609372 0.750000
#
# Coordination Sequence:
#
# PCOD9434342 Si02
#       8
#     8   8   8   8   8   8   8   8
#     4  10  20  34  48  65  92 124 153 190 239 280
#     4   9  17  29  46  68  93 125 157 188 228 278
#     4   9  16  30  48  66  90 120 154 192 231 273
#     4  11  21  31  46  69  94 125 165 203 230 266
#     4  10  18  31  47  64  93 133 163 188 228 277
#     4  10  20  32  49  70  91 117 154 196 234 275
#     4  10  18  29  48  70  95 128 159 185 232 286
#     4   9  18  32  48  66  94 130 161 190 233 281
#
# _framework density 15.618441000000001
#
# number of rings (size 3 to 8) (size 9 to 14) (size 15 to 20)
#    0.000    2.250    2.500    1.500    0.000    2.000 
#    0.000    2.500    0.000    0.000    0.000    0.875 
#    0.000    2.000    0.000    0.000    0.000    0.000 
#
# Total GULP energy -356868.253121 kJ/mol
# GULP energy per Si atom -5576.066455 kJ/mol
# Density = 1.558289 g / cm^3
# Si number density = 15.618441 Si / 1000 Ang^3
#
#
#
# Elastic Constant Matrix: (Units=GPa)
#
#
# Indices 1 2 3 4 5 6 
#
# 1 77.9862 57.4261 18.6483 0.0000 0.0000 0.0000
# 2 57.4261 144.3916 25.8622 0.0000 0.0000 0.0000
# 3 18.6483 25.8622 15.4194 0.0000 0.0000 0.0000
# 4 0.0000 0.0000 0.0000 24.6451 0.0000 0.0000
# 5 0.0000 0.0000 0.0000 0.0000 18.0273 0.0000
# 6 0.0000 0.0000 0.0000 0.0000 0.0000 22.7690
#
#
#
# Elastic Compliance Matrix: (Units=1/GPa)
#
#
# Indices 1 2 3 4 5 6 
#
# 1 0.020549 -0.005319 -0.015930 0.000000 0.000000 0.000000
# 2 -0.005319 0.011277 -0.012480 0.000000 0.000000 0.000000
# 3 -0.015930 -0.012480 0.105052 0.000000 0.000000 0.000000
# 4 0.000000 0.000000 0.000000 0.040576 0.000000 0.000000
# 5 0.000000 0.000000 0.000000 0.000000 0.055471 0.000000
# 6 0.000000 0.000000 0.000000 0.000000 0.000000 0.043919
#
#
# Mechanical properties :
#
#
# Convention : Reuss Voigt Hill
#
# Bulk Modulus (GPa) = 14.40555 49.07448 31.74001
# Shear Modulus (GPa) = 13.60755 22.14566 17.87661
#
# Velocity S-wave (km/s) = 2.95489 3.76961 3.38684
# Velocity P-wave (km/s) = 4.57005 7.10181 5.97164
#
# Compressibility (1/GPa) = 0.06941770
#
# Stress axis : x y z
#
# Youngs Moduli (GPa) = 48.66426 88.67992 9.51910
#
# Poissons Ratio (x) = 0.47171 0.15164
# Poissons Ratio (y) = 0.25886 0.11880
# Poissons Ratio (z) = 0.77523 1.10676
#
# Static dielectric constant tensor:
#      x y z
#    x 1.516140 0.000000 0.000000 
#    y 0.000000 1.518910 0.000000 
#    z 0.000000 0.000000 1.529410 
# 
# From -- ./inp_files/5966.got.cif
#   From: 2010.05.17/outbox.cif.g08.bks.cpg/sg57_3_cif.got.tgz:5966.got - 2010.06.03 13:58:18.
