data_PCOD9434457
_publ_section_title
;
Structure prediction by ZEFSAII (Michael W. Deem and Ramdas Pophale) SiO2 
 PCOD9434457
Probable space group: P B C M
;
_chemical_formula_sum "Si O2"
_cell_formula_units_Z 40
_cell_length_a 9.150818
_cell_length_b 15.011186
_cell_length_c 16.963304
_cell_angle_alpha 90.000000
_cell_angle_beta 90.000000
_cell_angle_gamma 90.000000
_cell_volume 2330.157995
_symmetry_space_group_name_H-M "P B C M"
_symmetry_group_IT_number 57
_symmetry_cell_setting 'orthorhombic'
loop_
_space_group_symop_operation_xyz
x,y,z
-x,-y,1/2+z
x,1/2-y,-z
-x,1/2+y,1/2-z
-x,-y,-z
x,y,1/2-z
-x,1/2+y,z
x,1/2-y,1/2+z
loop_
_atom_site_type_symbol
_atom_site_label
_atom_site_fract_x
_atom_site_fract_y
_atom_site_fract_z
Si Si1 0.942146 0.705997 0.660414
Si Si2 0.092153 0.377744 0.566049
Si Si3 0.174979 0.829854 0.050402
Si Si4 0.861770 0.002522 0.342109
Si Si5 0.672631 0.494371 0.994705
O O1 0.927519 0.734361 0.750000
O O2 0.873744 0.783375 0.606593
O O3 0.885457 0.604561 0.654381
O O4 0.111464 0.702365 0.632898
O O5 0.233510 0.422995 0.528247
O O6 0.971009 0.359147 0.498395
O O7 0.005489 0.444804 0.625460
O O8 0.241493 0.750000 0.000000
O O9 0.279187 0.912735 0.050059
O O10 0.834849 0.025547 0.250000
O O11 0.734760 0.023345 0.406047
O O12 0.500000 0.500000 0.000000
#
# Coordination Sequence:
#
# PCOD9434457 Si02
#       5
#     8   8   8   8   8
#     4  10  18  30  56  85 103 133 184 241 281 307
#     4  10  18  34  56  80 104 139 188 230 275 325
#     4   9  17  34  55  78 104 138 189 233 264 323
#     4  10  19  35  56  79 109 141 185 240 277 318
#     4  11  21  36  53  82 115 153 186 216 283 357
#
# _framework density 17.166218000000001
#
# number of rings (size 3 to 8) (size 9 to 14) (size 15 to 20)
#    0.000    2.000    4.000    1.800    0.000    0.000 
#    3.600    3.000    0.000    0.000    0.000    0.000 
#    0.000    0.000    0.000    0.000    0.000    0.000 
#
# Total GULP energy -222763.729809 kJ/mol
# GULP energy per Si atom -5569.093245 kJ/mol
# Density = 1.712715 g / cm^3
# Si number density = 17.166218 Si / 1000 Ang^3
#
#
#
# Elastic Constant Matrix: (Units=GPa)
#
#
# Indices 1 2 3 4 5 6 
#
# 1 67.2405 18.7058 22.0071 0.0000 0.0000 0.0000
# 2 18.7058 72.1999 0.5520 0.0000 0.0000 0.0000
# 3 22.0071 0.5520 78.9972 0.0000 0.0000 0.0000
# 4 0.0000 0.0000 0.0000 26.2536 0.0000 0.0000
# 5 0.0000 0.0000 0.0000 0.0000 12.3472 0.0000
# 6 0.0000 0.0000 0.0000 0.0000 0.0000 7.3817
#
#
#
# Elastic Compliance Matrix: (Units=1/GPa)
#
#
# Indices 1 2 3 4 5 6 
#
# 1 0.017749 -0.004561 -0.004913 0.000000 0.000000 0.000000
# 2 -0.004561 0.015023 0.001166 0.000000 0.000000 0.000000
# 3 -0.004913 0.001166 0.014019 0.000000 0.000000 0.000000
# 4 0.000000 0.000000 0.000000 0.038090 0.000000 0.000000
# 5 0.000000 0.000000 0.000000 0.000000 0.080990 0.000000
# 6 0.000000 0.000000 0.000000 0.000000 0.000000 0.135470
#
#
# Mechanical properties :
#
#
# Convention : Reuss Voigt Hill
#
# Bulk Modulus (GPa) = 33.13973 33.44082 33.29028
# Shear Modulus (GPa) = 15.24323 21.00802 18.12562
#
# Velocity S-wave (km/s) = 2.98313 3.50208 3.25297
# Velocity P-wave (km/s) = 5.58682 5.98963 5.79173
#
# Compressibility (1/GPa) = 0.03017526
#
# Stress axis : x y z
#
# Youngs Moduli (GPa) = 56.34248 66.56397 71.33142
#
# Poissons Ratio (x) = 0.30359 0.35042
# Poissons Ratio (y) = 0.25697 -0.08314
# Poissons Ratio (z) = 0.27678 -0.07758
#
# Static dielectric constant tensor:
#      x y z
#    x 1.549010 0.000000 0.000000 
#    y 0.000000 1.630760 0.000000 
#    z 0.000000 0.000000 1.628360 
# 
# From -- ./inp_files/20702.got.cif
#   From: 2010.05.17/outbox.cif.g08.bks.cpg/sg57_11_cif.got.tgz:20702.got - 2010.06.03 13:58:18.
