data_PCOD9434784
_publ_section_title
;
Structure prediction by ZEFSAII (Michael W. Deem and Ramdas Pophale) SiO2 
 PCOD9434784
Probable space group: P B C M
;
_chemical_formula_sum "Si O2"
_cell_formula_units_Z 48
_cell_length_a 8.348937
_cell_length_b 18.833914
_cell_length_c 14.820337
_cell_angle_alpha 90.000000
_cell_angle_beta 90.000000
_cell_angle_gamma 90.000000
_cell_volume 2330.396644
_symmetry_space_group_name_H-M "P B C M"
_symmetry_group_IT_number 57
_symmetry_cell_setting 'orthorhombic'
loop_
_space_group_symop_operation_xyz
x,y,z
-x,-y,1/2+z
x,1/2-y,-z
-x,1/2+y,1/2-z
-x,-y,-z
x,y,1/2-z
-x,1/2+y,z
x,1/2-y,1/2+z
loop_
_atom_site_type_symbol
_atom_site_label
_atom_site_fract_x
_atom_site_fract_y
_atom_site_fract_z
Si Si1 0.709805 0.775465 0.104013
Si Si2 0.607062 0.294553 0.593223
Si Si3 0.204553 0.438338 0.353768
Si Si4 0.060110 0.751461 0.609233
Si Si5 0.364293 0.554021 0.474218
Si Si6 0.835269 0.093598 0.849301
O O1 0.539947 0.746224 0.141692
O O2 0.732251 0.861065 0.110385
O O3 0.876350 0.742171 0.142274
O O4 0.703044 0.750000 0.000000
O O5 0.629448 0.250000 0.500000
O O6 0.788268 0.300915 0.632479
O O7 0.563369 0.374717 0.568422
O O8 0.256739 0.441311 0.250000
O O9 0.258402 0.507755 0.406583
O O10 0.012101 0.438761 0.357139
O O11 0.043140 0.750000 0.500000
O O12 0.127247 0.676824 0.643684
O O13 0.500000 0.500000 0.500000
O O14 0.270601 0.573922 0.565395
O O15 0.766725 0.076870 0.750000
#
# Coordination Sequence:
#
# PCOD9434784 Si02
#       6
#     8   8   8   8   8   8
#     4   9  18  34  61  90 117 155 206 253 313 377
#     4  10  18  35  58  86 121 152 206 253 315 377
#     4  10  23  42  64  92 128 172 220 266 323 387
#     4   9  16  33  60  86 117 150 196 262 314 369
#     4  12  23  38  61  94 132 171 211 264 328 391
#     4  10  21  40  65  90 119 168 222 267 321 384
#
# _framework density 20.597352999999998
#
# number of rings (size 3 to 8) (size 9 to 14) (size 15 to 20)
#    0.000    2.000    3.333    2.500    0.000    0.667 
#    3.000    1.667    0.000    3.000    0.000    0.000 
#    0.000    0.000    0.000    0.000    0.000    0.000 
#
# Total GULP energy -267390.309722 kJ/mol
# GULP energy per Si atom -5570.631453 kJ/mol
# Density = 2.055047 g / cm^3
# Si number density = 20.597353 Si / 1000 Ang^3
#
#
#
# Elastic Constant Matrix: (Units=GPa)
#
#
# Indices 1 2 3 4 5 6 
#
# 1 95.4159 14.2656 5.4810 0.0000 0.0000 0.0000
# 2 14.2656 66.0821 3.0895 0.0000 0.0000 0.0000
# 3 5.4810 3.0895 83.2482 0.0000 0.0000 0.0000
# 4 0.0000 0.0000 0.0000 9.1000 0.0000 0.0000
# 5 0.0000 0.0000 0.0000 0.0000 -12.9022 0.0000
# 6 0.0000 0.0000 0.0000 0.0000 0.0000 35.1898
#
#
#
# Elastic Compliance Matrix: (Units=1/GPa)
#
#
# Indices 1 2 3 4 5 6 
#
# 1 0.010863 -0.002316 -0.000629 0.000000 0.000000 0.000000
# 2 -0.002316 0.015653 -0.000428 0.000000 0.000000 0.000000
# 3 -0.000629 -0.000428 0.012070 0.000000 0.000000 0.000000
# 4 0.000000 0.000000 0.000000 0.109890 0.000000 0.000000
# 5 0.000000 0.000000 0.000000 0.000000 -0.077506 0.000000
# 6 0.000000 0.000000 0.000000 0.000000 0.000000 0.028417
#
#
# Mechanical properties :
#
#
# Convention : Reuss Voigt Hill
#
# Bulk Modulus (GPa) = 31.40864 32.26872 31.83868
# Shear Modulus (GPa) = 42.82812 21.07153 31.94982
#
# Velocity S-wave (km/s) = 4.56488 3.20194 3.94275
# Velocity P-wave (km/s) = 6.56248 5.41944 6.01816
#
# Compressibility (1/GPa) = 0.03183837
#
# Stress axis : x y z
#
# Youngs Moduli (GPa) = 92.05744 63.88708 82.85280
#
# Poissons Ratio (x) = 0.14794 0.05214
# Poissons Ratio (y) = 0.21317 0.03550
# Poissons Ratio (z) = 0.05793 0.02737
#
# Static dielectric constant tensor:
#      x y z
#    x 2.123720 0.000000 0.000000 
#    y 0.000000 1.855460 0.000000 
#    z 0.000000 0.000000 1.802850 
# 
# From -- ./inp_files/16340.got.cif
#   From: 2010.05.17/outbox.cif.g08.bks.cpg/sg57_9_cif.got.tgz:16340.got - 2010.06.03 13:58:18.
