data_PCOD9434307
_publ_section_title
;
Structure prediction by ZEFSAII (Michael W. Deem and Ramdas Pophale) SiO2 
 PCOD9434307
Probable space group: P B C M
;
_chemical_formula_sum "Si O2"
_cell_formula_units_Z 44
_cell_length_a 12.662287
_cell_length_b 13.745008
_cell_length_c 10.741294
_cell_angle_alpha 90.000000
_cell_angle_beta 90.000000
_cell_angle_gamma 90.000000
_cell_volume 1869.449568
_symmetry_space_group_name_H-M "P B C M"
_symmetry_group_IT_number 57
_symmetry_cell_setting 'orthorhombic'
loop_
_space_group_symop_operation_xyz
x,y,z
-x,-y,1/2+z
x,1/2-y,-z
-x,1/2+y,1/2-z
-x,-y,-z
x,y,1/2-z
-x,1/2+y,z
x,1/2-y,1/2+z
loop_
_atom_site_type_symbol
_atom_site_label
_atom_site_fract_x
_atom_site_fract_y
_atom_site_fract_z
Si Si1 0.293902 0.357786 0.750000
Si Si2 0.927673 0.641663 0.250000
Si Si3 0.648790 0.151051 0.750000
Si Si4 0.726910 0.866676 0.480376
Si Si5 0.529688 0.148535 0.250000
Si Si6 0.505629 0.132885 0.523946
Si Si7 0.033354 0.390148 0.023979
Si Si8 0.892260 0.096175 0.750000
O O1 0.183847 0.299947 0.750000
O O2 0.283572 0.411863 0.880607
O O3 0.408360 0.308641 0.750000
O O4 0.906312 0.522865 0.250000
O O5 0.973629 0.659775 0.387572
O O6 0.616897 0.266418 0.750000
O O7 0.592063 0.110592 0.626729
O O8 0.771436 0.128145 0.750000
O O9 0.726946 0.750000 0.500000
O O10 0.612271 0.889570 0.425575
O O11 0.843447 0.891062 0.433277
O O12 0.530883 0.094701 0.383910
O O13 0.508228 0.250000 0.500000
O O14 0.952971 0.360918 0.130906
O O15 0.000000 0.500000 0.000000
#
# Coordination Sequence:
#
# PCOD9434307 Si02
#       8
#     4   4   4   8   4   8   8   4
#     4   8  14  27  50  75  96 116 151 203 252 286
#     4   8  16  34  56  71  91 128 166 203 242 287
#     4  10  18  29  44  69 102 126 152 196 243 286
#     4   9  16  27  48  76  99 120 159 212 251 283
#     4   8  14  28  48  67  89 125 163 186 225 291
#     4   8  15  27  46  70  94 122 158 198 243 286
#     4   9  18  33  52  72  97 130 164 199 246 298
#     4  10  20  32  48  72 100 129 162 198 244 298
#
# _framework density 23.536339999999999
#
# number of rings (size 3 to 8) (size 9 to 14) (size 15 to 20)
#    0.000    3.273    0.000    1.091    0.000    1.455 
#    0.000    3.636    0.000   17.455    0.000    0.000 
#    0.000    0.000    0.000    0.000    0.000    0.000 
#
# Total GULP energy -245010.349199 kJ/mol
# GULP energy per Si atom -5568.417027 kJ/mol
# Density = 2.348277 g / cm^3
# Si number density = 23.536340 Si / 1000 Ang^3
#
#
#
# Elastic Constant Matrix: (Units=GPa)
#
#
# Indices 1 2 3 4 5 6 
#
# 1 233.9117 50.8557 116.1684 0.0000 0.0000 0.0000
# 2 50.8557 93.1652 -4.8453 0.0000 0.0000 0.0000
# 3 116.1684 -4.8453 184.2638 0.0000 0.0000 0.0000
# 4 0.0000 0.0000 0.0000 -20.7362 0.0000 0.0000
# 5 0.0000 0.0000 0.0000 0.0000 57.8362 0.0000
# 6 0.0000 0.0000 0.0000 0.0000 0.0000 31.7701
#
#
#
# Elastic Compliance Matrix: (Units=1/GPa)
#
#
# Indices 1 2 3 4 5 6 
#
# 1 0.007726 -0.004477 -0.004988 0.000000 0.000000 0.000000
# 2 -0.004477 0.013342 0.003173 0.000000 0.000000 0.000000
# 3 -0.004988 0.003173 0.008655 0.000000 0.000000 0.000000
# 4 0.000000 0.000000 0.000000 -0.048225 0.000000 0.000000
# 5 0.000000 0.000000 0.000000 0.000000 0.017290 0.000000
# 6 0.000000 0.000000 0.000000 0.000000 0.000000 0.031476
#
#
# Mechanical properties :
#
#
# Convention : Reuss Voigt Hill
#
# Bulk Modulus (GPa) = 58.34445 92.85536 75.59991
# Shear Modulus (GPa) = 102.96057 37.05148 70.00602
#
# Velocity S-wave (km/s) = 6.62120 3.97195 5.45970
# Velocity P-wave (km/s) = 9.12670 7.78285 8.48143
#
# Compressibility (1/GPa) = 0.01713959
#
# Stress axis : x y z
#
# Youngs Moduli (GPa) = 129.43563 74.94938 115.53493
#
# Poissons Ratio (x) = 0.33553 0.57634
# Poissons Ratio (y) = 0.57945 -0.36661
# Poissons Ratio (z) = 0.64568 -0.23783
#
# Static dielectric constant tensor:
#      x y z
#    x 1.866450 0.000000 0.000000 
#    y 0.000000 1.845450 0.000000 
#    z 0.000000 0.000000 1.982020 
# 
# From -- ./inp_files/12887.got.cif
#   From: 2010.05.17/outbox.cif.g08.bks.cpg/sg57_7_cif.got.tgz:12887.got - 2010.06.03 13:58:18.
