data_PCOD9434913
_publ_section_title
;
Structure prediction by ZEFSAII (Michael W. Deem and Ramdas Pophale) SiO2 
 PCOD9434913
Probable space group: P B C M
;
_chemical_formula_sum "Si O2"
_cell_formula_units_Z 64
_cell_length_a 23.946140
_cell_length_b 17.730984
_cell_length_c 8.624311
_cell_angle_alpha 90.000000
_cell_angle_beta 90.000000
_cell_angle_gamma 90.000000
_cell_volume 3661.784351
_symmetry_space_group_name_H-M "P B C M"
_symmetry_group_IT_number 57
_symmetry_cell_setting 'orthorhombic'
loop_
_space_group_symop_operation_xyz
x,y,z
-x,-y,1/2+z
x,1/2-y,-z
-x,1/2+y,1/2-z
-x,-y,-z
x,y,1/2-z
-x,1/2+y,z
x,1/2-y,1/2+z
loop_
_atom_site_type_symbol
_atom_site_label
_atom_site_fract_x
_atom_site_fract_y
_atom_site_fract_z
Si Si1 0.571090 0.404083 0.436838
Si Si2 0.631885 0.942346 0.564493
Si Si3 0.677688 0.328437 0.934829
Si Si4 0.455654 0.166478 0.935787
Si Si5 0.865763 0.019184 0.438431
Si Si6 0.031806 0.426284 0.063671
Si Si7 0.064131 0.667539 0.436002
Si Si8 0.738570 0.482793 0.562694
O O1 0.572372 0.402270 0.250000
O O2 0.594329 0.485471 0.487482
O O3 0.615961 0.344417 0.499529
O O4 0.508821 0.383782 0.488318
O O5 0.631763 0.939926 0.750000
O O6 0.601218 0.869907 0.497227
O O7 0.694189 0.958317 0.505084
O O8 0.675215 0.325315 0.750000
O O9 0.715319 0.399936 0.980595
O O10 0.699570 0.250000 0.000000
O O11 0.455195 0.167686 0.750000
O O12 0.463365 0.250000 0.000000
O O13 0.865227 0.022366 0.250000
O O14 0.894796 0.098574 0.487666
O O15 0.802269 0.010343 0.491166
O O16 0.904656 0.947589 0.479988
O O17 0.027872 0.422720 0.250000
O O18 0.000000 0.500000 0.000000
O O19 0.997909 0.356665 0.992654
O O20 0.079154 0.750000 0.500000
O O21 0.064981 0.669395 0.250000
O O22 0.737266 0.488187 0.750000
#
# Coordination Sequence:
#
# PCOD9434913 Si02
#       8
#     8   8   8   8   8   8   8   8
#     4   9  19  34  52  73  98 126 161 200 242 294
#     4  10  20  35  53  75 101 129 162 204 247 293
#     4  10  19  29  45  67  96 131 164 198 241 288
#     4  11  22  35  52  75  99 127 160 200 250 301
#     4   8  16  31  51  72  96 128 168 206 241 284
#     4   9  16  29  49  72  98 130 164 200 240 284
#     4  10  19  31  48  74 106 137 166 201 245 292
#     4   9  18  34  52  70  94 130 170 205 241 286
#
# _framework density 17.477817000000002
#
# number of rings (size 3 to 8) (size 9 to 14) (size 15 to 20)
#    0.000    2.500    0.000    3.375    0.000    3.500 
#    0.000    3.750    0.000    0.750    0.000    3.500 
#    0.000    0.000    0.000    0.000    0.000    0.000 
#
# Total GULP energy -356780.218483 kJ/mol
# GULP energy per Si atom -5574.690914 kJ/mol
# Density = 1.743804 g / cm^3
# Si number density = 17.477817 Si / 1000 Ang^3
#
#
#
# Elastic Constant Matrix: (Units=GPa)
#
#
# Indices 1 2 3 4 5 6 
#
# 1 134.9295 29.5108 20.5559 0.0000 0.0000 0.0000
# 2 29.5108 32.4022 8.3396 0.0000 0.0000 0.0000
# 3 20.5559 8.3396 22.6447 0.0000 0.0000 0.0000
# 4 0.0000 0.0000 0.0000 26.1007 0.0000 0.0000
# 5 0.0000 0.0000 0.0000 0.0000 20.8887 0.0000
# 6 0.0000 0.0000 0.0000 0.0000 0.0000 11.7671
#
#
#
# Elastic Compliance Matrix: (Units=1/GPa)
#
#
# Indices 1 2 3 4 5 6 
#
# 1 0.010014 -0.007491 -0.006332 0.000000 0.000000 0.000000
# 2 -0.007491 0.039697 -0.007820 0.000000 0.000000 0.000000
# 3 -0.006332 -0.007820 0.052788 0.000000 0.000000 0.000000
# 4 0.000000 0.000000 0.000000 0.038313 0.000000 0.000000
# 5 0.000000 0.000000 0.000000 0.000000 0.047873 0.000000
# 6 0.000000 0.000000 0.000000 0.000000 0.000000 0.084982
#
#
# Mechanical properties :
#
#
# Convention : Reuss Voigt Hill
#
# Bulk Modulus (GPa) = 16.88771 34.08765 25.48768
# Shear Modulus (GPa) = 14.85041 20.52265 17.68653
#
# Velocity S-wave (km/s) = 2.91808 3.43039 3.18455
# Velocity P-wave (km/s) = 4.58660 5.93598 5.30437
#
# Compressibility (1/GPa) = 0.05921465
#
# Stress axis : x y z
#
# Youngs Moduli (GPa) = 99.85758 25.19070 18.94367
#
# Poissons Ratio (x) = 0.18870 0.11995
# Poissons Ratio (y) = 0.74803 0.14813
# Poissons Ratio (z) = 0.63227 0.19698
#
# Static dielectric constant tensor:
#      x y z
#    x 1.615500 0.000000 0.000000 
#    y 0.000000 1.583540 0.000000 
#    z 0.000000 0.000000 1.586260 
# 
# From -- ./inp_files/9544.got.cif
#   From: 2010.05.17/outbox.cif.g08.bks.cpg/sg57_5_cif.got.tgz:9544.got - 2010.06.03 13:58:18.
