data_PCOD9434819
_publ_section_title
;
Structure prediction by ZEFSAII (Michael W. Deem and Ramdas Pophale) SiO2 
 PCOD9434819
Probable space group: P B C M
;
_chemical_formula_sum "Si O2"
_cell_formula_units_Z 64
_cell_length_a 19.169284
_cell_length_b 20.495160
_cell_length_c 7.703363
_cell_angle_alpha 90.000000
_cell_angle_beta 90.000000
_cell_angle_gamma 90.000000
_cell_volume 3026.478326
_symmetry_space_group_name_H-M "P B C M"
_symmetry_group_IT_number 57
_symmetry_cell_setting 'orthorhombic'
loop_
_space_group_symop_operation_xyz
x,y,z
-x,-y,1/2+z
x,1/2-y,-z
-x,1/2+y,1/2-z
-x,-y,-z
x,y,1/2-z
-x,1/2+y,z
x,1/2-y,1/2+z
loop_
_atom_site_type_symbol
_atom_site_label
_atom_site_fract_x
_atom_site_fract_y
_atom_site_fract_z
Si Si1 0.940633 0.946329 0.542400
Si Si2 0.791413 0.502057 0.953831
Si Si3 0.020891 0.821574 0.957970
Si Si4 0.555763 0.826883 0.453312
Si Si5 0.642185 0.555282 0.536468
Si Si6 0.320219 0.681740 0.042688
Si Si7 0.572392 0.423393 0.959419
Si Si8 0.825920 0.356836 0.963228
O O1 0.934330 0.944996 0.750000
O O2 0.863487 0.959053 0.471964
O O3 0.971566 0.878431 0.475733
O O4 0.000000 0.000000 0.500000
O O5 0.777142 0.492008 0.750000
O O6 0.720012 0.534293 0.021581
O O7 0.811137 0.430565 0.022384
O O8 0.024153 0.828829 0.750000
O O9 0.099803 0.831268 0.025027
O O10 0.995439 0.750000 0.000000
O O11 0.548384 0.750000 0.500000
O O12 0.566832 0.824085 0.250000
O O13 0.618328 0.872971 0.525840
O O14 0.489957 0.875218 0.485448
O O15 0.641632 0.555658 0.750000
O O16 0.586635 0.498115 0.482979
O O17 0.317892 0.677006 0.250000
O O18 0.359949 0.617770 0.982082
O O19 0.241611 0.681950 0.974686
O O20 0.356550 0.750000 0.000000
O O21 0.569681 0.425630 0.750000
O O22 0.827710 0.355625 0.750000
#
# Coordination Sequence:
#
# PCOD9434819 Si02
#       8
#     8   8   8   8   8   8   8   8
#     4  11  22  37  58  85 115 149 191 235 279 332
#     4  10  18  36  62  85 111 146 189 235 287 342
#     4  10  21  36  54  79 111 146 184 228 277 332
#     4  11  23  39  58  84 114 150 195 239 287 344
#     4   9  19  37  63  87 110 147 193 234 284 349
#     4  10  19  30  48  74 109 147 184 218 264 327
#     4  10  19  35  59  85 112 147 186 232 285 339
#     4   9  16  31  53  76 106 145 180 220 270 330
#
# _framework density 21.146692000000002
#
# number of rings (size 3 to 8) (size 9 to 14) (size 15 to 20)
#    0.000    2.000    2.500    1.875    0.000    2.500 
#    0.000    3.750    0.000    3.000    0.000    0.000 
#    0.000    0.000    0.000    0.000    0.000    0.000 
#
# Total GULP energy -356900.514089 kJ/mol
# GULP energy per Si atom -5576.570533 kJ/mol
# Density = 2.109856 g / cm^3
# Si number density = 21.146692 Si / 1000 Ang^3
#
#
#
# Elastic Constant Matrix: (Units=GPa)
#
#
# Indices 1 2 3 4 5 6 
#
# 1 87.1739 65.4291 -11.3920 0.0000 0.0000 0.0000
# 2 65.4291 188.2986 -0.5232 0.0000 0.0000 0.0000
# 3 -11.3920 -0.5232 25.7807 0.0000 0.0000 0.0000
# 4 0.0000 0.0000 0.0000 9.9162 0.0000 0.0000
# 5 0.0000 0.0000 0.0000 0.0000 6.8657 0.0000
# 6 0.0000 0.0000 0.0000 0.0000 0.0000 23.3209
#
#
#
# Elastic Compliance Matrix: (Units=1/GPa)
#
#
# Indices 1 2 3 4 5 6 
#
# 1 0.016789 -0.005813 0.007301 0.000000 0.000000 0.000000
# 2 -0.005813 0.007324 -0.002420 0.000000 0.000000 0.000000
# 3 0.007301 -0.002420 0.041966 0.000000 0.000000 0.000000
# 4 0.000000 0.000000 0.000000 0.100845 0.000000 0.000000
# 5 0.000000 0.000000 0.000000 0.000000 0.145653 0.000000
# 6 0.000000 0.000000 0.000000 0.000000 0.000000 0.042880
#
#
# Mechanical properties :
#
#
# Convention : Reuss Voigt Hill
#
# Bulk Modulus (GPa) = 15.57331 45.36456 30.46894
# Shear Modulus (GPa) = 13.20215 24.53649 18.86932
#
# Velocity S-wave (km/s) = 2.50134 3.41001 2.99039
# Velocity P-wave (km/s) = 3.96518 6.08302 5.13448
#
# Compressibility (1/GPa) = 0.06421242
#
# Stress axis : x y z
#
# Youngs Moduli (GPa) = 59.56406 136.53758 23.82902
#
# Poissons Ratio (x) = 0.79374 -0.17397
# Poissons Ratio (y) = 0.34627 0.05767
# Poissons Ratio (z) = -0.43485 0.33045
#
# Static dielectric constant tensor:
#      x y z
#    x 1.807080 0.000000 0.000000 
#    y 0.000000 1.780530 0.000000 
#    z 0.000000 0.000000 1.748390 
# 
# From -- ./inp_files/8396.got.cif
#   From: 2010.05.17/outbox.cif.g08.bks.cpg/sg57_5_cif.got.tgz:8396.got - 2010.06.03 13:58:18.
