data_PCOD9434626
_publ_section_title
;
Structure prediction by ZEFSAII (Michael W. Deem and Ramdas Pophale) SiO2 
 PCOD9434626
Probable space group: P B C M
;
_chemical_formula_sum "Si O2"
_cell_formula_units_Z 48
_cell_length_a 6.929098
_cell_length_b 12.808056
_cell_length_c 24.010890
_cell_angle_alpha 90.000000
_cell_angle_beta 90.000000
_cell_angle_gamma 90.000000
_cell_volume 2130.925074
_symmetry_space_group_name_H-M "P B C M"
_symmetry_group_IT_number 57
_symmetry_cell_setting 'orthorhombic'
loop_
_space_group_symop_operation_xyz
x,y,z
-x,-y,1/2+z
x,1/2-y,-z
-x,1/2+y,1/2-z
-x,-y,-z
x,y,1/2-z
-x,1/2+y,z
x,1/2-y,1/2+z
loop_
_atom_site_type_symbol
_atom_site_label
_atom_site_fract_x
_atom_site_fract_y
_atom_site_fract_z
Si Si1 0.894219 0.543127 0.088082
Si Si2 0.189105 0.564242 0.187155
Si Si3 0.487397 0.114919 0.814535
Si Si4 0.073118 0.641781 0.981361
Si Si5 0.121145 0.798969 0.312231
Si Si6 0.774314 0.768357 0.102226
O O1 0.027738 0.533568 0.142376
O O2 0.755963 0.643432 0.094640
O O3 0.821025 0.434245 0.062206
O O4 0.037338 0.581720 0.038659
O O5 0.115315 0.546079 0.250000
O O6 0.378930 0.494988 0.180195
O O7 0.229221 0.687267 0.182771
O O8 0.449328 0.152420 0.750000
O O9 0.717288 0.113600 0.819237
O O10 0.404754 0.183151 0.865352
O O11 0.867273 0.675598 0.952315
O O12 0.170984 0.750000 0.000000
O O13 0.040407 0.806545 0.250000
O O14 0.949057 0.789444 0.354720
#
# Coordination Sequence:
#
# PCOD9434626 Si02
#       6
#     8   8   8   8   8   8
#     4   9  17  31  52  78 107 137 179 220 266 318
#     4   9  17  32  53  76 108 142 173 222 276 320
#     4  10  19  33  53  78 109 144 181 221 272 326
#     4   9  17  30  52  79 105 140 179 219 265 316
#     4   9  19  34  50  75 109 141 175 222 274 321
#     4  10  18  32  55  78 103 140 182 223 268 320
#
# _framework density 22.525428000000002
#
# number of rings (size 3 to 8) (size 9 to 14) (size 15 to 20)
#    0.000    2.667    1.667    0.500    0.000    0.667 
#    3.000    0.000    0.000   16.000    0.000    0.000 
#    0.000    0.000    0.000    0.000    0.000    0.000 
#
# Total GULP energy -267725.204940 kJ/mol
# GULP energy per Si atom -5577.608436 kJ/mol
# Density = 2.247416 g / cm^3
# Si number density = 22.525428 Si / 1000 Ang^3
#
#
#
# Elastic Constant Matrix: (Units=GPa)
#
#
# Indices 1 2 3 4 5 6 
#
# 1 42.6707 15.7160 26.4277 0.0000 0.0000 0.0000
# 2 15.7160 78.7986 20.1207 0.0000 0.0000 0.0000
# 3 26.4277 20.1207 135.1863 0.0000 0.0000 0.0000
# 4 0.0000 0.0000 0.0000 31.0688 0.0000 0.0000
# 5 0.0000 0.0000 0.0000 0.0000 19.1457 0.0000
# 6 0.0000 0.0000 0.0000 0.0000 0.0000 20.8977
#
#
#
# Elastic Compliance Matrix: (Units=1/GPa)
#
#
# Indices 1 2 3 4 5 6 
#
# 1 0.028032 -0.004357 -0.004832 0.000000 0.000000 0.000000
# 2 -0.004357 0.013869 -0.001212 0.000000 0.000000 0.000000
# 3 -0.004832 -0.001212 0.008522 0.000000 0.000000 0.000000
# 4 0.000000 0.000000 0.000000 0.032187 0.000000 0.000000
# 5 0.000000 0.000000 0.000000 0.000000 0.052231 0.000000
# 6 0.000000 0.000000 0.000000 0.000000 0.000000 0.047852
#
#
# Mechanical properties :
#
#
# Convention : Reuss Voigt Hill
#
# Bulk Modulus (GPa) = 33.75943 42.35381 38.05662
# Shear Modulus (GPa) = 23.43348 27.18187 25.30768
#
# Velocity S-wave (km/s) = 3.22889 3.47756 3.35553
# Velocity P-wave (km/s) = 5.37780 5.91338 5.65193
#
# Compressibility (1/GPa) = 0.02962136
#
# Stress axis : x y z
#
# Youngs Moduli (GPa) = 35.67294 72.10226 117.34083
#
# Poissons Ratio (x) = 0.31416 0.56694
# Poissons Ratio (y) = 0.15543 0.14227
# Poissons Ratio (z) = 0.17236 0.08742
#
# Static dielectric constant tensor:
#      x y z
#    x 1.771610 0.000000 0.000000 
#    y 0.000000 1.961010 0.000000 
#    z 0.000000 0.000000 1.873310 
# 
# From -- ./inp_files/26774.got.cif
#   From: 2010.05.17/outbox.cif.g08.bks.cpg/sg57_14_cif.got.tgz:26774.got - 2010.06.03 13:58:18.
