data_PCOD9434373
_publ_section_title
;
Structure prediction by ZEFSAII (Michael W. Deem and Ramdas Pophale) SiO2 
 PCOD9434373
Probable space group: P B C M
;
_chemical_formula_sum "Si O2"
_cell_formula_units_Z 60
_cell_length_a 14.311028
_cell_length_b 8.896315
_cell_length_c 27.179168
_cell_angle_alpha 90.000000
_cell_angle_beta 90.000000
_cell_angle_gamma 90.000000
_cell_volume 3460.327001
_symmetry_space_group_name_H-M "P B C M"
_symmetry_group_IT_number 57
_symmetry_cell_setting 'orthorhombic'
loop_
_space_group_symop_operation_xyz
x,y,z
-x,-y,1/2+z
x,1/2-y,-z
-x,1/2+y,1/2-z
-x,-y,-z
x,y,1/2-z
-x,1/2+y,z
x,1/2-y,1/2+z
loop_
_atom_site_type_symbol
_atom_site_label
_atom_site_fract_x
_atom_site_fract_y
_atom_site_fract_z
Si Si1 0.053587 0.997047 0.569941
Si Si2 0.817020 0.541307 0.835912
Si Si3 0.459269 0.850132 0.691251
Si Si4 0.369368 0.173384 0.690925
Si Si5 0.264924 0.718398 0.808184
Si Si6 0.031484 0.266353 0.803635
Si Si7 0.102629 0.941065 0.143711
Si Si8 0.999912 0.250000 0.500000
O O1 0.129458 0.011843 0.612902
O O2 0.948109 0.006777 0.593484
O O3 0.059905 0.134019 0.531925
O O4 0.060080 0.845945 0.538628
O O5 0.726446 0.648420 0.837916
O O6 0.781436 0.385056 0.812905
O O7 0.891607 0.635170 0.804549
O O8 0.463847 0.828224 0.750000
O O9 0.429148 0.021034 0.683496
O O10 0.562009 0.805251 0.673724
O O11 0.372397 0.744525 0.675951
O O12 0.348084 0.185572 0.750000
O O13 0.260396 0.673598 0.750000
O O14 0.208170 0.606205 0.843868
O O15 0.988302 0.278893 0.750000
O O16 0.075851 0.423225 0.819523
O O17 0.955077 0.208770 0.841839
#
# Coordination Sequence:
#
# PCOD9434373 Si02
#       8
#     8   8   8   8   8   8   8   4
#     4  10  20  34  50  71  88 117 146 194 237 291
#     4  10  19  31  48  68  95 119 159 197 233 269
#     4   8  16  27  42  62  90 128 168 190 216 249
#     4   9  16  29  45  65  95 131 158 190 220 255
#     4  10  18  30  45  66  98 137 164 191 219 256
#     4  11  20  29  41  63  93 132 161 183 217 265
#     4  11  21  31  45  65  95 121 160 196 226 262
#     4  10  20  36  54  64  90 114 146 184 252 300
#
# _framework density 17.339400999999999
#
# number of rings (size 3 to 8) (size 9 to 14) (size 15 to 20)
#    0.000    2.133    0.000    7.200    0.000    1.067 
#    0.000    2.667    0.000    0.000    0.000    0.000 
#    0.000   36.267    0.000    0.000    0.000    0.000 
#
# Total GULP energy -334375.731258 kJ/mol
# GULP energy per Si atom -5572.928854 kJ/mol
# Density = 1.729994 g / cm^3
# Si number density = 17.339401 Si / 1000 Ang^3
#
#
#
# Elastic Constant Matrix: (Units=GPa)
#
#
# Indices 1 2 3 4 5 6 
#
# 1 50.8606 -1.8989 12.4116 0.0000 0.0000 0.0000
# 2 -1.8989 30.9451 8.2742 0.0000 0.0000 0.0000
# 3 12.4116 8.2742 59.5954 0.0000 0.0000 0.0000
# 4 0.0000 0.0000 0.0000 25.0610 0.0000 0.0000
# 5 0.0000 0.0000 0.0000 0.0000 12.5256 0.0000
# 6 0.0000 0.0000 0.0000 0.0000 0.0000 26.2958
#
#
#
# Elastic Compliance Matrix: (Units=1/GPa)
#
#
# Indices 1 2 3 4 5 6 
#
# 1 0.020905 0.002541 -0.004707 0.000000 0.000000 0.000000
# 2 0.002541 0.033870 -0.005232 0.000000 0.000000 0.000000
# 3 -0.004707 -0.005232 0.018486 0.000000 0.000000 0.000000
# 4 0.000000 0.000000 0.000000 0.039903 0.000000 0.000000
# 5 0.000000 0.000000 0.000000 0.000000 0.079836 0.000000
# 6 0.000000 0.000000 0.000000 0.000000 0.000000 0.038029
#
#
# Mechanical properties :
#
#
# Convention : Reuss Voigt Hill
#
# Bulk Modulus (GPa) = 17.10354 19.88609 18.49482
# Shear Modulus (GPa) = 18.84566 20.95074 19.89820
#
# Velocity S-wave (km/s) = 3.30035 3.47979 3.39126
# Velocity P-wave (km/s) = 4.94049 5.25727 5.10134
#
# Compressibility (1/GPa) = 0.05846742
#
# Stress axis : x y z
#
# Youngs Moduli (GPa) = 47.83537 29.52450 54.09375
#
# Poissons Ratio (x) = -0.07503 0.25460
# Poissons Ratio (y) = -0.12156 0.28301
# Poissons Ratio (z) = 0.22514 0.15447
#
# Static dielectric constant tensor:
#      x y z
#    x 1.636930 0.000000 0.000000 
#    y 0.000000 1.650580 0.000000 
#    z 0.000000 0.000000 1.587290 
# 
# From -- ./inp_files/28798.got.cif
#   From: 2010.05.17/outbox.cif.g08.bks.cpg/sg57_15_cif.got.tgz:28798.got - 2010.06.03 13:58:18.
