data_PCOD9434493
_publ_section_title
;
Structure prediction by ZEFSAII (Michael W. Deem and Ramdas Pophale) SiO2 
 PCOD9434493
Probable space group: P B C M
;
_chemical_formula_sum "Si O2"
_cell_formula_units_Z 56
_cell_length_a 17.282358
_cell_length_b 22.516913
_cell_length_c 8.914416
_cell_angle_alpha 90.000000
_cell_angle_beta 90.000000
_cell_angle_gamma 90.000000
_cell_volume 3469.003548
_symmetry_space_group_name_H-M "P B C M"
_symmetry_group_IT_number 57
_symmetry_cell_setting 'orthorhombic'
loop_
_space_group_symop_operation_xyz
x,y,z
-x,-y,1/2+z
x,1/2-y,-z
-x,1/2+y,1/2-z
-x,-y,-z
x,y,1/2-z
-x,1/2+y,z
x,1/2-y,1/2+z
loop_
_atom_site_type_symbol
_atom_site_label
_atom_site_fract_x
_atom_site_fract_y
_atom_site_fract_z
Si Si1 0.058115 0.549022 0.569168
Si Si2 0.776193 0.026407 0.422977
Si Si3 0.242252 0.666375 0.423013
Si Si4 0.078387 0.812886 0.070831
Si Si5 0.491681 0.911567 0.419634
Si Si6 0.374744 0.023744 0.076918
Si Si7 0.588432 0.306579 0.574019
O O1 0.055105 0.546708 0.750000
O O2 0.142527 0.529052 0.509776
O O3 0.046741 0.620062 0.527031
O O4 0.000000 0.500000 0.500000
O O5 0.786021 0.006338 0.250000
O O6 0.750984 0.095261 0.417902
O O7 0.708477 0.991226 0.507312
O O8 0.230423 0.686795 0.250000
O O9 0.168209 0.683290 0.520289
O O10 0.323997 0.687304 0.486975
O O11 0.071716 0.808507 0.250000
O O12 0.048211 0.750000 0.000000
O O13 0.493801 0.888344 0.250000
O O14 0.575740 0.932375 0.473355
O O15 0.459015 0.864149 0.533850
O O16 0.430089 0.965542 0.421708
O O17 0.367791 0.043504 0.250000
O O18 0.550149 0.250000 0.500000
O O19 0.595338 0.299387 0.750000
#
# Coordination Sequence:
#
# PCOD9434493 Si02
#       7
#     8   8   8   8   8   8   8
#     4  10  21  36  53  77 106 138 172 212 258 308
#     4  10  18  31  51  74 100 131 166 205 249 299
#     4   9  18  30  45  66  95 130 167 203 240 286
#     4  10  20  32  49  72 100 133 171 207 247 299
#     4  10  20  32  47  67  93 126 164 206 249 289
#     4  10  19  31  49  71  96 125 160 205 248 291
#     4  11  21  32  44  63  92 128 168 207 248 296
#
# _framework density 16.142963000000002
#
# number of rings (size 3 to 8) (size 9 to 14) (size 15 to 20)
#    0.000    2.000    1.429    3.000    0.000    5.714 
#    0.000    0.000    0.000    0.000    0.000    1.000 
#    0.000    2.286    0.000    0.000    0.000    0.000 
#
# Total GULP energy -311952.738236 kJ/mol
# GULP energy per Si atom -5570.584611 kJ/mol
# Density = 1.610622 g / cm^3
# Si number density = 16.142963 Si / 1000 Ang^3
#
#
#
# Elastic Constant Matrix: (Units=GPa)
#
#
# Indices 1 2 3 4 5 6 
#
# 1 69.2792 34.6945 20.4956 0.0000 0.0000 0.0000
# 2 34.6945 64.3920 18.6166 0.0000 0.0000 0.0000
# 3 20.4956 18.6166 63.3966 0.0000 0.0000 0.0000
# 4 0.0000 0.0000 0.0000 25.6990 0.0000 0.0000
# 5 0.0000 0.0000 0.0000 0.0000 21.4859 0.0000
# 6 0.0000 0.0000 0.0000 0.0000 0.0000 -3.4350
#
#
#
# Elastic Compliance Matrix: (Units=1/GPa)
#
#
# Indices 1 2 3 4 5 6 
#
# 1 0.020535 -0.009993 -0.003704 0.000000 0.000000 0.000000
# 2 -0.009993 0.021834 -0.003181 0.000000 0.000000 0.000000
# 3 -0.003704 -0.003181 0.017905 0.000000 0.000000 0.000000
# 4 0.000000 0.000000 0.000000 0.038912 0.000000 0.000000
# 5 0.000000 0.000000 0.000000 0.000000 0.046542 0.000000
# 6 0.000000 0.000000 0.000000 0.000000 0.000000 -0.291117
#
#
# Mechanical properties :
#
#
# Convention : Reuss Voigt Hill
#
# Bulk Modulus (GPa) = 37.71106 38.29791 38.00448
# Shear Modulus (GPa) = -48.64140 16.96739 -15.83701
#
# Velocity S-wave (km/s) = -5.49518 3.24554 -3.13556
# Velocity P-wave (km/s) = 4.10504 6.14983 3.23798
#
# Compressibility (1/GPa) = 0.02651742
#
# Stress axis : x y z
#
# Youngs Moduli (GPa) = 48.69811 45.80047 55.84935
#
# Poissons Ratio (x) = 0.45769 0.20687
# Poissons Ratio (y) = 0.48665 0.17765
# Poissons Ratio (z) = 0.18039 0.14569
#
# Static dielectric constant tensor:
#      x y z
#    x 1.510090 0.000000 0.000000 
#    y 0.000000 1.570150 0.000000 
#    z 0.000000 0.000000 1.551540 
# 
# From -- ./inp_files/6990.got.cif
#   From: 2010.05.17/outbox.cif.g08.bks.cpg/sg57_4_cif.got.tgz:6990.got - 2010.06.03 13:58:18.
