data_PCOD9434803
_publ_section_title
;
Structure prediction by ZEFSAII (Michael W. Deem and Ramdas Pophale) SiO2 
 PCOD9434803
Probable space group: P B C M
;
_chemical_formula_sum "Si O2"
_cell_formula_units_Z 44
_cell_length_a 11.998582
_cell_length_b 11.137188
_cell_length_c 18.402569
_cell_angle_alpha 90.000000
_cell_angle_beta 90.000000
_cell_angle_gamma 90.000000
_cell_volume 2459.143824
_symmetry_space_group_name_H-M "P B C M"
_symmetry_group_IT_number 57
_symmetry_cell_setting 'orthorhombic'
loop_
_space_group_symop_operation_xyz
x,y,z
-x,-y,1/2+z
x,1/2-y,-z
-x,1/2+y,1/2-z
-x,-y,-z
x,y,1/2-z
-x,1/2+y,z
x,1/2-y,1/2+z
loop_
_atom_site_type_symbol
_atom_site_label
_atom_site_fract_x
_atom_site_fract_y
_atom_site_fract_z
Si Si1 0.204972 0.808801 0.081356
Si Si2 0.149189 0.585420 0.335289
Si Si3 0.439339 0.858368 0.051925
Si Si4 0.939076 0.959103 0.573542
Si Si5 0.664247 0.540841 0.933053
Si Si6 0.815721 0.750000 0.500000
O O1 0.146039 0.723093 0.138471
O O2 0.336527 0.809431 0.097926
O O3 0.156399 0.942095 0.084411
O O4 0.190526 0.750000 0.000000
O O5 0.161452 0.571056 0.250000
O O6 0.254544 0.528599 0.378356
O O7 0.032331 0.533825 0.364592
O O8 0.544886 0.910083 0.094317
O O9 0.479627 0.750000 0.000000
O O10 0.378240 0.955479 0.999152
O O11 0.890380 0.826682 0.556735
O O12 0.000000 0.000000 0.500000
O O13 0.738137 0.650821 0.962196
#
# Coordination Sequence:
#
# PCOD9434803 Si02
#       6
#     8   8   8   8   8   4
#     4  11  19  39  63  90 118 160 214 252 292 365
#     4  12  26  41  59  88 129 166 199 258 326 365
#     4  10  18  35  65  94 118 149 208 259 289 353
#     4  12  21  36  61  88 121 158 207 252 299 363
#     4  11  21  35  61  96 122 152 196 258 306 357
#     4  12  20  34  60  98 118 148 208 260 302 346
#
# _framework density 17.892405
#
# number of rings (size 3 to 8) (size 9 to 14) (size 15 to 20)
#    0.000    0.727   10.000    1.091    0.000    0.727 
#    0.000    0.909    0.000    0.000    0.000    0.000 
#    0.000    0.000    0.000    0.000    0.000    0.000 
#
# Total GULP energy -245368.164195 kJ/mol
# GULP energy per Si atom -5576.549186 kJ/mol
# Density = 1.785168 g / cm^3
# Si number density = 17.892405 Si / 1000 Ang^3
#
#
#
# Elastic Constant Matrix: (Units=GPa)
#
#
# Indices 1 2 3 4 5 6 
#
# 1 121.5665 36.2536 38.6526 0.0000 0.0000 0.0000
# 2 36.2536 98.0720 25.5537 0.0000 0.0000 0.0000
# 3 38.6526 25.5537 72.8942 0.0000 0.0000 0.0000
# 4 0.0000 0.0000 0.0000 13.4840 0.0000 0.0000
# 5 0.0000 0.0000 0.0000 0.0000 14.3802 0.0000
# 6 0.0000 0.0000 0.0000 0.0000 0.0000 23.2783
#
#
#
# Elastic Compliance Matrix: (Units=1/GPa)
#
#
# Indices 1 2 3 4 5 6 
#
# 1 0.010495 -0.002674 -0.004628 0.000000 0.000000 0.000000
# 2 -0.002674 0.011903 -0.002755 0.000000 0.000000 0.000000
# 3 -0.004628 -0.002755 0.017138 0.000000 0.000000 0.000000
# 4 0.000000 0.000000 0.000000 0.074162 0.000000 0.000000
# 5 0.000000 0.000000 0.000000 0.000000 0.069540 0.000000
# 6 0.000000 0.000000 0.000000 0.000000 0.000000 0.042958
#
#
# Mechanical properties :
#
#
# Convention : Reuss Voigt Hill
#
# Bulk Modulus (GPa) = 51.48488 54.82807 53.15648
# Shear Modulus (GPa) = 19.77985 23.03336 21.40661
#
# Velocity S-wave (km/s) = 3.32850 3.59183 3.46266
# Velocity P-wave (km/s) = 6.60371 6.92180 6.76463
#
# Compressibility (1/GPa) = 0.01942318
#
# Stress axis : x y z
#
# Youngs Moduli (GPa) = 95.28653 84.01400 58.34965
#
# Poissons Ratio (x) = 0.22463 0.27002
# Poissons Ratio (y) = 0.25477 0.16075
# Poissons Ratio (z) = 0.44094 0.23145
#
# Static dielectric constant tensor:
#      x y z
#    x 1.659690 0.000000 0.000000 
#    y 0.000000 1.688740 0.000000 
#    z 0.000000 0.000000 1.446680 
# 
# From -- ./inp_files/21740.got.cif
#   From: 2010.05.17/outbox.cif.g08.bks.cpg/sg57_11_cif.got.tgz:21740.got - 2010.06.03 13:58:18.
