data_PCOD9434814
_publ_section_title
;
Structure prediction by ZEFSAII (Michael W. Deem and Ramdas Pophale) SiO2 
 PCOD9434814
Probable space group: P B C M
;
_chemical_formula_sum "Si O2"
_cell_formula_units_Z 60
_cell_length_a 9.336407
_cell_length_b 13.635766
_cell_length_c 24.621561
_cell_angle_alpha 90.000000
_cell_angle_beta 90.000000
_cell_angle_gamma 90.000000
_cell_volume 3134.547815
_symmetry_space_group_name_H-M "P B C M"
_symmetry_group_IT_number 57
_symmetry_cell_setting 'orthorhombic'
loop_
_space_group_symop_operation_xyz
x,y,z
-x,-y,1/2+z
x,1/2-y,-z
-x,1/2+y,1/2-z
-x,-y,-z
x,y,1/2-z
-x,1/2+y,z
x,1/2-y,1/2+z
loop_
_atom_site_type_symbol
_atom_site_label
_atom_site_fract_x
_atom_site_fract_y
_atom_site_fract_z
Si Si1 0.277157 0.914091 0.314852
Si Si2 0.035799 0.074966 0.869562
Si Si3 0.653244 0.228929 0.117654
Si Si4 0.443441 0.382569 0.812744
Si Si5 0.698064 0.250000 0.000000
Si Si6 0.031093 0.614590 0.510233
Si Si7 0.026291 0.653681 0.107187
Si Si8 0.185645 0.236733 0.813059
O O1 0.276898 0.896632 0.250000
O O2 0.358053 0.827375 0.346696
O O3 0.114380 0.915379 0.337192
O O4 0.353034 0.019095 0.324836
O O5 0.161431 0.128004 0.836319
O O6 0.022300 0.127545 0.928346
O O7 0.054601 0.960458 0.880584
O O8 0.572186 0.140579 0.147023
O O9 0.821534 0.205850 0.112972
O O10 0.608185 0.240992 0.054994
O O11 0.491530 0.389598 0.750000
O O12 0.338974 0.288238 0.817431
O O13 0.805377 0.155984 0.992136
O O14 0.969403 0.662535 0.454957
O O15 0.000000 0.500000 0.500000
O O16 0.919844 0.696884 0.151207
O O17 0.144120 0.238767 0.750000
#
# Coordination Sequence:
#
# PCOD9434814 Si02
#       8
#     8   8   8   8   4   8   8   8
#     4  11  21  37  63  85 113 157 197 240 300 359
#     4  11  19  35  60  90 116 149 197 244 293 350
#     4  11  22  40  62  87 121 157 202 241 299 359
#     4  10  24  42  58  82 121 159 196 245 300 356
#     4  10  18  36  60  88 120 162 196 250 288 352
#     4   9  18  33  56  88 118 149 186 240 293 342
#     4  10  21  35  61  87 115 151 197 240 290 353
#     4  11  22  36  56  86 118 150 194 251 297 344
#
# _framework density 19.141515999999999
#
# number of rings (size 3 to 8) (size 9 to 14) (size 15 to 20)
#    0.000    1.600    4.000    1.600    0.000    2.133 
#    0.000    3.333    0.000    0.000    0.000    0.000 
#    0.000    0.000    0.000    0.000    0.000    0.000 
#
# Total GULP energy -334531.292542 kJ/mol
# GULP energy per Si atom -5575.521542 kJ/mol
# Density = 1.909795 g / cm^3
# Si number density = 19.141516 Si / 1000 Ang^3
#
#
#
# Elastic Constant Matrix: (Units=GPa)
#
#
# Indices 1 2 3 4 5 6 
#
# 1 24.3408 5.7577 29.0675 0.0000 0.0000 0.0000
# 2 5.7577 89.6638 30.2593 0.0000 0.0000 0.0000
# 3 29.0675 30.2593 138.3337 0.0000 0.0000 0.0000
# 4 0.0000 0.0000 0.0000 31.9055 0.0000 0.0000
# 5 0.0000 0.0000 0.0000 0.0000 21.0336 0.0000
# 6 0.0000 0.0000 0.0000 0.0000 0.0000 22.9319
#
#
#
# Elastic Compliance Matrix: (Units=1/GPa)
#
#
# Indices 1 2 3 4 5 6 
#
# 1 0.054859 0.000397 -0.011614 0.000000 0.000000 0.000000
# 2 0.000397 0.012045 -0.002718 0.000000 0.000000 0.000000
# 3 -0.011614 -0.002718 0.010264 0.000000 0.000000 0.000000
# 4 0.000000 0.000000 0.000000 0.031343 0.000000 0.000000
# 5 0.000000 0.000000 0.000000 0.000000 0.047543 0.000000
# 6 0.000000 0.000000 0.000000 0.000000 0.000000 0.043607
#
#
# Mechanical properties :
#
#
# Convention : Reuss Voigt Hill
#
# Bulk Modulus (GPa) = 20.28540 42.50082 31.39311
# Shear Modulus (GPa) = 20.49492 27.65777 24.07634
#
# Velocity S-wave (km/s) = 3.27571 3.80532 3.55041
# Velocity P-wave (km/s) = 4.99276 6.44662 5.76570
#
# Compressibility (1/GPa) = 0.04929653
#
# Stress axis : x y z
#
# Youngs Moduli (GPa) = 18.22864 83.02503 97.42927
#
# Poissons Ratio (x) = -0.03294 1.13155
# Poissons Ratio (y) = -0.00723 0.26481
# Poissons Ratio (z) = 0.21171 0.22566
#
# Static dielectric constant tensor:
#      x y z
#    x 1.633240 0.000000 0.000000 
#    y 0.000000 1.714500 0.000000 
#    z 0.000000 0.000000 1.695420 
# 
# From -- ./inp_files/26854.got.cif
#   From: 2010.05.17/outbox.cif.g08.bks.cpg/sg57_14_cif.got.tgz:26854.got - 2010.06.03 13:58:18.
