data_PCOD9434634
_publ_section_title
;
Structure prediction by ZEFSAII (Michael W. Deem and Ramdas Pophale) SiO2 
 PCOD9434634
Probable space group: P B C M
;
_chemical_formula_sum "Si O2"
_cell_formula_units_Z 56
_cell_length_a 21.521219
_cell_length_b 14.463752
_cell_length_c 8.623010
_cell_angle_alpha 90.000000
_cell_angle_beta 90.000000
_cell_angle_gamma 90.000000
_cell_volume 2684.149636
_symmetry_space_group_name_H-M "P B C M"
_symmetry_group_IT_number 57
_symmetry_cell_setting 'orthorhombic'
loop_
_space_group_symop_operation_xyz
x,y,z
-x,-y,1/2+z
x,1/2-y,-z
-x,1/2+y,1/2-z
-x,-y,-z
x,y,1/2-z
-x,1/2+y,z
x,1/2-y,1/2+z
loop_
_atom_site_type_symbol
_atom_site_label
_atom_site_fract_x
_atom_site_fract_y
_atom_site_fract_z
Si Si1 0.886037 0.844869 0.063667
Si Si2 0.400514 0.645615 0.934666
Si Si3 0.281854 0.540238 0.065194
Si Si4 0.471107 0.355315 0.564642
Si Si5 0.660590 0.647692 0.934840
Si Si6 0.150761 0.546419 0.936237
Si Si7 0.019636 0.599177 0.936202
O O1 0.880211 0.848148 0.250000
O O2 0.959430 0.842768 0.018056
O O3 0.856926 0.750000 0.000000
O O4 0.861022 0.941200 0.994838
O O5 0.404864 0.648504 0.750000
O O6 0.395659 0.750000 0.000000
O O7 0.339913 0.591247 0.988505
O O8 0.464898 0.603127 0.000319
O O9 0.285812 0.550818 0.250000
O O10 0.288734 0.430537 0.029719
O O11 0.216366 0.576848 0.004368
O O12 0.471882 0.250000 0.500000
O O13 0.471961 0.355877 0.750000
O O14 0.404745 0.389345 0.503799
O O15 0.653813 0.655538 0.750000
O O16 0.673350 0.750000 0.000000
O O17 0.153375 0.545844 0.750000
O O18 0.091329 0.608992 0.987008
O O19 0.020681 0.599072 0.750000
O O20 0.000000 0.500000 0.000000
#
# Coordination Sequence:
#
# PCOD9434634 Si02
#       7
#     8   8   8   8   8   8   8
#     4  10  19  33  54  82 112 141 177 222 270 323
#     4  11  22  39  62  85 111 144 186 238 292 345
#     4  11  24  40  57  82 115 154 197 237 282 339
#     4  10  18  32  56  83 112 144 182 231 288 344
#     4  10  21  37  57  81 113 149 189 236 284 338
#     4  10  20  36  56  78 107 145 184 224 274 330
#     4   8  16  31  52  75 100 131 169 212 258 308
#
# _framework density 20.863216999999999
#
# number of rings (size 3 to 8) (size 9 to 14) (size 15 to 20)
#    0.000    2.000    0.000    6.000    0.000    4.571 
#    0.000    2.143    0.000    1.714    0.000    0.000 
#    0.000    0.000    0.000    0.000    0.000    0.000 
#
# Total GULP energy -312515.840224 kJ/mol
# GULP energy per Si atom -5580.640004 kJ/mol
# Density = 2.081573 g / cm^3
# Si number density = 20.863217 Si / 1000 Ang^3
#
#
#
# Elastic Constant Matrix: (Units=GPa)
#
#
# Indices 1 2 3 4 5 6 
#
# 1 109.2506 -7.1599 25.1538 0.0000 0.0000 0.0000
# 2 -7.1599 32.9503 8.4442 0.0000 0.0000 0.0000
# 3 25.1538 8.4442 69.0136 0.0000 0.0000 0.0000
# 4 0.0000 0.0000 0.0000 17.6051 0.0000 0.0000
# 5 0.0000 0.0000 0.0000 0.0000 27.8686 0.0000
# 6 0.0000 0.0000 0.0000 0.0000 0.0000 18.0932
#
#
#
# Elastic Compliance Matrix: (Units=1/GPa)
#
#
# Indices 1 2 3 4 5 6 
#
# 1 0.010331 0.003314 -0.004171 0.000000 0.000000 0.000000
# 2 0.003314 0.032394 -0.005171 0.000000 0.000000 0.000000
# 3 -0.004171 -0.005171 0.016643 0.000000 0.000000 0.000000
# 4 0.000000 0.000000 0.000000 0.056802 0.000000 0.000000
# 5 0.000000 0.000000 0.000000 0.000000 0.035883 0.000000
# 6 0.000000 0.000000 0.000000 0.000000 0.000000 0.055269
#
#
# Mechanical properties :
#
#
# Convention : Reuss Voigt Hill
#
# Bulk Modulus (GPa) = 21.13689 29.34340 25.24015
# Shear Modulus (GPa) = 21.26317 25.03181 23.14749
#
# Velocity S-wave (km/s) = 3.19591 3.46758 3.33451
# Velocity P-wave (km/s) = 4.87561 5.48884 5.19129
#
# Compressibility (1/GPa) = 0.04731065
#
# Stress axis : x y z
#
# Youngs Moduli (GPa) = 96.79890 30.86989 60.08617
#
# Poissons Ratio (x) = -0.10229 0.25060
# Poissons Ratio (y) = -0.32076 0.31072
# Poissons Ratio (z) = 0.40372 0.15964
#
# Static dielectric constant tensor:
#      x y z
#    x 1.790580 0.000000 0.000000 
#    y 0.000000 1.742920 0.000000 
#    z 0.000000 0.000000 1.694880 
# 
# From -- ./inp_files/8156.got.cif
#   From: 2010.05.17/outbox.cif.g08.bks.cpg/sg57_5_cif.got.tgz:8156.got - 2010.06.03 13:58:18.
