data_PCOD9434681
_publ_section_title
;
Structure prediction by ZEFSAII (Michael W. Deem and Ramdas Pophale) SiO2 
 PCOD9434681
Probable space group: P B C M
;
_chemical_formula_sum "Si O2"
_cell_formula_units_Z 48
_cell_length_a 10.538969
_cell_length_b 29.089662
_cell_length_c 8.549767
_cell_angle_alpha 90.000000
_cell_angle_beta 90.000000
_cell_angle_gamma 90.000000
_cell_volume 2621.145212
_symmetry_space_group_name_H-M "P B C M"
_symmetry_group_IT_number 57
_symmetry_cell_setting 'orthorhombic'
loop_
_space_group_symop_operation_xyz
x,y,z
-x,-y,1/2+z
x,1/2-y,-z
-x,1/2+y,1/2-z
-x,-y,-z
x,y,1/2-z
-x,1/2+y,z
x,1/2-y,1/2+z
loop_
_atom_site_type_symbol
_atom_site_label
_atom_site_fract_x
_atom_site_fract_y
_atom_site_fract_z
Si Si1 0.859113 0.299583 0.937800
Si Si2 0.006360 0.448366 0.938231
Si Si3 0.253521 0.396085 0.437442
Si Si4 0.248814 0.605296 0.440141
Si Si5 0.499847 0.947968 0.937700
Si Si6 0.854502 0.799613 0.062384
O O1 0.863118 0.298508 0.750000
O O2 0.771431 0.341976 0.989674
O O3 0.817618 0.250000 0.000000
O O4 0.003071 0.307449 0.997345
O O5 0.014217 0.447946 0.750000
O O6 0.877611 0.422256 0.985726
O O7 0.128189 0.422899 0.007461
O O8 0.000000 0.500000 0.000000
O O9 0.262072 0.398400 0.250000
O O10 0.375840 0.420443 0.509279
O O11 0.232785 0.342733 0.483442
O O12 0.252664 0.605357 0.250000
O O13 0.374878 0.579473 0.494479
O O14 0.496470 0.949891 0.750000
O O15 0.500000 0.000000 0.000000
O O16 0.862170 0.797879 0.250000
O O17 0.811465 0.750000 0.000000
#
# Coordination Sequence:
#
# PCOD9434681 Si02
#       6
#     8   8   8   8   8   8
#     4  10  18  33  56  84 115 147 184 231 286 347
#     4  11  21  36  58  85 114 148 189 243 297 346
#     4  11  23  39  57  85 119 153 196 242 288 349
#     4   9  20  37  57  81 113 148 188 232 285 347
#     4  11  23  41  62  84 114 157 197 240 296 351
#     4  10  20  34  56  85 117 150 189 239 289 343
#
# _framework density 18.312605000000001
#
# number of rings (size 3 to 8) (size 9 to 14) (size 15 to 20)
#    0.000    1.667    1.667    4.500    0.000    3.333 
#    0.000    6.667    0.000    4.000    0.000    0.000 
#    0.000    0.000    0.000    0.000    0.000    0.000 
#
# Total GULP energy -268113.671919 kJ/mol
# GULP energy per Si atom -5585.701498 kJ/mol
# Density = 1.827092 g / cm^3
# Si number density = 18.312605 Si / 1000 Ang^3
#
#
#
# Elastic Constant Matrix: (Units=GPa)
#
#
# Indices 1 2 3 4 5 6 
#
# 1 146.2131 102.3182 28.1171 0.0000 0.0000 0.0000
# 2 102.3182 211.3103 44.5171 0.0000 0.0000 0.0000
# 3 28.1171 44.5171 52.1979 0.0000 0.0000 0.0000
# 4 0.0000 0.0000 0.0000 29.8292 0.0000 0.0000
# 5 0.0000 0.0000 0.0000 0.0000 16.7594 0.0000
# 6 0.0000 0.0000 0.0000 0.0000 0.0000 32.1229
#
#
#
# Elastic Compliance Matrix: (Units=1/GPa)
#
#
# Indices 1 2 3 4 5 6 
#
# 1 0.010453 -0.004724 -0.001602 0.000000 0.000000 0.000000
# 2 -0.004724 0.007904 -0.004196 0.000000 0.000000 0.000000
# 3 -0.001602 -0.004196 0.023599 0.000000 0.000000 0.000000
# 4 0.000000 0.000000 0.000000 0.033524 0.000000 0.000000
# 5 0.000000 0.000000 0.000000 0.000000 0.059668 0.000000
# 6 0.000000 0.000000 0.000000 0.000000 0.000000 0.031130
#
#
# Mechanical properties :
#
#
# Convention : Reuss Voigt Hill
#
# Bulk Modulus (GPa) = 47.81855 84.40290 66.11072
# Shear Modulus (GPa) = 25.73424 31.39357 28.56391
#
# Velocity S-wave (km/s) = 3.75277 4.14492 3.95371
# Velocity P-wave (km/s) = 6.70423 8.31248 7.55129
#
# Compressibility (1/GPa) = 0.02091239
#
# Stress axis : x y z
#
# Youngs Moduli (GPa) = 95.66429 126.52112 42.37405
#
# Poissons Ratio (x) = 0.59770 0.06788
# Poissons Ratio (y) = 0.45193 0.17781
# Poissons Ratio (z) = 0.15324 0.53090
#
# Static dielectric constant tensor:
#      x y z
#    x 1.599090 0.000000 0.000000 
#    y 0.000000 1.629440 0.000000 
#    z 0.000000 0.000000 1.622550 
# 
# From -- ./inp_files/2102.got.cif
#   From: 2010.05.17/outbox.cif.g08.bks.cpg/sg57_2_cif.got.tgz:2102.got - 2010.06.03 13:58:18.
