data_PCOD9434441
_publ_section_title
;
Structure prediction by ZEFSAII (Michael W. Deem and Ramdas Pophale) SiO2 
 PCOD9434441
Probable space group: P B C M
;
_chemical_formula_sum "Si O2"
_cell_formula_units_Z 40
_cell_length_a 12.393978
_cell_length_b 8.206285
_cell_length_c 17.496056
_cell_angle_alpha 90.000000
_cell_angle_beta 90.000000
_cell_angle_gamma 90.000000
_cell_volume 1779.497887
_symmetry_space_group_name_H-M "P B C M"
_symmetry_group_IT_number 57
_symmetry_cell_setting 'orthorhombic'
loop_
_space_group_symop_operation_xyz
x,y,z
-x,-y,1/2+z
x,1/2-y,-z
-x,1/2+y,1/2-z
-x,-y,-z
x,y,1/2-z
-x,1/2+y,z
x,1/2-y,1/2+z
loop_
_atom_site_type_symbol
_atom_site_label
_atom_site_fract_x
_atom_site_fract_y
_atom_site_fract_z
Si Si1 0.244103 0.775436 0.337176
Si Si2 0.096050 0.909830 0.054015
Si Si3 0.553850 0.344252 0.917311
Si Si4 0.126530 0.446592 0.105181
Si Si5 0.337560 0.203055 0.585677
O O1 0.227600 0.816832 0.250000
O O2 0.204241 0.906367 0.397731
O O3 0.366957 0.738205 0.356757
O O4 0.171359 0.615700 0.359868
O O5 0.000352 0.917220 0.117184
O O6 0.085050 0.750000 0.000000
O O7 0.112542 0.042604 0.987768
O O8 0.600230 0.527586 0.920830
O O9 0.430757 0.327715 0.889492
O O10 0.563583 0.250000 0.000000
O O11 0.222419 0.322981 0.126470
O O12 0.310867 0.250000 0.500000
#
# Coordination Sequence:
#
# PCOD9434441 Si02
#       5
#     8   8   8   8   8
#     4  10  20  33  48  69 102 140 171 204 254 311
#     4   9  17  32  53  77 100 127 166 214 262 310
#     4  10  19  33  52  75 102 132 171 217 259 302
#     4   9  18  32  53  76 100 128 168 216 262 308
#     4  10  18  30  52  79 102 128 167 218 265 304
#
# _framework density 22.478251
#
# number of rings (size 3 to 8) (size 9 to 14) (size 15 to 20)
#    0.000    2.400    0.000    6.000    0.000    0.800 
#    0.000    4.000    0.000    0.000    0.000   18.200 
#    0.000    0.000    0.000    0.000    0.000    0.000 
#
# Total GULP energy -222708.327404 kJ/mol
# GULP energy per Si atom -5567.708185 kJ/mol
# Density = 2.242709 g / cm^3
# Si number density = 22.478251 Si / 1000 Ang^3
#
#
#
# Elastic Constant Matrix: (Units=GPa)
#
#
# Indices 1 2 3 4 5 6 
#
# 1 104.0796 0.9393 -13.5956 0.0000 0.0000 0.0000
# 2 0.9393 35.3871 -9.6098 0.0000 0.0000 0.0000
# 3 -13.5956 -9.6098 36.3786 0.0000 0.0000 0.0000
# 4 0.0000 0.0000 0.0000 5.6517 0.0000 0.0000
# 5 0.0000 0.0000 0.0000 0.0000 -13.7195 0.0000
# 6 0.0000 0.0000 0.0000 0.0000 0.0000 -8.9800
#
#
#
# Elastic Compliance Matrix: (Units=1/GPa)
#
#
# Indices 1 2 3 4 5 6 
#
# 1 0.010123 0.000817 0.003999 0.000000 0.000000 0.000000
# 2 0.000817 0.030509 0.008365 0.000000 0.000000 0.000000
# 3 0.003999 0.008365 0.031193 0.000000 0.000000 0.000000
# 4 0.000000 0.000000 0.000000 0.176937 0.000000 0.000000
# 5 0.000000 0.000000 0.000000 0.000000 -0.072889 0.000000
# 6 0.000000 0.000000 0.000000 0.000000 0.000000 -0.111359
#
#
# Mechanical properties :
#
#
# Convention : Reuss Voigt Hill
#
# Bulk Modulus (GPa) = 10.18465 14.59035 12.38750
# Shear Modulus (GPa) = 70.54119 9.79788 40.16953
#
# Velocity S-wave (km/s) = 5.60804 2.09004 4.23193
# Velocity P-wave (km/s) = 6.81720 3.51132 5.42234
#
# Compressibility (1/GPa) = 0.09818696
#
# Stress axis : x y z
#
# Youngs Moduli (GPa) = 98.78448 32.77747 32.05858
#
# Poissons Ratio (x) = -0.02679 -0.12821
# Poissons Ratio (y) = -0.08074 -0.26816
# Poissons Ratio (z) = -0.39505 -0.27417
#
# Static dielectric constant tensor:
#      x y z
#    x 1.957320 0.000000 0.000000 
#    y 0.000000 1.987000 0.000000 
#    z 0.000000 0.000000 1.779740 
# 
# From -- ./inp_files/24850.got.cif
#   From: 2010.05.17/outbox.cif.g08.bks.cpg/sg57_13_cif.got.tgz:24850.got - 2010.06.03 13:58:18.
