data_PCOD9434066
_publ_section_title
;
Structure prediction by ZEFSAII (Michael W. Deem and Ramdas Pophale) SiO2 
 PCOD9434066
Probable space group: P B C M
;
_chemical_formula_sum "Si O2"
_cell_formula_units_Z 56
_cell_length_a 18.010270
_cell_length_b 21.962332
_cell_length_c 9.125843
_cell_angle_alpha 90.000000
_cell_angle_beta 90.000000
_cell_angle_gamma 90.000000
_cell_volume 3609.704650
_symmetry_space_group_name_H-M "P B C M"
_symmetry_group_IT_number 57
_symmetry_cell_setting 'orthorhombic'
loop_
_space_group_symop_operation_xyz
x,y,z
-x,-y,1/2+z
x,1/2-y,-z
-x,1/2+y,1/2-z
-x,-y,-z
x,y,1/2-z
-x,1/2+y,z
x,1/2-y,1/2+z
loop_
_atom_site_type_symbol
_atom_site_label
_atom_site_fract_x
_atom_site_fract_y
_atom_site_fract_z
Si Si1 0.396036 0.953822 0.423049
Si Si2 0.202019 0.106937 0.576620
Si Si3 0.907936 0.440100 0.419041
Si Si4 0.541380 0.590859 0.423212
Si Si5 0.241208 0.965301 0.924383
Si Si6 0.945963 0.914904 0.581562
Si Si7 0.652638 0.684338 0.573864
O O1 0.395213 0.940255 0.250000
O O2 0.460334 0.916694 0.505504
O O3 0.315950 0.944802 0.495460
O O4 0.418526 0.025102 0.439868
O O5 0.186174 0.110690 0.750000
O O6 0.126061 0.116183 0.488853
O O7 0.267850 0.153150 0.540008
O O8 0.230815 0.038020 0.548703
O O9 0.897807 0.422714 0.250000
O O10 0.832250 0.434010 0.510021
O O11 0.927691 0.512462 0.421727
O O12 0.978382 0.407110 0.491273
O O13 0.536605 0.604020 0.250000
O O14 0.589675 0.640738 0.507149
O O15 0.246203 0.956428 0.750000
O O16 0.956114 0.897288 0.750000
O O17 0.648270 0.750000 0.500000
O O18 0.645505 0.687791 0.750000
#
# Coordination Sequence:
#
# PCOD9434066 Si02
#       7
#     8   8   8   8   8   8   8
#     4  10  19  30  47  69  94 122 155 194 237 288
#     4   9  18  30  44  61  86 119 154 191 232 276
#     4   9  16  25  37  57  86 118 150 182 221 265
#     4  10  20  33  49  68  91 121 157 195 239 287
#     4  10  17  27  43  64  91 121 155 191 230 277
#     4   9  16  25  39  58  82 114 151 186 220 263
#     4  11  22  36  51  69  93 123 160 201 243 285
#
# _framework density 15.513736
#
# number of rings (size 3 to 8) (size 9 to 14) (size 15 to 20)
#    0.000    2.286    1.429    2.571    0.000    6.286 
#    0.000    0.000    0.000    0.000    0.000    0.000 
#    0.000    1.143    0.000    9.714    0.000    7.143 
#
# Total GULP energy -312289.687944 kJ/mol
# GULP energy per Si atom -5576.601570 kJ/mol
# Density = 1.547843 g / cm^3
# Si number density = 15.513736 Si / 1000 Ang^3
#
#
#
# Elastic Constant Matrix: (Units=GPa)
#
#
# Indices 1 2 3 4 5 6 
#
# 1 156.3241 41.4600 91.3343 0.0000 0.0000 0.0000
# 2 41.4600 48.2187 41.2995 0.0000 0.0000 0.0000
# 3 91.3343 41.2995 108.8706 0.0000 0.0000 0.0000
# 4 0.0000 0.0000 0.0000 15.8176 0.0000 0.0000
# 5 0.0000 0.0000 0.0000 0.0000 35.3335 0.0000
# 6 0.0000 0.0000 0.0000 0.0000 0.0000 8.5284
#
#
#
# Elastic Compliance Matrix: (Units=1/GPa)
#
#
# Indices 1 2 3 4 5 6 
#
# 1 0.012775 -0.002674 -0.009703 0.000000 0.000000 0.000000
# 2 -0.002674 0.031280 -0.009623 0.000000 0.000000 0.000000
# 3 -0.009703 -0.009623 0.020976 0.000000 0.000000 0.000000
# 4 0.000000 0.000000 0.000000 0.063221 0.000000 0.000000
# 5 0.000000 0.000000 0.000000 0.000000 0.028302 0.000000
# 6 0.000000 0.000000 0.000000 0.000000 0.000000 0.117255
#
#
# Mechanical properties :
#
#
# Convention : Reuss Voigt Hill
#
# Bulk Modulus (GPa) = 47.54789 73.51122 60.52955
# Shear Modulus (GPa) = 15.39319 21.22387 18.30853
#
# Velocity S-wave (km/s) = 3.15339 3.70276 3.43906
# Velocity P-wave (km/s) = 6.63128 8.10975 7.40749
#
# Compressibility (1/GPa) = 0.02103143
#
# Stress axis : x y z
#
# Youngs Moduli (GPa) = 78.27563 31.96955 47.67375
#
# Poissons Ratio (x) = 0.08548 0.46259
# Poissons Ratio (y) = 0.20929 0.45875
# Poissons Ratio (z) = 0.75953 0.30764
#
# Static dielectric constant tensor:
#      x y z
#    x 1.507960 0.000000 0.000000 
#    y 0.000000 1.484850 0.000000 
#    z 0.000000 0.000000 1.514450 
# 
# From -- ./inp_files/7054.got.cif
#   From: 2010.05.17/outbox.cif.g08.bks.cpg/sg57_4_cif.got.tgz:7054.got - 2010.06.03 13:58:18.
