data_PCOD9434260
_publ_section_title
;
Structure prediction by ZEFSAII (Michael W. Deem and Ramdas Pophale) SiO2 
 PCOD9434260
Probable space group: P B C M
;
_chemical_formula_sum "Si O2"
_cell_formula_units_Z 56
_cell_length_a 24.618167
_cell_length_b 5.523054
_cell_length_c 18.851594
_cell_angle_alpha 90.000000
_cell_angle_beta 90.000000
_cell_angle_gamma 90.000000
_cell_volume 2563.203461
_symmetry_space_group_name_H-M "P B C M"
_symmetry_group_IT_number 57
_symmetry_cell_setting 'orthorhombic'
loop_
_space_group_symop_operation_xyz
x,y,z
-x,-y,1/2+z
x,1/2-y,-z
-x,1/2+y,1/2-z
-x,-y,-z
x,y,1/2-z
-x,1/2+y,z
x,1/2-y,1/2+z
loop_
_atom_site_type_symbol
_atom_site_label
_atom_site_fract_x
_atom_site_fract_y
_atom_site_fract_z
Si Si1 0.201544 0.683327 0.331183
Si Si2 0.478518 0.211705 0.082944
Si Si3 0.361014 0.055868 0.129407
Si Si4 0.845810 0.683234 0.336504
Si Si5 0.028038 0.386981 0.663802
Si Si6 0.724820 0.499644 0.495163
Si Si7 0.325818 0.941635 0.853702
O O1 0.181081 0.697606 0.250000
O O2 0.173715 0.445117 0.363764
O O3 0.265255 0.624968 0.329563
O O4 0.188928 0.949991 0.360940
O O5 0.487547 0.482768 0.113265
O O6 0.416780 0.124092 0.090993
O O7 0.492765 0.250000 0.000000
O O8 0.345117 0.296440 0.172352
O O9 0.363412 0.788589 0.163295
O O10 0.311666 0.016480 0.074450
O O11 0.840112 0.696667 0.250000
O O12 0.908463 0.635103 0.353524
O O13 0.024196 0.388949 0.750000
O O14 0.002874 0.643033 0.639485
O O15 0.755973 0.750000 0.500000
O O16 0.681996 0.480666 0.560905
O O17 0.756730 0.250000 0.500000
#
# Coordination Sequence:
#
# PCOD9434260 Si02
#       7
#     8   8   8   8   8   8   8
#     4  10  19  30  42  59  84 112 145 179 212 245
#     4  10  19  28  41  62  89 116 134 155 194 245
#     4  10  18  30  44  62  86 110 138 166 198 247
#     4   9  17  28  40  55  81 112 138 175 216 244
#     4   9  15  23  37  56  75 100 139 175 201 240
#     4   8  15  25  40  57  77 103 133 160 190 233
#     4  10  18  28  44  60  79 111 145 172 202 241
#
# _framework density 21.847660000000001
#
# number of rings (size 3 to 8) (size 9 to 14) (size 15 to 20)
#    0.000    2.571    0.000    3.857    0.000    7.429 
#    0.000    0.000    0.000    0.000    0.000    0.000 
#    0.000   11.429    0.000    0.000    0.000  450.000 
#
# Total GULP energy -312013.130442 kJ/mol
# GULP energy per Si atom -5571.663044 kJ/mol
# Density = 2.179793 g / cm^3
# Si number density = 21.847660 Si / 1000 Ang^3
#
#
#
# Elastic Constant Matrix: (Units=GPa)
#
#
# Indices 1 2 3 4 5 6 
#
# 1 46.9282 43.0138 -8.9117 0.0000 0.0000 0.0000
# 2 43.0138 242.9327 9.3741 0.0000 0.0000 0.0000
# 3 -8.9117 9.3741 38.9641 0.0000 0.0000 0.0000
# 4 0.0000 0.0000 0.0000 -10.8525 0.0000 0.0000
# 5 0.0000 0.0000 0.0000 0.0000 3.7980 0.0000
# 6 0.0000 0.0000 0.0000 0.0000 0.0000 43.5108
#
#
#
# Elastic Compliance Matrix: (Units=1/GPa)
#
#
# Indices 1 2 3 4 5 6 
#
# 1 0.027460 -0.005152 0.007520 0.000000 0.000000 0.000000
# 2 -0.005152 0.005122 -0.002411 0.000000 0.000000 0.000000
# 3 0.007520 -0.002411 0.027964 0.000000 0.000000 0.000000
# 4 0.000000 0.000000 0.000000 -0.092144 0.000000 0.000000
# 5 0.000000 0.000000 0.000000 0.000000 0.263299 0.000000
# 6 0.000000 0.000000 0.000000 0.000000 0.000000 0.022983
#
#
# Mechanical properties :
#
#
# Convention : Reuss Voigt Hill
#
# Bulk Modulus (GPa) = 16.53982 46.19749 31.36865
# Shear Modulus (GPa) = 18.18700 26.31450 22.25075
#
# Velocity S-wave (km/s) = 2.88834 3.47429 3.19478
# Velocity P-wave (km/s) = 4.32554 6.10618 5.29130
#
# Compressibility (1/GPa) = 0.06046016
#
# Stress axis : x y z
#
# Youngs Moduli (GPa) = 36.41709 195.25026 35.75963
#
# Poissons Ratio (x) = 1.00597 -0.26891
# Poissons Ratio (y) = 0.18763 0.08620
# Poissons Ratio (z) = -0.27385 0.47066
#
# Static dielectric constant tensor:
#      x y z
#    x 1.742940 0.000000 0.000000 
#    y 0.000000 1.934550 0.000000 
#    z 0.000000 0.000000 1.835720 
# 
# From -- ./inp_files/27627.got.cif
#   From: 2010.05.17/outbox.cif.g08.bks.cpg/sg57_14_cif.got.tgz:27627.got - 2010.06.03 13:58:18.
