data_PCOD9434622
_publ_section_title
;
Structure prediction by ZEFSAII (Michael W. Deem and Ramdas Pophale) SiO2 
 PCOD9434622
Probable space group: P B C M
;
_chemical_formula_sum "Si O2"
_cell_formula_units_Z 36
_cell_length_a 9.097290
_cell_length_b 22.848135
_cell_length_c 9.740391
_cell_angle_alpha 90.000000
_cell_angle_beta 90.000000
_cell_angle_gamma 90.000000
_cell_volume 2024.599784
_symmetry_space_group_name_H-M "P B C M"
_symmetry_group_IT_number 57
_symmetry_cell_setting 'orthorhombic'
loop_
_space_group_symop_operation_xyz
x,y,z
-x,-y,1/2+z
x,1/2-y,-z
-x,1/2+y,1/2-z
-x,-y,-z
x,y,1/2-z
-x,1/2+y,z
x,1/2-y,1/2+z
loop_
_atom_site_type_symbol
_atom_site_label
_atom_site_fract_x
_atom_site_fract_y
_atom_site_fract_z
Si Si1 0.493583 0.558248 0.910166
Si Si2 0.667881 0.351474 0.903179
Si Si3 0.541641 0.750000 0.500000
Si Si4 0.001648 0.308560 0.909799
Si Si5 0.246157 0.351060 0.097459
O O1 0.459756 0.547316 0.750000
O O2 0.648059 0.593137 0.915893
O O3 0.500000 0.500000 0.000000
O O4 0.379582 0.602923 0.980920
O O5 0.643606 0.376135 0.750000
O O6 0.837767 0.334237 0.917203
O O7 0.565898 0.293658 0.917714
O O8 0.648750 0.706137 0.582218
O O9 0.035922 0.297320 0.750000
O O10 0.004892 0.250000 0.000000
O O11 0.124465 0.348948 0.979780
O O12 0.179658 0.350485 0.250000
#
# Coordination Sequence:
#
# PCOD9434622 Si02
#       5
#     8   8   4   8   8
#     4  10  22  40  62  85 110 145 190 239 285 332
#     4  10  21  36  56  83 115 150 189 232 280 333
#     4  10  18  32  54  84 112 148 184 230 276 334
#     4  11  22  35  54  82 118 155 186 225 278 336
#     4  10  21  35  55  83 114 147 186 229 278 333
#
# _framework density 17.781293000000002
#
# number of rings (size 3 to 8) (size 9 to 14) (size 15 to 20)
#    0.000    1.778    2.222    2.000    0.000    7.111 
#    0.000    1.111    0.000    0.000    0.000    0.000 
#    0.000    0.000    0.000    0.000    0.000    0.000 
#
# Total GULP energy -200874.002797 kJ/mol
# GULP energy per Si atom -5579.833411 kJ/mol
# Density = 1.774082 g / cm^3
# Si number density = 17.781293 Si / 1000 Ang^3
#
#
#
# Elastic Constant Matrix: (Units=GPa)
#
#
# Indices 1 2 3 4 5 6 
#
# 1 78.6216 11.4725 55.7337 0.0000 0.0000 0.0000
# 2 11.4725 74.8393 48.9637 0.0000 0.0000 0.0000
# 3 55.7337 48.9637 176.4832 0.0000 0.0000 0.0000
# 4 0.0000 0.0000 0.0000 22.6100 0.0000 0.0000
# 5 0.0000 0.0000 0.0000 0.0000 28.1845 0.0000
# 6 0.0000 0.0000 0.0000 0.0000 0.0000 10.8764
#
#
#
# Elastic Compliance Matrix: (Units=1/GPa)
#
#
# Indices 1 2 3 4 5 6 
#
# 1 0.016458 0.001072 -0.005495 0.000000 0.000000 0.000000
# 2 0.001072 0.016395 -0.004887 0.000000 0.000000 0.000000
# 3 -0.005495 -0.004887 0.008757 0.000000 0.000000 0.000000
# 4 0.000000 0.000000 0.000000 0.044228 0.000000 0.000000
# 5 0.000000 0.000000 0.000000 0.000000 0.035480 0.000000
# 6 0.000000 0.000000 0.000000 0.000000 0.000000 0.091942
#
#
# Mechanical properties :
#
#
# Convention : Reuss Voigt Hill
#
# Bulk Modulus (GPa) = 43.49627 62.47598 52.98613
# Shear Modulus (GPa) = 20.87292 26.58580 23.72936
#
# Velocity S-wave (km/s) = 3.42990 3.87092 3.65706
# Velocity P-wave (km/s) = 6.34039 7.42905 6.90620
#
# Compressibility (1/GPa) = 0.02299048
#
# Stress axis : x y z
#
# Youngs Moduli (GPa) = 60.76086 60.99386 114.18803
#
# Poissons Ratio (x) = -0.06539 0.62745
# Poissons Ratio (y) = -0.06514 0.55807
# Poissons Ratio (z) = 0.33387 0.29809
#
# Static dielectric constant tensor:
#      x y z
#    x 1.596500 0.000000 0.000000 
#    y 0.000000 1.590320 0.000000 
#    z 0.000000 0.000000 1.616360 
# 
# From -- ./inp_files/1346.got.cif
#   From: 2010.05.17/outbox.cif.g08.bks.cpg/sg57_1_cif.got.tgz:1346.got - 2010.06.03 13:58:18.
