data_PCOD9434254
_publ_section_title
;
Structure prediction by ZEFSAII (Michael W. Deem and Ramdas Pophale) SiO2 
 PCOD9434254
Probable space group: P B C M
;
_chemical_formula_sum "Si O2"
_cell_formula_units_Z 56
_cell_length_a 21.637154
_cell_length_b 19.077165
_cell_length_c 8.534894
_cell_angle_alpha 90.000000
_cell_angle_beta 90.000000
_cell_angle_gamma 90.000000
_cell_volume 3522.995625
_symmetry_space_group_name_H-M "P B C M"
_symmetry_group_IT_number 57
_symmetry_cell_setting 'orthorhombic'
loop_
_space_group_symop_operation_xyz
x,y,z
-x,-y,1/2+z
x,1/2-y,-z
-x,1/2+y,1/2-z
-x,-y,-z
x,y,1/2-z
-x,1/2+y,z
x,1/2-y,1/2+z
loop_
_atom_site_type_symbol
_atom_site_label
_atom_site_fract_x
_atom_site_fract_y
_atom_site_fract_z
Si Si1 0.562549 0.963698 0.562379
Si Si2 0.499029 0.827950 0.561328
Si Si3 0.061541 0.038561 0.937893
Si Si4 0.994856 0.672003 0.062494
Si Si5 0.750287 0.329086 0.560068
Si Si6 0.626210 0.092141 0.438863
Si Si7 0.123211 0.598622 0.059483
O O1 0.563375 0.966826 0.750000
O O2 0.553058 0.882712 0.514701
O O3 0.500000 0.000000 0.500000
O O4 0.616476 0.012795 0.497143
O O5 0.506850 0.750000 0.500000
O O6 0.497506 0.826079 0.750000
O O7 0.433107 0.861347 0.509131
O O8 0.059838 0.042215 0.750000
O O9 0.114708 0.983164 0.984790
O O10 0.056559 0.116487 0.005269
O O11 0.000000 0.000000 0.000000
O O12 0.995223 0.672440 0.250000
O O13 0.062171 0.642001 0.008764
O O14 0.985784 0.750000 0.000000
O O15 0.747351 0.250000 0.500000
O O16 0.750637 0.328088 0.750000
O O17 0.689701 0.372096 0.509369
O O18 0.813594 0.366004 0.505657
O O19 0.625001 0.090996 0.250000
O O20 0.123042 0.600525 0.250000
#
# Coordination Sequence:
#
# PCOD9434254 Si02
#       7
#     8   8   8   8   8   8   8
#     4   9  17  29  44  62  85 111 143 178 214 255
#     4   9  17  27  40  62  86 109 136 170 209 249
#     4   9  16  28  44  62  85 114 147 183 223 266
#     4  10  18  28  43  65  90 116 146 181 224 269
#     4  10  19  31  45  64  90 119 151 182 210 249
#     4   9  18  30  43  61  87 117 148 176 207 249
#     4   8  16  29  44  62  87 118 149 180 215 257
#
# _framework density 15.895564
#
# number of rings (size 3 to 8) (size 9 to 14) (size 15 to 20)
#    0.000    2.857    0.000    3.857    0.000    3.429 
#    0.000    3.571    0.000    0.000    0.000    1.000 
#    0.000    2.286    0.000    0.000    0.000    0.000 
#
# Total GULP energy -311766.635541 kJ/mol
# GULP energy per Si atom -5567.261349 kJ/mol
# Density = 1.585938 g / cm^3
# Si number density = 15.895564 Si / 1000 Ang^3
#
#
#
# Elastic Constant Matrix: (Units=GPa)
#
#
# Indices 1 2 3 4 5 6 
#
# 1 61.2253 49.7394 14.6154 0.0000 0.0000 0.0000
# 2 49.7394 147.7915 27.5021 0.0000 0.0000 0.0000
# 3 14.6154 27.5021 20.3987 0.0000 0.0000 0.0000
# 4 0.0000 0.0000 0.0000 29.3177 0.0000 0.0000
# 5 0.0000 0.0000 0.0000 0.0000 12.5350 0.0000
# 6 0.0000 0.0000 0.0000 0.0000 0.0000 28.9603
#
#
#
# Elastic Compliance Matrix: (Units=1/GPa)
#
#
# Indices 1 2 3 4 5 6 
#
# 1 0.023471 -0.006367 -0.008232 0.000000 0.000000 0.000000
# 2 -0.006367 0.010760 -0.009945 0.000000 0.000000 0.000000
# 3 -0.008232 -0.009945 0.068328 0.000000 0.000000 0.000000
# 4 0.000000 0.000000 0.000000 0.034109 0.000000 0.000000
# 5 0.000000 0.000000 0.000000 0.000000 0.079776 0.000000
# 6 0.000000 0.000000 0.000000 0.000000 0.000000 0.034530
#
#
# Mechanical properties :
#
#
# Convention : Reuss Voigt Hill
#
# Bulk Modulus (GPa) = 18.70161 45.90326 32.30243
# Shear Modulus (GPa) = 15.72889 23.33317 19.53103
#
# Velocity S-wave (km/s) = 3.14907 3.83548 3.50910
# Velocity P-wave (km/s) = 5.00130 6.96816 6.06499
#
# Compressibility (1/GPa) = 0.05347133
#
# Stress axis : x y z
#
# Youngs Moduli (GPa) = 42.60568 92.93875 14.63521
#
# Poissons Ratio (x) = 0.59177 0.12048
# Poissons Ratio (y) = 0.27128 0.14554
# Poissons Ratio (z) = 0.35073 0.92423
#
# Static dielectric constant tensor:
#      x y z
#    x 1.519410 0.000000 0.000000 
#    y 0.000000 1.548540 0.000000 
#    z 0.000000 0.000000 1.540400 
# 
# From -- ./inp_files/8273.got.cif
#   From: 2010.05.17/outbox.cif.g08.bks.cpg/sg57_5_cif.got.tgz:8273.got - 2010.06.03 13:58:18.
