data_PCOD9434979
_publ_section_title
;
Structure prediction by ZEFSAII (Michael W. Deem and Ramdas Pophale) SiO2 
 PCOD9434979
Probable space group: P B C M
;
_chemical_formula_sum "Si O2"
_cell_formula_units_Z 64
_cell_length_a 28.371454
_cell_length_b 15.180316
_cell_length_c 8.682738
_cell_angle_alpha 90.000000
_cell_angle_beta 90.000000
_cell_angle_gamma 90.000000
_cell_volume 3739.547913
_symmetry_space_group_name_H-M "P B C M"
_symmetry_group_IT_number 57
_symmetry_cell_setting 'orthorhombic'
loop_
_space_group_symop_operation_xyz
x,y,z
-x,-y,1/2+z
x,1/2-y,-z
-x,1/2+y,1/2-z
-x,-y,-z
x,y,1/2-z
-x,1/2+y,z
x,1/2-y,1/2+z
loop_
_atom_site_type_symbol
_atom_site_label
_atom_site_fract_x
_atom_site_fract_y
_atom_site_fract_z
Si Si1 0.532550 0.845667 0.065288
Si Si2 0.423041 0.844252 0.435057
Si Si3 0.612163 0.971237 0.563645
Si Si4 0.114836 0.464670 0.064500
Si Si5 0.920651 0.340651 0.934181
Si Si6 0.195687 0.153953 0.065574
Si Si7 0.014583 0.405133 0.065151
Si Si8 0.695688 0.845430 0.564277
O O1 0.535566 0.845102 0.250000
O O2 0.477849 0.860292 0.020373
O O3 0.546327 0.750000 0.000000
O O4 0.567052 0.918321 0.997174
O O5 0.408399 0.750000 0.500000
O O6 0.421886 0.839667 0.250000
O O7 0.392376 0.927510 0.486319
O O8 0.610909 0.969762 0.750000
O O9 0.659070 0.919947 0.513091
O O10 0.118190 0.465691 0.250000
O O11 0.103340 0.566091 0.016442
O O12 0.069899 0.401962 0.024789
O O13 0.161071 0.421610 0.994027
O O14 0.919724 0.338379 0.750000
O O15 0.899466 0.250000 0.000000
O O16 0.974986 0.344594 0.990359
O O17 0.193847 0.157500 0.250000
O O18 0.250122 0.137895 0.017677
O O19 0.182028 0.250000 0.000000
O O20 0.010413 0.401743 0.250000
O O21 0.000000 0.500000 0.000000
O O22 0.681512 0.750000 0.500000
O O23 0.694487 0.841409 0.750000
#
# Coordination Sequence:
#
# PCOD9434979 Si02
#       8
#     8   8   8   8   8   8   8   8
#     4  10  19  30  45  69  99 129 162 196 234 282
#     4   9  19  33  48  67  95 130 163 199 237 276
#     4  10  19  32  50  71  96 126 160 199 242 284
#     4   9  19  34  51  73 100 129 163 203 242 285
#     4  10  20  33  50  73 102 135 169 204 242 284
#     4  10  20  34  53  74  96 125 158 196 243 292
#     4   9  17  30  47  68  96 128 162 199 239 281
#     4   9  19  34  51  73  98 122 152 192 240 292
#
# _framework density 17.114367999999999
#
# number of rings (size 3 to 8) (size 9 to 14) (size 15 to 20)
#    0.000    2.500    0.000    3.000    0.000    6.500 
#    0.000    0.000    0.000    0.750    0.000    3.500 
#    0.000    0.000    0.000    0.000    0.000    0.000 
#
# Total GULP energy -356748.500924 kJ/mol
# GULP energy per Si atom -5574.195327 kJ/mol
# Density = 1.707542 g / cm^3
# Si number density = 17.114368 Si / 1000 Ang^3
#
#
#
# Elastic Constant Matrix: (Units=GPa)
#
#
# Indices 1 2 3 4 5 6 
#
# 1 82.9624 79.5513 23.5421 0.0000 0.0000 0.0000
# 2 79.5513 151.5760 28.4197 0.0000 0.0000 0.0000
# 3 23.5421 28.4197 18.9749 0.0000 0.0000 0.0000
# 4 0.0000 0.0000 0.0000 27.7613 0.0000 0.0000
# 5 0.0000 0.0000 0.0000 0.0000 15.7868 0.0000
# 6 0.0000 0.0000 0.0000 0.0000 0.0000 27.2891
#
#
#
# Elastic Compliance Matrix: (Units=1/GPa)
#
#
# Indices 1 2 3 4 5 6 
#
# 1 0.027966 -0.011362 -0.017679 0.000000 0.000000 0.000000
# 2 -0.011362 0.013790 -0.006557 0.000000 0.000000 0.000000
# 3 -0.017679 -0.006557 0.084456 0.000000 0.000000 0.000000
# 4 0.000000 0.000000 0.000000 0.036021 0.000000 0.000000
# 5 0.000000 0.000000 0.000000 0.000000 0.063344 0.000000
# 6 0.000000 0.000000 0.000000 0.000000 0.000000 0.036645
#
#
# Mechanical properties :
#
#
# Convention : Reuss Voigt Hill
#
# Bulk Modulus (GPa) = 18.17671 57.39328 37.78500
# Shear Modulus (GPa) = 14.21442 22.30078 18.25760
#
# Velocity S-wave (km/s) = 2.88506 3.61369 3.26973
# Velocity P-wave (km/s) = 4.66282 7.14280 6.03164
#
# Compressibility (1/GPa) = 0.05501546
#
# Stress axis : x y z
#
# Youngs Moduli (GPa) = 35.75829 72.51620 11.84055
#
# Poissons Ratio (x) = 0.82396 0.20932
# Poissons Ratio (y) = 0.40630 0.07764
# Poissons Ratio (z) = 0.63216 0.47547
#
# Static dielectric constant tensor:
#      x y z
#    x 1.584450 0.000000 0.000000 
#    y 0.000000 1.588250 0.000000 
#    z 0.000000 0.000000 1.574540 
# 
# From -- ./inp_files/10343.got.cif
#   From: 2010.05.17/outbox.cif.g08.bks.cpg/sg57_6_cif.got.tgz:10343.got - 2010.06.03 13:58:18.
