data_PCOD9434343
_publ_section_title
;
Structure prediction by ZEFSAII (Michael W. Deem and Ramdas Pophale) SiO2 
 PCOD9434343
Probable space group: P B C M
;
_chemical_formula_sum "Si O2"
_cell_formula_units_Z 56
_cell_length_a 17.201456
_cell_length_b 22.930748
_cell_length_c 8.861017
_cell_angle_alpha 90.000000
_cell_angle_beta 90.000000
_cell_angle_gamma 90.000000
_cell_volume 3495.159507
_symmetry_space_group_name_H-M "P B C M"
_symmetry_group_IT_number 57
_symmetry_cell_setting 'orthorhombic'
loop_
_space_group_symop_operation_xyz
x,y,z
-x,-y,1/2+z
x,1/2-y,-z
-x,1/2+y,1/2-z
-x,-y,-z
x,y,1/2-z
-x,1/2+y,z
x,1/2-y,1/2+z
loop_
_atom_site_type_symbol
_atom_site_label
_atom_site_fract_x
_atom_site_fract_y
_atom_site_fract_z
Si Si1 0.480938 0.574874 0.924418
Si Si2 0.049138 0.947242 0.072864
Si Si3 0.368035 0.482640 0.427306
Si Si4 0.923151 0.187399 0.931432
Si Si5 0.599681 0.302549 0.076766
Si Si6 0.242148 0.661747 0.073500
Si Si7 0.767824 0.460191 0.425660
O O1 0.472537 0.553497 0.750000
O O2 0.571923 0.569482 0.962593
O O3 0.450055 0.639534 0.930110
O O4 0.424663 0.536598 0.028798
O O5 0.029760 0.945522 0.250000
O O6 0.043946 0.878048 0.020928
O O7 0.139648 0.966480 0.058904
O O8 0.000000 0.000000 0.000000
O O9 0.349551 0.482844 0.250000
O O10 0.289407 0.488449 0.522865
O O11 0.929207 0.190233 0.750000
O O12 0.952358 0.250000 0.000000
O O13 0.832764 0.182907 0.980490
O O14 0.619621 0.290885 0.250000
O O15 0.554751 0.250000 0.000000
O O16 0.678427 0.310652 0.982845
O O17 0.228650 0.671263 0.250000
O O18 0.252023 0.593699 0.033788
O O19 0.751754 0.445014 0.250000
#
# Coordination Sequence:
#
# PCOD9434343 Si02
#       7
#     8   8   8   8   8   8   8
#     4   9  19  32  45  63  92 123 154 198 242 275
#     4   9  20  35  52  74 103 133 165 203 250 299
#     4  10  18  29  48  71  90 118 159 197 235 282
#     4  10  20  34  50  72 100 133 167 202 242 293
#     4  11  21  32  44  60  89 126 160 198 240 282
#     4  11  20  30  45  67  93 126 166 201 231 280
#     4  10  19  32  48  70  99 129 157 196 244 290
#
# _framework density 16.022158999999998
#
# number of rings (size 3 to 8) (size 9 to 14) (size 15 to 20)
#    0.000    2.000    1.429    4.286    0.000    4.571 
#    0.000    0.000    0.000    0.000    0.000    1.000 
#    0.000    2.286    0.000    0.000    0.000    0.000 
#
# Total GULP energy -311774.061329 kJ/mol
# GULP energy per Si atom -5567.393952 kJ/mol
# Density = 1.598569 g / cm^3
# Si number density = 16.022159 Si / 1000 Ang^3
#
#
#
# Elastic Constant Matrix: (Units=GPa)
#
#
# Indices 1 2 3 4 5 6 
#
# 1 41.9642 35.8347 20.2841 0.0000 0.0000 0.0000
# 2 35.8347 86.4662 32.2780 0.0000 0.0000 0.0000
# 3 20.2841 32.2780 54.1419 0.0000 0.0000 0.0000
# 4 0.0000 0.0000 0.0000 25.8202 0.0000 0.0000
# 5 0.0000 0.0000 0.0000 0.0000 22.4448 0.0000
# 6 0.0000 0.0000 0.0000 0.0000 0.0000 1.7035
#
#
#
# Elastic Compliance Matrix: (Units=1/GPa)
#
#
# Indices 1 2 3 4 5 6 
#
# 1 0.038492 -0.013594 -0.006316 0.000000 0.000000 0.000000
# 2 -0.013594 0.019677 -0.006638 0.000000 0.000000 0.000000
# 3 -0.006316 -0.006638 0.024794 0.000000 0.000000 0.000000
# 4 0.000000 0.000000 0.000000 0.038729 0.000000 0.000000
# 5 0.000000 0.000000 0.000000 0.000000 0.044554 0.000000
# 6 0.000000 0.000000 0.000000 0.000000 0.000000 0.587013
#
#
# Mechanical properties :
#
#
# Convention : Reuss Voigt Hill
#
# Bulk Modulus (GPa) = 33.48344 39.92952 36.70648
# Shear Modulus (GPa) = 6.12512 16.27208 11.19860
#
# Velocity S-wave (km/s) = 1.95735 3.19030 2.64662
# Velocity P-wave (km/s) = 5.10410 6.20856 5.68323
#
# Compressibility (1/GPa) = 0.02986551
#
# Stress axis : x y z
#
# Youngs Moduli (GPa) = 25.97970 50.82023 40.33293
#
# Poissons Ratio (x) = 0.69088 0.25475
# Poissons Ratio (y) = 0.35318 0.26773
# Poissons Ratio (z) = 0.16409 0.33734
#
# Static dielectric constant tensor:
#      x y z
#    x 1.534480 0.000000 0.000000 
#    y 0.000000 1.627170 0.000000 
#    z 0.000000 0.000000 1.557750 
# 
# From -- ./inp_files/7089.got.cif
#   From: 2010.05.17/outbox.cif.g08.bks.cpg/sg57_4_cif.got.tgz:7089.got - 2010.06.03 13:58:18.
