data_PCOD9434176
_publ_section_title
;
Structure prediction by ZEFSAII (Michael W. Deem and Ramdas Pophale) SiO2 
 PCOD9434176
Probable space group: P B C M
;
_chemical_formula_sum "Si O2"
_cell_formula_units_Z 64
_cell_length_a 6.904014
_cell_length_b 14.773491
_cell_length_c 25.757374
_cell_angle_alpha 90.000000
_cell_angle_beta 90.000000
_cell_angle_gamma 90.000000
_cell_volume 2627.159130
_symmetry_space_group_name_H-M "P B C M"
_symmetry_group_IT_number 57
_symmetry_cell_setting 'orthorhombic'
loop_
_space_group_symop_operation_xyz
x,y,z
-x,-y,1/2+z
x,1/2-y,-z
-x,1/2+y,1/2-z
-x,-y,-z
x,y,1/2-z
-x,1/2+y,z
x,1/2-y,1/2+z
loop_
_atom_site_type_symbol
_atom_site_label
_atom_site_fract_x
_atom_site_fract_y
_atom_site_fract_z
Si Si1 0.640552 0.739168 0.694563
Si Si2 0.713461 0.972564 0.517336
Si Si3 0.102358 0.798717 0.307090
Si Si4 0.692612 0.814295 0.450328
Si Si5 0.781681 0.845873 0.612588
Si Si6 0.527319 0.530194 0.808892
Si Si7 0.891598 0.403153 0.691070
Si Si8 0.689600 0.100352 0.601300
O O1 0.591898 0.778778 0.750000
O O2 0.613418 0.814629 0.651498
O O3 0.552086 0.639762 0.691201
O O4 0.872358 0.719429 0.693461
O O5 0.783124 0.909871 0.469613
O O6 0.716246 0.902398 0.564062
O O7 0.500000 0.000000 0.500000
O O8 0.786577 0.060912 0.548618
O O9 0.146200 0.840791 0.250000
O O10 0.194307 0.698563 0.308328
O O11 0.170441 0.850559 0.357931
O O12 0.645644 0.750000 0.500000
O O13 0.829528 0.752240 0.414419
O O14 0.494181 0.840910 0.419855
O O15 0.949277 0.895103 0.645589
O O16 0.463180 0.504960 0.750000
O O17 0.731751 0.479931 0.817213
O O18 0.397266 0.521639 0.860239
O O19 0.972964 0.416897 0.750000
#
# Coordination Sequence:
#
# PCOD9434176 Si02
#       8
#     8   8   8   8   8   8   8   8
#     4   9  18  34  57  85 119 158 196 239 293 362
#     4   9  21  36  55  83 115 149 199 259 309 354
#     4   9  19  35  55  84 122 157 196 241 291 361
#     4   9  19  36  57  78 106 148 198 251 301 345
#     4  10  17  35  62  82 107 159 208 235 295 374
#     4  10  20  35  55  86 127 158 189 240 298 360
#     4   9  20  36  56  87 125 161 196 244 301 360
#     4  11  20  35  59  87 116 159 200 238 306 368
#
# _framework density 24.360914999999999
#
# number of rings (size 3 to 8) (size 9 to 14) (size 15 to 20)
#    0.000    2.500    1.250    1.500    1.750    2.000 
#    0.000    1.875    0.000   45.750    0.000    0.000 
#    0.000    0.000    0.000    0.000    0.000    0.000 
#
# Total GULP energy -356554.037579 kJ/mol
# GULP energy per Si atom -5571.156837 kJ/mol
# Density = 2.430547 g / cm^3
# Si number density = 24.360915 Si / 1000 Ang^3
#
#
#
# Elastic Constant Matrix: (Units=GPa)
#
#
# Indices 1 2 3 4 5 6 
#
# 1 80.3282 14.0432 30.9069 0.0000 0.0000 0.0000
# 2 14.0432 48.0400 -0.5344 0.0000 0.0000 0.0000
# 3 30.9069 -0.5344 93.1621 0.0000 0.0000 0.0000
# 4 0.0000 0.0000 0.0000 54.4626 0.0000 0.0000
# 5 0.0000 0.0000 0.0000 0.0000 27.6617 0.0000
# 6 0.0000 0.0000 0.0000 0.0000 0.0000 23.6154
#
#
#
# Elastic Compliance Matrix: (Units=1/GPa)
#
#
# Indices 1 2 3 4 5 6 
#
# 1 0.015183 -0.004495 -0.005063 0.000000 0.000000 0.000000
# 2 -0.004495 0.022148 0.001618 0.000000 0.000000 0.000000
# 3 -0.005063 0.001618 0.012423 0.000000 0.000000 0.000000
# 4 0.000000 0.000000 0.000000 0.018361 0.000000 0.000000
# 5 0.000000 0.000000 0.000000 0.000000 0.036151 0.000000
# 6 0.000000 0.000000 0.000000 0.000000 0.000000 0.042345
#
#
# Mechanical properties :
#
#
# Convention : Reuss Voigt Hill
#
# Bulk Modulus (GPa) = 29.52019 34.48462 32.00241
# Shear Modulus (GPa) = 28.77190 32.95558 30.86374
#
# Velocity S-wave (km/s) = 3.44040 3.68204 3.56327
# Velocity P-wave (km/s) = 5.28450 5.68005 5.48584
#
# Compressibility (1/GPa) = 0.03387512
#
# Stress axis : x y z
#
# Youngs Moduli (GPa) = 65.86502 45.15110 80.49703
#
# Poissons Ratio (x) = 0.20293 0.40753
# Poissons Ratio (y) = 0.29603 -0.13025
# Poissons Ratio (z) = 0.33345 -0.07306
#
# Static dielectric constant tensor:
#      x y z
#    x 1.962480 0.000000 0.000000 
#    y 0.000000 1.972780 0.000000 
#    z 0.000000 0.000000 1.985920 
# 
# From -- ./inp_files/26949.got.cif
#   From: 2010.05.17/outbox.cif.g08.bks.cpg/sg57_14_cif.got.tgz:26949.got - 2010.06.03 13:58:18.
