data_PCOD9434614
_publ_section_title
;
Structure prediction by ZEFSAII (Michael W. Deem and Ramdas Pophale) SiO2 
 PCOD9434614
Probable space group: P B C M
;
_chemical_formula_sum "Si O2"
_cell_formula_units_Z 48
_cell_length_a 6.966110
_cell_length_b 16.488103
_cell_length_c 17.945625
_cell_angle_alpha 90.000000
_cell_angle_beta 90.000000
_cell_angle_gamma 90.000000
_cell_volume 2061.197505
_symmetry_space_group_name_H-M "P B C M"
_symmetry_group_IT_number 57
_symmetry_cell_setting 'orthorhombic'
loop_
_space_group_symop_operation_xyz
x,y,z
-x,-y,1/2+z
x,1/2-y,-z
-x,1/2+y,1/2-z
-x,-y,-z
x,y,1/2-z
-x,1/2+y,z
x,1/2-y,1/2+z
loop_
_atom_site_type_symbol
_atom_site_label
_atom_site_fract_x
_atom_site_fract_y
_atom_site_fract_z
Si Si1 0.452614 0.318452 0.409564
Si Si2 0.015013 0.067241 0.833766
Si Si3 0.071613 0.937406 0.936891
Si Si4 0.870823 0.318698 0.049704
Si Si5 0.670451 0.645262 0.420028
Si Si6 0.438755 0.514403 0.835669
O O1 0.677375 0.290936 0.411450
O O2 0.381766 0.341495 0.492883
O O3 0.355353 0.234282 0.383702
O O4 0.456818 0.403178 0.364262
O O5 0.065487 0.088444 0.750000
O O6 0.014863 0.140604 0.892374
O O7 0.789817 0.039730 0.836377
O O8 0.130640 0.990929 0.867012
O O9 0.890777 0.883225 0.913898
O O10 0.205225 0.882260 0.987292
O O11 0.000000 0.000000 0.000000
O O12 0.964075 0.250000 0.000000
O O13 0.555779 0.568357 0.384430
O O14 0.489619 0.497777 0.750000
#
# Coordination Sequence:
#
# PCOD9434614 Si02
#       6
#     8   8   8   8   8   8
#     4  10  20  34  54  83 111 144 185 234 285 338
#     4   8  16  33  53  75 104 140 178 221 277 332
#     4   9  19  33  55  81 101 139 185 235 278 335
#     4  10  18  32  54  80 106 136 183 226 273 333
#     4  10  19  34  55  82 111 145 186 237 284 331
#     4   9  18  32  53  78 109 149 183 222 278 340
#
# _framework density 23.287436
#
# number of rings (size 3 to 8) (size 9 to 14) (size 15 to 20)
#    0.000    2.667    1.667    1.500    2.333    0.667 
#    0.000    0.833    0.000    9.000    0.000    0.000 
#    0.000    0.000    0.000    0.000    0.000    0.000 
#
# Total GULP energy -267808.884055 kJ/mol
# GULP energy per Si atom -5579.351751 kJ/mol
# Density = 2.323443 g / cm^3
# Si number density = 23.287436 Si / 1000 Ang^3
#
#
#
# Elastic Constant Matrix: (Units=GPa)
#
#
# Indices 1 2 3 4 5 6 
#
# 1 61.6429 33.0664 0.6018 0.0000 0.0000 0.0000
# 2 33.0664 186.9725 74.6544 0.0000 0.0000 0.0000
# 3 0.6018 74.6544 128.9606 0.0000 0.0000 0.0000
# 4 0.0000 0.0000 0.0000 27.0340 0.0000 0.0000
# 5 0.0000 0.0000 0.0000 0.0000 24.6650 0.0000
# 6 0.0000 0.0000 0.0000 0.0000 0.0000 38.8084
#
#
#
# Elastic Compliance Matrix: (Units=1/GPa)
#
#
# Indices 1 2 3 4 5 6 
#
# 1 0.018452 -0.004200 0.002345 0.000000 0.000000 0.000000
# 2 -0.004200 0.007912 -0.004561 0.000000 0.000000 0.000000
# 3 0.002345 -0.004561 0.010383 0.000000 0.000000 0.000000
# 4 0.000000 0.000000 0.000000 0.036991 0.000000 0.000000
# 5 0.000000 0.000000 0.000000 0.000000 0.040543 0.000000
# 6 0.000000 0.000000 0.000000 0.000000 0.000000 0.025768
#
#
# Mechanical properties :
#
#
# Convention : Reuss Voigt Hill
#
# Bulk Modulus (GPa) = 41.81061 66.02459 53.91760
# Shear Modulus (GPa) = 31.08443 36.05170 33.56807
#
# Velocity S-wave (km/s) = 3.65748 3.93888 3.80078
# Velocity P-wave (km/s) = 5.98576 7.00714 6.51649
#
# Compressibility (1/GPa) = 0.02391737
#
# Stress axis : x y z
#
# Youngs Moduli (GPa) = 54.19367 126.38916 96.30678
#
# Poissons Ratio (x) = 0.53079 -0.22584
# Poissons Ratio (y) = 0.22759 0.43922
# Poissons Ratio (z) = -0.12709 0.57642
#
# Static dielectric constant tensor:
#      x y z
#    x 1.972770 0.000000 0.000000 
#    y 0.000000 1.932830 0.000000 
#    z 0.000000 0.000000 2.060200 
# 
# From -- ./inp_files/21100.got.cif
#   From: 2010.05.17/outbox.cif.g08.bks.cpg/sg57_11_cif.got.tgz:21100.got - 2010.06.03 13:58:18.
