data_PCOD9434317
_publ_section_title
;
Structure prediction by ZEFSAII (Michael W. Deem and Ramdas Pophale) SiO2 
 PCOD9434317
Probable space group: P B C M
;
_chemical_formula_sum "Si O2"
_cell_formula_units_Z 56
_cell_length_a 5.217922
_cell_length_b 27.214420
_cell_length_c 17.009962
_cell_angle_alpha 90.000000
_cell_angle_beta 90.000000
_cell_angle_gamma 90.000000
_cell_volume 2415.460885
_symmetry_space_group_name_H-M "P B C M"
_symmetry_group_IT_number 57
_symmetry_cell_setting 'orthorhombic'
loop_
_space_group_symop_operation_xyz
x,y,z
-x,-y,1/2+z
x,1/2-y,-z
-x,1/2+y,1/2-z
-x,-y,-z
x,y,1/2-z
-x,1/2+y,z
x,1/2-y,1/2+z
loop_
_atom_site_type_symbol
_atom_site_label
_atom_site_fract_x
_atom_site_fract_y
_atom_site_fract_z
Si Si1 0.863441 0.976219 0.337845
Si Si2 0.156596 0.070521 0.154057
Si Si3 0.457203 0.270663 0.655847
Si Si4 0.463525 0.445956 0.465310
Si Si5 0.966420 0.291152 0.345202
Si Si6 0.653191 0.375318 0.845703
Si Si7 0.961423 0.106315 0.569658
O O1 0.818938 0.990818 0.250000
O O2 0.023664 0.020610 0.376252
O O3 0.593790 0.961966 0.375105
O O4 0.025654 0.927203 0.351484
O O5 0.169038 0.067569 0.250000
O O6 0.447109 0.082986 0.130122
O O7 0.947322 0.112745 0.135463
O O8 0.433235 0.277291 0.750000
O O9 0.186990 0.247753 0.631308
O O10 0.545396 0.323503 0.623992
O O11 0.687628 0.232555 0.642950
O O12 0.500000 0.500000 0.500000
O O13 0.197855 0.416459 0.479930
O O14 0.698684 0.409012 0.471368
O O15 0.994841 0.301423 0.250000
O O16 0.990729 0.338758 0.400261
O O17 0.648301 0.373792 0.750000
#
# Coordination Sequence:
#
# PCOD9434317 Si02
#       7
#     8   8   8   8   8   8   8
#     4   9  21  33  52  79 109 142 175 221 269 316
#     4   9  17  27  42  65  96 131 171 208 254 311
#     4   9  17  27  42  63  97 137 171 206 253 313
#     4  10  22  38  55  73 105 146 179 220 257 311
#     4  10  18  29  45  71 101 134 173 210 256 311
#     4   9  16  27  41  61  94 137 171 204 254 312
#     4  10  21  34  53  72 104 138 176 215 259 313
#
# _framework density 23.183983000000001
#
# number of rings (size 3 to 8) (size 9 to 14) (size 15 to 20)
#    0.857    1.714    0.000    2.571    2.000    4.571 
#    0.000    0.000    0.000    0.000    0.000    0.000 
#    0.000   17.143    0.000    0.000    0.000    0.000 
#
# Total GULP energy -312450.168660 kJ/mol
# GULP energy per Si atom -5579.467298 kJ/mol
# Density = 2.313122 g / cm^3
# Si number density = 23.183983 Si / 1000 Ang^3
#
#
#
# Elastic Constant Matrix: (Units=GPa)
#
#
# Indices 1 2 3 4 5 6 
#
# 1 117.0899 -7.6210 10.1797 0.0000 0.0000 0.0000
# 2 -7.6210 72.5764 -8.4883 0.0000 0.0000 0.0000
# 3 10.1797 -8.4883 32.6819 0.0000 0.0000 0.0000
# 4 0.0000 0.0000 0.0000 13.7838 0.0000 0.0000
# 5 0.0000 0.0000 0.0000 0.0000 26.9189 0.0000
# 6 0.0000 0.0000 0.0000 0.0000 0.0000 21.9238
#
#
#
# Elastic Compliance Matrix: (Units=1/GPa)
#
#
# Indices 1 2 3 4 5 6 
#
# 1 0.008805 0.000623 -0.002581 0.000000 0.000000 0.000000
# 2 0.000623 0.014254 0.003508 0.000000 0.000000 0.000000
# 3 -0.002581 0.003508 0.032313 0.000000 0.000000 0.000000
# 4 0.000000 0.000000 0.000000 0.072549 0.000000 0.000000
# 5 0.000000 0.000000 0.000000 0.000000 0.037149 0.000000
# 6 0.000000 0.000000 0.000000 0.000000 0.000000 0.045613
#
#
# Mechanical properties :
#
#
# Convention : Reuss Voigt Hill
#
# Bulk Modulus (GPa) = 17.10197 23.38765 20.24481
# Shear Modulus (GPa) = 22.01927 27.74381 24.88154
#
# Velocity S-wave (km/s) = 3.08516 3.46306 3.27956
# Velocity P-wave (km/s) = 4.48148 5.10883 4.80540
#
# Compressibility (1/GPa) = 0.05847280
#
# Stress axis : x y z
#
# Youngs Moduli (GPa) = 113.56710 70.15436 30.94728
#
# Poissons Ratio (x) = -0.04369 0.07987
# Poissons Ratio (y) = -0.07073 -0.10857
# Poissons Ratio (z) = 0.29311 -0.24612
#
# Static dielectric constant tensor:
#      x y z
#    x 1.877400 0.000000 0.000000 
#    y 0.000000 1.844880 0.000000 
#    z 0.000000 0.000000 1.995240 
# 
# From -- ./inp_files/26402.got.cif
#   From: 2010.05.17/outbox.cif.g08.bks.cpg/sg57_14_cif.got.tgz:26402.got - 2010.06.03 13:58:18.
