data_PCOD9434134
_publ_section_title
;
Structure prediction by ZEFSAII (Michael W. Deem and Ramdas Pophale) SiO2 
 PCOD9434134
Probable space group: P B C M
;
_chemical_formula_sum "Si O2"
_cell_formula_units_Z 64
_cell_length_a 9.714806
_cell_length_b 25.872989
_cell_length_c 13.838904
_cell_angle_alpha 90.000000
_cell_angle_beta 90.000000
_cell_angle_gamma 90.000000
_cell_volume 3478.423311
_symmetry_space_group_name_H-M "P B C M"
_symmetry_group_IT_number 57
_symmetry_cell_setting 'orthorhombic'
loop_
_space_group_symop_operation_xyz
x,y,z
-x,-y,1/2+z
x,1/2-y,-z
-x,1/2+y,1/2-z
-x,-y,-z
x,y,1/2-z
-x,1/2+y,z
x,1/2-y,1/2+z
loop_
_atom_site_type_symbol
_atom_site_label
_atom_site_fract_x
_atom_site_fract_y
_atom_site_fract_z
Si Si1 0.255239 0.913601 0.056049
Si Si2 0.542457 0.566149 0.860036
Si Si3 0.862847 0.784546 0.140541
Si Si4 0.083246 0.335350 0.639253
Si Si5 0.259126 0.968090 0.640839
Si Si6 0.751868 0.872079 0.473162
Si Si7 0.864962 0.192529 0.978117
Si Si8 0.964699 0.553501 0.863814
O O1 0.381322 0.934375 0.119104
O O2 0.114445 0.940733 0.090730
O O3 0.278194 0.928248 0.944627
O O4 0.234760 0.851783 0.060697
O O5 0.569845 0.585135 0.750000
O O6 0.620420 0.511298 0.866349
O O7 0.610497 0.601819 0.942501
O O8 0.845008 0.802652 0.250000
O O9 0.855546 0.722800 0.139073
O O10 0.760603 0.814422 0.069859
O O11 0.014344 0.797978 0.100147
O O12 0.056198 0.350523 0.750000
O O13 0.193459 0.370503 0.582471
O O14 0.946808 0.330302 0.572120
O O15 0.259732 0.947230 0.750000
O O16 0.115254 0.999152 0.625604
O O17 0.866015 0.904777 0.414252
O O18 0.807969 0.250000 0.000000
O O19 0.972579 0.564328 0.750000
#
# Coordination Sequence:
#
# PCOD9434134 Si02
#       8
#     8   8   8   8   8   8   8   8
#     4  12  20  34  58  83 109 147 186 225 277 330
#     4  10  22  37  55  79 109 141 182 231 279 331
#     4   9  15  27  51  76 102 138 182 229 277 325
#     4   9  17  30  50  77 106 141 187 231 269 325
#     4   9  21  39  56  77 108 146 182 225 279 337
#     4  10  17  32  51  75 105 141 177 224 280 319
#     4   9  19  32  48  79 115 144 176 222 279 328
#     4  10  19  33  55  82 107 133 180 233 275 318
#
# _framework density 18.399141
#
# number of rings (size 3 to 8) (size 9 to 14) (size 15 to 20)
#    0.000    2.250    2.500    4.125    0.000    1.000 
#    0.000    1.875    0.000    3.000    0.000    0.000 
#    0.000    0.000    0.000    0.000    0.000    0.000 
#
# Total GULP energy -356790.806453 kJ/mol
# GULP energy per Si atom -5574.856351 kJ/mol
# Density = 1.835726 g / cm^3
# Si number density = 18.399141 Si / 1000 Ang^3
#
#
#
# Elastic Constant Matrix: (Units=GPa)
#
#
# Indices 1 2 3 4 5 6 
#
# 1 52.5977 5.8338 7.6403 0.0000 0.0000 0.0000
# 2 5.8338 28.1159 8.9593 0.0000 0.0000 0.0000
# 3 7.6403 8.9593 99.6323 0.0000 0.0000 0.0000
# 4 0.0000 0.0000 0.0000 23.3114 0.0000 0.0000
# 5 0.0000 0.0000 0.0000 0.0000 14.3245 0.0000
# 6 0.0000 0.0000 0.0000 0.0000 0.0000 4.2664
#
#
#
# Elastic Compliance Matrix: (Units=1/GPa)
#
#
# Indices 1 2 3 4 5 6 
#
# 1 0.019592 -0.003692 -0.001170 0.000000 0.000000 0.000000
# 2 -0.003692 0.037312 -0.003072 0.000000 0.000000 0.000000
# 3 -0.001170 -0.003072 0.010403 0.000000 0.000000 0.000000
# 4 0.000000 0.000000 0.000000 0.042897 0.000000 0.000000
# 5 0.000000 0.000000 0.000000 0.000000 0.069810 0.000000
# 6 0.000000 0.000000 0.000000 0.000000 0.000000 0.234390
#
#
# Mechanical properties :
#
#
# Convention : Reuss Voigt Hill
#
# Bulk Modulus (GPa) = 19.44111 25.02364 22.23237
# Shear Modulus (GPa) = 11.17519 18.90796 15.04157
#
# Velocity S-wave (km/s) = 2.46717 3.20918 2.86232
# Velocity P-wave (km/s) = 4.32495 5.23085 4.79932
#
# Compressibility (1/GPa) = 0.05143740
#
# Stress axis : x y z
#
# Youngs Moduli (GPa) = 51.04185 26.80097 96.12692
#
# Poissons Ratio (x) = 0.09895 0.11250
# Poissons Ratio (y) = 0.18846 0.29531
# Poissons Ratio (z) = 0.05974 0.08234
#
# Static dielectric constant tensor:
#      x y z
#    x 1.623030 0.000000 0.000000 
#    y 0.000000 1.666190 0.000000 
#    z 0.000000 0.000000 1.653430 
# 
# From -- ./inp_files/17044.got.cif
#   From: 2010.05.17/outbox.cif.g08.bks.cpg/sg57_9_cif.got.tgz:17044.got - 2010.06.03 13:58:18.
