data_PCOD9434112
_publ_section_title
;
Structure prediction by ZEFSAII (Michael W. Deem and Ramdas Pophale) SiO2 
 PCOD9434112
Probable space group: P B C M
;
_chemical_formula_sum "Si O2"
_cell_formula_units_Z 64
_cell_length_a 15.573196
_cell_length_b 30.752540
_cell_length_c 7.666709
_cell_angle_alpha 90.000000
_cell_angle_beta 90.000000
_cell_angle_gamma 90.000000
_cell_volume 3671.704493
_symmetry_space_group_name_H-M "P B C M"
_symmetry_group_IT_number 57
_symmetry_cell_setting 'orthorhombic'
loop_
_space_group_symop_operation_xyz
x,y,z
-x,-y,1/2+z
x,1/2-y,-z
-x,1/2+y,1/2-z
-x,-y,-z
x,y,1/2-z
-x,1/2+y,z
x,1/2-y,1/2+z
loop_
_atom_site_type_symbol
_atom_site_label
_atom_site_fract_x
_atom_site_fract_y
_atom_site_fract_z
Si Si1 0.961754 0.107816 0.460220
Si Si2 0.209075 0.202275 0.040983
Si Si3 0.626705 0.037048 0.548745
Si Si4 0.130172 0.055067 0.462972
Si Si5 0.182304 0.539718 0.541115
Si Si6 0.708494 0.614239 0.039169
Si Si7 0.558027 0.555257 0.544569
Si Si8 0.012049 0.201813 0.459453
O O1 0.966994 0.108857 0.250000
O O2 0.877641 0.080739 0.506976
O O3 0.965542 0.157907 0.521966
O O4 0.045507 0.080824 0.522521
O O5 0.203925 0.198043 0.250000
O O6 0.264775 0.161993 0.976892
O O7 0.110792 0.199881 0.974457
O O8 0.243433 0.250000 0.000000
O O9 0.631750 0.051461 0.750000
O O10 0.720721 0.044410 0.470163
O O11 0.539319 0.058020 0.474506
O O12 0.606526 0.985485 0.542286
O O13 0.127649 0.055341 0.250000
O O14 0.215753 0.081162 0.515236
O O15 0.138413 0.005172 0.522761
O O16 0.190067 0.534286 0.750000
O O17 0.707383 0.614018 0.250000
O O18 0.617026 0.596982 0.978382
O O19 0.552234 0.544660 0.750000
O O20 0.977249 0.250000 0.500000
O O21 0.015126 0.199319 0.250000
#
# Coordination Sequence:
#
# PCOD9434112 Si02
#       8
#     8   8   8   8   8   8   8   8
#     4  10  19  31  46  66  92 122 155 192 228 264
#     4   9  17  29  47  67  90 122 155 186 226 275
#     4   9  18  33  48  63  90 124 153 185 231 278
#     4   9  16  29  46  62  89 128 161 181 212 269
#     4  10  19  31  47  64  88 126 162 189 221 268
#     4  10  17  30  49  66  91 130 159 178 224 286
#     4  10  19  29  46  71  92 114 151 196 230 261
#     4   9  17  30  47  66  89 118 151 189 230 271
#
# _framework density 17.430596000000001
#
# number of rings (size 3 to 8) (size 9 to 14) (size 15 to 20)
#    0.000    2.500    2.500    0.750    0.000    2.000 
#    0.000    0.625    0.000    0.000    0.000    0.875 
#    0.000    0.000    0.000    0.000    0.000    0.000 
#
# Total GULP energy -356810.633815 kJ/mol
# GULP energy per Si atom -5575.166153 kJ/mol
# Density = 1.739092 g / cm^3
# Si number density = 17.430596 Si / 1000 Ang^3
#
#
#
# Elastic Constant Matrix: (Units=GPa)
#
#
# Indices 1 2 3 4 5 6 
#
# 1 120.6123 79.4157 3.2102 0.0000 0.0000 0.0000
# 2 79.4157 150.1914 -1.5175 0.0000 0.0000 0.0000
# 3 3.2102 -1.5175 30.4875 0.0000 0.0000 0.0000
# 4 0.0000 0.0000 0.0000 18.9419 0.0000 0.0000
# 5 0.0000 0.0000 0.0000 0.0000 6.6655 0.0000
# 6 0.0000 0.0000 0.0000 0.0000 0.0000 23.8448
#
#
#
# Elastic Compliance Matrix: (Units=1/GPa)
#
#
# Indices 1 2 3 4 5 6 
#
# 1 0.012805 -0.006788 -0.001686 0.000000 0.000000 0.000000
# 2 -0.006788 0.010260 0.001225 0.000000 0.000000 0.000000
# 3 -0.001686 0.001225 0.033039 0.000000 0.000000 0.000000
# 4 0.000000 0.000000 0.000000 0.052793 0.000000 0.000000
# 5 0.000000 0.000000 0.000000 0.000000 0.150026 0.000000
# 6 0.000000 0.000000 0.000000 0.000000 0.000000 0.041938
#
#
# Mechanical properties :
#
#
# Convention : Reuss Voigt Hill
#
# Bulk Modulus (GPa) = 24.03473 51.50087 37.76780
# Shear Modulus (GPa) = 15.18707 24.56930 19.87818
#
# Velocity S-wave (km/s) = 2.95496 3.75847 3.38067
# Velocity P-wave (km/s) = 5.04590 6.96026 6.07891
#
# Compressibility (1/GPa) = 0.04160646
#
# Stress axis : x y z
#
# Youngs Moduli (GPa) = 78.09186 97.46745 30.26733
#
# Poissons Ratio (x) = 0.66162 0.05104
# Poissons Ratio (y) = 0.53009 -0.03709
# Poissons Ratio (z) = 0.13168 -0.11944
#
# Static dielectric constant tensor:
#      x y z
#    x 1.597540 0.000000 0.000000 
#    y 0.000000 1.592710 0.000000 
#    z 0.000000 0.000000 1.664450 
# 
# From -- ./inp_files/5987.got.cif
#   From: 2010.05.17/outbox.cif.g08.bks.cpg/sg57_3_cif.got.tgz:5987.got - 2010.06.03 13:58:18.
