data_PCOD9434638
_publ_section_title
;
Structure prediction by ZEFSAII (Michael W. Deem and Ramdas Pophale) SiO2 
 PCOD9434638
Probable space group: P B C M
;
_chemical_formula_sum "Si O2"
_cell_formula_units_Z 64
_cell_length_a 20.656173
_cell_length_b 9.567102
_cell_length_c 19.722732
_cell_angle_alpha 90.000000
_cell_angle_beta 90.000000
_cell_angle_gamma 90.000000
_cell_volume 3897.600658
_symmetry_space_group_name_H-M "P B C M"
_symmetry_group_IT_number 57
_symmetry_cell_setting 'orthorhombic'
loop_
_space_group_symop_operation_xyz
x,y,z
-x,-y,1/2+z
x,1/2-y,-z
-x,1/2+y,1/2-z
-x,-y,-z
x,y,1/2-z
-x,1/2+y,z
x,1/2-y,1/2+z
loop_
_atom_site_type_symbol
_atom_site_label
_atom_site_fract_x
_atom_site_fract_y
_atom_site_fract_z
Si Si1 0.065258 0.912657 0.978292
Si Si2 0.684636 0.868360 0.557366
Si Si3 0.953477 0.011510 0.326933
Si Si4 0.583385 0.808116 0.671068
Si Si5 0.409067 0.900254 0.501620
Si Si6 0.488575 0.041617 0.611770
Si Si7 0.081258 0.309659 0.675209
Si Si8 0.166634 0.385631 0.951323
O O1 0.075595 0.926223 0.896699
O O2 0.058164 0.750000 0.000000
O O3 0.125385 0.989253 0.015075
O O4 0.000000 0.000000 0.000000
O O5 0.684133 0.750000 0.500000
O O6 0.647590 0.815993 0.624579
O O7 0.758515 0.916749 0.564419
O O8 0.639542 0.988746 0.528171
O O9 0.927356 0.044459 0.250000
O O10 0.025517 0.073922 0.327303
O O11 0.950304 0.843840 0.334039
O O12 0.598988 0.811647 0.750000
O O13 0.536908 0.939556 0.652067
O O14 0.544071 0.666829 0.652850
O O15 0.377466 0.750000 0.500000
O O16 0.434317 0.947969 0.574747
O O17 0.470740 0.892910 0.450921
O O18 0.111125 0.311327 0.750000
O O19 0.131563 0.340326 0.617199
O O20 0.163724 0.250000 0.000000
#
# Coordination Sequence:
#
# PCOD9434638 Si02
#       8
#     8   8   8   8   8   8   8   8
#     4  12  22  35  59  87 114 147 187 241 297 335
#     4  10  22  37  56  78 107 149 192 226 270 329
#     4  10  20  34  52  82 113 138 173 225 288 342
#     4  11  21  35  55  84 116 144 182 232 286 340
#     4  10  18  32  57  79 108 141 179 231 272 328
#     4  10  19  31  53  87 109 137 181 226 281 327
#     4  10  20  34  55  80 108 142 176 219 283 339
#     4  11  22  38  55  79 111 144 191 239 269 332
#
# _framework density 16.420359000000001
#
# number of rings (size 3 to 8) (size 9 to 14) (size 15 to 20)
#    0.000    1.500    5.000    1.500    0.000    1.000 
#    0.000    0.000    0.000    0.000    0.000    0.000 
#    0.000    0.000    0.000    0.000    0.000    0.000 
#
# Total GULP energy -356764.235909 kJ/mol
# GULP energy per Si atom -5574.441186 kJ/mol
# Density = 1.638299 g / cm^3
# Si number density = 16.420359 Si / 1000 Ang^3
#
#
#
# Elastic Constant Matrix: (Units=GPa)
#
#
# Indices 1 2 3 4 5 6 
#
# 1 95.9197 37.9150 53.0704 0.0000 0.0000 0.0000
# 2 37.9150 70.3070 28.8092 0.0000 0.0000 0.0000
# 3 53.0704 28.8092 133.0604 0.0000 0.0000 0.0000
# 4 0.0000 0.0000 0.0000 23.3723 0.0000 0.0000
# 5 0.0000 0.0000 0.0000 0.0000 2.6842 0.0000
# 6 0.0000 0.0000 0.0000 0.0000 0.0000 71.5764
#
#
#
# Elastic Compliance Matrix: (Units=1/GPa)
#
#
# Indices 1 2 3 4 5 6 
#
# 1 0.015661 -0.006459 -0.004848 0.000000 0.000000 0.000000
# 2 -0.006459 0.018272 -0.001380 0.000000 0.000000 0.000000
# 3 -0.004848 -0.001380 0.009748 0.000000 0.000000 0.000000
# 4 0.000000 0.000000 0.000000 0.042786 0.000000 0.000000
# 5 0.000000 0.000000 0.000000 0.000000 0.372556 0.000000
# 6 0.000000 0.000000 0.000000 0.000000 0.000000 0.013971
#
#
# Mechanical properties :
#
#
# Convention : Reuss Voigt Hill
#
# Bulk Modulus (GPa) = 54.62421 59.87513 57.24967
# Shear Modulus (GPa) = 9.91141 31.49273 20.70207
#
# Velocity S-wave (km/s) = 2.45950 4.38414 3.55457
# Velocity P-wave (km/s) = 6.43459 7.88484 7.19634
#
# Compressibility (1/GPa) = 0.01830690
#
# Stress axis : x y z
#
# Youngs Moduli (GPa) = 63.85432 54.72855 102.58888
#
# Poissons Ratio (x) = 0.35349 0.49732
# Poissons Ratio (y) = 0.41244 0.14157
# Poissons Ratio (z) = 0.30955 0.07552
#
# Static dielectric constant tensor:
#      x y z
#    x 1.527860 0.000000 0.000000 
#    y 0.000000 1.544000 0.000000 
#    z 0.000000 0.000000 1.581410 
# 
# From -- ./inp_files/25580.got.cif
#   From: 2010.05.17/outbox.cif.g08.bks.cpg/sg57_13_cif.got.tgz:25580.got - 2010.06.03 13:58:18.
