data_PCOD9434018
_publ_section_title
;
Structure prediction by ZEFSAII (Michael W. Deem and Ramdas Pophale) SiO2 
 PCOD9434018
Probable space group: P B C M
;
_chemical_formula_sum "Si O2"
_cell_formula_units_Z 40
_cell_length_a 8.569085
_cell_length_b 15.483473
_cell_length_c 14.416444
_cell_angle_alpha 90.000000
_cell_angle_beta 90.000000
_cell_angle_gamma 90.000000
_cell_volume 1912.762202
_symmetry_space_group_name_H-M "P B C M"
_symmetry_group_IT_number 57
_symmetry_cell_setting 'orthorhombic'
loop_
_space_group_symop_operation_xyz
x,y,z
-x,-y,1/2+z
x,1/2-y,-z
-x,1/2+y,1/2-z
-x,-y,-z
x,y,1/2-z
-x,1/2+y,z
x,1/2-y,1/2+z
loop_
_atom_site_type_symbol
_atom_site_label
_atom_site_fract_x
_atom_site_fract_y
_atom_site_fract_z
Si Si1 0.997284 0.438627 0.646497
Si Si2 0.676881 0.820790 0.082604
Si Si3 0.991431 0.261549 0.388212
Si Si4 0.658479 0.179773 0.583172
Si Si5 0.751110 0.500143 0.492828
O O1 0.976008 0.473093 0.750000
O O2 0.867422 0.468426 0.573725
O O3 0.994679 0.334993 0.649711
O O4 0.156054 0.468905 0.598314
O O5 0.844546 0.809098 0.133294
O O6 0.509499 0.808890 0.132743
O O7 0.679377 0.750000 0.000000
O O8 0.675210 0.914741 0.035379
O O9 0.990763 0.250000 0.500000
O O10 0.825734 0.306936 0.365946
O O11 0.659600 0.250000 0.500000
O O12 0.660553 0.084846 0.538030
#
# Coordination Sequence:
#
# PCOD9434018 Si02
#       5
#     8   8   8   8   8
#     4  11  22  36  62  92 121 163 203 251 310 352
#     4  10  19  33  62  93 115 156 200 242 307 359
#     4  10  16  37  58  84 120 149 194 245 289 359
#     4  10  19  33  62  93 115 156 200 242 307 359
#     4  11  19  38  64  83 127 156 203 257 292 367
#
# _framework density 20.912165999999999
#
# number of rings (size 3 to 8) (size 9 to 14) (size 15 to 20)
#    0.000    1.600    8.000    1.800    0.000    0.000 
#    0.000    4.000    0.000   13.200    0.000    0.000 
#    0.000    0.000    0.000    0.000    0.000    0.000 
#
# Total GULP energy -222870.507237 kJ/mol
# GULP energy per Si atom -5571.762681 kJ/mol
# Density = 2.086457 g / cm^3
# Si number density = 20.912166 Si / 1000 Ang^3
#
#
#
# Elastic Constant Matrix: (Units=GPa)
#
#
# Indices 1 2 3 4 5 6 
#
# 1 206.9419 44.2887 10.4201 0.0000 0.0000 0.0000
# 2 44.2887 151.6170 3.7255 0.0000 0.0000 0.0000
# 3 10.4201 3.7255 77.1708 0.0000 0.0000 0.0000
# 4 0.0000 0.0000 0.0000 9.1144 0.0000 0.0000
# 5 0.0000 0.0000 0.0000 0.0000 2.1348 0.0000
# 6 0.0000 0.0000 0.0000 0.0000 0.0000 62.6492
#
#
#
# Elastic Compliance Matrix: (Units=1/GPa)
#
#
# Indices 1 2 3 4 5 6 
#
# 1 0.005185 -0.001499 -0.000628 0.000000 0.000000 0.000000
# 2 -0.001499 0.007037 -0.000137 0.000000 0.000000 0.000000
# 3 -0.000628 -0.000137 0.013050 0.000000 0.000000 0.000000
# 4 0.000000 0.000000 0.000000 0.109717 0.000000 0.000000
# 5 0.000000 0.000000 0.000000 0.000000 0.468437 0.000000
# 6 0.000000 0.000000 0.000000 0.000000 0.000000 0.015962
#
#
# Mechanical properties :
#
#
# Convention : Reuss Voigt Hill
#
# Bulk Modulus (GPa) = 48.20894 61.39982 54.80438
# Shear Modulus (GPa) = 7.92607 39.93269 23.92938
#
# Velocity S-wave (km/s) = 1.94895 4.37457 3.38639
# Velocity P-wave (km/s) = 5.30732 7.41218 6.44624
#
# Compressibility (1/GPa) = 0.02074304
#
# Stress axis : x y z
#
# Youngs Moduli (GPa) = 192.87495 142.10934 76.63040
#
# Poissons Ratio (x) = 0.21303 0.04810
# Poissons Ratio (y) = 0.28913 0.01052
# Poissons Ratio (z) = 0.12107 0.01951
#
# Static dielectric constant tensor:
#      x y z
#    x 1.845150 0.000000 0.000000 
#    y 0.000000 1.733830 0.000000 
#    z 0.000000 0.000000 1.748720 
# 
# From -- ./inp_files/15885.got.cif
#   From: 2010.05.17/outbox.cif.g08.bks.cpg/sg57_8_cif.got.tgz:15885.got - 2010.06.03 13:58:18.
