data_PCOD9434181
_publ_section_title
;
Structure prediction by ZEFSAII (Michael W. Deem and Ramdas Pophale) SiO2 
 PCOD9434181
Probable space group: P B C M
;
_chemical_formula_sum "Si O2"
_cell_formula_units_Z 64
_cell_length_a 23.642021
_cell_length_b 9.386303
_cell_length_c 13.256354
_cell_angle_alpha 90.000000
_cell_angle_beta 90.000000
_cell_angle_gamma 90.000000
_cell_volume 2941.733061
_symmetry_space_group_name_H-M "P B C M"
_symmetry_group_IT_number 57
_symmetry_cell_setting 'orthorhombic'
loop_
_space_group_symop_operation_xyz
x,y,z
-x,-y,1/2+z
x,1/2-y,-z
-x,1/2+y,1/2-z
-x,-y,-z
x,y,1/2-z
-x,1/2+y,z
x,1/2-y,1/2+z
loop_
_atom_site_type_symbol
_atom_site_label
_atom_site_fract_x
_atom_site_fract_y
_atom_site_fract_z
Si Si1 0.400931 0.144266 0.139959
Si Si2 0.929375 0.668872 0.127232
Si Si3 0.963413 0.511799 0.873214
Si Si4 0.475140 0.621479 0.427641
Si Si5 0.369434 0.458213 0.079937
Si Si6 0.745081 0.088405 0.466522
Si Si7 0.178509 0.500092 0.629290
Si Si8 0.859200 0.179885 0.369877
O O1 0.386073 0.084488 0.250000
O O2 0.469293 0.163423 0.134857
O O3 0.375349 0.301266 0.125040
O O4 0.381364 0.056536 0.041514
O O5 0.929375 0.669186 0.250000
O O6 0.866391 0.620246 0.098989
O O7 0.975491 0.549676 0.097900
O O8 0.947756 0.827445 0.096256
O O9 0.963398 0.514228 0.750000
O O10 0.915354 0.399712 0.906011
O O11 0.457894 0.750000 0.500000
O O12 0.500000 0.500000 0.500000
O O13 0.419586 0.556910 0.377141
O O14 0.307542 0.521881 0.090495
O O15 0.730917 0.250000 0.500000
O O16 0.802203 0.098834 0.401216
O O17 0.764073 0.999457 0.565357
O O18 0.187795 0.495706 0.750000
O O19 0.150055 0.654269 0.603162
O O20 0.863463 0.179521 0.250000
#
# Coordination Sequence:
#
# PCOD9434181 Si02
#       8
#     8   8   8   8   8   8   8   8
#     4  10  21  38  59  87 120 157 193 233 289 348
#     4   9  16  28  49  79 110 144 187 237 293 351
#     4   9  16  28  49  78 110 145 187 235 294 352
#     4  10  17  36  60  84 118 153 186 234 286 336
#     4  10  21  39  59  87 122 156 194 243 289 344
#     4  10  21  38  60  83 110 152 197 238 292 345
#     4   9  18  34  55  79 110 146 189 240 289 343
#     4   9  18  34  54  77 109 147 187 237 289 345
#
# _framework density 21.755883999999998
#
# number of rings (size 3 to 8) (size 9 to 14) (size 15 to 20)
#    0.000    2.500    2.500    1.125    0.000    4.500 
#    4.500    0.625    0.000    3.000    0.000    0.000 
#    0.000    0.000    0.000    0.000    0.000    0.000 
#
# Total GULP energy -357448.093486 kJ/mol
# GULP energy per Si atom -5585.126461 kJ/mol
# Density = 2.170637 g / cm^3
# Si number density = 21.755884 Si / 1000 Ang^3
#
#
#
# Elastic Constant Matrix: (Units=GPa)
#
#
# Indices 1 2 3 4 5 6 
#
# 1 110.3489 23.3375 -1.1562 0.0000 0.0000 0.0000
# 2 23.3375 63.2233 -2.1731 0.0000 0.0000 0.0000
# 3 -1.1562 -2.1731 55.4059 0.0000 0.0000 0.0000
# 4 0.0000 0.0000 0.0000 17.9678 0.0000 0.0000
# 5 0.0000 0.0000 0.0000 0.0000 -77.7338 0.0000
# 6 0.0000 0.0000 0.0000 0.0000 0.0000 31.2789
#
#
#
# Elastic Compliance Matrix: (Units=1/GPa)
#
#
# Indices 1 2 3 4 5 6 
#
# 1 0.009830 -0.003626 0.000063 0.000000 0.000000 0.000000
# 2 -0.003626 0.017176 0.000598 0.000000 0.000000 0.000000
# 3 0.000063 0.000598 0.018073 0.000000 0.000000 0.000000
# 4 0.000000 0.000000 0.000000 0.055655 0.000000 0.000000
# 5 0.000000 0.000000 0.000000 0.000000 -0.012864 0.000000
# 6 0.000000 0.000000 0.000000 0.000000 0.000000 0.031970
#
#
# Mechanical properties :
#
#
# Convention : Reuss Voigt Hill
#
# Bulk Modulus (GPa) = 25.54383 29.88831 27.71607
# Shear Modulus (GPa) = 36.01771 8.23390 22.12580
#
# Velocity S-wave (km/s) = 4.07325 1.94754 3.19251
# Velocity P-wave (km/s) = 5.82137 4.33878 5.13388
#
# Compressibility (1/GPa) = 0.03914839
#
# Stress axis : x y z
#
# Youngs Moduli (GPa) = 101.73210 58.22054 55.33002
#
# Poissons Ratio (x) = 0.21112 -0.00348
# Poissons Ratio (y) = 0.36891 -0.03309
# Poissons Ratio (z) = -0.00640 -0.03482
#
# Static dielectric constant tensor:
#      x y z
#    x 1.764690 0.000000 0.000000 
#    y 0.000000 1.748820 0.000000 
#    z 0.000000 0.000000 1.872890 
# 
# From -- ./inp_files/19514.got.cif
#   From: 2010.05.17/outbox.cif.g08.bks.cpg/sg57_10_cif.got.tgz:19514.got - 2010.06.03 13:58:18.
