data_PCOD9434704
_publ_section_title
;
Structure prediction by ZEFSAII (Michael W. Deem and Ramdas Pophale) SiO2 
 PCOD9434704
Probable space group: P B C M
;
_chemical_formula_sum "Si O2"
_cell_formula_units_Z 64
_cell_length_a 12.231489
_cell_length_b 31.804086
_cell_length_c 8.601072
_cell_angle_alpha 90.000000
_cell_angle_beta 90.000000
_cell_angle_gamma 90.000000
_cell_volume 3345.914441
_symmetry_space_group_name_H-M "P B C M"
_symmetry_group_IT_number 57
_symmetry_cell_setting 'orthorhombic'
loop_
_space_group_symop_operation_xyz
x,y,z
-x,-y,1/2+z
x,1/2-y,-z
-x,1/2+y,1/2-z
-x,-y,-z
x,y,1/2-z
-x,1/2+y,z
x,1/2-y,1/2+z
loop_
_atom_site_type_symbol
_atom_site_label
_atom_site_fract_x
_atom_site_fract_y
_atom_site_fract_z
Si Si1 0.233923 0.047510 0.564440
Si Si2 0.237132 0.795234 0.937726
Si Si3 0.764530 0.453371 0.560484
Si Si4 0.632766 0.626155 0.436210
Si Si5 0.004501 0.323387 0.936368
Si Si6 0.618870 0.374918 0.560106
Si Si7 0.233704 0.294845 0.433967
Si Si8 0.005130 0.076508 0.063435
O O1 0.245291 0.049944 0.750000
O O2 0.305718 0.084082 0.489313
O O3 0.107872 0.055613 0.519631
O O4 0.265157 0.000496 0.511578
O O5 0.238095 0.794712 0.750000
O O6 0.314734 0.833457 0.989003
O O7 0.112215 0.804912 0.986534
O O8 0.271757 0.750000 0.000000
O O9 0.764200 0.452760 0.750000
O O10 0.682682 0.416781 0.508276
O O11 0.888520 0.442171 0.513838
O O12 0.635034 0.628000 0.250000
O O13 0.506860 0.625869 0.489347
O O14 0.696515 0.666578 0.499614
O O15 0.015023 0.317628 0.750000
O O16 0.005471 0.373434 0.966260
O O17 0.107955 0.302464 0.017053
O O18 0.620219 0.375219 0.750000
O O19 0.270449 0.250000 0.500000
O O20 0.242083 0.294519 0.250000
O O21 0.016248 0.070813 0.250000
#
# Coordination Sequence:
#
# PCOD9434704 Si02
#       8
#     8   8   8   8   8   8   8   8
#     4  11  22  35  56  87 121 152 190 240 290 341
#     4  10  20  36  59  87 116 147 185 229 284 342
#     4   9  18  35  59  87 116 151 192 237 291 346
#     4  11  23  40  61  83 112 153 200 241 285 339
#     4  10  19  34  60  89 118 152 188 229 282 345
#     4   9  19  38  61  82 108 150 198 240 284 341
#     4  12  25  41  62  87 119 152 190 236 287 342
#     4  10  18  33  60  86 115 153 191 231 284 350
#
# _framework density 19.127806
#
# number of rings (size 3 to 8) (size 9 to 14) (size 15 to 20)
#    0.000    1.750    2.500    2.625    0.000    2.500 
#    0.000    3.125    0.000    5.250    0.000    0.000 
#    0.000    0.000    0.000    0.000    0.000    0.000 
#
# Total GULP energy -357619.867451 kJ/mol
# GULP energy per Si atom -5587.810429 kJ/mol
# Density = 1.908427 g / cm^3
# Si number density = 19.127806 Si / 1000 Ang^3
#
#
#
# Elastic Constant Matrix: (Units=GPa)
#
#
# Indices 1 2 3 4 5 6 
#
# 1 153.9100 93.4618 30.3660 0.0000 0.0000 0.0000
# 2 93.4618 191.7736 43.5602 0.0000 0.0000 0.0000
# 3 30.3660 43.5602 35.3043 0.0000 0.0000 0.0000
# 4 0.0000 0.0000 0.0000 22.9828 0.0000 0.0000
# 5 0.0000 0.0000 0.0000 0.0000 -9.9537 0.0000
# 6 0.0000 0.0000 0.0000 0.0000 0.0000 -1.9271
#
#
#
# Elastic Compliance Matrix: (Units=1/GPa)
#
#
# Indices 1 2 3 4 5 6 
#
# 1 0.009517 -0.003861 -0.003422 0.000000 0.000000 0.000000
# 2 -0.003861 0.008811 -0.007551 0.000000 0.000000 0.000000
# 3 -0.003422 -0.007551 0.040585 0.000000 0.000000 0.000000
# 4 0.000000 0.000000 0.000000 0.043511 0.000000 0.000000
# 5 0.000000 0.000000 0.000000 0.000000 -0.100465 0.000000
# 6 0.000000 0.000000 0.000000 0.000000 0.000000 -0.518918
#
#
# Mechanical properties :
#
#
# Convention : Reuss Voigt Hill
#
# Bulk Modulus (GPa) = 34.19299 79.52934 56.86117
# Shear Modulus (GPa) = -10.47027 16.46040 2.99506
#
# Velocity S-wave (km/s) = -2.34216 2.93669 1.25268
# Velocity P-wave (km/s) = 3.25585 7.29157 5.64657
#
# Compressibility (1/GPa) = 0.02924576
#
# Stress axis : x y z
#
# Youngs Moduli (GPa) = 105.07563 113.49148 24.63951
#
# Poissons Ratio (x) = 0.43817 0.08432
# Poissons Ratio (y) = 0.40568 0.18605
# Poissons Ratio (z) = 0.35957 0.85697
#
# Static dielectric constant tensor:
#      x y z
#    x 1.643480 0.000000 0.000000 
#    y 0.000000 1.660620 0.000000 
#    z 0.000000 0.000000 1.649020 
# 
# From -- ./inp_files/3741.got.cif
#   From: 2010.05.17/outbox.cif.g08.bks.cpg/sg57_2_cif.got.tgz:3741.got - 2010.06.03 13:58:18.
