data_PCOD9434265
_publ_section_title
;
Structure prediction by ZEFSAII (Michael W. Deem and Ramdas Pophale) SiO2 
 PCOD9434265
Probable space group: P B C M
;
_chemical_formula_sum "Si O2"
_cell_formula_units_Z 64
_cell_length_a 17.521247
_cell_length_b 24.791074
_cell_length_c 8.337739
_cell_angle_alpha 90.000000
_cell_angle_beta 90.000000
_cell_angle_gamma 90.000000
_cell_volume 3621.668116
_symmetry_space_group_name_H-M "P B C M"
_symmetry_group_IT_number 57
_symmetry_cell_setting 'orthorhombic'
loop_
_space_group_symop_operation_xyz
x,y,z
-x,-y,1/2+z
x,1/2-y,-z
-x,1/2+y,1/2-z
-x,-y,-z
x,y,1/2-z
-x,1/2+y,z
x,1/2-y,1/2+z
loop_
_atom_site_type_symbol
_atom_site_label
_atom_site_fract_x
_atom_site_fract_y
_atom_site_fract_z
Si Si1 0.913442 0.188184 0.056730
Si Si2 0.254804 0.688265 0.055827
Si Si3 0.080115 0.311873 0.941607
Si Si4 0.321314 0.026180 0.557593
Si Si5 0.771556 0.871400 0.059430
Si Si6 0.642978 0.089580 0.053623
Si Si7 0.531747 0.586826 0.442811
Si Si8 0.627241 0.691355 0.059262
O O1 0.913348 0.185640 0.250000
O O2 0.830046 0.168113 0.003816
O O3 0.996335 0.167365 0.001669
O O4 0.913877 0.250000 0.000000
O O5 0.255994 0.689288 0.250000
O O6 0.317282 0.644914 0.000609
O O7 0.266381 0.750000 0.000000
O O8 0.079128 0.309554 0.750000
O O9 0.091494 0.250000 0.000000
O O10 0.148579 0.350355 0.993628
O O11 0.314592 0.026363 0.750000
O O12 0.262482 0.071635 0.495224
O O13 0.406949 0.045841 0.516137
O O14 0.312701 0.964635 0.502527
O O15 0.778271 0.875659 0.250000
O O16 0.706523 0.827623 0.018541
O O17 0.642408 0.090521 0.250000
O O18 0.555192 0.083424 0.001528
O O19 0.533158 0.579763 0.250000
O O20 0.564879 0.646074 0.480433
O O21 0.637576 0.691818 0.250000
O O22 0.604926 0.750000 0.000000
#
# Coordination Sequence:
#
# PCOD9434265 Si02
#       8
#     8   8   8   8   8   8   8   8
#     4   8  15  27  44  66  90 118 148 178 216 261
#     4   9  17  31  50  71  96 121 146 180 222 268
#     4  10  18  28  44  67  93 119 149 183 220 264
#     4   9  18  32  49  67  88 117 153 189 224 263
#     4  10  19  30  44  64  89 117 151 188 223 261
#     4   9  17  31  51  71  90 116 150 186 223 265
#     4   9  18  31  47  67  90 117 150 189 229 263
#     4  10  19  30  43  61  89 123 152 180 220 267
#
# _framework density 17.671416000000001
#
# number of rings (size 3 to 8) (size 9 to 14) (size 15 to 20)
#    0.000    2.750    0.000    1.875    0.000    2.000 
#    0.000    1.250    0.000    0.750    0.000    0.000 
#    0.000    0.000    0.000    0.000    0.000    1.000 
#
# Total GULP energy -356473.473675 kJ/mol
# GULP energy per Si atom -5569.898026 kJ/mol
# Density = 1.763119 g / cm^3
# Si number density = 17.671416 Si / 1000 Ang^3
#
#
#
# Elastic Constant Matrix: (Units=GPa)
#
#
# Indices 1 2 3 4 5 6 
#
# 1 82.5420 46.1049 7.5219 0.0000 0.0000 0.0000
# 2 46.1049 102.8639 11.0205 0.0000 0.0000 0.0000
# 3 7.5219 11.0205 8.8966 0.0000 0.0000 0.0000
# 4 0.0000 0.0000 0.0000 10.9064 0.0000 0.0000
# 5 0.0000 0.0000 0.0000 0.0000 -13.1525 0.0000
# 6 0.0000 0.0000 0.0000 0.0000 0.0000 14.1144
#
#
#
# Elastic Compliance Matrix: (Units=1/GPa)
#
#
# Indices 1 2 3 4 5 6 
#
# 1 0.016390 -0.006759 -0.005485 0.000000 0.000000 0.000000
# 2 -0.006759 0.013996 -0.011623 0.000000 0.000000 0.000000
# 3 -0.005485 -0.011623 0.131438 0.000000 0.000000 0.000000
# 4 0.000000 0.000000 0.000000 0.091690 0.000000 0.000000
# 5 0.000000 0.000000 0.000000 0.000000 -0.076031 0.000000
# 6 0.000000 0.000000 0.000000 0.000000 0.000000 0.070850
#
#
# Mechanical properties :
#
#
# Convention : Reuss Voigt Hill
#
# Bulk Modulus (GPa) = 8.76502 35.95524 22.36013
# Shear Modulus (GPa) = 14.96572 11.01732 12.99152
#
# Velocity S-wave (km/s) = 2.91329 2.49962 2.71435
# Velocity P-wave (km/s) = 4.03573 5.35924 4.74387
#
# Compressibility (1/GPa) = 0.11408992
#
# Stress axis : x y z
#
# Youngs Moduli (GPa) = 61.01292 71.44835 7.60814
#
# Poissons Ratio (x) = 0.48288 0.04173
# Poissons Ratio (y) = 0.41236 0.08843
# Poissons Ratio (z) = 0.33468 0.83047
#
# Static dielectric constant tensor:
#      x y z
#    x 1.630540 0.000000 0.000000 
#    y 0.000000 1.596640 0.000000 
#    z 0.000000 0.000000 1.611660 
# 
# From -- ./inp_files/7435.got.cif
#   From: 2010.05.17/outbox.cif.g08.bks.cpg/sg57_4_cif.got.tgz:7435.got - 2010.06.03 13:58:18.
