data_PCOD9434027
_publ_section_title
;
Structure prediction by ZEFSAII (Michael W. Deem and Ramdas Pophale) SiO2 
 PCOD9434027
Probable space group: P B C M
;
_chemical_formula_sum "Si O2"
_cell_formula_units_Z 56
_cell_length_a 15.303071
_cell_length_b 27.060412
_cell_length_c 7.407876
_cell_angle_alpha 90.000000
_cell_angle_beta 90.000000
_cell_angle_gamma 90.000000
_cell_volume 3067.656315
_symmetry_space_group_name_H-M "P B C M"
_symmetry_group_IT_number 57
_symmetry_cell_setting 'orthorhombic'
loop_
_space_group_symop_operation_xyz
x,y,z
-x,-y,1/2+z
x,1/2-y,-z
-x,1/2+y,1/2-z
-x,-y,-z
x,y,1/2-z
-x,1/2+y,z
x,1/2-y,1/2+z
loop_
_atom_site_type_symbol
_atom_site_label
_atom_site_fract_x
_atom_site_fract_y
_atom_site_fract_z
Si Si1 0.932475 0.072247 0.961458
Si Si2 0.694486 0.928275 0.455673
Si Si3 0.519053 0.889780 0.028845
Si Si4 0.627149 0.464657 0.467421
Si Si5 0.118837 0.040042 0.530273
Si Si6 0.383387 0.807639 0.465359
Si Si7 0.236098 0.621529 0.530395
O O1 0.942461 0.083512 0.750000
O O2 0.861368 0.110454 0.036780
O O3 0.030720 0.067285 0.034327
O O4 0.890991 0.017300 0.976331
O O5 0.708589 0.911481 0.250000
O O6 0.618480 0.894003 0.535772
O O7 0.790658 0.936333 0.535648
O O8 0.650524 0.982592 0.453725
O O9 0.521017 0.889992 0.250000
O O10 0.462555 0.938098 0.975718
O O11 0.463222 0.842188 0.969952
O O12 0.625913 0.469632 0.250000
O O13 0.703150 0.425537 0.514001
O O14 0.119836 0.040084 0.750000
O O15 0.392896 0.750000 0.500000
O O16 0.382572 0.814283 0.250000
O O17 0.291747 0.831150 0.531338
O O18 0.231333 0.623215 0.750000
#
# Coordination Sequence:
#
# PCOD9434027 Si02
#       7
#     8   8   8   8   8   8   8
#     4   9  15  26  40  54  76 110 141 161 187 229
#     4  10  17  25  36  56  84 110 132 163 196 223
#     4   8  16  28  41  55  78 108 133 157 197 244
#     4   9  15  25  39  55  75 108 143 161 180 227
#     4   9  17  24  35  57  83 107 136 168 191 214
#     4   9  17  31  47  62  77  97 128 167 208 248
#     4   8  14  25  42  58  76 104 135 161 193 240
#
# _framework density 18.254978999999999
#
# number of rings (size 3 to 8) (size 9 to 14) (size 15 to 20)
#    0.000    3.143    1.429    2.143    0.000    0.000 
#    0.000    4.286    0.000    0.000    0.000    1.000 
#    0.000    0.000    0.000    0.000    0.000    0.000 
#
# Total GULP energy -312035.747223 kJ/mol
# GULP energy per Si atom -5572.066915 kJ/mol
# Density = 1.821343 g / cm^3
# Si number density = 18.254979 Si / 1000 Ang^3
#
#
#
# Elastic Constant Matrix: (Units=GPa)
#
#
# Indices 1 2 3 4 5 6 
#
# 1 188.9103 58.9986 0.7760 0.0000 0.0000 0.0000
# 2 58.9986 74.4284 -3.2557 0.0000 0.0000 0.0000
# 3 0.7760 -3.2557 57.7506 0.0000 0.0000 0.0000
# 4 0.0000 0.0000 0.0000 13.3885 0.0000 0.0000
# 5 0.0000 0.0000 0.0000 0.0000 1.5524 0.0000
# 6 0.0000 0.0000 0.0000 0.0000 0.0000 14.5506
#
#
#
# Elastic Compliance Matrix: (Units=1/GPa)
#
#
# Indices 1 2 3 4 5 6 
#
# 1 0.007045 -0.005602 -0.000411 0.000000 0.000000 0.000000
# 2 -0.005602 0.017924 0.001086 0.000000 0.000000 0.000000
# 3 -0.000411 0.001086 0.017383 0.000000 0.000000 0.000000
# 4 0.000000 0.000000 0.000000 0.074691 0.000000 0.000000
# 5 0.000000 0.000000 0.000000 0.000000 0.644182 0.000000
# 6 0.000000 0.000000 0.000000 0.000000 0.000000 0.068725
#
#
# Mechanical properties :
#
#
# Convention : Reuss Voigt Hill
#
# Bulk Modulus (GPa) = 30.77166 48.23635 39.50401
# Shear Modulus (GPa) = 5.87795 23.53633 14.70714
#
# Velocity S-wave (km/s) = 1.79636 3.59459 2.84148
# Velocity P-wave (km/s) = 4.60388 6.61129 5.69670
#
# Compressibility (1/GPa) = 0.03249744
#
# Stress axis : x y z
#
# Youngs Moduli (GPa) = 141.94710 55.79060 57.52887
#
# Poissons Ratio (x) = 0.31256 0.02362
# Poissons Ratio (y) = 0.79524 -0.06246
# Poissons Ratio (z) = 0.05827 -0.06058
#
# Static dielectric constant tensor:
#      x y z
#    x 1.689170 0.000000 0.000000 
#    y 0.000000 1.593180 0.000000 
#    z 0.000000 0.000000 1.690740 
# 
# From -- ./inp_files/5904.got.cif
#   From: 2010.05.17/outbox.cif.g08.bks.cpg/sg57_3_cif.got.tgz:5904.got - 2010.06.03 13:58:18.
