data_PCOD9434739
_publ_section_title
;
Structure prediction by ZEFSAII (Michael W. Deem and Ramdas Pophale) SiO2 
 PCOD9434739
Probable space group: P B C M
;
_chemical_formula_sum "Si O2"
_cell_formula_units_Z 52
_cell_length_a 15.031500
_cell_length_b 10.117146
_cell_length_c 20.243130
_cell_angle_alpha 90.000000
_cell_angle_beta 90.000000
_cell_angle_gamma 90.000000
_cell_volume 3078.491811
_symmetry_space_group_name_H-M "P B C M"
_symmetry_group_IT_number 57
_symmetry_cell_setting 'orthorhombic'
loop_
_space_group_symop_operation_xyz
x,y,z
-x,-y,1/2+z
x,1/2-y,-z
-x,1/2+y,1/2-z
-x,-y,-z
x,y,1/2-z
-x,1/2+y,z
x,1/2-y,1/2+z
loop_
_atom_site_type_symbol
_atom_site_label
_atom_site_fract_x
_atom_site_fract_y
_atom_site_fract_z
Si Si1 0.579554 0.633986 0.054654
Si Si2 0.947638 0.561513 0.827799
Si Si3 0.907306 0.643560 0.369353
Si Si4 0.709081 0.697855 0.325310
Si Si5 0.764798 0.549962 0.606698
Si Si6 0.839461 0.750000 0.500000
Si Si7 0.622003 0.114832 0.463870
O O1 0.639137 0.653803 0.119234
O O2 0.474300 0.632554 0.070298
O O3 0.591633 0.750000 0.000000
O O4 0.605783 0.498171 0.018820
O O5 0.935588 0.542393 0.750000
O O6 0.949152 0.719040 0.842120
O O7 0.861393 0.508425 0.867249
O O8 0.033649 0.481152 0.850949
O O9 0.806940 0.637071 0.340474
O O10 0.896254 0.666430 0.447705
O O11 0.683637 0.670363 0.250000
O O12 0.723144 0.854566 0.337776
O O13 0.782792 0.648648 0.544435
O O14 0.698230 0.437045 0.584458
O O15 0.646578 0.250000 0.500000
#
# Coordination Sequence:
#
# PCOD9434739 Si02
#       7
#     8   8   8   8   8   4   8
#     4  10  19  36  62  80 106 141 188 224 269 328
#     4  10  20  36  53  75 104 145 181 215 265 328
#     4  10  20  34  57  77 108 138 183 223 271 323
#     4  10  19  34  60  84 104 146 193 226 263 330
#     4  10  18  34  56  79 110 142 180 224 270 329
#     4   8  18  34  56  82 100 142 184 232 262 308
#     4  10  20  34  57  86 109 141 179 225 281 326
#
# _framework density 16.891389
#
# number of rings (size 3 to 8) (size 9 to 14) (size 15 to 20)
#    0.000    2.462    1.538    4.615    1.077    2.462 
#    6.923    1.538    0.000    0.923    0.000    0.000 
#    0.000    0.000    0.000    0.000    0.000    0.000 
#
# Total GULP energy -289903.543021 kJ/mol
# GULP energy per Si atom -5575.068135 kJ/mol
# Density = 1.685294 g / cm^3
# Si number density = 16.891389 Si / 1000 Ang^3
#
#
#
# Elastic Constant Matrix: (Units=GPa)
#
#
# Indices 1 2 3 4 5 6 
#
# 1 90.9304 36.3901 49.6771 0.0000 0.0000 0.0000
# 2 36.3901 60.7763 26.4227 0.0000 0.0000 0.0000
# 3 49.6771 26.4227 112.9826 0.0000 0.0000 0.0000
# 4 0.0000 0.0000 0.0000 14.5604 0.0000 0.0000
# 5 0.0000 0.0000 0.0000 0.0000 15.4920 0.0000
# 6 0.0000 0.0000 0.0000 0.0000 0.0000 26.6931
#
#
#
# Elastic Compliance Matrix: (Units=1/GPa)
#
#
# Indices 1 2 3 4 5 6 
#
# 1 0.017287 -0.007844 -0.005766 0.000000 0.000000 0.000000
# 2 -0.007844 0.021875 -0.001667 0.000000 0.000000 0.000000
# 3 -0.005766 -0.001667 0.011776 0.000000 0.000000 0.000000
# 4 0.000000 0.000000 0.000000 0.068679 0.000000 0.000000
# 5 0.000000 0.000000 0.000000 0.000000 0.064549 0.000000
# 6 0.000000 0.000000 0.000000 0.000000 0.000000 0.037463
#
#
# Mechanical properties :
#
#
# Convention : Reuss Voigt Hill
#
# Bulk Modulus (GPa) = 49.05866 54.40770 51.73318
# Shear Modulus (GPa) = 19.30666 21.49573 20.40120
#
# Velocity S-wave (km/s) = 3.38448 3.57120 3.47909
# Velocity P-wave (km/s) = 6.66180 7.02032 6.84341
#
# Compressibility (1/GPa) = 0.02038376
#
# Stress axis : x y z
#
# Youngs Moduli (GPa) = 57.84799 45.71450 84.91687
#
# Poissons Ratio (x) = 0.35856 0.48967
# Poissons Ratio (y) = 0.45373 0.14156
# Poissons Ratio (z) = 0.33358 0.07621
#
# Static dielectric constant tensor:
#      x y z
#    x 1.594420 0.000000 0.000000 
#    y 0.000000 1.566200 0.000000 
#    z 0.000000 0.000000 1.572100 
# 
# From -- ./inp_files/25311.got.cif
#   From: 2010.05.17/outbox.cif.g08.bks.cpg/sg57_13_cif.got.tgz:25311.got - 2010.06.03 13:58:18.
