data_PCOD9434158
_publ_section_title
;
Structure prediction by ZEFSAII (Michael W. Deem and Ramdas Pophale) SiO2 
 PCOD9434158
Probable space group: P B C M
;
_chemical_formula_sum "Si O2"
_cell_formula_units_Z 48
_cell_length_a 6.670753
_cell_length_b 14.218348
_cell_length_c 21.295764
_cell_angle_alpha 90.000000
_cell_angle_beta 90.000000
_cell_angle_gamma 90.000000
_cell_volume 2019.841193
_symmetry_space_group_name_H-M "P B C M"
_symmetry_group_IT_number 57
_symmetry_cell_setting 'orthorhombic'
loop_
_space_group_symop_operation_xyz
x,y,z
-x,-y,1/2+z
x,1/2-y,-z
-x,1/2+y,1/2-z
-x,-y,-z
x,y,1/2-z
-x,1/2+y,z
x,1/2-y,1/2+z
loop_
_atom_site_type_symbol
_atom_site_label
_atom_site_fract_x
_atom_site_fract_y
_atom_site_fract_z
Si Si1 0.723329 0.021455 0.750000
Si Si2 0.272919 0.922681 0.118045
Si Si3 0.259448 0.250000 0.000000
Si Si4 0.059243 0.317016 0.250000
Si Si5 0.627820 0.144382 0.012268
Si Si6 0.077971 0.607746 0.250000
Si Si7 0.053900 0.220711 0.620385
Si Si8 0.083023 0.929835 0.615489
O O1 0.625917 0.041350 0.682288
O O2 0.914071 0.093619 0.750000
O O3 0.841570 0.922833 0.750000
O O4 0.168311 0.821461 0.128975
O O5 0.391540 0.909776 0.053728
O O6 0.078012 0.988426 0.106148
O O7 0.408795 0.176758 0.034382
O O8 0.141351 0.306084 0.053028
O O9 0.169995 0.312711 0.317090
O O10 0.927172 0.220587 0.250000
O O11 0.754972 0.085234 0.061359
O O12 0.722785 0.250000 0.000000
O O13 0.169847 0.566631 0.313795
O O14 0.038861 0.332200 0.617442
#
# Coordination Sequence:
#
# PCOD9434158 Si02
#       8
#     4   8   4   4   8   4   8   8
#     4   8  16  28  49  81 101 115 155 210 254 294
#     4  10  18  33  57  78  98 127 165 209 253 294
#     4  10  22  34  50  64 108 140 164 208 238 286
#     4   8  16  26  50  70  96 124 166 198 244 296
#     4  10  20  34  47  72 102 128 167 205 240 283
#     4   8  16  28  49  81 101 115 155 210 254 294
#     4  10  17  34  50  74  98 134 163 204 248 298
#     4  10  18  33  57  78  98 127 165 209 253 294
#
# _framework density 23.764246
#
# number of rings (size 3 to 8) (size 9 to 14) (size 15 to 20)
#    0.500    2.000    1.667    1.500    0.000    0.000 
#    0.000    5.000    0.000    0.000    0.000   14.000 
#    0.000    0.000    0.000    0.000    0.000    0.000 
#
# Total GULP energy -267527.453488 kJ/mol
# GULP energy per Si atom -5573.488614 kJ/mol
# Density = 2.371016 g / cm^3
# Si number density = 23.764246 Si / 1000 Ang^3
#
#
#
# Elastic Constant Matrix: (Units=GPa)
#
#
# Indices 1 2 3 4 5 6 
#
# 1 31.9822 1.4728 21.3753 0.0000 0.0000 0.0000
# 2 1.4728 71.4243 -17.2856 0.0000 0.0000 0.0000
# 3 21.3753 -17.2856 127.0914 0.0000 0.0000 0.0000
# 4 0.0000 0.0000 0.0000 31.9118 0.0000 0.0000
# 5 0.0000 0.0000 0.0000 0.0000 -13.9524 0.0000
# 6 0.0000 0.0000 0.0000 0.0000 0.0000 19.8547
#
#
#
# Elastic Compliance Matrix: (Units=1/GPa)
#
#
# Indices 1 2 3 4 5 6 
#
# 1 0.035575 -0.002256 -0.006290 0.000000 0.000000 0.000000
# 2 -0.002256 0.014620 0.002368 0.000000 0.000000 0.000000
# 3 -0.006290 0.002368 0.009248 0.000000 0.000000 0.000000
# 4 0.000000 0.000000 0.000000 0.031336 0.000000 0.000000
# 5 0.000000 0.000000 0.000000 0.000000 -0.071672 0.000000
# 6 0.000000 0.000000 0.000000 0.000000 0.000000 0.050366
#
#
# Mechanical properties :
#
#
# Convention : Reuss Voigt Hill
#
# Bulk Modulus (GPa) = 21.23692 26.84700 24.04196
# Shear Modulus (GPa) = 51.26829 22.55851 36.91340
#
# Velocity S-wave (km/s) = 4.64979 3.08435 3.94549
# Velocity P-wave (km/s) = 6.14681 4.89960 5.55830
#
# Compressibility (1/GPa) = 0.04708781
#
# Stress axis : x y z
#
# Youngs Moduli (GPa) = 28.10938 68.39748 108.12750
#
# Poissons Ratio (x) = 0.15430 0.68014
# Poissons Ratio (y) = 0.06341 -0.25604
# Poissons Ratio (z) = 0.17681 -0.16196
#
# Static dielectric constant tensor:
#      x y z
#    x 1.876770 0.000000 0.000000 
#    y 0.000000 1.895960 0.000000 
#    z 0.000000 0.000000 2.060370 
# 
# From -- ./inp_files/24306.got.cif
#   From: 2010.05.17/outbox.cif.g08.bks.cpg/sg57_13_cif.got.tgz:24306.got - 2010.06.03 13:58:18.
