data_PCOD9434514
_publ_section_title
;
Structure prediction by ZEFSAII (Michael W. Deem and Ramdas Pophale) SiO2 
 PCOD9434514
Probable space group: P B C M
;
_chemical_formula_sum "Si O2"
_cell_formula_units_Z 60
_cell_length_a 15.439101
_cell_length_b 9.079842
_cell_length_c 24.782055
_cell_angle_alpha 90.000000
_cell_angle_beta 90.000000
_cell_angle_gamma 90.000000
_cell_volume 3474.062410
_symmetry_space_group_name_H-M "P B C M"
_symmetry_group_IT_number 57
_symmetry_cell_setting 'orthorhombic'
loop_
_space_group_symop_operation_xyz
x,y,z
-x,-y,1/2+z
x,1/2-y,-z
-x,1/2+y,1/2-z
-x,-y,-z
x,y,1/2-z
-x,1/2+y,z
x,1/2-y,1/2+z
loop_
_atom_site_type_symbol
_atom_site_label
_atom_site_fract_x
_atom_site_fract_y
_atom_site_fract_z
Si Si1 0.908128 0.407406 0.312470
Si Si2 0.878520 0.001033 0.978786
Si Si3 0.243729 0.589846 0.607487
Si Si4 0.001733 0.750000 0.000000
Si Si5 0.086932 0.554080 0.313249
Si Si6 0.576912 0.395145 0.430643
Si Si7 0.788008 0.440461 0.591314
Si Si8 0.400852 0.954251 0.555323
O O1 0.898685 0.448932 0.250000
O O2 0.820627 0.446687 0.343928
O O3 0.919927 0.231213 0.315725
O O4 0.996139 0.484366 0.332122
O O5 0.793906 0.001234 0.943110
O O6 0.938994 0.861451 0.969301
O O7 0.849912 0.018910 0.040989
O O8 0.936274 0.144866 0.965326
O O9 0.346094 0.562966 0.610470
O O10 0.227786 0.763378 0.594084
O O11 0.101370 0.513403 0.250000
O O12 0.164527 0.512305 0.353737
O O13 0.480329 0.452237 0.421317
O O14 0.579781 0.218105 0.433578
O O15 0.601132 0.460033 0.489972
O O16 0.691805 0.499862 0.579440
#
# Coordination Sequence:
#
# PCOD9434514 Si02
#       8
#     8   8   8   4   8   8   8   8
#     4   9  19  33  49  70  95 127 163 197 232 275
#     4  11  20  34  43  70  95 130 160 191 231 287
#     4  10  18  31  52  69  95 127 160 193 237 288
#     4  10  24  30  44  62 104 132 156 190 234 280
#     4   9  19  33  49  70  95 127 163 197 232 275
#     4   9  17  31  48  68  93 123 153 192 238 285
#     4  10  18  31  52  69  95 127 160 193 237 288
#     4   9  17  31  48  68  93 123 153 192 238 285
#
# _framework density 17.270848000000001
#
# number of rings (size 3 to 8) (size 9 to 14) (size 15 to 20)
#    0.000    2.400    2.667    0.000    3.733    0.000 
#    2.400    0.000    0.000    0.800    0.000    0.000 
#    0.000    0.000    0.000    0.000    0.000    0.000 
#
# Total GULP energy -334304.555209 kJ/mol
# GULP energy per Si atom -5571.742587 kJ/mol
# Density = 1.723154 g / cm^3
# Si number density = 17.270848 Si / 1000 Ang^3
#
#
#
# Elastic Constant Matrix: (Units=GPa)
#
#
# Indices 1 2 3 4 5 6 
#
# 1 160.3632 28.0509 51.9474 0.0000 0.0000 0.0000
# 2 28.0509 23.0028 10.1538 0.0000 0.0000 0.0000
# 3 51.9474 10.1538 61.9334 0.0000 0.0000 0.0000
# 4 0.0000 0.0000 0.0000 9.8990 0.0000 0.0000
# 5 0.0000 0.0000 0.0000 0.0000 21.7752 0.0000
# 6 0.0000 0.0000 0.0000 0.0000 0.0000 26.2904
#
#
#
# Elastic Compliance Matrix: (Units=1/GPa)
#
#
# Indices 1 2 3 4 5 6 
#
# 1 0.010110 -0.009256 -0.006963 0.000000 0.000000 0.000000
# 2 -0.009256 0.055338 -0.001309 0.000000 0.000000 0.000000
# 3 -0.006963 -0.001309 0.022201 0.000000 0.000000 0.000000
# 4 0.000000 0.000000 0.000000 0.101021 0.000000 0.000000
# 5 0.000000 0.000000 0.000000 0.000000 0.045924 0.000000
# 6 0.000000 0.000000 0.000000 0.000000 0.000000 0.038037
#
#
# Mechanical properties :
#
#
# Convention : Reuss Voigt Hill
#
# Bulk Modulus (GPa) = 19.01354 47.28928 33.15141
# Shear Modulus (GPa) = 15.37436 21.93605 18.65520
#
# Velocity S-wave (km/s) = 2.98684 3.56774 3.29014
# Velocity P-wave (km/s) = 4.78831 6.66424 5.80259
#
# Compressibility (1/GPa) = 0.05259409
#
# Stress axis : x y z
#
# Youngs Moduli (GPa) = 98.90864 18.07084 45.04280
#
# Poissons Ratio (x) = 0.16726 0.31362
# Poissons Ratio (y) = 0.91547 0.05897
# Poissons Ratio (z) = 0.68867 0.02366
#
# Static dielectric constant tensor:
#      x y z
#    x 1.595440 0.000000 0.000000 
#    y 0.000000 1.602760 0.000000 
#    z 0.000000 0.000000 1.600570 
# 
# From -- ./inp_files/27439.got.cif
#   From: 2010.05.17/outbox.cif.g08.bks.cpg/sg57_14_cif.got.tgz:27439.got - 2010.06.03 13:58:18.
