data_PCOD9434489
_publ_section_title
;
Structure prediction by ZEFSAII (Michael W. Deem and Ramdas Pophale) SiO2 
 PCOD9434489
Probable space group: P B C M
;
_chemical_formula_sum "Si O2"
_cell_formula_units_Z 64
_cell_length_a 15.266768
_cell_length_b 30.317766
_cell_length_c 8.755431
_cell_angle_alpha 90.000000
_cell_angle_beta 90.000000
_cell_angle_gamma 90.000000
_cell_volume 4052.488885
_symmetry_space_group_name_H-M "P B C M"
_symmetry_group_IT_number 57
_symmetry_cell_setting 'orthorhombic'
loop_
_space_group_symop_operation_xyz
x,y,z
-x,-y,1/2+z
x,1/2-y,-z
-x,1/2+y,1/2-z
-x,-y,-z
x,y,1/2-z
-x,1/2+y,z
x,1/2-y,1/2+z
loop_
_atom_site_type_symbol
_atom_site_label
_atom_site_fract_x
_atom_site_fract_y
_atom_site_fract_z
Si Si1 0.178629 0.038113 0.934057
Si Si2 0.798468 0.204542 0.930504
Si Si3 0.444686 0.560339 0.433614
Si Si4 0.707598 0.122454 0.430849
Si Si5 0.873029 0.059555 0.067965
Si Si6 0.630503 0.969962 0.567964
Si Si7 0.962014 0.888819 0.433000
Si Si8 0.006944 0.702893 0.432405
O O1 0.181504 0.036461 0.750000
O O2 0.117202 0.078832 0.979166
O O3 0.137304 0.991088 0.984210
O O4 0.277113 0.041848 0.994385
O O5 0.811920 0.208553 0.750000
O O6 0.763228 0.250000 0.000000
O O7 0.736761 0.164100 0.972269
O O8 0.892815 0.197177 0.009905
O O9 0.438038 0.553723 0.250000
O O10 0.386857 0.602787 0.471031
O O11 0.547282 0.560816 0.473672
O O12 0.399994 0.518274 0.512619
O O13 0.709583 0.133517 0.250000
O O14 0.780490 0.084311 0.454100
O O15 0.891764 0.060018 0.250000
O O16 0.948912 0.086571 0.984324
O O17 0.639904 0.969913 0.750000
O O18 0.962445 0.884104 0.250000
O O19 0.957857 0.840534 0.507751
O O20 0.976473 0.750000 0.500000
O O21 0.005703 0.704653 0.250000
#
# Coordination Sequence:
#
# PCOD9434489 Si02
#       8
#     8   8   8   8   8   8   8   8
#     4  10  21  36  50  67  99 139 171 206 251 293
#     4  11  21  33  50  72  99 127 163 202 244 294
#     4   9  18  33  50  69  98 131 161 199 248 294
#     4  10  18  31  51  71  98 133 167 199 244 295
#     4  10  19  32  49  68  97 138 173 203 241 285
#     4  10  19  30  49  74  96 125 167 209 244 284
#     4  11  22  34  50  72  98 132 171 207 247 294
#     4  11  21  35  53  72  97 127 162 204 250 294
#
# _framework density 15.792763000000001
#
# number of rings (size 3 to 8) (size 9 to 14) (size 15 to 20)
#    0.000    1.750    2.500    4.125    0.000    2.500 
#    0.000    0.000    0.000    0.000    0.000    0.875 
#    0.000    6.000    0.000    0.000    0.000    0.000 
#
# Total GULP energy -357190.189582 kJ/mol
# GULP energy per Si atom -5581.096712 kJ/mol
# Density = 1.575682 g / cm^3
# Si number density = 15.792763 Si / 1000 Ang^3
#
#
#
# Elastic Constant Matrix: (Units=GPa)
#
#
# Indices 1 2 3 4 5 6 
#
# 1 68.8443 46.9609 26.7831 0.0000 0.0000 0.0000
# 2 46.9609 124.9079 49.8134 0.0000 0.0000 0.0000
# 3 26.7831 49.8134 60.6978 0.0000 0.0000 0.0000
# 4 0.0000 0.0000 0.0000 20.1767 0.0000 0.0000
# 5 0.0000 0.0000 0.0000 0.0000 21.8266 0.0000
# 6 0.0000 0.0000 0.0000 0.0000 0.0000 19.1318
#
#
#
# Elastic Compliance Matrix: (Units=1/GPa)
#
#
# Indices 1 2 3 4 5 6 
#
# 1 0.020161 -0.005994 -0.003977 0.000000 0.000000 0.000000
# 2 -0.005994 0.013683 -0.008584 0.000000 0.000000 0.000000
# 3 -0.003977 -0.008584 0.025275 0.000000 0.000000 0.000000
# 4 0.000000 0.000000 0.000000 0.049562 0.000000 0.000000
# 5 0.000000 0.000000 0.000000 0.000000 0.045816 0.000000
# 6 0.000000 0.000000 0.000000 0.000000 0.000000 0.052269
#
#
# Mechanical properties :
#
#
# Convention : Reuss Voigt Hill
#
# Bulk Modulus (GPa) = 45.43742 55.72943 50.58343
# Shear Modulus (GPa) = 19.90340 20.95319 20.42830
#
# Velocity S-wave (km/s) = 3.55390 3.64642 3.60046
# Velocity P-wave (km/s) = 6.75824 7.28650 7.02734
#
# Compressibility (1/GPa) = 0.02200829
#
# Stress axis : x y z
#
# Youngs Moduli (GPa) = 49.59962 73.08423 39.56463
#
# Poissons Ratio (x) = 0.43805 0.15736
# Poissons Ratio (y) = 0.29729 0.33964
# Poissons Ratio (z) = 0.19727 0.62739
#
# Static dielectric constant tensor:
#      x y z
#    x 1.514890 0.000000 0.000000 
#    y 0.000000 1.534160 0.000000 
#    z 0.000000 0.000000 1.534190 
# 
# From -- ./inp_files/6007.got.cif
#   From: 2010.05.17/outbox.cif.g08.bks.cpg/sg57_4_cif.got.tgz:6007.got - 2010.06.03 13:58:18.
