data_PCOD9434237
_publ_section_title
;
Structure prediction by ZEFSAII (Michael W. Deem and Ramdas Pophale) SiO2 
 PCOD9434237
Probable space group: P B C M
;
_chemical_formula_sum "Si O2"
_cell_formula_units_Z 64
_cell_length_a 27.022512
_cell_length_b 18.998076
_cell_length_c 8.683289
_cell_angle_alpha 90.000000
_cell_angle_beta 90.000000
_cell_angle_gamma 90.000000
_cell_volume 4457.789887
_symmetry_space_group_name_H-M "P B C M"
_symmetry_group_IT_number 57
_symmetry_cell_setting 'orthorhombic'
loop_
_space_group_symop_operation_xyz
x,y,z
-x,-y,1/2+z
x,1/2-y,-z
-x,1/2+y,1/2-z
-x,-y,-z
x,y,1/2-z
-x,1/2+y,z
x,1/2-y,1/2+z
loop_
_atom_site_type_symbol
_atom_site_label
_atom_site_fract_x
_atom_site_fract_y
_atom_site_fract_z
Si Si1 0.105775 0.412967 0.064803
Si Si2 0.488998 0.171995 0.935481
Si Si3 0.606089 0.587822 0.435499
Si Si4 0.452889 0.958317 0.434943
Si Si5 0.994825 0.671737 0.934199
Si Si6 0.696501 0.827338 0.066037
Si Si7 0.804978 0.673265 0.066647
Si Si8 0.953787 0.455850 0.565563
O O1 0.111702 0.407898 0.250000
O O2 0.092681 0.494154 0.026377
O O3 0.057620 0.365432 0.023146
O O4 0.153572 0.382131 0.982805
O O5 0.484569 0.173525 0.750000
O O6 0.439741 0.135230 0.003987
O O7 0.535887 0.122180 0.978987
O O8 0.493770 0.250000 0.000000
O O9 0.608144 0.907015 0.750000
O O10 0.593565 0.506737 0.480562
O O11 0.656025 0.617717 0.507277
O O12 0.454607 0.960672 0.250000
O O13 0.500000 0.000000 0.500000
O O14 0.997124 0.673132 0.750000
O O15 0.996924 0.750000 0.000000
O O16 0.038499 0.621489 0.997280
O O17 0.697064 0.824065 0.250000
O O18 0.683421 0.750000 0.000000
O O19 0.751315 0.843961 0.003814
O O20 0.800996 0.678183 0.250000
O O21 0.819281 0.750000 0.000000
O O22 0.957186 0.452705 0.750000
O O23 0.000000 0.500000 0.500000
#
# Coordination Sequence:
#
# PCOD9434237 Si02
#       8
#     8   8   8   8   8   8   8   8
#     4   9  18  31  45  62  84 113 145 177 212 252
#     4  10  18  28  41  61  85 112 142 171 205 244
#     4  10  18  30  45  61  81 109 142 175 209 246
#     4   8  16  28  42  58  80 107 137 171 205 242
#     4  10  19  29  43  63  88 116 147 179 213 252
#     4  11  21  33  46  61  83 110 140 176 211 247
#     4  11  21  32  46  63  84 111 142 178 213 248
#     4   9  17  29  44  61  84 112 143 177 213 251
#
# _framework density 14.35689
#
# number of rings (size 3 to 8) (size 9 to 14) (size 15 to 20)
#    0.000    2.250    0.000    6.000    0.000    5.000 
#    0.000    0.000    0.000    0.000    0.000    0.000 
#    0.000    1.000    0.000    9.250    0.000    3.875 
#
# Total GULP energy -356610.558241 kJ/mol
# GULP energy per Si atom -5572.039973 kJ/mol
# Density = 1.432421 g / cm^3
# Si number density = 14.356890 Si / 1000 Ang^3
#
#
#
# Elastic Constant Matrix: (Units=GPa)
#
#
# Indices 1 2 3 4 5 6 
#
# 1 62.6501 39.6939 31.8125 0.0000 0.0000 0.0000
# 2 39.6939 97.3238 34.2859 0.0000 0.0000 0.0000
# 3 31.8125 34.2859 69.9156 0.0000 0.0000 0.0000
# 4 0.0000 0.0000 0.0000 20.2963 0.0000 0.0000
# 5 0.0000 0.0000 0.0000 0.0000 18.8104 0.0000
# 6 0.0000 0.0000 0.0000 0.0000 0.0000 27.2798
#
#
#
# Elastic Compliance Matrix: (Units=1/GPa)
#
#
# Indices 1 2 3 4 5 6 
#
# 1 0.024411 -0.007305 -0.007525 0.000000 0.000000 0.000000
# 2 -0.007305 0.014607 -0.003839 0.000000 0.000000 0.000000
# 3 -0.007525 -0.003839 0.019610 0.000000 0.000000 0.000000
# 4 0.000000 0.000000 0.000000 0.049270 0.000000 0.000000
# 5 0.000000 0.000000 0.000000 0.000000 0.053162 0.000000
# 6 0.000000 0.000000 0.000000 0.000000 0.000000 0.036657
#
#
# Mechanical properties :
#
#
# Convention : Reuss Voigt Hill
#
# Bulk Modulus (GPa) = 46.97258 49.05268 48.01263
# Shear Modulus (GPa) = 20.64819 21.55044 21.09931
#
# Velocity S-wave (km/s) = 3.79648 3.87854 3.83773
# Velocity P-wave (km/s) = 7.21156 7.36874 7.29057
#
# Compressibility (1/GPa) = 0.02128902
#
# Stress axis : x y z
#
# Youngs Moduli (GPa) = 40.96487 68.46068 50.99546
#
# Poissons Ratio (x) = 0.50012 0.38374
# Poissons Ratio (y) = 0.29926 0.19578
# Poissons Ratio (z) = 0.30826 0.26283
#
# Static dielectric constant tensor:
#      x y z
#    x 1.467340 0.000000 0.000000 
#    y 0.000000 1.490810 0.000000 
#    z 0.000000 0.000000 1.481600 
# 
# From -- ./inp_files/9817.got.cif
#   From: 2010.05.17/outbox.cif.g08.bks.cpg/sg57_5_cif.got.tgz:9817.got - 2010.06.03 13:58:18.
