data_PCOD9434826
_publ_section_title
;
Structure prediction by ZEFSAII (Michael W. Deem and Ramdas Pophale) SiO2 
 PCOD9434826
Probable space group: P B C M
;
_chemical_formula_sum "Si O2"
_cell_formula_units_Z 56
_cell_length_a 9.709032
_cell_length_b 16.466547
_cell_length_c 14.918721
_cell_angle_alpha 90.000000
_cell_angle_beta 90.000000
_cell_angle_gamma 90.000000
_cell_volume 2385.119059
_symmetry_space_group_name_H-M "P B C M"
_symmetry_group_IT_number 57
_symmetry_cell_setting 'orthorhombic'
loop_
_space_group_symop_operation_xyz
x,y,z
-x,-y,1/2+z
x,1/2-y,-z
-x,1/2+y,1/2-z
-x,-y,-z
x,y,1/2-z
-x,1/2+y,z
x,1/2-y,1/2+z
loop_
_atom_site_type_symbol
_atom_site_label
_atom_site_fract_x
_atom_site_fract_y
_atom_site_fract_z
Si Si1 0.830384 0.062791 0.551858
Si Si2 0.108716 0.996304 0.642023
Si Si3 0.497375 0.773525 0.592563
Si Si4 0.778722 0.222206 0.654063
Si Si5 0.289131 0.412303 0.857969
Si Si6 0.938610 0.779845 0.897374
Si Si7 0.281588 0.152881 0.652549
O O1 0.787096 0.151704 0.581052
O O2 0.967537 0.039693 0.609220
O O3 0.859792 0.059636 0.445317
O O4 0.721356 0.995228 0.586073
O O5 0.100312 0.973731 0.750000
O O6 0.230446 0.063255 0.634230
O O7 0.427841 0.750000 0.500000
O O8 0.366792 0.766784 0.655872
O O9 0.584351 0.854469 0.612250
O O10 0.609962 0.700492 0.593529
O O11 0.798056 0.179992 0.750000
O O12 0.908223 0.280922 0.639659
O O13 0.292967 0.424052 0.750000
O O14 0.150342 0.360979 0.882568
O O15 0.853249 0.709218 0.848124
O O16 0.939482 0.750000 0.000000
O O17 0.347834 0.154817 0.750000
#
# Coordination Sequence:
#
# PCOD9434826 Si02
#       7
#     8   8   8   8   8   8   8
#     4  11  23  39  66 100 132 171 219 272 329 392
#     4  10  20  37  63  96 133 168 212 268 328 389
#     4  11  23  41  64  91 127 175 226 272 321 395
#     4  12  24  42  64  92 131 179 223 268 327 399
#     4  11  22  40  66  98 130 170 219 277 330 383
#     4  11  21  35  61  93 126 169 217 270 323 388
#     4  10  18  36  64  93 122 168 220 261 312 397
#
# _framework density 23.478912000000001
#
# number of rings (size 3 to 8) (size 9 to 14) (size 15 to 20)
#    0.000    1.143    1.429    8.571    2.000    0.000 
#    0.000    2.857    0.000    3.429    0.000    0.000 
#    0.000    0.000    0.000    0.000    0.000    0.000 
#
# Total GULP energy -312761.428893 kJ/mol
# GULP energy per Si atom -5585.025516 kJ/mol
# Density = 2.342547 g / cm^3
# Si number density = 23.478912 Si / 1000 Ang^3
#
#
#
# Elastic Constant Matrix: (Units=GPa)
#
#
# Indices 1 2 3 4 5 6 
#
# 1 106.2074 27.7441 6.4865 0.0000 0.0000 0.0000
# 2 27.7441 59.2048 0.3486 0.0000 0.0000 0.0000
# 3 6.4865 0.3486 114.2892 0.0000 0.0000 0.0000
# 4 0.0000 0.0000 0.0000 28.6004 0.0000 0.0000
# 5 0.0000 0.0000 0.0000 0.0000 31.0714 0.0000
# 6 0.0000 0.0000 0.0000 0.0000 0.0000 18.1846
#
#
#
# Elastic Compliance Matrix: (Units=1/GPa)
#
#
# Indices 1 2 3 4 5 6 
#
# 1 0.010769 -0.005043 -0.000596 0.000000 0.000000 0.000000
# 2 -0.005043 0.019252 0.000227 0.000000 0.000000 0.000000
# 3 -0.000596 0.000227 0.008783 0.000000 0.000000 0.000000
# 4 0.000000 0.000000 0.000000 0.034965 0.000000 0.000000
# 5 0.000000 0.000000 0.000000 0.000000 0.032184 0.000000
# 6 0.000000 0.000000 0.000000 0.000000 0.000000 0.054991
#
#
# Mechanical properties :
#
#
# Convention : Reuss Voigt Hill
#
# Bulk Modulus (GPa) = 35.73764 38.76222 37.24993
# Shear Modulus (GPa) = 27.60985 31.91277 29.76131
#
# Velocity S-wave (km/s) = 3.43292 3.69075 3.56417
# Velocity P-wave (km/s) = 5.56484 5.89130 5.73039
#
# Compressibility (1/GPa) = 0.02798170
#
# Stress axis : x y z
#
# Youngs Moduli (GPa) = 92.85632 51.94141 113.85823
#
# Poissons Ratio (x) = 0.26195 0.06784
# Poissons Ratio (y) = 0.46829 -0.02590
# Poissons Ratio (z) = 0.05533 -0.01182
#
# Static dielectric constant tensor:
#      x y z
#    x 1.869380 0.000000 0.000000 
#    y 0.000000 1.901590 0.000000 
#    z 0.000000 0.000000 1.095170 
# 
# From -- ./inp_files/16701.got.cif
#   From: 2010.05.17/outbox.cif.g08.bks.cpg/sg57_9_cif.got.tgz:16701.got - 2010.06.03 13:58:18.
