data_PCOD9434671
_publ_section_title
;
Structure prediction by ZEFSAII (Michael W. Deem and Ramdas Pophale) SiO2 
 PCOD9434671
Probable space group: P B C M
;
_chemical_formula_sum "Si O2"
_cell_formula_units_Z 56
_cell_length_a 8.301133
_cell_length_b 18.639031
_cell_length_c 16.422382
_cell_angle_alpha 90.000000
_cell_angle_beta 90.000000
_cell_angle_gamma 90.000000
_cell_volume 2540.954292
_symmetry_space_group_name_H-M "P B C M"
_symmetry_group_IT_number 57
_symmetry_cell_setting 'orthorhombic'
loop_
_space_group_symop_operation_xyz
x,y,z
-x,-y,1/2+z
x,1/2-y,-z
-x,1/2+y,1/2-z
-x,-y,-z
x,y,1/2-z
-x,1/2+y,z
x,1/2-y,1/2+z
loop_
_atom_site_type_symbol
_atom_site_label
_atom_site_fract_x
_atom_site_fract_y
_atom_site_fract_z
Si Si1 0.678439 0.159602 0.660960
Si Si2 0.357341 0.357598 0.655031
Si Si3 0.160577 0.696020 0.118866
Si Si4 0.971022 0.938492 0.842773
Si Si5 0.422307 0.667159 0.492522
Si Si6 0.962493 0.592226 0.654555
Si Si7 0.179037 0.229476 0.593574
O O1 0.611679 0.143048 0.750000
O O2 0.714397 0.246008 0.655273
O O3 0.572104 0.137142 0.583479
O O4 0.853505 0.121956 0.653401
O O5 0.399490 0.372801 0.750000
O O6 0.196230 0.402022 0.629496
O O7 0.488929 0.368592 0.584006
O O8 0.304731 0.273885 0.647726
O O9 0.234106 0.673653 0.032103
O O10 0.110642 0.621170 0.158452
O O11 0.994726 0.738462 0.116973
O O12 0.933765 0.959204 0.750000
O O13 0.029126 0.012307 0.881838
O O14 0.475388 0.750000 0.500000
O O15 0.912627 0.593043 0.750000
O O16 0.842282 0.645490 0.607943
O O17 0.200392 0.250000 0.500000
#
# Coordination Sequence:
#
# PCOD9434671 Si02
#       7
#     8   8   8   8   8   8   8
#     4   9  17  31  53  80 110 145 187 234 279 328
#     4  10  21  36  54  79 113 148 181 226 284 337
#     4   9  17  31  53  81 109 142 186 228 271 330
#     4   9  18  33  55  84 114 145 183 227 278 338
#     4  10  20  34  53  81 110 143 187 233 274 326
#     4   9  17  32  57  86 114 144 182 230 282 333
#     4  10  18  33  55  81 111 143 181 226 271 328
#
# _framework density 22.038965000000001
#
# number of rings (size 3 to 8) (size 9 to 14) (size 15 to 20)
#    0.000    2.571    0.000    3.429    0.000    6.286 
#    0.000    7.143    0.000    5.143    0.000   26.000 
#    0.000    2.286    0.000    0.000    0.000    0.000 
#
# Total GULP energy -312044.757815 kJ/mol
# GULP energy per Si atom -5572.227818 kJ/mol
# Density = 2.198880 g / cm^3
# Si number density = 22.038965 Si / 1000 Ang^3
#
#
#
# Elastic Constant Matrix: (Units=GPa)
#
#
# Indices 1 2 3 4 5 6 
#
# 1 46.2857 8.3295 22.9160 0.0000 0.0000 0.0000
# 2 8.3295 104.9908 12.0882 0.0000 0.0000 0.0000
# 3 22.9160 12.0882 125.6092 0.0000 0.0000 0.0000
# 4 0.0000 0.0000 0.0000 16.0151 0.0000 0.0000
# 5 0.0000 0.0000 0.0000 0.0000 -8.9179 0.0000
# 6 0.0000 0.0000 0.0000 0.0000 0.0000 4.4133
#
#
#
# Elastic Compliance Matrix: (Units=1/GPa)
#
#
# Indices 1 2 3 4 5 6 
#
# 1 0.023956 -0.001413 -0.004234 0.000000 0.000000 0.000000
# 2 -0.001413 0.009715 -0.000677 0.000000 0.000000 0.000000
# 3 -0.004234 -0.000677 0.008799 0.000000 0.000000 0.000000
# 4 0.000000 0.000000 0.000000 0.062441 0.000000 0.000000
# 5 0.000000 0.000000 0.000000 0.000000 -0.112134 0.000000
# 6 0.000000 0.000000 0.000000 0.000000 0.000000 0.226586
#
#
# Mechanical properties :
#
#
# Convention : Reuss Voigt Hill
#
# Bulk Modulus (GPa) = 33.53443 40.39480 36.96461
# Shear Modulus (GPa) = 20.66538 17.87225 19.26882
#
# Velocity S-wave (km/s) = 3.06547 2.85079 2.96008
# Velocity P-wave (km/s) = 5.27053 5.40413 5.33775
#
# Compressibility (1/GPa) = 0.02982010
#
# Stress axis : x y z
#
# Youngs Moduli (GPa) = 41.74371 102.93673 113.65055
#
# Poissons Ratio (x) = 0.14545 0.48125
# Poissons Ratio (y) = 0.05898 0.07696
# Poissons Ratio (z) = 0.17676 0.06970
#
# Static dielectric constant tensor:
#      x y z
#    x 1.873160 0.000000 0.000000 
#    y 0.000000 1.852110 0.000000 
#    z 0.000000 0.000000 1.872700 
# 
# From -- ./inp_files/21356.got.cif
#   From: 2010.05.17/outbox.cif.g08.bks.cpg/sg57_11_cif.got.tgz:21356.got - 2010.06.03 13:58:18.
