data_PCOD9434490
_publ_section_title
;
Structure prediction by ZEFSAII (Michael W. Deem and Ramdas Pophale) SiO2 
 PCOD9434490
Probable space group: P B C M
;
_chemical_formula_sum "Si O2"
_cell_formula_units_Z 40
_cell_length_a 13.246874
_cell_length_b 20.499580
_cell_length_c 8.478513
_cell_angle_alpha 90.000000
_cell_angle_beta 90.000000
_cell_angle_gamma 90.000000
_cell_volume 2302.385593
_symmetry_space_group_name_H-M "P B C M"
_symmetry_group_IT_number 57
_symmetry_cell_setting 'orthorhombic'
loop_
_space_group_symop_operation_xyz
x,y,z
-x,-y,1/2+z
x,1/2-y,-z
-x,1/2+y,1/2-z
-x,-y,-z
x,y,1/2-z
-x,1/2+y,z
x,1/2-y,1/2+z
loop_
_atom_site_type_symbol
_atom_site_label
_atom_site_fract_x
_atom_site_fract_y
_atom_site_fract_z
Si Si1 0.881914 0.677522 0.061348
Si Si2 0.041618 0.569187 0.058916
Si Si3 0.734057 0.450860 0.558310
Si Si4 0.517095 0.426206 0.560692
Si Si5 0.307990 0.100851 0.561407
O O1 0.883396 0.677977 0.250000
O O2 0.967941 0.626910 0.005008
O O3 0.899309 0.750000 0.000000
O O4 0.774099 0.650177 0.005285
O O5 0.040783 0.568356 0.250000
O O6 0.157923 0.575752 0.005681
O O7 0.000000 0.500000 0.000000
O O8 0.734377 0.451384 0.750000
O O9 0.632676 0.412145 0.510860
O O10 0.722179 0.526895 0.509020
O O11 0.500000 0.500000 0.500000
O O12 0.511924 0.425289 0.750000
O O13 0.422653 0.386564 0.493480
O O14 0.304773 0.101843 0.750000
#
# Coordination Sequence:
#
# PCOD9434490 Si02
#       5
#     8   8   8   8   8
#     4  11  23  36  53  76 105 141 179 218 265 323
#     4  10  19  33  53  78 104 136 176 219 268 317
#     4   8  15  28  48  74 104 134 164 210 263 309
#     4   9  16  27  45  72 104 135 168 206 257 311
#     4  10  18  31  51  73 103 136 170 216 266 315
#
# _framework density 17.373284000000002
#
# number of rings (size 3 to 8) (size 9 to 14) (size 15 to 20)
#    0.000    2.400    2.000    3.000    0.000    0.800 
#    0.000    1.000    0.000    1.200    0.000    2.800 
#    0.000    0.000    0.000    0.000    0.000    0.000 
#
# Total GULP energy -222911.394497 kJ/mol
# GULP energy per Si atom -5572.784862 kJ/mol
# Density = 1.733374 g / cm^3
# Si number density = 17.373284 Si / 1000 Ang^3
#
#
#
# Elastic Constant Matrix: (Units=GPa)
#
#
# Indices 1 2 3 4 5 6 
#
# 1 193.7458 73.8353 26.3417 0.0000 0.0000 0.0000
# 2 73.8353 92.4776 21.4999 0.0000 0.0000 0.0000
# 3 26.3417 21.4999 33.9962 0.0000 0.0000 0.0000
# 4 0.0000 0.0000 0.0000 20.7438 0.0000 0.0000
# 5 0.0000 0.0000 0.0000 0.0000 20.1707 0.0000
# 6 0.0000 0.0000 0.0000 0.0000 0.0000 17.5761
#
#
#
# Elastic Compliance Matrix: (Units=1/GPa)
#
#
# Indices 1 2 3 4 5 6 
#
# 1 0.007582 -0.005496 -0.002399 0.000000 0.000000 0.000000
# 2 -0.005496 0.016661 -0.006278 0.000000 0.000000 0.000000
# 3 -0.002399 -0.006278 0.035245 0.000000 0.000000 0.000000
# 4 0.000000 0.000000 0.000000 0.048207 0.000000 0.000000
# 5 0.000000 0.000000 0.000000 0.000000 0.049577 0.000000
# 6 0.000000 0.000000 0.000000 0.000000 0.000000 0.056895
#
#
# Mechanical properties :
#
#
# Convention : Reuss Voigt Hill
#
# Bulk Modulus (GPa) = 32.11215 62.61927 47.36571
# Shear Modulus (GPa) = 19.77113 24.93431 22.35272
#
# Velocity S-wave (km/s) = 3.37711 3.79253 3.59083
# Velocity P-wave (km/s) = 5.80778 7.43635 6.67194
#
# Compressibility (1/GPa) = 0.03114086
#
# Stress axis : x y z
#
# Youngs Moduli (GPa) = 131.89107 60.02052 28.37315
#
# Poissons Ratio (x) = 0.32986 0.06807
# Poissons Ratio (y) = 0.72485 0.17814
# Poissons Ratio (z) = 0.31644 0.37683
#
# Static dielectric constant tensor:
#      x y z
#    x 1.642470 0.000000 0.000000 
#    y 0.000000 1.552160 0.000000 
#    z 0.000000 0.000000 1.588910 
# 
# From -- ./inp_files/2889.got.cif
#   From: 2010.05.17/outbox.cif.g08.bks.cpg/sg57_2_cif.got.tgz:2889.got - 2010.06.03 13:58:18.
