data_PCOD9434534
_publ_section_title
;
Structure prediction by ZEFSAII (Michael W. Deem and Ramdas Pophale) SiO2 
 PCOD9434534
Probable space group: P B C M
;
_chemical_formula_sum "Si O2"
_cell_formula_units_Z 64
_cell_length_a 11.173450
_cell_length_b 33.999187
_cell_length_c 9.102267
_cell_angle_alpha 90.000000
_cell_angle_beta 90.000000
_cell_angle_gamma 90.000000
_cell_volume 3457.843972
_symmetry_space_group_name_H-M "P B C M"
_symmetry_group_IT_number 57
_symmetry_cell_setting 'orthorhombic'
loop_
_space_group_symop_operation_xyz
x,y,z
-x,-y,1/2+z
x,1/2-y,-z
-x,1/2+y,1/2-z
-x,-y,-z
x,y,1/2-z
-x,1/2+y,z
x,1/2-y,1/2+z
loop_
_atom_site_type_symbol
_atom_site_label
_atom_site_fract_x
_atom_site_fract_y
_atom_site_fract_z
Si Si1 0.800563 0.488483 0.576137
Si Si2 0.570591 0.433929 0.576591
Si Si3 0.081830 0.208244 0.425634
Si Si4 0.064851 0.578078 0.579783
Si Si5 0.700464 0.366618 0.079650
Si Si6 0.831176 0.629827 0.573706
Si Si7 0.202935 0.708841 0.075999
Si Si8 0.298932 0.062605 0.424742
O O1 0.811988 0.494658 0.750000
O O2 0.675837 0.465085 0.546029
O O3 0.904106 0.459814 0.517114
O O4 0.786911 0.529648 0.493896
O O5 0.578200 0.424798 0.750000
O O6 0.599273 0.394686 0.486465
O O7 0.437170 0.448748 0.546273
O O8 0.112262 0.250000 0.500000
O O9 0.100857 0.209430 0.250000
O O10 0.150948 0.172234 0.500620
O O11 0.939151 0.201785 0.451635
O O12 0.053567 0.565673 0.750000
O O13 0.178056 0.607450 0.568655
O O14 0.949681 0.603721 0.540177
O O15 0.679070 0.357945 0.250000
O O16 0.722946 0.326986 0.990681
O O17 0.820129 0.632954 0.750000
O O18 0.726530 0.604209 0.501614
O O19 0.219587 0.711504 0.250000
O O20 0.233923 0.750000 0.000000
O O21 0.280832 0.065214 0.250000
#
# Coordination Sequence:
#
# PCOD9434534 Si02
#       8
#     8   8   8   8   8   8   8   8
#     4  10  20  35  57  81 105 136 178 227 276 323
#     4   9  20  37  56  78 104 137 179 227 272 320
#     4  10  20  34  55  82 112 146 181 219 264 314
#     4   9  19  34  52  76 107 142 176 216 269 321
#     4  10  18  31  53  79 107 138 174 218 268 320
#     4  11  22  37  56  79 112 146 183 226 266 320
#     4  10  19  30  49  78 112 143 174 213 261 319
#     4  11  23  38  55  77 107 143 184 226 271 320
#
# _framework density 18.508642999999999
#
# number of rings (size 3 to 8) (size 9 to 14) (size 15 to 20)
#    0.000    2.000    1.250    2.625    0.000    4.500 
#    0.000    0.000    0.000    0.750    0.000    0.000 
#    0.000    0.000    0.000    0.000    0.000    0.000 
#
# Total GULP energy -357451.400887 kJ/mol
# GULP energy per Si atom -5585.178139 kJ/mol
# Density = 1.846652 g / cm^3
# Si number density = 18.508643 Si / 1000 Ang^3
#
#
#
# Elastic Constant Matrix: (Units=GPa)
#
#
# Indices 1 2 3 4 5 6 
#
# 1 31.8790 12.8719 18.2688 0.0000 0.0000 0.0000
# 2 12.8719 123.4062 69.2839 0.0000 0.0000 0.0000
# 3 18.2688 69.2839 64.4237 0.0000 0.0000 0.0000
# 4 0.0000 0.0000 0.0000 38.6204 0.0000 0.0000
# 5 0.0000 0.0000 0.0000 0.0000 19.1740 0.0000
# 6 0.0000 0.0000 0.0000 0.0000 0.0000 25.3066
#
#
#
# Elastic Compliance Matrix: (Units=1/GPa)
#
#
# Indices 1 2 3 4 5 6 
#
# 1 0.038820 0.005379 -0.016793 0.000000 0.000000 0.000000
# 2 0.005379 0.021197 -0.024322 0.000000 0.000000 0.000000
# 3 -0.016793 -0.024322 0.046441 0.000000 0.000000 0.000000
# 4 0.000000 0.000000 0.000000 0.025893 0.000000 0.000000
# 5 0.000000 0.000000 0.000000 0.000000 0.052154 0.000000
# 6 0.000000 0.000000 0.000000 0.000000 0.000000 0.039515
#
#
# Mechanical properties :
#
#
# Convention : Reuss Voigt Hill
#
# Bulk Modulus (GPa) = 28.58230 46.72866 37.65548
# Shear Modulus (GPa) = 16.27848 24.57250 20.42549
#
# Velocity S-wave (km/s) = 2.96887 3.64761 3.32560
# Velocity P-wave (km/s) = 5.21809 6.56063 5.92749
#
# Compressibility (1/GPa) = 0.03498669
#
# Stress axis : x y z
#
# Youngs Moduli (GPa) = 25.75970 47.17633 21.53285
#
# Poissons Ratio (x) = -0.25376 0.36161
# Poissons Ratio (y) = -0.13856 0.52371
# Poissons Ratio (z) = 0.43259 1.14740
#
# Static dielectric constant tensor:
#      x y z
#    x 1.651970 0.000000 0.000000 
#    y 0.000000 1.614850 0.000000 
#    z 0.000000 0.000000 1.614850 
# 
# From -- ./inp_files/3797.got.cif
#   From: 2010.05.17/outbox.cif.g08.bks.cpg/sg57_2_cif.got.tgz:3797.got - 2010.06.03 13:58:18.
