data_PCOD9434332
_publ_section_title
;
Structure prediction by ZEFSAII (Michael W. Deem and Ramdas Pophale) SiO2 
 PCOD9434332
Probable space group: P B C M
;
_chemical_formula_sum "Si O2"
_cell_formula_units_Z 56
_cell_length_a 18.448698
_cell_length_b 20.005220
_cell_length_c 9.212052
_cell_angle_alpha 90.000000
_cell_angle_beta 90.000000
_cell_angle_gamma 90.000000
_cell_volume 3399.894447
_symmetry_space_group_name_H-M "P B C M"
_symmetry_group_IT_number 57
_symmetry_cell_setting 'orthorhombic'
loop_
_space_group_symop_operation_xyz
x,y,z
-x,-y,1/2+z
x,1/2-y,-z
-x,1/2+y,1/2-z
-x,-y,-z
x,y,1/2-z
-x,1/2+y,z
x,1/2-y,1/2+z
loop_
_atom_site_type_symbol
_atom_site_label
_atom_site_fract_x
_atom_site_fract_y
_atom_site_fract_z
Si Si1 0.802039 0.549071 0.079176
Si Si2 0.657473 0.934990 0.082029
Si Si3 0.965496 0.564236 0.076200
Si Si4 0.786124 0.388409 0.419684
Si Si5 0.643118 0.402408 0.583036
Si Si6 0.485710 0.428525 0.924212
Si Si7 0.920015 0.180109 0.423181
O O1 0.791654 0.563645 0.250000
O O2 0.881684 0.572591 0.032159
O O3 0.800283 0.468182 0.064268
O O4 0.735362 0.578479 0.988811
O O5 0.653807 0.915264 0.250000
O O6 0.649383 0.016307 0.077216
O O7 0.590189 0.905214 0.991743
O O8 0.965396 0.552875 0.250000
O O9 0.015757 0.627660 0.045419
O O10 0.000000 0.500000 0.000000
O O11 0.792493 0.371712 0.250000
O O12 0.705254 0.375190 0.478717
O O13 0.845840 0.349951 0.512468
O O14 0.657343 0.382930 0.750000
O O15 0.559311 0.387036 0.546454
O O16 0.480122 0.436766 0.750000
O O17 0.500000 0.500000 0.000000
O O18 0.934725 0.250000 0.500000
O O19 0.914038 0.187822 0.250000
#
# Coordination Sequence:
#
# PCOD9434332 Si02
#       7
#     8   8   8   8   8   8   8
#     4   9  17  29  45  67  93 121 157 199 243 293
#     4   9  16  24  36  57  86 120 155 191 235 282
#     4  10  20  34  53  75  97 126 163 207 253 300
#     4  10  18  29  47  68  92 122 159 199 241 289
#     4   8  15  25  37  56  84 118 156 192 230 278
#     4   9  15  23  35  53  81 118 156 192 232 278
#     4  11  23  37  53  72  99 131 164 204 251 300
#
# _framework density 16.471098999999999
#
# number of rings (size 3 to 8) (size 9 to 14) (size 15 to 20)
#    0.000    2.571    1.429    2.571    0.000    5.714 
#    0.000    0.000    0.000    0.000    0.000    0.000 
#    0.000    1.143    0.000    7.714    0.000    7.429 
#
# Total GULP energy -312005.541059 kJ/mol
# GULP energy per Si atom -5571.527519 kJ/mol
# Density = 1.643361 g / cm^3
# Si number density = 16.471099 Si / 1000 Ang^3
#
#
#
# Elastic Constant Matrix: (Units=GPa)
#
#
# Indices 1 2 3 4 5 6 
#
# 1 183.1166 40.5192 86.4405 0.0000 0.0000 0.0000
# 2 40.5192 33.8238 39.4106 0.0000 0.0000 0.0000
# 3 86.4405 39.4106 91.8853 0.0000 0.0000 0.0000
# 4 0.0000 0.0000 0.0000 14.5834 0.0000 0.0000
# 5 0.0000 0.0000 0.0000 0.0000 29.8956 0.0000
# 6 0.0000 0.0000 0.0000 0.0000 0.0000 5.5798
#
#
#
# Elastic Compliance Matrix: (Units=1/GPa)
#
#
# Indices 1 2 3 4 5 6 
#
# 1 0.009891 -0.002013 -0.008442 0.000000 0.000000 0.000000
# 2 -0.002013 0.059511 -0.023631 0.000000 0.000000 0.000000
# 3 -0.008442 -0.023631 0.028960 0.000000 0.000000 0.000000
# 4 0.000000 0.000000 0.000000 0.068571 0.000000 0.000000
# 5 0.000000 0.000000 0.000000 0.000000 0.033450 0.000000
# 6 0.000000 0.000000 0.000000 0.000000 0.000000 0.179217
#
#
# Mechanical properties :
#
#
# Convention : Reuss Voigt Hill
#
# Bulk Modulus (GPa) = 33.12280 71.28512 52.20396
# Shear Modulus (GPa) = 10.92095 19.50879 15.21487
#
# Velocity S-wave (km/s) = 2.57774 3.44528 3.04259
# Velocity P-wave (km/s) = 5.38637 7.69412 6.64125
#
# Compressibility (1/GPa) = 0.03019068
#
# Stress axis : x y z
#
# Youngs Moduli (GPa) = 101.09732 16.80366 34.53022
#
# Poissons Ratio (x) = 0.03383 0.29150
# Poissons Ratio (y) = 0.20354 0.81598
# Poissons Ratio (z) = 0.85344 0.39708
#
# Static dielectric constant tensor:
#      x y z
#    x 1.543730 0.000000 0.000000 
#    y 0.000000 1.495780 0.000000 
#    z 0.000000 0.000000 1.565350 
# 
# From -- ./inp_files/7322.got.cif
#   From: 2010.05.17/outbox.cif.g08.bks.cpg/sg57_4_cif.got.tgz:7322.got - 2010.06.03 13:58:18.
