data_PCOD9434903
_publ_section_title
;
Structure prediction by ZEFSAII (Michael W. Deem and Ramdas Pophale) SiO2 
 PCOD9434903
Probable space group: P B C M
;
_chemical_formula_sum "Si O2"
_cell_formula_units_Z 48
_cell_length_a 16.842632
_cell_length_b 19.176239
_cell_length_c 8.570093
_cell_angle_alpha 90.000000
_cell_angle_beta 90.000000
_cell_angle_gamma 90.000000
_cell_volume 2767.954382
_symmetry_space_group_name_H-M "P B C M"
_symmetry_group_IT_number 57
_symmetry_cell_setting 'orthorhombic'
loop_
_space_group_symop_operation_xyz
x,y,z
-x,-y,1/2+z
x,1/2-y,-z
-x,1/2+y,1/2-z
-x,-y,-z
x,y,1/2-z
-x,1/2+y,z
x,1/2-y,1/2+z
loop_
_atom_site_type_symbol
_atom_site_label
_atom_site_fract_x
_atom_site_fract_y
_atom_site_fract_z
Si Si1 0.756654 0.458671 0.940004
Si Si2 0.163711 0.173376 0.938256
Si Si3 0.339902 0.827181 0.561469
Si Si4 0.326363 0.100208 0.937999
Si Si5 0.479749 0.172488 0.436386
Si Si6 0.082080 0.469678 0.438573
O O1 0.757512 0.457327 0.750000
O O2 0.721857 0.385376 0.994246
O O3 0.699094 0.522367 0.984927
O O4 0.844788 0.480773 0.989388
O O5 0.162809 0.175121 0.750000
O O6 0.253232 0.150592 0.986727
O O7 0.105894 0.109470 0.987028
O O8 0.143841 0.250000 0.000000
O O9 0.323079 0.750000 0.500000
O O10 0.338058 0.825447 0.750000
O O11 0.430347 0.846538 0.514592
O O12 0.329496 0.102598 0.750000
O O13 0.410396 0.123215 0.003386
O O14 0.464174 0.250000 0.500000
O O15 0.477802 0.174137 0.250000
O O16 0.080356 0.469539 0.250000
O O17 0.000000 0.500000 0.500000
#
# Coordination Sequence:
#
# PCOD9434903 Si02
#       6
#     8   8   8   8   8   8
#     4   8  16  33  53  69  91 125 157 187 235 290
#     4   9  18  31  48  71  97 125 157 190 228 279
#     4   9  18  33  50  67  91 126 164 198 233 274
#     4   9  17  30  48  69  94 125 158 192 232 279
#     4  10  19  29  43  66  95 126 161 198 233 271
#     4   9  18  34  54  74  96 123 155 191 234 284
#
# _framework density 17.341325999999999
#
# number of rings (size 3 to 8) (size 9 to 14) (size 15 to 20)
#    0.000    3.000    0.000    3.000    0.000    4.000 
#    0.000    5.000    0.000    4.000    0.000    0.000 
#    0.000    0.000    0.000    0.000    0.000    0.000 
#
# Total GULP energy -267472.901160 kJ/mol
# GULP energy per Si atom -5572.352108 kJ/mol
# Density = 1.730186 g / cm^3
# Si number density = 17.341326 Si / 1000 Ang^3
#
#
#
# Elastic Constant Matrix: (Units=GPa)
#
#
# Indices 1 2 3 4 5 6 
#
# 1 133.0858 114.8495 23.5495 0.0000 0.0000 0.0000
# 2 114.8495 148.2211 24.3338 0.0000 0.0000 0.0000
# 3 23.5495 24.3338 9.0780 0.0000 0.0000 0.0000
# 4 0.0000 0.0000 0.0000 23.9501 0.0000 0.0000
# 5 0.0000 0.0000 0.0000 0.0000 20.9513 0.0000
# 6 0.0000 0.0000 0.0000 0.0000 0.0000 22.5707
#
#
#
# Elastic Compliance Matrix: (Units=1/GPa)
#
#
# Indices 1 2 3 4 5 6 
#
# 1 0.025152 -0.015675 -0.023229 0.000000 0.000000 0.000000
# 2 -0.015675 0.021818 -0.017821 0.000000 0.000000 0.000000
# 3 -0.023229 -0.017821 0.218185 0.000000 0.000000 0.000000
# 4 0.000000 0.000000 0.000000 0.041753 0.000000 0.000000
# 5 0.000000 0.000000 0.000000 0.000000 0.047730 0.000000
# 6 0.000000 0.000000 0.000000 0.000000 0.000000 0.044305
#
#
# Mechanical properties :
#
#
# Convention : Reuss Voigt Hill
#
# Bulk Modulus (GPa) = 6.59174 68.42782 37.50978
# Shear Modulus (GPa) = 8.88159 22.00455 15.44307
#
# Velocity S-wave (km/s) = 2.26556 3.56604 2.98742
# Velocity P-wave (km/s) = 3.26391 7.51669 5.79455
#
# Compressibility (1/GPa) = 0.15170499
#
# Stress axis : x y z
#
# Youngs Moduli (GPa) = 39.75885 45.83267 4.58327
#
# Poissons Ratio (x) = 0.71844 0.10646
# Poissons Ratio (y) = 0.62323 0.08168
# Poissons Ratio (z) = 0.92354 0.81679
#
# Static dielectric constant tensor:
#      x y z
#    x 1.581750 0.000000 0.000000 
#    y 0.000000 1.582310 0.000000 
#    z 0.000000 0.000000 1.596670 
# 
# From -- ./inp_files/4633.got.cif
#   From: 2010.05.17/outbox.cif.g08.bks.cpg/sg57_3_cif.got.tgz:4633.got - 2010.06.03 13:58:18.
