data_PCOD9434492
_publ_section_title
;
Structure prediction by ZEFSAII (Michael W. Deem and Ramdas Pophale) SiO2 
 PCOD9434492
Probable space group: P B C M
;
_chemical_formula_sum "Si O2"
_cell_formula_units_Z 64
_cell_length_a 21.204256
_cell_length_b 21.098791
_cell_length_c 8.706307
_cell_angle_alpha 90.000000
_cell_angle_beta 90.000000
_cell_angle_gamma 90.000000
_cell_volume 3895.063893
_symmetry_space_group_name_H-M "P B C M"
_symmetry_group_IT_number 57
_symmetry_cell_setting 'orthorhombic'
loop_
_space_group_symop_operation_xyz
x,y,z
-x,-y,1/2+z
x,1/2-y,-z
-x,1/2+y,1/2-z
-x,-y,-z
x,y,1/2-z
-x,1/2+y,z
x,1/2-y,1/2+z
loop_
_atom_site_type_symbol
_atom_site_label
_atom_site_fract_x
_atom_site_fract_y
_atom_site_fract_z
Si Si1 0.326294 0.500053 0.566888
Si Si2 0.547757 0.052658 0.066136
Si Si3 0.928387 0.683759 0.071119
Si Si4 0.195255 0.484323 0.429111
Si Si5 0.485146 0.315184 0.564630
Si Si6 0.786621 0.649721 0.429921
Si Si7 0.348789 0.147569 0.065661
Si Si8 0.943804 0.957221 0.064718
O O1 0.329988 0.504452 0.750000
O O2 0.381657 0.540576 0.491949
O O3 0.255009 0.515245 0.513782
O O4 0.341787 0.426649 0.523556
O O5 0.545671 0.048218 0.250000
O O6 0.522869 0.121913 0.020273
O O7 0.500000 0.000000 0.000000
O O8 0.945880 0.680549 0.250000
O O9 0.851810 0.686546 0.062029
O O10 0.952616 0.750000 0.000000
O O11 0.946075 0.616005 0.994260
O O12 0.198445 0.500148 0.250000
O O13 0.205672 0.409551 0.457794
O O14 0.122846 0.490209 0.483899
O O15 0.511567 0.250000 0.500000
O O16 0.484512 0.312135 0.750000
O O17 0.413235 0.323811 0.503439
O O18 0.781623 0.627357 0.250000
O O19 0.718778 0.678747 0.469977
O O20 0.355449 0.149419 0.250000
O O21 0.944745 0.955786 0.250000
O O22 0.000000 0.000000 0.000000
#
# Coordination Sequence:
#
# PCOD9434492 Si02
#       8
#     8   8   8   8   8   8   8   8
#     4  10  18  31  51  73  98 128 164 209 255 300
#     4  11  21  34  52  74  98 126 167 214 258 303
#     4  10  19  31  47  70 100 137 178 216 255 297
#     4   9  17  29  46  73 103 129 163 206 248 295
#     4  10  21  35  47  65  95 128 163 207 254 305
#     4   8  15  27  44  63  91 131 168 204 243 286
#     4   8  14  28  45  63  91 125 161 200 242 285
#     4  10  20  34  53  77 107 140 175 213 255 307
#
# _framework density 16.431052999999999
#
# number of rings (size 3 to 8) (size 9 to 14) (size 15 to 20)
#    0.000    2.500    1.250    2.625    0.000    3.500 
#    0.000    0.625    0.000    0.000    0.000    0.875 
#    0.000    4.000    0.000    0.000    0.000    0.000 
#
# Total GULP energy -356292.125619 kJ/mol
# GULP energy per Si atom -5567.064463 kJ/mol
# Density = 1.639366 g / cm^3
# Si number density = 16.431053 Si / 1000 Ang^3
#
#
#
# Elastic Constant Matrix: (Units=GPa)
#
#
# Indices 1 2 3 4 5 6 
#
# 1 111.1015 57.9177 35.8949 0.0000 0.0000 0.0000
# 2 57.9177 98.3524 35.7548 0.0000 0.0000 0.0000
# 3 35.8949 35.7548 40.9019 0.0000 0.0000 0.0000
# 4 0.0000 0.0000 0.0000 20.5322 0.0000 0.0000
# 5 0.0000 0.0000 0.0000 0.0000 21.5373 0.0000
# 6 0.0000 0.0000 0.0000 0.0000 0.0000 8.9956
#
#
#
# Elastic Compliance Matrix: (Units=1/GPa)
#
#
# Indices 1 2 3 4 5 6 
#
# 1 0.014471 -0.005724 -0.007696 0.000000 0.000000 0.000000
# 2 -0.005724 0.017168 -0.009984 0.000000 0.000000 0.000000
# 3 -0.007696 -0.009984 0.039930 0.000000 0.000000 0.000000
# 4 0.000000 0.000000 0.000000 0.048704 0.000000 0.000000
# 5 0.000000 0.000000 0.000000 0.000000 0.046431 0.000000
# 6 0.000000 0.000000 0.000000 0.000000 0.000000 0.111165
#
#
# Mechanical properties :
#
#
# Convention : Reuss Voigt Hill
#
# Bulk Modulus (GPa) = 40.38591 56.61008 48.49800
# Shear Modulus (GPa) = 15.01811 18.26560 16.64185
#
# Velocity S-wave (km/s) = 3.02654 3.33776 3.18595
# Velocity P-wave (km/s) = 6.07006 7.02724 6.56611
#
# Compressibility (1/GPa) = 0.02476111
#
# Stress axis : x y z
#
# Youngs Moduli (GPa) = 69.10298 58.24830 25.04357
#
# Poissons Ratio (x) = 0.33341 0.19274
# Poissons Ratio (y) = 0.39554 0.25004
# Poissons Ratio (z) = 0.53182 0.58156
#
# Static dielectric constant tensor:
#      x y z
#    x 1.585550 0.000000 0.000000 
#    y 0.000000 1.557760 0.000000 
#    z 0.000000 0.000000 1.556040 
# 
# From -- ./inp_files/8709.got.cif
#   From: 2010.05.17/outbox.cif.g08.bks.cpg/sg57_5_cif.got.tgz:8709.got - 2010.06.03 13:58:18.
