data_PCOD9434852
_publ_section_title
;
Structure prediction by ZEFSAII (Michael W. Deem and Ramdas Pophale) SiO2 
 PCOD9434852
Probable space group: P B C M
;
_chemical_formula_sum "Si O2"
_cell_formula_units_Z 56
_cell_length_a 13.445355
_cell_length_b 12.308925
_cell_length_c 15.148176
_cell_angle_alpha 90.000000
_cell_angle_beta 90.000000
_cell_angle_gamma 90.000000
_cell_volume 2506.990806
_symmetry_space_group_name_H-M "P B C M"
_symmetry_group_IT_number 57
_symmetry_cell_setting 'orthorhombic'
loop_
_space_group_symop_operation_xyz
x,y,z
-x,-y,1/2+z
x,1/2-y,-z
-x,1/2+y,1/2-z
-x,-y,-z
x,y,1/2-z
-x,1/2+y,z
x,1/2-y,1/2+z
loop_
_atom_site_type_symbol
_atom_site_label
_atom_site_fract_x
_atom_site_fract_y
_atom_site_fract_z
Si Si1 0.952368 0.876340 0.510507
Si Si2 0.348728 0.208827 0.399375
Si Si3 0.800042 0.538297 0.143785
Si Si4 0.524048 0.154454 0.850857
Si Si5 0.714233 0.138750 0.972191
Si Si6 0.637006 0.463492 0.849033
Si Si7 0.813475 0.872791 0.158129
O O1 0.996318 0.750000 0.500000
O O2 0.888254 0.887774 0.601812
O O3 0.875952 0.873729 0.429331
O O4 0.000000 0.000000 0.500000
O O5 0.342194 0.250000 0.500000
O O6 0.308015 0.089689 0.382394
O O7 0.457928 0.237809 0.367085
O O8 0.268161 0.278183 0.346073
O O9 0.807934 0.524954 0.250000
O O10 0.793930 0.432243 0.081857
O O11 0.552846 0.145940 0.750000
O O12 0.621558 0.156065 0.907719
O O13 0.448055 0.054115 0.868183
O O14 0.764852 0.250000 0.000000
O O15 0.658763 0.099659 0.061414
O O16 0.616618 0.416420 0.750000
O O17 0.743456 0.522818 0.840195
O O18 0.871884 0.865196 0.250000
#
# Coordination Sequence:
#
# PCOD9434852 Si02
#       7
#     8   8   8   8   8   8   8
#     4  12  26  47  75 110 147 182 231 298 364 439
#     4  11  18  36  68  99 131 173 230 292 350 412
#     4  12  24  44  72 101 134 184 240 297 359 435
#     4  10  21  36  57  95 133 174 229 294 356 419
#     4  12  25  40  57  86 138 190 236 291 357 429
#     4   9  19  37  63  89 120 168 231 289 345 415
#     4  10  18  38  69  98 129 172 224 280 346 415
#
# _framework density 22.337537999999999
#
# number of rings (size 3 to 8) (size 9 to 14) (size 15 to 20)
#    0.000    1.143    4.286    4.286    0.000    3.429 
#    0.000    1.429    0.000    0.000    0.000    0.000 
#    0.000    0.000    0.000    0.000    0.000    0.000 
#
# Total GULP energy -312072.374347 kJ/mol
# GULP energy per Si atom -5572.720970 kJ/mol
# Density = 2.228670 g / cm^3
# Si number density = 22.337538 Si / 1000 Ang^3
#
#
#
# Elastic Constant Matrix: (Units=GPa)
#
#
# Indices 1 2 3 4 5 6 
#
# 1 58.3679 21.0427 22.1181 0.0000 0.0000 0.0000
# 2 21.0427 110.9860 43.7311 0.0000 0.0000 0.0000
# 3 22.1181 43.7311 164.5230 0.0000 0.0000 0.0000
# 4 0.0000 0.0000 0.0000 50.9535 0.0000 0.0000
# 5 0.0000 0.0000 0.0000 0.0000 0.2110 0.0000
# 6 0.0000 0.0000 0.0000 0.0000 0.0000 32.7147
#
#
#
# Elastic Compliance Matrix: (Units=1/GPa)
#
#
# Indices 1 2 3 4 5 6 
#
# 1 0.018839 -0.002875 -0.001769 0.000000 0.000000 0.000000
# 2 -0.002875 0.010503 -0.002405 0.000000 0.000000 0.000000
# 3 -0.001769 -0.002405 0.006955 0.000000 0.000000 0.000000
# 4 0.000000 0.000000 0.000000 0.019626 0.000000 0.000000
# 5 0.000000 0.000000 0.000000 0.000000 4.739586 0.000000
# 6 0.000000 0.000000 0.000000 0.000000 0.000000 0.030567
#
#
# Mechanical properties :
#
#
# Convention : Reuss Voigt Hill
#
# Bulk Modulus (GPa) = 45.04508 56.40674 50.72591
# Shear Modulus (GPa) = 1.03144 33.24152 17.13648
#
# Velocity S-wave (km/s) = 0.68026 3.86183 2.77277
# Velocity P-wave (km/s) = 4.56360 6.72249 5.74536
#
# Compressibility (1/GPa) = 0.02219999
#
# Stress axis : x y z
#
# Youngs Moduli (GPa) = 53.08030 95.21115 143.77620
#
# Poissons Ratio (x) = 0.27374 0.25427
# Poissons Ratio (y) = 0.15261 0.34581
# Poissons Ratio (z) = 0.09387 0.22900
#
# Static dielectric constant tensor:
#      x y z
#    x 1.796870 0.000000 0.000000 
#    y 0.000000 2.053730 0.000000 
#    z 0.000000 0.000000 1.783780 
# 
# From -- ./inp_files/18518.got.cif
#   From: 2010.05.17/outbox.cif.g08.bks.cpg/sg57_10_cif.got.tgz:18518.got - 2010.06.03 13:58:18.
