data_PCOD9434652
_publ_section_title
;
Structure prediction by ZEFSAII (Michael W. Deem and Ramdas Pophale) SiO2 
 PCOD9434652
Probable space group: P B C M
;
_chemical_formula_sum "Si O2"
_cell_formula_units_Z 48
_cell_length_a 11.798983
_cell_length_b 9.534269
_cell_length_c 16.444072
_cell_angle_alpha 90.000000
_cell_angle_beta 90.000000
_cell_angle_gamma 90.000000
_cell_volume 1849.870582
_symmetry_space_group_name_H-M "P B C M"
_symmetry_group_IT_number 57
_symmetry_cell_setting 'orthorhombic'
loop_
_space_group_symop_operation_xyz
x,y,z
-x,-y,1/2+z
x,1/2-y,-z
-x,1/2+y,1/2-z
-x,-y,-z
x,y,1/2-z
-x,1/2+y,z
x,1/2-y,1/2+z
loop_
_atom_site_type_symbol
_atom_site_label
_atom_site_fract_x
_atom_site_fract_y
_atom_site_fract_z
Si Si1 0.965873 0.798959 0.342391
Si Si2 0.909885 0.066867 0.438235
Si Si3 0.364562 0.819400 0.662450
Si Si4 0.696572 0.091067 0.946256
Si Si5 0.538342 0.612991 0.601552
Si Si6 0.283522 0.184268 0.155002
O O1 0.010811 0.796874 0.250000
O O2 0.924269 0.956179 0.364318
O O3 0.849660 0.711899 0.347443
O O4 0.048520 0.718580 0.405305
O O5 0.791331 0.054969 0.487852
O O6 0.000000 0.000000 0.500000
O O7 0.309634 0.836351 0.750000
O O8 0.284857 0.739318 0.598544
O O9 0.466172 0.707110 0.664445
O O10 0.417846 0.966340 0.635920
O O11 0.561307 0.102101 0.967312
O O12 0.696283 0.970402 0.878610
O O13 0.649753 0.709418 0.594908
O O14 0.316910 0.199673 0.250000
#
# Coordination Sequence:
#
# PCOD9434652 Si02
#       6
#     8   8   8   8   8   8
#     4  11  27  52  86 116 152 213 283 341 413 498
#     4  12  25  52  81 117 163 207 265 353 424 480
#     4  10  18  32  60 105 162 224 285 338 394 487
#     4  10  22  37  68 110 157 218 260 335 427 485
#     4  10  20  35  64 108 164 222 277 332 410 480
#     4  11  21  39  69 112 162 219 281 336 400 494
#
# _framework density 25.947762999999998
#
# number of rings (size 3 to 8) (size 9 to 14) (size 15 to 20)
#    1.000    0.333    3.333    3.000    0.000    0.000 
#    6.000    0.833    0.000    0.000    0.000    1.167 
#    0.000   10.667    0.000    0.000    0.000    0.000 
#
# Total GULP energy -268072.295041 kJ/mol
# GULP energy per Si atom -5584.839480 kJ/mol
# Density = 2.588870 g / cm^3
# Si number density = 25.947763 Si / 1000 Ang^3
#
#
#
# Elastic Constant Matrix: (Units=GPa)
#
#
# Indices 1 2 3 4 5 6 
#
# 1 153.6595 48.9662 61.5932 0.0000 0.0000 0.0000
# 2 48.9662 172.9280 37.8012 0.0000 0.0000 0.0000
# 3 61.5932 37.8012 115.3680 0.0000 0.0000 0.0000
# 4 0.0000 0.0000 0.0000 54.1152 0.0000 0.0000
# 5 0.0000 0.0000 0.0000 0.0000 30.1513 0.0000
# 6 0.0000 0.0000 0.0000 0.0000 0.0000 29.2703
#
#
#
# Elastic Compliance Matrix: (Units=1/GPa)
#
#
# Indices 1 2 3 4 5 6 
#
# 1 0.008649 -0.001551 -0.004110 0.000000 0.000000 0.000000
# 2 -0.001551 0.006507 -0.001304 0.000000 0.000000 0.000000
# 3 -0.004110 -0.001304 0.011289 0.000000 0.000000 0.000000
# 4 0.000000 0.000000 0.000000 0.018479 0.000000 0.000000
# 5 0.000000 0.000000 0.000000 0.000000 0.033166 0.000000
# 6 0.000000 0.000000 0.000000 0.000000 0.000000 0.034164
#
#
# Mechanical properties :
#
#
# Convention : Reuss Voigt Hill
#
# Bulk Modulus (GPa) = 79.89435 82.07519 80.98477
# Shear Modulus (GPa) = 38.35637 42.28036 40.31836
#
# Velocity S-wave (km/s) = 3.84893 4.04101 3.94614
# Velocity P-wave (km/s) = 7.11404 7.31250 7.21395
#
# Compressibility (1/GPa) = 0.01251653
#
# Stress axis : x y z
#
# Youngs Moduli (GPa) = 115.61477 153.68189 88.57952
#
# Poissons Ratio (x) = 0.23833 0.36403
# Poissons Ratio (y) = 0.17930 0.11552
# Poissons Ratio (z) = 0.47514 0.20042
#
# Static dielectric constant tensor:
#      x y z
#    x 2.059730 0.000000 0.000000 
#    y 0.000000 2.093890 0.000000 
#    z 0.000000 0.000000 2.086780 
# 
# From -- ./inp_files/21842.got.cif
#   From: 2010.05.17/outbox.cif.g08.bks.cpg/sg57_11_cif.got.tgz:21842.got - 2010.06.03 13:58:18.
