data_PCOD9434325
_publ_section_title
;
Structure prediction by ZEFSAII (Michael W. Deem and Ramdas Pophale) SiO2 
 PCOD9434325
Probable space group: P B C M
;
_chemical_formula_sum "Si O2"
_cell_formula_units_Z 64
_cell_length_a 15.416590
_cell_length_b 30.820898
_cell_length_c 8.109376
_cell_angle_alpha 90.000000
_cell_angle_beta 90.000000
_cell_angle_gamma 90.000000
_cell_volume 3853.195534
_symmetry_space_group_name_H-M "P B C M"
_symmetry_group_IT_number 57
_symmetry_cell_setting 'orthorhombic'
loop_
_space_group_symop_operation_xyz
x,y,z
-x,-y,1/2+z
x,1/2-y,-z
-x,1/2+y,1/2-z
-x,-y,-z
x,y,1/2-z
-x,1/2+y,z
x,1/2-y,1/2+z
loop_
_atom_site_type_symbol
_atom_site_label
_atom_site_fract_x
_atom_site_fract_y
_atom_site_fract_z
Si Si1 0.324323 0.537851 0.449216
Si Si2 0.791251 0.616334 0.050461
Si Si3 0.127044 0.971117 0.550142
Si Si4 0.459989 0.609038 0.946201
Si Si5 0.701143 0.702929 0.051234
Si Si6 0.630138 0.942161 0.050789
Si Si7 0.949653 0.563939 0.051572
Si Si8 0.502296 0.797224 0.553956
O O1 0.323508 0.536994 0.250000
O O2 0.224243 0.539068 0.506575
O O3 0.380167 0.578788 0.503726
O O4 0.367061 0.492228 0.505844
O O5 0.793445 0.617444 0.250000
O O6 0.758094 0.662888 0.990461
O O7 0.885709 0.601457 0.990163
O O8 0.718800 0.581296 0.000523
O O9 0.128177 0.971068 0.750000
O O10 0.049068 0.939517 0.493176
O O11 0.097295 0.018804 0.493986
O O12 0.466347 0.609432 0.750000
O O13 0.548066 0.585658 0.011768
O O14 0.454487 0.658837 0.002511
O O15 0.698315 0.700963 0.250000
O O16 0.601753 0.698954 0.988823
O O17 0.734153 0.750000 0.000000
O O18 0.626606 0.942601 0.250000
O O19 0.952890 0.566755 0.250000
O O20 0.468069 0.750000 0.500000
O O21 0.506276 0.796664 0.750000
#
# Coordination Sequence:
#
# PCOD9434325 Si02
#       8
#     8   8   8   8   8   8   8   8
#     4  10  20  33  47  64  93 130 165 200 237 279
#     4  10  18  29  46  69  95 123 155 189 232 281
#     4   9  17  30  46  66  92 121 155 193 233 277
#     4  11  22  33  47  69  94 125 164 200 238 281
#     4   9  18  30  45  66  91 121 152 187 227 274
#     4  10  20  32  45  65  94 128 163 196 229 275
#     4   9  17  28  46  69  92 119 152 191 232 277
#     4  10  19  33  51  70  94 122 155 194 237 282
#
# _framework density 16.609591000000002
#
# number of rings (size 3 to 8) (size 9 to 14) (size 15 to 20)
#    0.000    2.250    2.500    1.125    0.000    2.500 
#    0.000    0.000    0.000    0.000    0.000    0.875 
#    0.000    2.000    0.000    0.000    0.000    0.000 
#
# Total GULP energy -356837.992103 kJ/mol
# GULP energy per Si atom -5575.593627 kJ/mol
# Density = 1.657179 g / cm^3
# Si number density = 16.609591 Si / 1000 Ang^3
#
#
#
# Elastic Constant Matrix: (Units=GPa)
#
#
# Indices 1 2 3 4 5 6 
#
# 1 74.0020 52.9884 7.9155 0.0000 0.0000 0.0000
# 2 52.9884 145.2648 11.7141 0.0000 0.0000 0.0000
# 3 7.9155 11.7141 11.6227 0.0000 0.0000 0.0000
# 4 0.0000 0.0000 0.0000 20.0792 0.0000 0.0000
# 5 0.0000 0.0000 0.0000 0.0000 11.0957 0.0000
# 6 0.0000 0.0000 0.0000 0.0000 0.0000 21.1367
#
#
#
# Elastic Compliance Matrix: (Units=1/GPa)
#
#
# Indices 1 2 3 4 5 6 
#
# 1 0.018716 -0.006312 -0.006384 0.000000 0.000000 0.000000
# 2 -0.006312 0.009622 -0.005399 0.000000 0.000000 0.000000
# 3 -0.006384 -0.005399 0.095828 0.000000 0.000000 0.000000
# 4 0.000000 0.000000 0.000000 0.049803 0.000000 0.000000
# 5 0.000000 0.000000 0.000000 0.000000 0.090125 0.000000
# 6 0.000000 0.000000 0.000000 0.000000 0.000000 0.047311
#
#
# Mechanical properties :
#
#
# Convention : Reuss Voigt Hill
#
# Bulk Modulus (GPa) = 11.36686 41.79174 26.57930
# Shear Modulus (GPa) = 13.26541 21.01374 17.13957
#
# Velocity S-wave (km/s) = 2.82912 3.56076 3.21582
# Velocity P-wave (km/s) = 4.18692 6.49009 5.46130
#
# Compressibility (1/GPa) = 0.08797502
#
# Stress axis : x y z
#
# Youngs Moduli (GPa) = 53.43087 103.93049 10.43538
#
# Poissons Ratio (x) = 0.65602 0.06662
# Poissons Ratio (y) = 0.33726 0.05634
# Poissons Ratio (z) = 0.34112 0.56109
#
# Static dielectric constant tensor:
#      x y z
#    x 1.569800 0.000000 0.000000 
#    y 0.000000 1.565790 0.000000 
#    z 0.000000 0.000000 1.576640 
# 
# From -- ./inp_files/5984.got.cif
#   From: 2010.05.17/outbox.cif.g08.bks.cpg/sg57_3_cif.got.tgz:5984.got - 2010.06.03 13:58:18.
