data_PCOD9434024
_publ_section_title
;
Structure prediction by ZEFSAII (Michael W. Deem and Ramdas Pophale) SiO2 
 PCOD9434024
Probable space group: P B C M
;
_chemical_formula_sum "Si O2"
_cell_formula_units_Z 48
_cell_length_a 25.535877
_cell_length_b 5.422947
_cell_length_c 14.523870
_cell_angle_alpha 90.000000
_cell_angle_beta 90.000000
_cell_angle_gamma 90.000000
_cell_volume 2011.261270
_symmetry_space_group_name_H-M "P B C M"
_symmetry_group_IT_number 57
_symmetry_cell_setting 'orthorhombic'
loop_
_space_group_symop_operation_xyz
x,y,z
-x,-y,1/2+z
x,1/2-y,-z
-x,1/2+y,1/2-z
-x,-y,-z
x,y,1/2-z
-x,1/2+y,z
x,1/2-y,1/2+z
loop_
_atom_site_type_symbol
_atom_site_label
_atom_site_fract_x
_atom_site_fract_y
_atom_site_fract_z
Si Si1 0.319201 0.714458 0.394841
Si Si2 0.199102 0.616800 0.138117
Si Si3 0.519999 0.535860 0.394351
Si Si4 0.141253 0.383033 0.638315
Si Si5 0.020797 0.284586 0.894434
Si Si6 0.360704 0.286592 0.607318
O O1 0.338556 0.750000 0.500000
O O2 0.258620 0.641753 0.394204
O O3 0.350450 0.484280 0.352945
O O4 0.327456 0.985944 0.353448
O O5 0.199922 0.616449 0.250000
O O6 0.173193 0.359592 0.108193
O O7 0.166935 0.859234 0.108279
O O8 0.500000 0.500000 0.500000
O O9 0.513338 0.262661 0.354460
O O10 0.579360 0.628028 0.389724
O O11 0.141223 0.383841 0.750000
O O12 0.081478 0.355279 0.607782
O O13 0.989275 0.514629 0.852877
O O14 0.002700 0.250000 0.000000
O O15 0.345494 0.250000 0.500000
#
# Coordination Sequence:
#
# PCOD9434024 Si02
#       6
#     8   8   8   8   8   8
#     4  10  21  32  49  72 102 134 162 214 260 303
#     4  10  21  38  55  75 102 134 179 219 259 308
#     4  10  17  24  41  63  95 139 163 190 248 313
#     4  10  21  36  57  79 101 135 177 222 257 301
#     4  10  21  36  54  81 114 143 171 208 257 312
#     4  10  18  29  43  68 103 134 161 204 253 309
#
# _framework density 23.86562
#
# number of rings (size 3 to 8) (size 9 to 14) (size 15 to 20)
#    0.000    2.000    1.667    3.000    4.667    2.000 
#    0.000    0.000    0.000    0.000    0.000    0.000 
#    0.000   13.333    0.000    0.000    0.000    0.000 
#
# Total GULP energy -268284.145560 kJ/mol
# GULP energy per Si atom -5589.253032 kJ/mol
# Density = 2.381130 g / cm^3
# Si number density = 23.865620 Si / 1000 Ang^3
#
#
#
# Elastic Constant Matrix: (Units=GPa)
#
#
# Indices 1 2 3 4 5 6 
#
# 1 103.4264 51.6732 -12.5490 0.0000 0.0000 0.0000
# 2 51.6732 235.3075 22.4579 0.0000 0.0000 0.0000
# 3 -12.5490 22.4579 85.0219 0.0000 0.0000 0.0000
# 4 0.0000 0.0000 0.0000 -15.6296 0.0000 0.0000
# 5 0.0000 0.0000 0.0000 0.0000 128.5220 0.0000
# 6 0.0000 0.0000 0.0000 0.0000 0.0000 56.9161
#
#
#
# Elastic Compliance Matrix: (Units=1/GPa)
#
#
# Indices 1 2 3 4 5 6 
#
# 1 0.011313 -0.002712 0.002386 0.000000 0.000000 0.000000
# 2 -0.002712 0.005010 -0.001724 0.000000 0.000000 0.000000
# 3 0.002386 -0.001724 0.012569 0.000000 0.000000 0.000000
# 4 0.000000 0.000000 0.000000 -0.063981 0.000000 0.000000
# 5 0.000000 0.000000 0.000000 0.000000 0.007781 0.000000
# 6 0.000000 0.000000 0.000000 0.000000 0.000000 0.017570
#
#
# Mechanical properties :
#
#
# Convention : Reuss Voigt Hill
#
# Bulk Modulus (GPa) = 40.33370 60.76889 50.55129
# Shear Modulus (GPa) = 1904.89801 58.10662 981.50231
#
# Velocity S-wave (km/s) = 28.28267 4.93966 20.30160
# Velocity P-wave (km/s) = 32.91630 7.61918 23.89074
#
# Compressibility (1/GPa) = 0.02479316
#
# Stress axis : x y z
#
# Youngs Moduli (GPa) = 88.39199 199.60728 79.55986
#
# Poissons Ratio (x) = 0.54136 -0.18984
# Poissons Ratio (y) = 0.23973 0.13713
# Poissons Ratio (z) = -0.21092 0.34405
#
# Static dielectric constant tensor:
#      x y z
#    x 1.822330 0.000000 0.000000 
#    y 0.000000 1.989570 0.000000 
#    z 0.000000 0.000000 1.891070 
# 
# From -- ./inp_files/25700.got.cif
#   From: 2010.05.17/outbox.cif.g08.bks.cpg/sg57_13_cif.got.tgz:25700.got - 2010.06.03 13:58:18.
