data_PCOD9434126
_publ_section_title
;
Structure prediction by ZEFSAII (Michael W. Deem and Ramdas Pophale) SiO2 
 PCOD9434126
Probable space group: P B C M
;
_chemical_formula_sum "Si O2"
_cell_formula_units_Z 64
_cell_length_a 15.464070
_cell_length_b 30.610744
_cell_length_c 8.511148
_cell_angle_alpha 90.000000
_cell_angle_beta 90.000000
_cell_angle_gamma 90.000000
_cell_volume 4028.893940
_symmetry_space_group_name_H-M "P B C M"
_symmetry_group_IT_number 57
_symmetry_cell_setting 'orthorhombic'
loop_
_space_group_symop_operation_xyz
x,y,z
-x,-y,1/2+z
x,1/2-y,-z
-x,1/2+y,1/2-z
-x,-y,-z
x,y,1/2-z
-x,1/2+y,z
x,1/2-y,1/2+z
loop_
_atom_site_type_symbol
_atom_site_label
_atom_site_fract_x
_atom_site_fract_y
_atom_site_fract_z
Si Si1 0.290767 0.118136 0.440145
Si Si2 0.549686 0.562608 0.060672
Si Si3 0.623497 0.031828 0.560884
Si Si4 0.179055 0.540541 0.940274
Si Si5 0.989692 0.797116 0.562143
Si Si6 0.130902 0.443743 0.940957
Si Si7 0.041282 0.892120 0.940033
Si Si8 0.205513 0.203942 0.936179
O O1 0.288339 0.121353 0.250000
O O2 0.384635 0.100526 0.487650
O O3 0.217027 0.082877 0.485542
O O4 0.264677 0.163926 0.513084
O O5 0.546190 0.562039 0.250000
O O6 0.593990 0.516787 0.009550
O O7 0.452698 0.563400 0.996559
O O8 0.624381 0.031682 0.750000
O O9 0.720727 0.041862 0.508035
O O10 0.177926 0.540782 0.750000
O O11 0.138194 0.494026 0.992830
O O12 0.122796 0.580598 0.001366
O O13 0.020547 0.750000 0.500000
O O14 0.992417 0.795657 0.750000
O O15 0.889753 0.802207 0.510555
O O16 0.037263 0.841450 0.508499
O O17 0.129115 0.444281 0.750000
O O18 0.045590 0.417803 0.993749
O O19 0.040384 0.892244 0.750000
O O20 0.195856 0.206028 0.750000
O O21 0.239457 0.250000 0.000000
#
# Coordination Sequence:
#
# PCOD9434126 Si02
#       8
#     8   8   8   8   8   8   8   8
#     4  10  17  31  51  69  95 130 163 194 238 290
#     4   9  17  29  49  70  91 124 160 194 236 283
#     4   9  17  30  46  67  95 125 158 198 240 277
#     4  10  19  31  48  67  93 132 169 200 234 279
#     4  10  19  33  51  69  93 124 158 198 245 287
#     4   9  16  30  47  64  94 132 164 192 232 280
#     4  10  20  32  47  67  94 129 161 198 243 281
#     4  11  21  32  48  71  97 125 159 197 239 285
#
# _framework density 15.885251999999999
#
# number of rings (size 3 to 8) (size 9 to 14) (size 15 to 20)
#    0.000    2.250    2.500    2.625    0.000    2.000 
#    0.000    0.625    0.000    0.000    0.000    0.875 
#    0.000    4.000    0.000    0.000    0.000    0.000 
#
# Total GULP energy -356883.586220 kJ/mol
# GULP energy per Si atom -5576.306035 kJ/mol
# Density = 1.584910 g / cm^3
# Si number density = 15.885252 Si / 1000 Ang^3
#
#
#
# Elastic Constant Matrix: (Units=GPa)
#
#
# Indices 1 2 3 4 5 6 
#
# 1 97.1660 67.4175 15.7205 0.0000 0.0000 0.0000
# 2 67.4175 143.7805 25.6682 0.0000 0.0000 0.0000
# 3 15.7205 25.6682 18.7987 0.0000 0.0000 0.0000
# 4 0.0000 0.0000 0.0000 19.6035 0.0000 0.0000
# 5 0.0000 0.0000 0.0000 0.0000 22.3282 0.0000
# 6 0.0000 0.0000 0.0000 0.0000 0.0000 22.1721
#
#
#
# Elastic Compliance Matrix: (Units=1/GPa)
#
#
# Indices 1 2 3 4 5 6 
#
# 1 0.015480 -0.006542 -0.004012 0.000000 0.000000 0.000000
# 2 -0.006542 0.011962 -0.010862 0.000000 0.000000 0.000000
# 3 -0.004012 -0.010862 0.071382 0.000000 0.000000 0.000000
# 4 0.000000 0.000000 0.000000 0.051011 0.000000 0.000000
# 5 0.000000 0.000000 0.000000 0.000000 0.044786 0.000000
# 6 0.000000 0.000000 0.000000 0.000000 0.000000 0.045102
#
#
# Mechanical properties :
#
#
# Convention : Reuss Voigt Hill
#
# Bulk Modulus (GPa) = 17.86021 53.03974 35.44997
# Shear Modulus (GPa) = 16.59921 22.88336 19.74129
#
# Velocity S-wave (km/s) = 3.23607 3.79956 3.52908
# Velocity P-wave (km/s) = 5.02300 7.26021 6.24264
#
# Compressibility (1/GPa) = 0.05599040
#
# Stress axis : x y z
#
# Youngs Moduli (GPa) = 64.59933 83.60003 14.00920
#
# Poissons Ratio (x) = 0.54692 0.05621
# Poissons Ratio (y) = 0.42262 0.15217
# Poissons Ratio (z) = 0.25920 0.90806
#
# Static dielectric constant tensor:
#      x y z
#    x 1.517050 0.000000 0.000000 
#    y 0.000000 1.533860 0.000000 
#    z 0.000000 0.000000 1.546470 
# 
# From -- ./inp_files/5999.got.cif
#   From: 2010.05.17/outbox.cif.g08.bks.cpg/sg57_3_cif.got.tgz:5999.got - 2010.06.03 13:58:18.
