data_PCOD9434108
_publ_section_title
;
Structure prediction by ZEFSAII (Michael W. Deem and Ramdas Pophale) SiO2 
 PCOD9434108
Probable space group: P B C M
;
_chemical_formula_sum "Si O2"
_cell_formula_units_Z 48
_cell_length_a 13.354340
_cell_length_b 5.638805
_cell_length_c 27.705990
_cell_angle_alpha 90.000000
_cell_angle_beta 90.000000
_cell_angle_gamma 90.000000
_cell_volume 2086.330843
_symmetry_space_group_name_H-M "P B C M"
_symmetry_group_IT_number 57
_symmetry_cell_setting 'orthorhombic'
loop_
_space_group_symop_operation_xyz
x,y,z
-x,-y,1/2+z
x,1/2-y,-z
-x,1/2+y,1/2-z
-x,-y,-z
x,y,1/2-z
-x,1/2+y,z
x,1/2-y,1/2+z
loop_
_atom_site_type_symbol
_atom_site_label
_atom_site_fract_x
_atom_site_fract_y
_atom_site_fract_z
Si Si1 0.804346 0.154546 0.627252
Si Si2 0.274655 0.384522 0.958696
Si Si3 0.189570 0.153453 0.845517
Si Si4 0.415158 0.750000 0.500000
Si Si5 0.012138 0.330144 0.419729
Si Si6 0.463694 0.252322 0.599296
Si Si7 0.940947 0.905162 0.250000
O O1 0.775593 0.093483 0.572131
O O2 0.772588 0.924919 0.658342
O O3 0.926074 0.173068 0.622967
O O4 0.757541 0.400131 0.645343
O O5 0.347027 0.260550 0.918094
O O6 0.210442 0.250000 0.000000
O O7 0.349260 0.517813 0.995051
O O8 0.125359 0.108391 0.797979
O O9 0.119443 0.174084 0.893422
O O10 0.475973 0.739030 0.451083
O O11 0.998051 0.080726 0.445382
O O12 0.497924 0.505027 0.622792
O O13 0.994010 0.162698 0.250000
#
# Coordination Sequence:
#
# PCOD9434108 Si02
#       7
#     8   8   8   4   8   8   4
#     4  10  21  31  48  71 103 134 162 209 256 299
#     4  11  20  31  49  70  99 136 184 207 245 312
#     4  10  20  35  50  75 101 130 160 204 261 304
#     4  10  18  32  48  70  98 128 174 216 264 290
#     4   8  14  29  45  59  84 119 150 182 237 279
#     4  10  17  30  47  68  94 126 162 206 267 293
#     4  12  20  32  62  88 100 122 172 212 248 332
#
# _framework density 23.006899000000001
#
# number of rings (size 3 to 8) (size 9 to 14) (size 15 to 20)
#    0.000    2.000    2.500    5.000    2.333    0.000 
#    0.000    0.000    0.000    9.000    0.000    0.000 
#    0.000    0.000    0.000   60.000    0.000    2.000 
#
# Total GULP energy -267319.343138 kJ/mol
# GULP energy per Si atom -5569.152982 kJ/mol
# Density = 2.295453 g / cm^3
# Si number density = 23.006899 Si / 1000 Ang^3
#
#
#
# Elastic Constant Matrix: (Units=GPa)
#
#
# Indices 1 2 3 4 5 6 
#
# 1 28.5071 8.7675 -4.5531 0.0000 0.0000 0.0000
# 2 8.7675 246.2947 28.6335 0.0000 0.0000 0.0000
# 3 -4.5531 28.6335 55.9217 0.0000 0.0000 0.0000
# 4 0.0000 0.0000 0.0000 25.6525 0.0000 0.0000
# 5 0.0000 0.0000 0.0000 0.0000 9.4203 0.0000
# 6 0.0000 0.0000 0.0000 0.0000 0.0000 8.5132
#
#
#
# Elastic Compliance Matrix: (Units=1/GPa)
#
#
# Indices 1 2 3 4 5 6 
#
# 1 0.036226 -0.001736 0.003838 0.000000 0.000000 0.000000
# 2 -0.001736 0.004400 -0.002394 0.000000 0.000000 0.000000
# 3 0.003838 -0.002394 0.019421 0.000000 0.000000 0.000000
# 4 0.000000 0.000000 0.000000 0.038983 0.000000 0.000000
# 5 0.000000 0.000000 0.000000 0.000000 0.106153 0.000000
# 6 0.000000 0.000000 0.000000 0.000000 0.000000 0.117465
#
#
# Mechanical properties :
#
#
# Convention : Reuss Voigt Hill
#
# Bulk Modulus (GPa) = 16.81721 44.04660 30.43191
# Shear Modulus (GPa) = 14.57504 28.57558 21.57531
#
# Velocity S-wave (km/s) = 2.51969 3.52809 3.06563
# Velocity P-wave (km/s) = 3.97374 5.98189 5.07807
#
# Compressibility (1/GPa) = 0.05946288
#
# Stress axis : x y z
#
# Youngs Moduli (GPa) = 27.60459 227.25552 51.49158
#
# Poissons Ratio (x) = 0.39446 -0.19764
# Poissons Ratio (y) = 0.04792 0.12329
# Poissons Ratio (z) = -0.10595 0.54415
#
# Static dielectric constant tensor:
#      x y z
#    x 2.001310 0.000000 0.000000 
#    y 0.000000 2.116680 0.000000 
#    z 0.000000 0.000000 2.129110 
# 
# From -- ./inp_files/27571.got.cif
#   From: 2010.05.17/outbox.cif.g08.bks.cpg/sg57_14_cif.got.tgz:27571.got - 2010.06.03 13:58:18.
