data_PCOD9434941
_publ_section_title
;
Structure prediction by ZEFSAII (Michael W. Deem and Ramdas Pophale) SiO2 
 PCOD9434941
Probable space group: P B C M
;
_chemical_formula_sum "Si O2"
_cell_formula_units_Z 64
_cell_length_a 22.971837
_cell_length_b 20.053386
_cell_length_c 7.788150
_cell_angle_alpha 90.000000
_cell_angle_beta 90.000000
_cell_angle_gamma 90.000000
_cell_volume 3587.713435
_symmetry_space_group_name_H-M "P B C M"
_symmetry_group_IT_number 57
_symmetry_cell_setting 'orthorhombic'
loop_
_space_group_symop_operation_xyz
x,y,z
-x,-y,1/2+z
x,1/2-y,-z
-x,1/2+y,1/2-z
-x,-y,-z
x,y,1/2-z
-x,1/2+y,z
x,1/2-y,1/2+z
loop_
_atom_site_type_symbol
_atom_site_label
_atom_site_fract_x
_atom_site_fract_y
_atom_site_fract_z
Si Si1 0.015271 0.176514 0.044063
Si Si2 0.698381 0.038910 0.543414
Si Si3 0.411629 0.465409 0.954888
Si Si4 0.881365 0.323882 0.545025
Si Si5 0.632802 0.175129 0.045712
Si Si6 0.172278 0.539730 0.548442
Si Si7 0.940173 0.961994 0.957247
Si Si8 0.521648 0.397346 0.958089
O O1 0.012486 0.172157 0.250000
O O2 0.052223 0.113912 0.981025
O O3 0.948364 0.170686 0.980756
O O4 0.037194 0.250000 0.000000
O O5 0.700264 0.032219 0.750000
O O6 0.652282 0.983800 0.476483
O O7 0.673559 0.113609 0.511828
O O8 0.763450 0.029468 0.474151
O O9 0.406330 0.455814 0.750000
O O10 0.455015 0.407231 0.020173
O O11 0.446003 0.534457 0.988300
O O12 0.860412 0.250000 0.500000
O O13 0.881568 0.331693 0.750000
O O14 0.843802 0.382685 0.467351
O O15 0.631470 0.171035 0.250000
O O16 0.566541 0.159557 0.981483
O O17 0.651244 0.250000 0.000000
O O18 0.175381 0.522563 0.750000
O O19 0.117235 0.499090 0.474697
O O20 0.936397 0.961597 0.750000
O O21 0.000000 0.000000 0.000000
O O22 0.519498 0.394723 0.750000
#
# Coordination Sequence:
#
# PCOD9434941 Si02
#       8
#     8   8   8   8   8   8   8   8
#     4   9  18  31  47  68  90 113 143 180 225 277
#     4   9  18  31  45  63  87 117 150 181 219 266
#     4   8  13  24  42  61  82 105 133 172 213 254
#     4  10  19  31  46  64  88 118 153 189 227 274
#     4  10  19  30  44  63  89 121 154 186 216 252
#     4  10  20  32  47  67  92 121 154 192 233 280
#     4  10  19  32  49  70  94 118 148 190 238 282
#     4   8  14  24  40  62  83 105 136 174 214 249
#
# _framework density 17.838660000000001
#
# number of rings (size 3 to 8) (size 9 to 14) (size 15 to 20)
#    0.000    2.750    1.250    0.750    0.000    2.500 
#    0.000    0.000    0.000    0.000    0.000    0.875 
#    0.000    0.000    0.000    0.000    0.000    0.000 
#
# Total GULP energy -356311.658434 kJ/mol
# GULP energy per Si atom -5567.369663 kJ/mol
# Density = 1.779806 g / cm^3
# Si number density = 17.838660 Si / 1000 Ang^3
#
#
#
# Elastic Constant Matrix: (Units=GPa)
#
#
# Indices 1 2 3 4 5 6 
#
# 1 146.4889 54.8903 6.8091 0.0000 0.0000 0.0000
# 2 54.8903 57.8596 -1.4703 0.0000 0.0000 0.0000
# 3 6.8091 -1.4703 26.6656 0.0000 0.0000 0.0000
# 4 0.0000 0.0000 0.0000 9.0030 0.0000 0.0000
# 5 0.0000 0.0000 0.0000 0.0000 9.9752 0.0000
# 6 0.0000 0.0000 0.0000 0.0000 0.0000 14.8882
#
#
#
# Elastic Compliance Matrix: (Units=1/GPa)
#
#
# Indices 1 2 3 4 5 6 
#
# 1 0.010883 -0.010410 -0.003353 0.000000 0.000000 0.000000
# 2 -0.010410 0.027264 0.004161 0.000000 0.000000 0.000000
# 3 -0.003353 0.004161 0.038587 0.000000 0.000000 0.000000
# 4 0.000000 0.000000 0.000000 0.111074 0.000000 0.000000
# 5 0.000000 0.000000 0.000000 0.000000 0.100248 0.000000
# 6 0.000000 0.000000 0.000000 0.000000 0.000000 0.067167
#
#
# Mechanical properties :
#
#
# Convention : Reuss Voigt Hill
#
# Bulk Modulus (GPa) = 17.38160 39.05248 28.21704
# Shear Modulus (GPa) = 12.70313 18.15894 15.43103
#
# Velocity S-wave (km/s) = 2.67144 3.19400 2.94434
# Velocity P-wave (km/s) = 4.39094 5.96169 5.23556
#
# Compressibility (1/GPa) = 0.05753209
#
# Stress axis : x y z
#
# Youngs Moduli (GPa) = 91.88800 36.67807 25.91538
#
# Poissons Ratio (x) = 0.38180 0.08689
# Poissons Ratio (y) = 0.95651 -0.10784
# Poissons Ratio (z) = 0.30809 -0.15263
#
# Static dielectric constant tensor:
#      x y z
#    x 1.674970 0.000000 0.000000 
#    y 0.000000 1.381800 0.000000 
#    z 0.000000 0.000000 1.639500 
# 
# From -- ./inp_files/8782.got.cif
#   From: 2010.05.17/outbox.cif.g08.bks.cpg/sg57_5_cif.got.tgz:8782.got - 2010.06.03 13:58:18.
