data_PCOD9434321
_publ_section_title
;
Structure prediction by ZEFSAII (Michael W. Deem and Ramdas Pophale) SiO2 
 PCOD9434321
Probable space group: P B C M
;
_chemical_formula_sum "Si O2"
_cell_formula_units_Z 64
_cell_length_a 14.854708
_cell_length_b 31.424356
_cell_length_c 8.640779
_cell_angle_alpha 90.000000
_cell_angle_beta 90.000000
_cell_angle_gamma 90.000000
_cell_volume 4033.512461
_symmetry_space_group_name_H-M "P B C M"
_symmetry_group_IT_number 57
_symmetry_cell_setting 'orthorhombic'
loop_
_space_group_symop_operation_xyz
x,y,z
-x,-y,1/2+z
x,1/2-y,-z
-x,1/2+y,1/2-z
-x,-y,-z
x,y,1/2-z
-x,1/2+y,z
x,1/2-y,1/2+z
loop_
_atom_site_type_symbol
_atom_site_label
_atom_site_fract_x
_atom_site_fract_y
_atom_site_fract_z
Si Si1 0.360489 0.296154 0.434420
Si Si2 0.566308 0.879884 0.933612
Si Si3 0.255495 0.975088 0.432338
Si Si4 0.052759 0.958395 0.061562
Si Si5 0.448314 0.958453 0.934727
Si Si6 0.241161 0.423595 0.928842
Si Si7 0.151859 0.203615 0.562496
Si Si8 0.929425 0.617716 0.932252
O O1 0.385401 0.250000 0.500000
O O2 0.359935 0.294378 0.250000
O O3 0.424939 0.333976 0.489093
O O4 0.256258 0.304779 0.485600
O O5 0.552815 0.873859 0.750000
O O6 0.494238 0.914528 0.990983
O O7 0.663230 0.902013 0.956316
O O8 0.266091 0.965057 0.250000
O O9 0.157530 0.958983 0.484594
O O10 0.343786 0.959638 0.520310
O O11 0.251533 0.026111 0.446843
O O12 0.049448 0.960350 0.250000
O O13 0.003623 0.915250 0.006238
O O14 0.000000 0.000000 0.000000
O O15 0.459229 0.959857 0.750000
O O16 0.500000 0.000000 0.000000
O O17 0.213930 0.415162 0.750000
O O18 0.165575 0.405612 0.040736
O O19 0.127062 0.250000 0.500000
O O20 0.150511 0.204167 0.750000
O O21 0.087722 0.165362 0.506130
O O22 0.947413 0.622053 0.750000
#
# Coordination Sequence:
#
# PCOD9434321 Si02
#       8
#     8   8   8   8   8   8   8   8
#     4  10  19  31  48  71  97 128 160 196 240 291
#     4  10  20  33  47  68  97 129 164 201 243 287
#     4  10  20  35  48  68  99 132 168 207 246 287
#     4  10  20  32  49  70  98 130 164 204 243 286
#     4  11  22  35  51  72  98 131 168 208 249 292
#     4  10  18  29  46  67  97 131 162 200 240 283
#     4   9  18  30  44  66  95 123 157 193 233 283
#     4  10  19  31  46  70  97 127 165 201 237 285
#
# _framework density 15.867062000000001
#
# number of rings (size 3 to 8) (size 9 to 14) (size 15 to 20)
#    0.000    2.000    3.750    0.750    0.000    3.000 
#    0.000    0.000    0.000    0.000    0.000    0.875 
#    0.000    4.000    0.000    0.000    0.000    0.000 
#
# Total GULP energy -356811.265864 kJ/mol
# GULP energy per Si atom -5575.176029 kJ/mol
# Density = 1.583095 g / cm^3
# Si number density = 15.867062 Si / 1000 Ang^3
#
#
#
# Elastic Constant Matrix: (Units=GPa)
#
#
# Indices 1 2 3 4 5 6 
#
# 1 74.5931 66.9225 21.8345 0.0000 0.0000 0.0000
# 2 66.9225 132.9105 27.9104 0.0000 0.0000 0.0000
# 3 21.8345 27.9104 12.7830 0.0000 0.0000 0.0000
# 4 0.0000 0.0000 0.0000 22.9758 0.0000 0.0000
# 5 0.0000 0.0000 0.0000 0.0000 18.7696 0.0000
# 6 0.0000 0.0000 0.0000 0.0000 0.0000 22.1757
#
#
#
# Elastic Compliance Matrix: (Units=1/GPa)
#
#
# Indices 1 2 3 4 5 6 
#
# 1 0.031105 -0.008319 -0.034966 0.000000 0.000000 0.000000
# 2 -0.008319 0.016120 -0.020986 0.000000 0.000000 0.000000
# 3 -0.034966 -0.020986 0.183774 0.000000 0.000000 0.000000
# 4 0.000000 0.000000 0.000000 0.043524 0.000000 0.000000
# 5 0.000000 0.000000 0.000000 0.000000 0.053278 0.000000
# 6 0.000000 0.000000 0.000000 0.000000 0.000000 0.045094
#
#
# Mechanical properties :
#
#
# Convention : Reuss Voigt Hill
#
# Bulk Modulus (GPa) = 9.76016 50.40237 30.08126
# Shear Modulus (GPa) = 9.33554 19.69216 14.51385
#
# Velocity S-wave (km/s) = 2.42824 3.52671 3.02771
# Velocity P-wave (km/s) = 3.74518 6.95830 5.58768
#
# Compressibility (1/GPa) = 0.10245737
#
# Stress axis : x y z
#
# Youngs Moduli (GPa) = 32.14952 62.03645 5.44146
#
# Poissons Ratio (x) = 0.51609 0.19026
# Poissons Ratio (y) = 0.26746 0.11419
# Poissons Ratio (z) = 1.12413 1.30188
#
# Static dielectric constant tensor:
#      x y z
#    x 1.521070 0.000000 0.000000 
#    y 0.000000 1.538270 0.000000 
#    z 0.000000 0.000000 1.549450 
# 
# From -- ./inp_files/5950.got.cif
#   From: 2010.05.17/outbox.cif.g08.bks.cpg/sg57_3_cif.got.tgz:5950.got - 2010.06.03 13:58:18.
