data_PCOD9434741
_publ_section_title
;
Structure prediction by ZEFSAII (Michael W. Deem and Ramdas Pophale) SiO2 
 PCOD9434741
Probable space group: P B C M
;
_chemical_formula_sum "Si O2"
_cell_formula_units_Z 56
_cell_length_a 8.366480
_cell_length_b 21.292225
_cell_length_c 15.246432
_cell_angle_alpha 90.000000
_cell_angle_beta 90.000000
_cell_angle_gamma 90.000000
_cell_volume 2716.014256
_symmetry_space_group_name_H-M "P B C M"
_symmetry_group_IT_number 57
_symmetry_cell_setting 'orthorhombic'
loop_
_space_group_symop_operation_xyz
x,y,z
-x,-y,1/2+z
x,1/2-y,-z
-x,1/2+y,1/2-z
-x,-y,-z
x,y,1/2-z
-x,1/2+y,z
x,1/2-y,1/2+z
loop_
_atom_site_type_symbol
_atom_site_label
_atom_site_fract_x
_atom_site_fract_y
_atom_site_fract_z
Si Si1 0.464911 0.252294 0.852105
Si Si2 0.347855 0.110523 0.353263
Si Si3 0.775550 0.306465 0.548315
Si Si4 0.659823 0.884344 0.144506
Si Si5 0.008972 0.902103 0.649752
Si Si6 0.155173 0.487958 0.441358
Si Si7 0.587849 0.078105 0.510888
O O1 0.507774 0.242753 0.750000
O O2 0.353211 0.313548 0.857420
O O3 0.625938 0.272660 0.902781
O O4 0.376067 0.188347 0.880882
O O5 0.380126 0.093308 0.250000
O O6 0.172334 0.088608 0.382996
O O7 0.478881 0.088330 0.423774
O O8 0.862383 0.250000 0.500000
O O9 0.700733 0.360379 0.486838
O O10 0.896568 0.344885 0.607533
O O11 0.669580 0.889217 0.250000
O O12 0.807989 0.919315 0.097104
O O13 0.511136 0.921413 0.100652
O O14 0.986157 0.886944 0.750000
O O15 0.118067 0.963544 0.637778
O O16 0.304108 0.517851 0.493356
O O17 0.000000 0.500000 0.500000
#
# Coordination Sequence:
#
# PCOD9434741 Si02
#       7
#     8   8   8   8   8   8   8
#     4   9  18  34  57  86 119 154 199 250 304 368
#     4   9  19  37  63  93 121 159 209 259 305 359
#     4  10  18  34  56  88 122 158 198 243 310 363
#     4  11  22  38  60  87 120 160 201 249 309 373
#     4  10  21  38  59  86 121 161 205 256 309 366
#     4  11  24  42  60  84 119 160 209 259 314 365
#     4  10  21  39  63  86 116 156 208 255 297 363
#
# _framework density 20.618448999999998
#
# number of rings (size 3 to 8) (size 9 to 14) (size 15 to 20)
#    0.000    2.000    1.429    2.143    0.000    4.000 
#    7.714    2.857    0.000    0.000    0.000    0.000 
#    0.000    0.000    0.000    0.000    0.000    0.000 
#
# Total GULP energy -312339.123554 kJ/mol
# GULP energy per Si atom -5577.484349 kJ/mol
# Density = 2.057152 g / cm^3
# Si number density = 20.618449 Si / 1000 Ang^3
#
#
#
# Elastic Constant Matrix: (Units=GPa)
#
#
# Indices 1 2 3 4 5 6 
#
# 1 65.2860 23.4033 21.6945 0.0000 0.0000 0.0000
# 2 23.4033 104.6163 19.8385 0.0000 0.0000 0.0000
# 3 21.6945 19.8385 62.3790 0.0000 0.0000 0.0000
# 4 0.0000 0.0000 0.0000 26.5924 0.0000 0.0000
# 5 0.0000 0.0000 0.0000 0.0000 29.6997 0.0000
# 6 0.0000 0.0000 0.0000 0.0000 0.0000 21.5476
#
#
#
# Elastic Compliance Matrix: (Units=1/GPa)
#
#
# Indices 1 2 3 4 5 6 
#
# 1 0.018192 -0.003054 -0.005356 0.000000 0.000000 0.000000
# 2 -0.003054 0.010685 -0.002336 0.000000 0.000000 0.000000
# 3 -0.005356 -0.002336 0.018637 0.000000 0.000000 0.000000
# 4 0.000000 0.000000 0.000000 0.037605 0.000000 0.000000
# 5 0.000000 0.000000 0.000000 0.000000 0.033670 0.000000
# 6 0.000000 0.000000 0.000000 0.000000 0.000000 0.046409
#
#
# Mechanical properties :
#
#
# Convention : Reuss Voigt Hill
#
# Bulk Modulus (GPa) = 38.42897 40.23932 39.33415
# Shear Modulus (GPa) = 25.59350 26.72426 26.15888
#
# Velocity S-wave (km/s) = 3.52702 3.60409 3.56576
# Velocity P-wave (km/s) = 5.93844 6.07271 6.00595
#
# Compressibility (1/GPa) = 0.02602203
#
# Stress axis : x y z
#
# Youngs Moduli (GPa) = 54.97034 93.58983 53.65810
#
# Poissons Ratio (x) = 0.28582 0.28737
# Poissons Ratio (y) = 0.16788 0.12535
# Poissons Ratio (z) = 0.29439 0.21863
#
# Static dielectric constant tensor:
#      x y z
#    x 1.775840 0.000000 0.000000 
#    y 0.000000 1.782700 0.000000 
#    z 0.000000 0.000000 1.758580 
# 
# From -- ./inp_files/16709.got.cif
#   From: 2010.05.17/outbox.cif.g08.bks.cpg/sg57_9_cif.got.tgz:16709.got - 2010.06.03 13:58:18.
