data_PCOD9434785
_publ_section_title
;
Structure prediction by ZEFSAII (Michael W. Deem and Ramdas Pophale) SiO2 
 PCOD9434785
Probable space group: P B C M
;
_chemical_formula_sum "Si O2"
_cell_formula_units_Z 64
_cell_length_a 19.185934
_cell_length_b 10.231597
_cell_length_c 14.192394
_cell_angle_alpha 90.000000
_cell_angle_beta 90.000000
_cell_angle_gamma 90.000000
_cell_volume 2786.005897
_symmetry_space_group_name_H-M "P B C M"
_symmetry_group_IT_number 57
_symmetry_cell_setting 'orthorhombic'
loop_
_space_group_symop_operation_xyz
x,y,z
-x,-y,1/2+z
x,1/2-y,-z
-x,1/2+y,1/2-z
-x,-y,-z
x,y,1/2-z
-x,1/2+y,z
x,1/2-y,1/2+z
loop_
_atom_site_type_symbol
_atom_site_label
_atom_site_fract_x
_atom_site_fract_y
_atom_site_fract_z
Si Si1 0.044484 0.214425 0.865404
Si Si2 0.275097 0.848593 0.865742
Si Si3 0.929579 0.007816 0.864929
Si Si4 0.307033 0.202791 0.105668
Si Si5 0.540078 0.711634 0.856921
Si Si6 0.771612 0.060929 0.864075
Si Si7 0.568865 0.423647 0.865935
Si Si8 0.812381 0.909458 0.142462
O O1 0.045841 0.215279 0.750000
O O2 0.042432 0.365609 0.893957
O O3 0.117077 0.149688 0.898914
O O4 0.979771 0.125401 0.894537
O O5 0.274671 0.852380 0.750000
O O6 0.253589 0.703551 0.894698
O O7 0.352986 0.887075 0.895000
O O8 0.222033 0.960795 0.899937
O O9 0.929222 0.008314 0.750000
O O10 0.850030 0.028111 0.895584
O O11 0.383033 0.225891 0.147844
O O12 0.246679 0.297311 0.145850
O O13 0.280573 0.055492 0.110741
O O14 0.314004 0.250000 0.000000
O O15 0.514871 0.689081 0.750000
O O16 0.548466 0.568131 0.900258
O O17 0.485824 0.814644 0.897714
O O18 0.773534 0.063619 0.750000
O O19 0.569082 0.428295 0.750000
O O20 0.830568 0.945140 0.250000
#
# Coordination Sequence:
#
# PCOD9434785 Si02
#       8
#     8   8   8   8   8   8   8   8
#     4   9  17  27  46  78 114 143 172 218 279 331
#     4   9  18  31  55  86 109 133 180 233 278 326
#     4   9  17  28  45  78 114 141 172 220 279 332
#     4  12  24  38  56  79 109 151 195 231 270 324
#     4  10  20  36  59  83 110 141 180 227 278 332
#     4  10  20  35  57  84 112 142 184 236 282 328
#     4   9  18  32  55  85 109 136 175 224 275 330
#     4  10  18  35  59  81 108 147 185 227 279 333
#
# _framework density 22.971954
#
# number of rings (size 3 to 8) (size 9 to 14) (size 15 to 20)
#    0.000    2.250    2.500    1.125    3.500    0.000 
#    0.000    1.250    0.000    0.750    0.000    0.000 
#    0.000    0.000    0.000    0.000    0.000    0.000 
#
# Total GULP energy -357938.999646 kJ/mol
# GULP energy per Si atom -5592.796869 kJ/mol
# Density = 2.291967 g / cm^3
# Si number density = 22.971954 Si / 1000 Ang^3
#
#
#
# Elastic Constant Matrix: (Units=GPa)
#
#
# Indices 1 2 3 4 5 6 
#
# 1 72.1859 48.2474 24.1348 0.0000 0.0000 0.0000
# 2 48.2474 170.5566 30.4185 0.0000 0.0000 0.0000
# 3 24.1348 30.4185 60.1598 0.0000 0.0000 0.0000
# 4 0.0000 0.0000 0.0000 17.6081 0.0000 0.0000
# 5 0.0000 0.0000 0.0000 0.0000 9.4687 0.0000
# 6 0.0000 0.0000 0.0000 0.0000 0.0000 44.7428
#
#
#
# Elastic Compliance Matrix: (Units=1/GPa)
#
#
# Indices 1 2 3 4 5 6 
#
# 1 0.018474 -0.004291 -0.005242 0.000000 0.000000 0.000000
# 2 -0.004291 0.007441 -0.002041 0.000000 0.000000 0.000000
# 3 -0.005242 -0.002041 0.019757 0.000000 0.000000 0.000000
# 4 0.000000 0.000000 0.000000 0.056792 0.000000 0.000000
# 5 0.000000 0.000000 0.000000 0.000000 0.105612 0.000000
# 6 0.000000 0.000000 0.000000 0.000000 0.000000 0.022350
#
#
# Mechanical properties :
#
#
# Convention : Reuss Voigt Hill
#
# Bulk Modulus (GPa) = 44.39556 56.50041 50.44799
# Shear Modulus (GPa) = 19.15118 27.70402 23.42760
#
# Velocity S-wave (km/s) = 2.89048 3.47651 3.19695
# Velocity P-wave (km/s) = 5.52338 6.38464 5.96956
#
# Compressibility (1/GPa) = 0.02252477
#
# Stress axis : x y z
#
# Youngs Moduli (GPa) = 54.13125 134.39034 50.61467
#
# Poissons Ratio (x) = 0.57667 0.26530
# Poissons Ratio (y) = 0.23228 0.10330
# Poissons Ratio (z) = 0.28373 0.27428
#
# Static dielectric constant tensor:
#      x y z
#    x 1.795840 0.000000 0.000000 
#    y 0.000000 1.809290 0.000000 
#    z 0.000000 0.000000 1.888470 
# 
# From -- ./inp_files/23071.got.cif
#   From: 2010.05.17/outbox.cif.g08.bks.cpg/sg57_12_cif.got.tgz:23071.got - 2010.06.03 13:58:18.
