data_PCOD9434390
_publ_section_title
;
Structure prediction by ZEFSAII (Michael W. Deem and Ramdas Pophale) SiO2 
 PCOD9434390
Probable space group: P B C M
;
_chemical_formula_sum "Si O2"
_cell_formula_units_Z 64
_cell_length_a 12.125169
_cell_length_b 34.370680
_cell_length_c 9.025613
_cell_angle_alpha 90.000000
_cell_angle_beta 90.000000
_cell_angle_gamma 90.000000
_cell_volume 3761.426958
_symmetry_space_group_name_H-M "P B C M"
_symmetry_group_IT_number 57
_symmetry_cell_setting 'orthorhombic'
loop_
_space_group_symop_operation_xyz
x,y,z
-x,-y,1/2+z
x,1/2-y,-z
-x,1/2+y,1/2-z
-x,-y,-z
x,y,1/2-z
-x,1/2+y,z
x,1/2-y,1/2+z
loop_
_atom_site_type_symbol
_atom_site_label
_atom_site_fract_x
_atom_site_fract_y
_atom_site_fract_z
Si Si1 0.891247 0.393317 0.570524
Si Si2 0.533782 0.586418 0.920499
Si Si3 0.480429 0.790368 0.926611
Si Si4 0.135255 0.124587 0.073320
Si Si5 0.271947 0.044458 0.425682
Si Si6 0.112472 0.984118 0.928163
Si Si7 0.654423 0.367847 0.928545
Si Si8 0.673685 0.667172 0.919821
O O1 0.895586 0.391350 0.750000
O O2 0.878816 0.438698 0.533005
O O3 0.781010 0.371236 0.522942
O O4 0.009498 0.377669 0.518793
O O5 0.517392 0.574823 0.750000
O O6 0.605073 0.626522 0.921674
O O7 0.609289 0.555743 0.007731
O O8 0.420264 0.598509 0.998821
O O9 0.483563 0.786753 0.750000
O O10 0.399124 0.826144 0.965405
O O11 0.446333 0.750000 0.000000
O O12 0.600258 0.802886 0.987652
O O13 0.137593 0.131854 0.250000
O O14 0.192455 0.082250 0.051715
O O15 0.209866 0.156252 0.991575
O O16 0.279062 0.037650 0.250000
O O17 0.213738 0.008859 0.507980
O O18 0.107231 0.987799 0.750000
O O19 0.000000 0.000000 0.000000
O O20 0.648599 0.372276 0.750000
O O21 0.683983 0.679809 0.750000
#
# Coordination Sequence:
#
# PCOD9434390 Si02
#       8
#     8   8   8   8   8   8   8   8
#     4   9  18  33  51  71  98 135 176 213 250 299
#     4   9  17  30  48  71  98 128 162 208 259 300
#     4  10  19  32  54  81 104 129 158 196 242 291
#     4   9  16  29  48  70  97 130 165 203 249 299
#     4  10  18  30  48  71  96 127 169 214 261 309
#     4  11  20  32  48  70  99 131 170 219 266 307
#     4   9  18  34  54  74  98 132 173 208 243 297
#     4   9  17  29  47  74 103 127 156 198 242 290
#
# _framework density 17.01482
#
# number of rings (size 3 to 8) (size 9 to 14) (size 15 to 20)
#    0.000    2.500    1.250    1.875    0.000    4.000 
#    0.000    2.500    0.000    0.750    0.000    1.750 
#    0.000    0.000    0.000    0.000    0.000    0.000 
#
# Total GULP energy -356876.059613 kJ/mol
# GULP energy per Si atom -5576.188431 kJ/mol
# Density = 1.697609 g / cm^3
# Si number density = 17.014820 Si / 1000 Ang^3
#
#
#
# Elastic Constant Matrix: (Units=GPa)
#
#
# Indices 1 2 3 4 5 6 
#
# 1 117.5114 37.7577 36.4856 0.0000 0.0000 0.0000
# 2 37.7577 54.7533 32.4424 0.0000 0.0000 0.0000
# 3 36.4856 32.4424 56.9101 0.0000 0.0000 0.0000
# 4 0.0000 0.0000 0.0000 23.3372 0.0000 0.0000
# 5 0.0000 0.0000 0.0000 0.0000 17.7419 0.0000
# 6 0.0000 0.0000 0.0000 0.0000 0.0000 16.0907
#
#
#
# Elastic Compliance Matrix: (Units=1/GPa)
#
#
# Indices 1 2 3 4 5 6 
#
# 1 0.011602 -0.005427 -0.004345 0.000000 0.000000 0.000000
# 2 -0.005427 0.030117 -0.013690 0.000000 0.000000 0.000000
# 3 -0.004345 -0.013690 0.028161 0.000000 0.000000 0.000000
# 4 0.000000 0.000000 0.000000 0.042850 0.000000 0.000000
# 5 0.000000 0.000000 0.000000 0.000000 0.056364 0.000000
# 6 0.000000 0.000000 0.000000 0.000000 0.000000 0.062148
#
#
# Mechanical properties :
#
#
# Convention : Reuss Voigt Hill
#
# Bulk Modulus (GPa) = 43.55705 49.17181 46.36443
# Shear Modulus (GPa) = 17.49363 19.59988 18.54676
#
# Velocity S-wave (km/s) = 3.20994 3.39769 3.30515
# Velocity P-wave (km/s) = 6.27641 6.65992 6.47101
#
# Compressibility (1/GPa) = 0.02295839
#
# Stress axis : x y z
#
# Youngs Moduli (GPa) = 86.18851 33.20343 35.50979
#
# Poissons Ratio (x) = 0.18018 0.15429
# Poissons Ratio (y) = 0.46771 0.48612
# Poissons Ratio (z) = 0.37449 0.45455
#
# Static dielectric constant tensor:
#      x y z
#    x 1.579830 0.000000 0.000000 
#    y 0.000000 1.561250 0.000000 
#    z 0.000000 0.000000 1.568050 
# 
# From -- ./inp_files/3760.got.cif
#   From: 2010.05.17/outbox.cif.g08.bks.cpg/sg57_2_cif.got.tgz:3760.got - 2010.06.03 13:58:18.
