data_PCOD9434692
_publ_section_title
;
Structure prediction by ZEFSAII (Michael W. Deem and Ramdas Pophale) SiO2 
 PCOD9434692
Probable space group: P B C M
;
_chemical_formula_sum "Si O2"
_cell_formula_units_Z 56
_cell_length_a 13.783058
_cell_length_b 20.418862
_cell_length_c 9.702044
_cell_angle_alpha 90.000000
_cell_angle_beta 90.000000
_cell_angle_gamma 90.000000
_cell_volume 2730.488536
_symmetry_space_group_name_H-M "P B C M"
_symmetry_group_IT_number 57
_symmetry_cell_setting 'orthorhombic'
loop_
_space_group_symop_operation_xyz
x,y,z
-x,-y,1/2+z
x,1/2-y,-z
-x,1/2+y,1/2-z
-x,-y,-z
x,y,1/2-z
-x,1/2+y,z
x,1/2-y,1/2+z
loop_
_atom_site_type_symbol
_atom_site_label
_atom_site_fract_x
_atom_site_fract_y
_atom_site_fract_z
Si Si1 0.719932 0.691287 0.091461
Si Si2 0.356654 0.444867 0.493214
Si Si3 0.074372 0.367390 0.584059
Si Si4 0.137184 0.862762 0.583830
Si Si5 0.346469 0.686900 0.416242
Si Si6 0.431674 0.577768 0.898112
Si Si7 0.852946 0.985443 0.092305
O O1 0.717698 0.710932 0.250000
O O2 0.831792 0.676085 0.050440
O O3 0.680105 0.750000 0.000000
O O4 0.664983 0.622735 0.071532
O O5 0.453568 0.434680 0.405798
O O6 0.379478 0.507761 0.587018
O O7 0.259010 0.462357 0.411542
O O8 0.075280 0.377111 0.750000
O O9 0.090188 0.436516 0.507800
O O10 0.969750 0.339024 0.541936
O O11 0.139836 0.861518 0.750000
O O12 0.233626 0.825023 0.541411
O O13 0.144140 0.939352 0.544583
O O14 0.382335 0.750000 0.500000
O O15 0.354595 0.692666 0.250000
O O16 0.401678 0.623408 0.474675
O O17 0.405662 0.607990 0.750000
O O18 0.889061 0.981803 0.250000
#
# Coordination Sequence:
#
# PCOD9434692 Si02
#       7
#     8   8   8   8   8   8   8
#     4  10  22  39  59  86 120 159 198 243 294 349
#     4  10  22  39  63  91 122 153 195 247 302 361
#     4   9  19  35  55  83 119 157 196 242 296 350
#     4   9  18  35  58  83 117 158 196 241 296 351
#     4  11  24  43  63  87 122 162 203 250 302 359
#     4  11  23  40  65  93 119 154 200 250 305 364
#     4  10  18  33  57  88 120 153 193 240 295 353
#
# _framework density 20.509150999999999
#
# number of rings (size 3 to 8) (size 9 to 14) (size 15 to 20)
#    0.000    2.000    1.429    1.714    0.000    7.429 
#    0.000    1.429    0.000    0.000    0.000    0.000 
#    0.000    0.000    0.000    0.000    0.000    0.000 
#
# Total GULP energy -312502.466239 kJ/mol
# GULP energy per Si atom -5580.401183 kJ/mol
# Density = 2.046247 g / cm^3
# Si number density = 20.509151 Si / 1000 Ang^3
#
#
#
# Elastic Constant Matrix: (Units=GPa)
#
#
# Indices 1 2 3 4 5 6 
#
# 1 72.0476 10.4252 8.9706 0.0000 0.0000 0.0000
# 2 10.4252 99.7772 34.8902 0.0000 0.0000 0.0000
# 3 8.9706 34.8902 69.4568 0.0000 0.0000 0.0000
# 4 0.0000 0.0000 0.0000 20.2329 0.0000 0.0000
# 5 0.0000 0.0000 0.0000 0.0000 72.9824 0.0000
# 6 0.0000 0.0000 0.0000 0.0000 0.0000 -4.9715
#
#
#
# Elastic Compliance Matrix: (Units=1/GPa)
#
#
# Indices 1 2 3 4 5 6 
#
# 1 0.014192 -0.001021 -0.001320 0.000000 0.000000 0.000000
# 2 -0.001021 0.012231 -0.006012 0.000000 0.000000 0.000000
# 3 -0.001320 -0.006012 0.017588 0.000000 0.000000 0.000000
# 4 0.000000 0.000000 0.000000 0.049424 0.000000 0.000000
# 5 0.000000 0.000000 0.000000 0.000000 0.013702 0.000000
# 6 0.000000 0.000000 0.000000 0.000000 0.000000 -0.201148
#
#
# Mechanical properties :
#
#
# Convention : Reuss Voigt Hill
#
# Bulk Modulus (GPa) = 36.62422 38.87262 37.74842
# Shear Modulus (GPa) = -73.31161 30.11516 -21.59822
#
# Velocity S-wave (km/s) = -5.98527 3.83610 -3.24867
# Velocity P-wave (km/s) = 5.46519 6.21416 2.09135
#
# Compressibility (1/GPa) = 0.02730434
#
# Stress axis : x y z
#
# Youngs Moduli (GPa) = 70.46308 81.75664 56.85674
#
# Poissons Ratio (x) = 0.08350 0.07505
# Poissons Ratio (y) = 0.07196 0.34184
# Poissons Ratio (z) = 0.09300 0.49155
#
# Static dielectric constant tensor:
#      x y z
#    x 1.759230 0.000000 0.000000 
#    y 0.000000 1.717900 0.000000 
#    z 0.000000 0.000000 1.723690 
# 
# From -- ./inp_files/5276.got.cif
#   From: 2010.05.17/outbox.cif.g08.bks.cpg/sg57_3_cif.got.tgz:5276.got - 2010.06.03 13:58:18.
