data_PCOD9434197
_publ_section_title
;
Structure prediction by ZEFSAII (Michael W. Deem and Ramdas Pophale) SiO2 
 PCOD9434197
Probable space group: P B C M
;
_chemical_formula_sum "Si O2"
_cell_formula_units_Z 48
_cell_length_a 15.586432
_cell_length_b 22.007029
_cell_length_c 9.174859
_cell_angle_alpha 90.000000
_cell_angle_beta 90.000000
_cell_angle_gamma 90.000000
_cell_volume 3147.078120
_symmetry_space_group_name_H-M "P B C M"
_symmetry_group_IT_number 57
_symmetry_cell_setting 'orthorhombic'
loop_
_space_group_symop_operation_xyz
x,y,z
-x,-y,1/2+z
x,1/2-y,-z
-x,1/2+y,1/2-z
-x,-y,-z
x,y,1/2-z
-x,1/2+y,z
x,1/2-y,1/2+z
loop_
_atom_site_type_symbol
_atom_site_label
_atom_site_fract_x
_atom_site_fract_y
_atom_site_fract_z
Si Si1 0.876280 0.040473 0.076772
Si Si2 0.515539 0.434848 0.075575
Si Si3 0.193906 0.314902 0.924850
Si Si4 0.351142 0.096972 0.424346
Si Si5 0.296366 0.542357 0.923138
Si Si6 0.938328 0.917342 0.924398
O O1 0.868410 0.034072 0.250000
O O2 0.959986 0.081694 0.045899
O O3 0.787335 0.062678 0.009092
O O4 0.897969 0.975157 0.005717
O O5 0.506236 0.440055 0.250000
O O6 0.615567 0.421439 0.045059
O O7 0.500000 0.500000 0.000000
O O8 0.440519 0.393888 0.008525
O O9 0.193000 0.307514 0.750000
O O10 0.278758 0.354052 0.961792
O O11 0.112339 0.356679 0.965541
O O12 0.193305 0.250000 0.000000
O O13 0.366169 0.098221 0.250000
O O14 0.315444 0.029013 0.457845
O O15 0.280387 0.545330 0.750000
O O16 0.926224 0.926451 0.750000
#
# Coordination Sequence:
#
# PCOD9434197 Si02
#       6
#     8   8   8   8   8   8
#     4  10  18  26  45  70  89 117 155 188 222 275
#     4   9  17  27  41  62  89 120 149 179 218 264
#     4  10  20  34  49  65  90 123 156 190 231 273
#     4   9  17  30  45  61  88 123 150 182 227 267
#     4   9  16  28  43  62  93 125 144 173 230 275
#     4   9  18  33  45  60  92 124 147 185 237 275
#
# _framework density 15.252243
#
# number of rings (size 3 to 8) (size 9 to 14) (size 15 to 20)
#    0.000    2.667    1.667    2.000    0.000    5.333 
#    0.000    0.000    0.000    0.000    0.000    1.167 
#    0.000    2.667    0.000    0.000    0.000    0.000 
#
# Total GULP energy -267326.348190 kJ/mol
# GULP energy per Si atom -5569.298921 kJ/mol
# Density = 1.521753 g / cm^3
# Si number density = 15.252243 Si / 1000 Ang^3
#
#
#
# Elastic Constant Matrix: (Units=GPa)
#
#
# Indices 1 2 3 4 5 6 
#
# 1 163.7238 52.5586 62.9433 0.0000 0.0000 0.0000
# 2 52.5586 66.2625 24.9449 0.0000 0.0000 0.0000
# 3 62.9433 24.9449 35.4821 0.0000 0.0000 0.0000
# 4 0.0000 0.0000 0.0000 19.9303 0.0000 0.0000
# 5 0.0000 0.0000 0.0000 0.0000 30.8870 0.0000
# 6 0.0000 0.0000 0.0000 0.0000 0.0000 14.1714
#
#
#
# Elastic Compliance Matrix: (Units=1/GPa)
#
#
# Indices 1 2 3 4 5 6 
#
# 1 0.019744 -0.003366 -0.032657 0.000000 0.000000 0.000000
# 2 -0.003366 0.021097 -0.008860 0.000000 0.000000 0.000000
# 3 -0.032657 -0.008860 0.092344 0.000000 0.000000 0.000000
# 4 0.000000 0.000000 0.000000 0.050175 0.000000 0.000000
# 5 0.000000 0.000000 0.000000 0.000000 0.032376 0.000000
# 6 0.000000 0.000000 0.000000 0.000000 0.000000 0.070565
#
#
# Mechanical properties :
#
#
# Convention : Reuss Voigt Hill
#
# Bulk Modulus (GPa) = 23.03225 60.70688 41.86957
# Shear Modulus (GPa) = 12.80277 21.33251 17.06764
#
# Velocity S-wave (km/s) = 2.90039 3.74391 3.34881
# Velocity P-wave (km/s) = 5.13323 7.65359 6.51642
#
# Compressibility (1/GPa) = 0.04341738
#
# Stress axis : x y z
#
# Youngs Moduli (GPa) = 50.64950 47.39997 10.82904
#
# Poissons Ratio (x) = 0.15956 0.35365
# Poissons Ratio (y) = 0.17050 0.09595
# Poissons Ratio (z) = 1.65408 0.41997
#
# Static dielectric constant tensor:
#      x y z
#    x 1.552130 0.000000 0.000000 
#    y 0.000000 1.468650 0.000000 
#    z 0.000000 0.000000 1.507320 
# 
# From -- ./inp_files/4829.got.cif
#   From: 2010.05.17/outbox.cif.g08.bks.cpg/sg57_3_cif.got.tgz:4829.got - 2010.06.03 13:58:18.
