data_PCOD9434505
_publ_section_title
;
Structure prediction by ZEFSAII (Michael W. Deem and Ramdas Pophale) SiO2 
 PCOD9434505
Probable space group: P B C M
;
_chemical_formula_sum "Si O2"
_cell_formula_units_Z 40
_cell_length_a 13.372296
_cell_length_b 19.109303
_cell_length_c 8.692110
_cell_angle_alpha 90.000000
_cell_angle_beta 90.000000
_cell_angle_gamma 90.000000
_cell_volume 2221.140555
_symmetry_space_group_name_H-M "P B C M"
_symmetry_group_IT_number 57
_symmetry_cell_setting 'orthorhombic'
loop_
_space_group_symop_operation_xyz
x,y,z
-x,-y,1/2+z
x,1/2-y,-z
-x,1/2+y,1/2-z
-x,-y,-z
x,y,1/2-z
-x,1/2+y,z
x,1/2-y,1/2+z
loop_
_atom_site_type_symbol
_atom_site_label
_atom_site_fract_x
_atom_site_fract_y
_atom_site_fract_z
Si Si1 0.389158 0.083272 0.932728
Si Si2 0.790702 0.671675 0.432804
Si Si3 0.796282 0.328492 0.934753
Si Si4 0.397601 0.581229 0.434273
Si Si5 0.997012 0.829291 0.433776
O O1 0.376805 0.092268 0.750000
O O2 0.380421 0.000644 0.970008
O O3 0.304698 0.126567 0.019585
O O4 0.500887 0.104692 0.982881
O O5 0.778651 0.750000 0.500000
O O6 0.801357 0.676149 0.250000
O O7 0.892985 0.640150 0.504184
O O8 0.805152 0.325233 0.750000
O O9 0.699287 0.373744 0.975993
O O10 0.784745 0.250000 0.000000
O O11 0.899094 0.359807 0.003244
O O12 0.412524 0.586676 0.250000
O O13 0.996983 0.750000 0.500000
O O14 0.997208 0.827745 0.250000
#
# Coordination Sequence:
#
# PCOD9434505 Si02
#       5
#     8   8   8   8   8
#     4  10  20  36  56  77 103 137 176 217 262 310
#     4  11  21  35  55  79 106 136 172 213 259 309
#     4  10  19  33  53  78 106 136 172 212 255 303
#     4   9  20  37  55  75 104 141 177 214 259 311
#     4  10  18  31  51  76 105 136 170 208 256 307
#
# _framework density 18.008765
#
# number of rings (size 3 to 8) (size 9 to 14) (size 15 to 20)
#    0.000    2.000    0.000    7.200    0.000    3.200 
#    0.000    3.000    0.000    0.000    0.000    0.000 
#    0.000    0.000    0.000    0.000    0.000    0.000 
#
# Total GULP energy -223252.296896 kJ/mol
# GULP energy per Si atom -5581.307422 kJ/mol
# Density = 1.796778 g / cm^3
# Si number density = 18.008765 Si / 1000 Ang^3
#
#
#
# Elastic Constant Matrix: (Units=GPa)
#
#
# Indices 1 2 3 4 5 6 
#
# 1 181.4467 56.9285 81.8935 0.0000 0.0000 0.0000
# 2 56.9285 36.0612 33.3640 0.0000 0.0000 0.0000
# 3 81.8935 33.3640 119.2769 0.0000 0.0000 0.0000
# 4 0.0000 0.0000 0.0000 20.6678 0.0000 0.0000
# 5 0.0000 0.0000 0.0000 0.0000 27.0998 0.0000
# 6 0.0000 0.0000 0.0000 0.0000 0.0000 -371.0917
#
#
#
# Elastic Compliance Matrix: (Units=1/GPa)
#
#
# Indices 1 2 3 4 5 6 
#
# 1 0.012208 -0.015538 -0.004035 0.000000 0.000000 0.000000
# 2 -0.015538 0.057191 -0.005329 0.000000 0.000000 0.000000
# 3 -0.004035 -0.005329 0.012645 0.000000 0.000000 0.000000
# 4 0.000000 0.000000 0.000000 0.048385 0.000000 0.000000
# 5 0.000000 0.000000 0.000000 0.000000 0.036901 0.000000
# 6 0.000000 0.000000 0.000000 0.000000 0.000000 -0.002695
#
#
# Mechanical properties :
#
#
# Convention : Reuss Voigt Hill
#
# Bulk Modulus (GPa) = 31.01896 75.68410 53.35153
# Shear Modulus (GPa) = 22.20399 -53.69157 -15.74379
#
# Velocity S-wave (km/s) = 3.51515 -5.46616 -2.95994
# Velocity P-wave (km/s) = 5.80834 1.50964 4.24358
#
# Compressibility (1/GPa) = 0.03223835
#
# Stress axis : x y z
#
# Youngs Moduli (GPa) = 81.91631 17.48534 79.08293
#
# Poissons Ratio (x) = 0.27169 0.31911
# Poissons Ratio (y) = 1.27284 0.42143
# Poissons Ratio (z) = 0.33055 0.09318
#
# Static dielectric constant tensor:
#      x y z
#    x 1.640270 0.000000 0.000000 
#    y 0.000000 1.599340 0.000000 
#    z 0.000000 0.000000 1.605340 
# 
# From -- ./inp_files/2677.got.cif
#   From: 2010.05.17/outbox.cif.g08.bks.cpg/sg57_2_cif.got.tgz:2677.got - 2010.06.03 13:58:18.
