data_PCOD9434567
_publ_section_title
;
Structure prediction by ZEFSAII (Michael W. Deem and Ramdas Pophale) SiO2 
 PCOD9434567
Probable space group: P B C M
;
_chemical_formula_sum "Si O2"
_cell_formula_units_Z 64
_cell_length_a 15.346467
_cell_length_b 30.877932
_cell_length_c 8.288196
_cell_angle_alpha 90.000000
_cell_angle_beta 90.000000
_cell_angle_gamma 90.000000
_cell_volume 3927.503937
_symmetry_space_group_name_H-M "P B C M"
_symmetry_group_IT_number 57
_symmetry_cell_setting 'orthorhombic'
loop_
_space_group_symop_operation_xyz
x,y,z
-x,-y,1/2+z
x,1/2-y,-z
-x,1/2+y,1/2-z
-x,-y,-z
x,y,1/2-z
-x,1/2+y,z
x,1/2-y,1/2+z
loop_
_atom_site_type_symbol
_atom_site_label
_atom_site_fract_x
_atom_site_fract_y
_atom_site_fract_z
Si Si1 0.630088 0.028361 0.056527
Si Si2 0.796469 0.703412 0.055406
Si Si3 0.002506 0.202932 0.442500
Si Si4 0.173462 0.537093 0.555581
Si Si5 0.130235 0.058797 0.054847
Si Si6 0.450526 0.437343 0.944965
Si Si7 0.294223 0.116944 0.446860
Si Si8 0.041066 0.609806 0.942750
O O1 0.633757 0.028594 0.250000
O O2 0.550946 0.059830 0.001977
O O3 0.725399 0.038697 0.991217
O O4 0.598260 0.981133 0.999051
O O5 0.798501 0.702153 0.250000
O O6 0.738656 0.663542 0.997154
O O7 0.896784 0.698832 0.998298
O O8 0.764003 0.750000 0.000000
O O9 0.969554 0.250000 0.500000
O O10 0.003990 0.203595 0.250000
O O11 0.955133 0.159128 0.496523
O O12 0.168521 0.536454 0.750000
O O13 0.132829 0.491117 0.498988
O O14 0.117846 0.578075 0.496897
O O15 0.126581 0.059189 0.250000
O O16 0.220576 0.081959 0.006722
O O17 0.049320 0.086842 0.993568
O O18 0.451152 0.437199 0.750000
O O19 0.389276 0.398274 0.001351
O O20 0.294964 0.117617 0.250000
O O21 0.044361 0.611043 0.750000
#
# Coordination Sequence:
#
# PCOD9434567 Si02
#       8
#     8   8   8   8   8   8   8   8
#     4  10  19  29  46  72  94 118 158 202 238 276
#     4   9  17  29  45  66  89 119 153 186 227 275
#     4  10  19  33  51  71  95 125 160 198 241 288
#     4  10  21  35  49  64  94 136 168 199 244 288
#     4  10  18  32  49  65  92 134 170 195 232 284
#     4   9  17  31  49  67  93 125 154 190 237 288
#     4   9  15  28  49  67  89 126 162 184 223 287
#     4  11  22  33  47  71  97 127 165 204 245 287
#
# _framework density 16.295337
#
# number of rings (size 3 to 8) (size 9 to 14) (size 15 to 20)
#    0.000    2.250    2.500    1.500    0.000    2.500 
#    0.000    0.625    0.000    0.000    0.000    0.875 
#    0.000    4.000    0.000    0.000    0.000    0.000 
#
# Total GULP energy -356806.954955 kJ/mol
# GULP energy per Si atom -5575.108671 kJ/mol
# Density = 1.625825 g / cm^3
# Si number density = 16.295337 Si / 1000 Ang^3
#
#
#
# Elastic Constant Matrix: (Units=GPa)
#
#
# Indices 1 2 3 4 5 6 
#
# 1 68.0699 51.2892 5.3103 0.0000 0.0000 0.0000
# 2 51.2892 145.3734 17.2566 0.0000 0.0000 0.0000
# 3 5.3103 17.2566 10.4378 0.0000 0.0000 0.0000
# 4 0.0000 0.0000 0.0000 21.5099 0.0000 0.0000
# 5 0.0000 0.0000 0.0000 0.0000 18.3709 0.0000
# 6 0.0000 0.0000 0.0000 0.0000 0.0000 22.7527
#
#
#
# Elastic Compliance Matrix: (Units=1/GPa)
#
#
# Indices 1 2 3 4 5 6 
#
# 1 0.020039 -0.007291 0.001858 0.000000 0.000000 0.000000
# 2 -0.007291 0.011211 -0.014826 0.000000 0.000000 0.000000
# 3 0.001858 -0.014826 0.119370 0.000000 0.000000 0.000000
# 4 0.000000 0.000000 0.000000 0.046490 0.000000 0.000000
# 5 0.000000 0.000000 0.000000 0.000000 0.054434 0.000000
# 6 0.000000 0.000000 0.000000 0.000000 0.000000 0.043951
#
#
# Mechanical properties :
#
#
# Convention : Reuss Voigt Hill
#
# Bulk Modulus (GPa) = 9.08226 41.28815 25.18520
# Shear Modulus (GPa) = 13.41516 22.52836 17.97176
#
# Velocity S-wave (km/s) = 2.87235 3.72224 3.32456
# Velocity P-wave (km/s) = 4.07261 6.62313 5.49782
#
# Compressibility (1/GPa) = 0.11010481
#
# Stress axis : x y z
#
# Youngs Moduli (GPa) = 49.90238 89.19881 8.37729
#
# Poissons Ratio (x) = 0.65031 -0.01557
# Poissons Ratio (y) = 0.36382 0.12420
# Poissons Ratio (z) = -0.09274 1.32242
#
# Static dielectric constant tensor:
#      x y z
#    x 1.546500 0.000000 0.000000 
#    y 0.000000 1.555880 0.000000 
#    z 0.000000 0.000000 1.567740 
# 
# From -- ./inp_files/5964.got.cif
#   From: 2010.05.17/outbox.cif.g08.bks.cpg/sg57_3_cif.got.tgz:5964.got - 2010.06.03 13:58:18.
