data_PCOD9434046
_publ_section_title
;
Structure prediction by ZEFSAII (Michael W. Deem and Ramdas Pophale) SiO2 
 PCOD9434046
Probable space group: P B C M
;
_chemical_formula_sum "Si O2"
_cell_formula_units_Z 48
_cell_length_a 9.665955
_cell_length_b 32.869425
_cell_length_c 8.470295
_cell_angle_alpha 90.000000
_cell_angle_beta 90.000000
_cell_angle_gamma 90.000000
_cell_volume 2691.134549
_symmetry_space_group_name_H-M "P B C M"
_symmetry_group_IT_number 57
_symmetry_cell_setting 'orthorhombic'
loop_
_space_group_symop_operation_xyz
x,y,z
-x,-y,1/2+z
x,1/2-y,-z
-x,1/2+y,1/2-z
-x,-y,-z
x,y,1/2-z
-x,1/2+y,z
x,1/2-y,1/2+z
loop_
_atom_site_type_symbol
_atom_site_label
_atom_site_fract_x
_atom_site_fract_y
_atom_site_fract_z
Si Si1 0.656120 0.119021 0.942449
Si Si2 0.843381 0.544663 0.940465
Si Si3 0.334065 0.377783 0.059000
Si Si4 0.836579 0.042949 0.559335
Si Si5 0.339620 0.707769 0.938200
Si Si6 0.656048 0.791884 0.937641
O O1 0.658577 0.118604 0.750000
O O2 0.494790 0.116437 0.988911
O O3 0.743559 0.080458 0.997499
O O4 0.713740 0.163445 0.991868
O O5 0.840873 0.543858 0.750000
O O6 0.755042 0.583486 0.992291
O O7 0.003627 0.548334 0.991388
O O8 0.789293 0.501318 0.001302
O O9 0.330782 0.375315 0.250000
O O10 0.281143 0.334746 0.992258
O O11 0.834129 0.042925 0.750000
O O12 0.334671 0.709064 0.750000
O O13 0.277034 0.750000 0.000000
O O14 0.500766 0.707494 0.990011
O O15 0.646493 0.790211 0.750000
O O16 0.722515 0.750000 0.000000
#
# Coordination Sequence:
#
# PCOD9434046 Si02
#       6
#     8   8   8   8   8   8
#     4   8  15  27  44  64  87 115 145 178 215 256
#     4   9  18  31  47  65  86 114 147 182 220 261
#     4   9  17  30  45  64  90 117 145 179 219 258
#     4   9  17  31  48  64  84 115 150 179 215 265
#     4   9  15  25  41  62  89 118 146 176 213 256
#     4  10  17  26  42  65  91 118 147 178 215 257
#
# _framework density 17.836344
#
# number of rings (size 3 to 8) (size 9 to 14) (size 15 to 20)
#    0.000    3.000    0.000    4.000    0.000    1.333 
#    0.000    4.167    0.000    1.000    0.000    2.333 
#    0.000    0.000    0.000    0.000    0.000    0.000 
#
# Total GULP energy -267250.926067 kJ/mol
# GULP energy per Si atom -5567.727626 kJ/mol
# Density = 1.779575 g / cm^3
# Si number density = 17.836344 Si / 1000 Ang^3
#
#
#
# Elastic Constant Matrix: (Units=GPa)
#
#
# Indices 1 2 3 4 5 6 
#
# 1 32.3271 63.9876 9.4750 0.0000 0.0000 0.0000
# 2 63.9876 235.4179 30.9565 0.0000 0.0000 0.0000
# 3 9.4750 30.9565 23.2386 0.0000 0.0000 0.0000
# 4 0.0000 0.0000 0.0000 31.5154 0.0000 0.0000
# 5 0.0000 0.0000 0.0000 0.0000 8.6245 0.0000
# 6 0.0000 0.0000 0.0000 0.0000 0.0000 -8.8554
#
#
#
# Elastic Compliance Matrix: (Units=1/GPa)
#
#
# Indices 1 2 3 4 5 6 
#
# 1 0.067221 -0.017782 -0.003720 0.000000 0.000000 0.000000
# 2 -0.017782 0.009854 -0.005876 0.000000 0.000000 0.000000
# 3 -0.003720 -0.005876 0.052376 0.000000 0.000000 0.000000
# 4 0.000000 0.000000 0.000000 0.031731 0.000000 0.000000
# 5 0.000000 0.000000 0.000000 0.000000 0.115949 0.000000
# 6 0.000000 0.000000 0.000000 0.000000 0.000000 -0.112925
#
#
# Mechanical properties :
#
#
# Convention : Reuss Voigt Hill
#
# Bulk Modulus (GPa) = 13.38785 55.53575 34.46180
# Shear Modulus (GPa) = 20.50358 18.69453 19.59905
#
# Velocity S-wave (km/s) = 3.39416 3.24097 3.31845
# Velocity P-wave (km/s) = 4.78359 6.72377 5.83489
#
# Compressibility (1/GPa) = 0.07469461
#
# Stress axis : x y z
#
# Youngs Moduli (GPa) = 14.87629 101.48582 19.09255
#
# Poissons Ratio (x) = 1.80459 0.07103
# Poissons Ratio (y) = 0.26453 0.11219
# Poissons Ratio (z) = 0.05535 0.59634
#
# Static dielectric constant tensor:
#      x y z
#    x 1.592540 0.000000 0.000000 
#    y 0.000000 1.660870 0.000000 
#    z 0.000000 0.000000 1.605260 
# 
# From -- ./inp_files/3526.got.cif
#   From: 2010.05.17/outbox.cif.g08.bks.cpg/sg57_2_cif.got.tgz:3526.got - 2010.06.03 13:58:18.
