data_PCOD9434087
_publ_section_title
;
Structure prediction by ZEFSAII (Michael W. Deem and Ramdas Pophale) SiO2 
 PCOD9434087
Probable space group: P B C M
;
_chemical_formula_sum "Si O2"
_cell_formula_units_Z 64
_cell_length_a 12.681795
_cell_length_b 29.495222
_cell_length_c 7.998497
_cell_angle_alpha 90.000000
_cell_angle_beta 90.000000
_cell_angle_gamma 90.000000
_cell_volume 2991.856670
_symmetry_space_group_name_H-M "P B C M"
_symmetry_group_IT_number 57
_symmetry_cell_setting 'orthorhombic'
loop_
_space_group_symop_operation_xyz
x,y,z
-x,-y,1/2+z
x,1/2-y,-z
-x,1/2+y,1/2-z
-x,-y,-z
x,y,1/2-z
-x,1/2+y,z
x,1/2-y,1/2+z
loop_
_atom_site_type_symbol
_atom_site_label
_atom_site_fract_x
_atom_site_fract_y
_atom_site_fract_z
Si Si1 0.641031 0.371292 0.546110
Si Si2 0.019256 0.933188 0.942064
Si Si3 0.214644 0.441868 0.053167
Si Si4 0.018195 0.334457 0.055726
Si Si5 0.189274 0.703040 0.448461
Si Si6 0.252552 0.961301 0.544450
Si Si7 0.470252 0.198871 0.054223
Si Si8 0.250300 0.160331 0.951768
O O1 0.635852 0.373529 0.750000
O O2 0.740997 0.339924 0.501908
O O3 0.666219 0.422360 0.488927
O O4 0.541077 0.342473 0.482481
O O5 0.011809 0.948092 0.750000
O O6 0.133190 0.948021 0.008387
O O7 0.911618 0.948377 0.030951
O O8 0.014420 0.878728 0.952248
O O9 0.235929 0.439790 0.250000
O O10 0.270619 0.487117 0.986809
O O11 0.246325 0.392266 0.986498
O O12 0.025474 0.348709 0.250000
O O13 0.135273 0.319629 0.004886
O O14 0.924241 0.299669 0.034322
O O15 0.242893 0.750000 0.500000
O O16 0.176427 0.701939 0.250000
O O17 0.252011 0.960982 0.750000
O O18 0.490771 0.198170 0.250000
O O19 0.494854 0.250000 0.000000
O O20 0.348686 0.187332 0.021107
O O21 0.259731 0.160419 0.750000
#
# Coordination Sequence:
#
# PCOD9434087 Si02
#       8
#     8   8   8   8   8   8   8   8
#     4   9  19  36  57  83 112 143 184 229 278 332
#     4  10  17  28  50  78 113 152 186 226 266 317
#     4   9  18  32  53  80 113 153 190 227 270 325
#     4  10  20  35  54  79 111 147 184 224 275 333
#     4  11  21  35  55  80 112 145 179 224 280 342
#     4   9  16  30  53  80 112 151 189 222 271 329
#     4  11  23  40  64  85 105 139 185 237 285 337
#     4   9  20  38  57  80 113 146 184 231 276 326
#
# _framework density 21.391400000000001
#
# number of rings (size 3 to 8) (size 9 to 14) (size 15 to 20)
#    0.000    2.250    1.250    3.000    0.000    3.000 
#    0.000    3.125    0.000    0.000    0.000    0.000 
#    0.000    0.000    0.000    0.000    0.000    0.000 
#
# Total GULP energy -357072.738210 kJ/mol
# GULP energy per Si atom -5579.261535 kJ/mol
# Density = 2.134271 g / cm^3
# Si number density = 21.391400 Si / 1000 Ang^3
#
#
#
# Elastic Constant Matrix: (Units=GPa)
#
#
# Indices 1 2 3 4 5 6 
#
# 1 63.9398 5.2031 0.5136 0.0000 0.0000 0.0000
# 2 5.2031 36.3857 4.3550 0.0000 0.0000 0.0000
# 3 0.5136 4.3550 20.4933 0.0000 0.0000 0.0000
# 4 0.0000 0.0000 0.0000 16.9400 0.0000 0.0000
# 5 0.0000 0.0000 0.0000 0.0000 64.3964 0.0000
# 6 0.0000 0.0000 0.0000 0.0000 0.0000 11.1524
#
#
#
# Elastic Compliance Matrix: (Units=1/GPa)
#
#
# Indices 1 2 3 4 5 6 
#
# 1 0.015824 -0.002273 0.000086 0.000000 0.000000 0.000000
# 2 -0.002273 0.028527 -0.006005 0.000000 0.000000 0.000000
# 3 0.000086 -0.006005 0.050071 0.000000 0.000000 0.000000
# 4 0.000000 0.000000 0.000000 0.059032 0.000000 0.000000
# 5 0.000000 0.000000 0.000000 0.000000 0.015529 0.000000
# 6 0.000000 0.000000 0.000000 0.000000 0.000000 0.089667
#
#
# Mechanical properties :
#
#
# Convention : Reuss Voigt Hill
#
# Bulk Modulus (GPa) = 12.81431 15.66247 14.23839
# Shear Modulus (GPa) = 16.60877 25.88088 21.24483
#
# Velocity S-wave (km/s) = 2.78946 3.48210 3.15484
# Velocity P-wave (km/s) = 4.04700 4.84814 4.46557
#
# Compressibility (1/GPa) = 0.07803774
#
# Stress axis : x y z
#
# Youngs Moduli (GPa) = 63.19519 35.05431 19.97184
#
# Poissons Ratio (x) = 0.07968 -0.00173
# Poissons Ratio (y) = 0.14365 0.11994
# Poissons Ratio (z) = -0.00546 0.21051
#
# Static dielectric constant tensor:
#      x y z
#    x 1.770680 0.000000 0.000000 
#    y 0.000000 1.841900 0.000000 
#    z 0.000000 0.000000 1.708820 
# 
# From -- ./inp_files/3855.got.cif
#   From: 2010.05.17/outbox.cif.g08.bks.cpg/sg57_2_cif.got.tgz:3855.got - 2010.06.03 13:58:18.
