data_PCOD9434989
_publ_section_title
;
Structure prediction by ZEFSAII (Michael W. Deem and Ramdas Pophale) SiO2 
 PCOD9434989
Probable space group: P B C M
;
_chemical_formula_sum "Si O2"
_cell_formula_units_Z 64
_cell_length_a 23.681439
_cell_length_b 17.378214
_cell_length_c 9.140143
_cell_angle_alpha 90.000000
_cell_angle_beta 90.000000
_cell_angle_gamma 90.000000
_cell_volume 3761.544639
_symmetry_space_group_name_H-M "P B C M"
_symmetry_group_IT_number 57
_symmetry_cell_setting 'orthorhombic'
loop_
_space_group_symop_operation_xyz
x,y,z
-x,-y,1/2+z
x,1/2-y,-z
-x,1/2+y,1/2-z
-x,-y,-z
x,y,1/2-z
-x,1/2+y,z
x,1/2-y,1/2+z
loop_
_atom_site_type_symbol
_atom_site_label
_atom_site_fract_x
_atom_site_fract_y
_atom_site_fract_z
Si Si1 0.576572 0.396106 0.421559
Si Si2 0.632943 0.937762 0.577630
Si Si3 0.680975 0.326248 0.923077
Si Si4 0.455201 0.168016 0.924709
Si Si5 0.868762 0.009038 0.425554
Si Si6 0.034071 0.430277 0.925174
Si Si7 0.069737 0.669283 0.424869
Si Si8 0.736738 0.489337 0.575650
O O1 0.584997 0.376757 0.250000
O O2 0.596738 0.483608 0.442353
O O3 0.618339 0.344246 0.517193
O O4 0.511363 0.382068 0.457013
O O5 0.635719 0.921057 0.750000
O O6 0.599616 0.872498 0.491297
O O7 0.694493 0.955911 0.512507
O O8 0.679690 0.315634 0.750000
O O9 0.717733 0.401765 0.957355
O O10 0.703204 0.250000 0.000000
O O11 0.450315 0.175443 0.750000
O O12 0.463362 0.250000 0.000000
O O13 0.877557 0.002671 0.250000
O O14 0.892271 0.094530 0.467321
O O15 0.802614 0.001927 0.457140
O O16 0.904421 0.942836 0.506552
O O17 0.035528 0.439458 0.750000
O O18 0.995294 0.355953 0.957075
O O19 0.000000 0.500000 0.000000
O O20 0.084037 0.750000 0.500000
O O21 0.075402 0.677745 0.250000
O O22 0.728228 0.500923 0.750000
#
# Coordination Sequence:
#
# PCOD9434989 Si02
#       8
#     8   8   8   8   8   8   8   8
#     4   9  19  34  52  74  99 128 164 204 247 301
#     4  10  20  35  54  76 101 129 165 208 250 297
#     4  10  19  30  46  68  98 134 167 202 246 295
#     4  11  22  35  52  75 101 129 162 203 255 308
#     4   9  18  33  51  72  98 129 168 208 243 284
#     4   9  17  30  48  71  98 128 163 200 238 282
#     4   9  18  30  46  72 104 133 160 194 237 285
#     4   9  19  35  52  70  96 132 169 205 247 292
#
# _framework density 17.014285999999998
#
# number of rings (size 3 to 8) (size 9 to 14) (size 15 to 20)
#    0.000    2.500    0.000    3.000    0.000    6.500 
#    0.000    0.000    0.000    0.750    0.000    1.750 
#    0.000    0.000    0.000    0.000    0.000    0.000 
#
# Total GULP energy -356822.643613 kJ/mol
# GULP energy per Si atom -5575.353806 kJ/mol
# Density = 1.697556 g / cm^3
# Si number density = 17.014286 Si / 1000 Ang^3
#
#
#
# Elastic Constant Matrix: (Units=GPa)
#
#
# Indices 1 2 3 4 5 6 
#
# 1 112.0154 20.9323 40.3449 0.0000 0.0000 0.0000
# 2 20.9323 20.0897 17.5077 0.0000 0.0000 0.0000
# 3 40.3449 17.5077 37.3670 0.0000 0.0000 0.0000
# 4 0.0000 0.0000 0.0000 28.8342 0.0000 0.0000
# 5 0.0000 0.0000 0.0000 0.0000 26.7781 0.0000
# 6 0.0000 0.0000 0.0000 0.0000 0.0000 10.7496
#
#
#
# Elastic Compliance Matrix: (Units=1/GPa)
#
#
# Indices 1 2 3 4 5 6 
#
# 1 0.014682 -0.002507 -0.014678 0.000000 0.000000 0.000000
# 2 -0.002507 0.084555 -0.036910 0.000000 0.000000 0.000000
# 3 -0.014678 -0.036910 0.059903 0.000000 0.000000 0.000000
# 4 0.000000 0.000000 0.000000 0.034681 0.000000 0.000000
# 5 0.000000 0.000000 0.000000 0.000000 0.037344 0.000000
# 6 0.000000 0.000000 0.000000 0.000000 0.000000 0.093027
#
#
# Mechanical properties :
#
#
# Convention : Reuss Voigt Hill
#
# Bulk Modulus (GPa) = 19.62694 36.33797 27.98246
# Shear Modulus (GPa) = 11.12678 19.31817 15.22248
#
# Velocity S-wave (km/s) = 2.56005 3.37324 2.99438
# Velocity P-wave (km/s) = 4.50545 6.04776 5.33266
#
# Compressibility (1/GPa) = 0.05095038
#
# Stress axis : x y z
#
# Youngs Moduli (GPa) = 68.10876 11.82661 16.69361
#
# Poissons Ratio (x) = 0.02965 0.24503
# Poissons Ratio (y) = 0.17072 0.61617
# Poissons Ratio (z) = 0.99970 0.43653
#
# Static dielectric constant tensor:
#      x y z
#    x 1.592080 0.000000 0.000000 
#    y 0.000000 1.565310 0.000000 
#    z 0.000000 0.000000 1.565550 
# 
# From -- ./inp_files/9545.got.cif
#   From: 2010.05.17/outbox.cif.g08.bks.cpg/sg57_5_cif.got.tgz:9545.got - 2010.06.03 13:58:18.
