data_PCOD9434275
_publ_section_title
;
Structure prediction by ZEFSAII (Michael W. Deem and Ramdas Pophale) SiO2 
 PCOD9434275
Probable space group: P B C M
;
_chemical_formula_sum "Si O2"
_cell_formula_units_Z 24
_cell_length_a 11.725761
_cell_length_b 5.200377
_cell_length_c 18.606344
_cell_angle_alpha 90.000000
_cell_angle_beta 90.000000
_cell_angle_gamma 90.000000
_cell_volume 1134.584674
_symmetry_space_group_name_H-M "P B C M"
_symmetry_group_IT_number 57
_symmetry_cell_setting 'orthorhombic'
loop_
_space_group_symop_operation_xyz
x,y,z
-x,-y,1/2+z
x,1/2-y,-z
-x,1/2+y,1/2-z
-x,-y,-z
x,y,1/2-z
-x,1/2+y,z
x,1/2-y,1/2+z
loop_
_atom_site_type_symbol
_atom_site_label
_atom_site_fract_x
_atom_site_fract_y
_atom_site_fract_z
Si Si1 0.421659 0.054597 0.594296
Si Si2 0.574354 0.040365 0.250000
Si Si3 0.049249 0.541268 0.581152
Si Si4 0.254967 0.750000 0.000000
O O1 0.520350 0.833587 0.588969
O O2 0.368486 0.020138 0.673964
O O3 0.330799 0.971363 0.535365
O O4 0.531555 0.335376 0.250000
O O5 0.176689 0.630772 0.563467
O O6 0.000000 0.500000 0.500000
O O7 0.024620 0.267853 0.616173
#
# Coordination Sequence:
#
# PCOD9434275 Si02
#       4
#     8   4   8   4
#     4  10  20  30  43  64  90 116 143 172 209 252
#     4   8  16  32  44  54  82 120 146 168 200 250
#     4   8  16  28  41  60  83 110 138 168 211 258
#     4  10  18  28  46  68  88 110 140 184 214 240
#
# _framework density 21.153116000000001
#
# number of rings (size 3 to 8) (size 9 to 14) (size 15 to 20)
#    0.000    3.333    0.000    1.000    0.000   10.667 
#    0.000    0.000    0.000    0.000    0.000   21.000 
#    0.000    0.000    0.000    0.000    0.000    0.000 
#
# Total GULP energy -133676.197532 kJ/mol
# GULP energy per Si atom -5569.841564 kJ/mol
# Density = 2.110497 g / cm^3
# Si number density = 21.153116 Si / 1000 Ang^3
#
#
#
# Elastic Constant Matrix: (Units=GPa)
#
#
# Indices 1 2 3 4 5 6 
#
# 1 51.9191 16.9128 27.3063 0.0000 0.0000 0.0000
# 2 16.9128 143.8598 10.6112 0.0000 0.0000 0.0000
# 3 27.3063 10.6112 55.7001 0.0000 0.0000 0.0000
# 4 0.0000 0.0000 0.0000 16.9275 0.0000 0.0000
# 5 0.0000 0.0000 0.0000 0.0000 -4.4841 0.0000
# 6 0.0000 0.0000 0.0000 0.0000 0.0000 -5.3427
#
#
#
# Elastic Compliance Matrix: (Units=1/GPa)
#
#
# Indices 1 2 3 4 5 6 
#
# 1 0.026620 -0.002198 -0.012631 0.000000 0.000000 0.000000
# 2 -0.002198 0.007232 -0.000300 0.000000 0.000000 0.000000
# 3 -0.012631 -0.000300 0.024203 0.000000 0.000000 0.000000
# 4 0.000000 0.000000 0.000000 0.059076 0.000000 0.000000
# 5 0.000000 0.000000 0.000000 0.000000 -0.223010 0.000000
# 6 0.000000 0.000000 0.000000 0.000000 0.000000 -0.187170
#
#
# Mechanical properties :
#
#
# Convention : Reuss Voigt Hill
#
# Bulk Modulus (GPa) = 35.97687 40.12663 38.05175
# Shear Modulus (GPa) = -19.72188 14.53004 -2.59592
#
# Velocity S-wave (km/s) = -3.05674 2.62372 -1.10899
# Velocity P-wave (km/s) = 2.14163 5.30936 4.04820
#
# Compressibility (1/GPa) = 0.02779564
#
# Stress axis : x y z
#
# Youngs Moduli (GPa) = 37.56562 138.27920 41.31738
#
# Poissons Ratio (x) = 0.30392 0.52190
# Poissons Ratio (y) = 0.08256 0.01240
# Poissons Ratio (z) = 0.47451 0.04151
#
# Static dielectric constant tensor:
#      x y z
#    x 1.803530 0.000000 0.000000 
#    y 0.000000 1.805370 0.000000 
#    z 0.000000 0.000000 1.750120 
# 
# From -- ./inp_files/24740.got.cif
#   From: 2010.05.17/outbox.cif.g08.bks.cpg/sg57_13_cif.got.tgz:24740.got - 2010.06.03 13:58:18.
