data_PCOD9434735
_publ_section_title
;
Structure prediction by ZEFSAII (Michael W. Deem and Ramdas Pophale) SiO2 
 PCOD9434735
Probable space group: P B C M
;
_chemical_formula_sum "Si O2"
_cell_formula_units_Z 56
_cell_length_a 11.982460
_cell_length_b 11.566142
_cell_length_c 18.963869
_cell_angle_alpha 90.000000
_cell_angle_beta 90.000000
_cell_angle_gamma 90.000000
_cell_volume 2628.218418
_symmetry_space_group_name_H-M "P B C M"
_symmetry_group_IT_number 57
_symmetry_cell_setting 'orthorhombic'
loop_
_space_group_symop_operation_xyz
x,y,z
-x,-y,1/2+z
x,1/2-y,-z
-x,1/2+y,1/2-z
-x,-y,-z
x,y,1/2-z
-x,1/2+y,z
x,1/2-y,1/2+z
loop_
_atom_site_type_symbol
_atom_site_label
_atom_site_fract_x
_atom_site_fract_y
_atom_site_fract_z
Si Si1 0.032774 0.783699 0.750000
Si Si2 0.413536 0.460340 0.666084
Si Si3 0.905701 0.846552 0.558426
Si Si4 0.149043 0.681291 0.101333
Si Si5 0.324482 0.516853 0.165331
Si Si6 0.211949 0.566806 0.601645
Si Si7 0.080485 0.535573 0.750000
Si Si8 0.743171 0.754322 0.167224
O O1 0.107922 0.791459 0.819381
O O2 0.995793 0.646396 0.750000
O O3 0.970646 0.907764 0.750000
O O4 0.398325 0.484867 0.750000
O O5 0.544604 0.462548 0.652855
O O6 0.341837 0.549089 0.619417
O O7 0.355246 0.336918 0.650712
O O8 0.886169 0.750000 0.500000
O O9 0.837876 0.965594 0.552721
O O10 0.854465 0.785173 0.627738
O O11 0.037425 0.867798 0.565361
O O12 0.250353 0.594904 0.113905
O O13 0.184561 0.806889 0.073095
O O14 0.304008 0.538772 0.250000
O O15 0.293008 0.383940 0.151345
O O16 0.152019 0.546027 0.678072
O O17 0.762208 0.744805 0.250000
#
# Coordination Sequence:
#
# PCOD9434735 Si02
#       8
#     4   8   8   8   8   8   4   8
#     4  10  20  32  53  84 122 154 197 251 295 368
#     4   9  18  34  57  88 123 158 199 246 304 350
#     4  11  25  42  63  88 120 159 204 257 312 365
#     4  11  23  36  56  87 122 160 197 244 304 365
#     4  10  21  35  58  94 128 158 201 253 302 357
#     4  10  21  37  59  85 121 160 201 244 301 365
#     4  10  18  34  55  86 118 160 197 243 303 368
#     4   9  21  39  62  91 122 161 200 251 303 364
#
# _framework density 21.307210000000001
#
# number of rings (size 3 to 8) (size 9 to 14) (size 15 to 20)
#    0.000    2.000    2.857    0.000    6.000    0.571 
#    0.000    0.000    0.000    6.857    0.000    0.000 
#    0.000    0.000    0.000    0.000    0.000    0.000 
#
# Total GULP energy -312811.472204 kJ/mol
# GULP energy per Si atom -5585.919146 kJ/mol
# Density = 2.125871 g / cm^3
# Si number density = 21.307210 Si / 1000 Ang^3
#
#
#
# Elastic Constant Matrix: (Units=GPa)
#
#
# Indices 1 2 3 4 5 6 
#
# 1 149.5803 73.0452 18.9107 0.0000 0.0000 0.0000
# 2 73.0452 112.9772 26.9772 0.0000 0.0000 0.0000
# 3 18.9107 26.9772 36.3331 0.0000 0.0000 0.0000
# 4 0.0000 0.0000 0.0000 31.6047 0.0000 0.0000
# 5 0.0000 0.0000 0.0000 0.0000 15.2368 0.0000
# 6 0.0000 0.0000 0.0000 0.0000 0.0000 28.4163
#
#
#
# Elastic Compliance Matrix: (Units=1/GPa)
#
#
# Indices 1 2 3 4 5 6 
#
# 1 0.009777 -0.006207 -0.000480 0.000000 0.000000 0.000000
# 2 -0.006207 0.014699 -0.007683 0.000000 0.000000 0.000000
# 3 -0.000480 -0.007683 0.033478 0.000000 0.000000 0.000000
# 4 0.000000 0.000000 0.000000 0.031641 0.000000 0.000000
# 5 0.000000 0.000000 0.000000 0.000000 0.065630 0.000000
# 6 0.000000 0.000000 0.000000 0.000000 0.000000 0.035191
#
#
# Mechanical properties :
#
#
# Convention : Reuss Voigt Hill
#
# Bulk Modulus (GPa) = 34.23119 59.63966 46.93542
# Shear Modulus (GPa) = 21.84408 27.04873 24.44640
#
# Velocity S-wave (km/s) = 3.20534 3.56682 3.39090
# Velocity P-wave (km/s) = 5.45888 6.70925 6.11610
#
# Compressibility (1/GPa) = 0.02921312
#
# Stress axis : x y z
#
# Youngs Moduli (GPa) = 102.28088 68.03227 29.87027
#
# Poissons Ratio (x) = 0.42225 0.01435
# Poissons Ratio (y) = 0.63482 0.22951
# Poissons Ratio (z) = 0.04913 0.52272
#
# Static dielectric constant tensor:
#      x y z
#    x 1.765920 0.000000 0.000000 
#    y 0.000000 1.787520 0.000000 
#    z 0.000000 0.000000 1.817690 
# 
# From -- ./inp_files/27239.got.cif
#   From: 2010.05.17/outbox.cif.g08.bks.cpg/sg57_14_cif.got.tgz:27239.got - 2010.06.03 13:58:18.
