data_PCOD9434183
_publ_section_title
;
Structure prediction by ZEFSAII (Michael W. Deem and Ramdas Pophale) SiO2 
 PCOD9434183
Probable space group: P B C M
;
_chemical_formula_sum "Si O2"
_cell_formula_units_Z 60
_cell_length_a 12.331347
_cell_length_b 15.170053
_cell_length_c 14.894931
_cell_angle_alpha 90.000000
_cell_angle_beta 90.000000
_cell_angle_gamma 90.000000
_cell_volume 2786.352851
_symmetry_space_group_name_H-M "P B C M"
_symmetry_group_IT_number 57
_symmetry_cell_setting 'orthorhombic'
loop_
_space_group_symop_operation_xyz
x,y,z
-x,-y,1/2+z
x,1/2-y,-z
-x,1/2+y,1/2-z
-x,-y,-z
x,y,1/2-z
-x,1/2+y,z
x,1/2-y,1/2+z
loop_
_atom_site_type_symbol
_atom_site_label
_atom_site_fract_x
_atom_site_fract_y
_atom_site_fract_z
Si Si1 0.822478 0.750000 0.500000
Si Si2 0.384164 0.621409 0.351660
Si Si3 0.505884 0.956296 0.353915
Si Si4 0.751614 0.614803 0.645665
Si Si5 0.636704 0.198591 0.906062
Si Si6 0.122608 0.825810 0.078033
Si Si7 0.027228 0.192013 0.348843
Si Si8 0.848148 0.436595 0.581142
O O1 0.760472 0.692562 0.573549
O O2 0.895515 0.812391 0.564541
O O3 0.358575 0.591343 0.250000
O O4 0.480204 0.557535 0.384027
O O5 0.414193 0.723618 0.347241
O O6 0.272116 0.606189 0.405394
O O7 0.468730 0.953749 0.250000
O O8 0.628494 0.920252 0.358053
O O9 0.428343 0.891445 0.407240
O O10 0.774560 0.637502 0.750000
O O11 0.831106 0.536161 0.612648
O O12 0.759904 0.180013 0.877042
O O13 0.635605 0.250000 0.000000
O O14 0.028284 0.789432 0.141172
O O15 0.122702 0.750000 0.000000
O O16 0.116653 0.916324 0.021857
O O17 0.076714 0.183090 0.250000
O O18 0.933052 0.118963 0.359780
#
# Coordination Sequence:
#
# PCOD9434183 Si02
#       8
#     4   8   8   8   8   8   8   8
#     4  12  24  40  58  84 118 148 192 246 300 346
#     4  10  18  32  54  79 111 151 191 231 279 339
#     4   9  21  37  53  80 112 149 201 242 277 343
#     4  10  23  42  62  83 112 155 205 245 285 348
#     4  11  19  31  54  84 115 146 185 235 292 338
#     4   9  17  33  52  88 121 142 181 236 288 349
#     4  11  20  35  60  88 119 151 184 234 298 350
#     4  10  17  37  59  85 113 150 191 240 287 347
#
# _framework density 21.533525000000001
#
# number of rings (size 3 to 8) (size 9 to 14) (size 15 to 20)
#    0.000    1.867    6.000    2.800    0.933    1.600 
#    0.000    0.000    0.000    0.800    0.000    0.000 
#    0.000    0.000    0.000    0.000    0.000    0.000 
#
# Total GULP energy -334504.332564 kJ/mol
# GULP energy per Si atom -5575.072209 kJ/mol
# Density = 2.148451 g / cm^3
# Si number density = 21.533525 Si / 1000 Ang^3
#
#
#
# Elastic Constant Matrix: (Units=GPa)
#
#
# Indices 1 2 3 4 5 6 
#
# 1 11.8873 -4.2721 -1.9681 0.0000 0.0000 0.0000
# 2 -4.2721 55.7952 24.9419 0.0000 0.0000 0.0000
# 3 -1.9681 24.9419 92.4960 0.0000 0.0000 0.0000
# 4 0.0000 0.0000 0.0000 30.6623 0.0000 0.0000
# 5 0.0000 0.0000 0.0000 0.0000 -8.6749 0.0000
# 6 0.0000 0.0000 0.0000 0.0000 0.0000 24.4892
#
#
#
# Elastic Compliance Matrix: (Units=1/GPa)
#
#
# Indices 1 2 3 4 5 6 
#
# 1 0.086504 0.006596 0.000062 0.000000 0.000000 0.000000
# 2 0.006596 0.020882 -0.005491 0.000000 0.000000 0.000000
# 3 0.000062 -0.005491 0.012293 0.000000 0.000000 0.000000
# 4 0.000000 0.000000 0.000000 0.032613 0.000000 0.000000
# 5 0.000000 0.000000 0.000000 0.000000 -0.115275 0.000000
# 6 0.000000 0.000000 0.000000 0.000000 0.000000 0.040834
#
#
# Mechanical properties :
#
#
# Convention : Reuss Voigt Hill
#
# Bulk Modulus (GPa) = 8.19583 21.95354 15.07469
# Shear Modulus (GPa) = 43.03357 18.72711 30.88034
#
# Velocity S-wave (km/s) = 4.47525 2.95222 3.79100
# Velocity P-wave (km/s) = 5.52432 4.67311 5.11645
#
# Compressibility (1/GPa) = 0.12201320
#
# Stress axis : x y z
#
# Youngs Moduli (GPa) = 11.56019 47.88780 81.34604
#
# Poissons Ratio (x) = -0.31585 -0.00505
# Poissons Ratio (y) = -0.07625 0.44664
# Poissons Ratio (z) = -0.00072 0.26293
#
# Static dielectric constant tensor:
#      x y z
#    x 1.784550 0.000000 0.000000 
#    y 0.000000 1.863180 0.000000 
#    z 0.000000 0.000000 1.898980 
# 
# From -- ./inp_files/18654.got.cif
#   From: 2010.05.17/outbox.cif.g08.bks.cpg/sg57_10_cif.got.tgz:18654.got - 2010.06.03 13:58:18.
