data_PCOD9434446
_publ_section_title
;
Structure prediction by ZEFSAII (Michael W. Deem and Ramdas Pophale) SiO2 
 PCOD9434446
Probable space group: P B C M
;
_chemical_formula_sum "Si O2"
_cell_formula_units_Z 64
_cell_length_a 11.598923
_cell_length_b 18.268097
_cell_length_c 15.066229
_cell_angle_alpha 90.000000
_cell_angle_beta 90.000000
_cell_angle_gamma 90.000000
_cell_volume 3192.387036
_symmetry_space_group_name_H-M "P B C M"
_symmetry_group_IT_number 57
_symmetry_cell_setting 'orthorhombic'
loop_
_space_group_symop_operation_xyz
x,y,z
-x,-y,1/2+z
x,1/2-y,-z
-x,1/2+y,1/2-z
-x,-y,-z
x,y,1/2-z
-x,1/2+y,z
x,1/2-y,1/2+z
loop_
_atom_site_type_symbol
_atom_site_label
_atom_site_fract_x
_atom_site_fract_y
_atom_site_fract_z
Si Si1 0.183918 0.731411 0.850099
Si Si2 0.171086 0.070976 0.357147
Si Si3 0.468955 0.435062 0.432438
Si Si4 0.342425 0.182669 0.445274
Si Si5 0.278254 0.916000 0.142305
Si Si6 0.081431 0.617607 0.358306
Si Si7 0.415783 0.706737 0.092636
Si Si8 0.677980 0.055778 0.146103
O O1 0.139389 0.721050 0.750000
O O2 0.199801 0.651393 0.892248
O O3 0.316435 0.759402 0.847005
O O4 0.113631 0.799829 0.890137
O O5 0.171164 0.070030 0.250000
O O6 0.252567 0.135502 0.391234
O O7 0.041027 0.086861 0.388048
O O8 0.225053 0.993544 0.386666
O O9 0.500000 0.500000 0.500000
O O10 0.404998 0.370095 0.483195
O O11 0.588459 0.411036 0.386901
O O12 0.379470 0.477388 0.368642
O O13 0.290869 0.250000 0.500000
O O14 0.449294 0.211488 0.385137
O O15 0.276110 0.913164 0.250000
O O16 0.078224 0.622198 0.250000
O O17 0.188171 0.564160 0.379181
O O18 0.385303 0.620610 0.092233
O O19 0.402066 0.750000 0.000000
O O20 0.666044 0.074791 0.250000
#
# Coordination Sequence:
#
# PCOD9434446 Si02
#       8
#     8   8   8   8   8   8   8   8
#     4   9  18  32  53  81 112 139 183 240 281 329
#     4  10  20  37  59  79 107 150 196 232 277 340
#     4  12  21  36  56  83 116 151 177 235 296 343
#     4  11  23  37  53  78 117 150 184 227 289 347
#     4  10  19  32  56  87 111 143 191 234 279 339
#     4   8  17  36  58  80 108 148 195 239 275 324
#     4  10  18  30  52  81 111 147 178 224 285 343
#     4  10  20  36  58  83 111 149 194 232 282 345
#
# _framework density 20.047694
#
# number of rings (size 3 to 8) (size 9 to 14) (size 15 to 20)
#    0.000    2.000    2.500    3.000    0.000    2.000 
#    0.000    5.625    0.000    3.000    0.000    0.000 
#    0.000    0.000    0.000    0.000    0.000    0.000 
#
# Total GULP energy -356881.551526 kJ/mol
# GULP energy per Si atom -5576.274243 kJ/mol
# Density = 2.000206 g / cm^3
# Si number density = 20.047694 Si / 1000 Ang^3
#
#
#
# Elastic Constant Matrix: (Units=GPa)
#
#
# Indices 1 2 3 4 5 6 
#
# 1 101.9009 28.3078 15.3423 0.0000 0.0000 0.0000
# 2 28.3078 102.2451 12.8254 0.0000 0.0000 0.0000
# 3 15.3423 12.8254 32.0806 0.0000 0.0000 0.0000
# 4 0.0000 0.0000 0.0000 26.1111 0.0000 0.0000
# 5 0.0000 0.0000 0.0000 0.0000 -85.5433 0.0000
# 6 0.0000 0.0000 0.0000 0.0000 0.0000 21.2087
#
#
#
# Elastic Compliance Matrix: (Units=1/GPa)
#
#
# Indices 1 2 3 4 5 6 
#
# 1 0.011173 -0.002551 -0.004324 0.000000 0.000000 0.000000
# 2 -0.002551 0.010879 -0.003129 0.000000 0.000000 0.000000
# 3 -0.004324 -0.003129 0.034490 0.000000 0.000000 0.000000
# 4 0.000000 0.000000 0.000000 0.038298 0.000000 0.000000
# 5 0.000000 0.000000 0.000000 0.000000 -0.011690 0.000000
# 6 0.000000 0.000000 0.000000 0.000000 0.000000 0.047150
#
#
# Mechanical properties :
#
#
# Convention : Reuss Voigt Hill
#
# Bulk Modulus (GPa) = 27.37127 38.79750 33.08438
# Shear Modulus (GPa) = 30.77167 4.33871 17.55519
#
# Velocity S-wave (km/s) = 3.92206 1.47272 2.96238
# Velocity P-wave (km/s) = 5.84746 4.72085 5.31410
#
# Compressibility (1/GPa) = 0.03653466
#
# Stress axis : x y z
#
# Youngs Moduli (GPa) = 89.50067 91.91806 28.99369
#
# Poissons Ratio (x) = 0.23449 0.12536
# Poissons Ratio (y) = 0.22832 0.09073
# Poissons Ratio (z) = 0.38696 0.28764
#
# Static dielectric constant tensor:
#      x y z
#    x 1.707300 0.000000 0.000000 
#    y 0.000000 1.749120 0.000000 
#    z 0.000000 0.000000 1.761940 
# 
# From -- ./inp_files/22183.got.cif
#   From: 2010.05.17/outbox.cif.g08.bks.cpg/sg57_12_cif.got.tgz:22183.got - 2010.06.03 13:58:18.
