data_PCOD9434670
_publ_section_title
;
Structure prediction by ZEFSAII (Michael W. Deem and Ramdas Pophale) SiO2 
 PCOD9434670
Probable space group: P B C M
;
_chemical_formula_sum "Si O2"
_cell_formula_units_Z 48
_cell_length_a 9.061436
_cell_length_b 17.489410
_cell_length_c 15.568191
_cell_angle_alpha 90.000000
_cell_angle_beta 90.000000
_cell_angle_gamma 90.000000
_cell_volume 2467.233979
_symmetry_space_group_name_H-M "P B C M"
_symmetry_group_IT_number 57
_symmetry_cell_setting 'orthorhombic'
loop_
_space_group_symop_operation_xyz
x,y,z
-x,-y,1/2+z
x,1/2-y,-z
-x,1/2+y,1/2-z
-x,-y,-z
x,y,1/2-z
-x,1/2+y,z
x,1/2-y,1/2+z
loop_
_atom_site_type_symbol
_atom_site_label
_atom_site_fract_x
_atom_site_fract_y
_atom_site_fract_z
Si Si1 0.143501 0.024057 0.100576
Si Si2 0.697203 0.952004 0.426548
Si Si3 0.040503 0.114134 0.649200
Si Si4 0.846911 0.102102 0.352412
Si Si5 0.394990 0.584286 0.652116
Si Si6 0.200414 0.770792 0.353366
O O1 0.021764 0.084431 0.133475
O O2 0.036671 0.949663 0.088608
O O3 0.271816 0.982604 0.155109
O O4 0.235631 0.055795 0.020989
O O5 0.525784 0.939248 0.411116
O O6 0.787679 0.891759 0.368314
O O7 0.749564 0.035588 0.394681
O O8 0.011907 0.094215 0.750000
O O9 0.960578 0.193064 0.630686
O O10 0.823123 0.098512 0.250000
O O11 0.797391 0.184828 0.387111
O O12 0.449629 0.594667 0.750000
O O13 0.316330 0.663086 0.621714
O O14 0.216159 0.765411 0.250000
#
# Coordination Sequence:
#
# PCOD9434670 Si02
#       6
#     8   8   8   8   8   8
#     4  10  19  32  50  75 106 135 169 214 257 305
#     4  11  20  31  51  80 108 136 171 214 262 314
#     4   9  16  31  51  72  97 137 180 214 254 312
#     4  10  18  33  55  80 103 135 180 224 256 297
#     4  10  19  35  54  74 102 143 177 208 259 322
#     4   8  17  32  53  75  99 132 179 222 256 298
#
# _framework density 19.454986000000002
#
# number of rings (size 3 to 8) (size 9 to 14) (size 15 to 20)
#    0.000    2.333    0.000    7.500    0.000    0.000 
#    0.000    9.167    0.000    6.000    0.000    0.000 
#    0.000    0.000    0.000    0.000    0.000    0.000 
#
# Total GULP energy -267249.882672 kJ/mol
# GULP energy per Si atom -5567.705889 kJ/mol
# Density = 1.941071 g / cm^3
# Si number density = 19.454986 Si / 1000 Ang^3
#
#
#
# Elastic Constant Matrix: (Units=GPa)
#
#
# Indices 1 2 3 4 5 6 
#
# 1 91.3897 38.2707 1.8387 0.0000 0.0000 0.0000
# 2 38.2707 106.0361 15.0059 0.0000 0.0000 0.0000
# 3 1.8387 15.0059 19.6848 0.0000 0.0000 0.0000
# 4 0.0000 0.0000 0.0000 -292.5749 0.0000 0.0000
# 5 0.0000 0.0000 0.0000 0.0000 28.3343 0.0000
# 6 0.0000 0.0000 0.0000 0.0000 0.0000 16.0175
#
#
#
# Elastic Compliance Matrix: (Units=1/GPa)
#
#
# Indices 1 2 3 4 5 6 
#
# 1 0.013013 -0.005072 0.002651 0.000000 0.000000 0.000000
# 2 -0.005072 0.012548 -0.009092 0.000000 0.000000 0.000000
# 3 0.002651 -0.009092 0.057484 0.000000 0.000000 0.000000
# 4 0.000000 0.000000 0.000000 -0.003418 0.000000 0.000000
# 5 0.000000 0.000000 0.000000 0.000000 0.035293 0.000000
# 6 0.000000 0.000000 0.000000 0.000000 0.000000 0.062432
#
#
# Mechanical properties :
#
#
# Convention : Reuss Voigt Hill
#
# Bulk Modulus (GPa) = 16.66141 36.37126 26.51634
# Shear Modulus (GPa) = 22.68787 -38.84493 -8.07853
#
# Velocity S-wave (km/s) = 3.41863 -4.47324 -2.03996
# Velocity P-wave (km/s) = 4.91583 2.81855 2.84791
#
# Compressibility (1/GPa) = 0.06001892
#
# Stress axis : x y z
#
# Youngs Moduli (GPa) = 76.84830 79.69498 17.39628
#
# Poissons Ratio (x) = 0.40419 -0.04611
# Poissons Ratio (y) = 0.38975 0.15816
# Poissons Ratio (z) = -0.20370 0.72455
#
# Static dielectric constant tensor:
#      x y z
#    x 1.681960 0.000000 0.000000 
#    y 0.000000 1.687140 0.000000 
#    z 0.000000 0.000000 1.763170 
# 
# From -- ./inp_files/16342.got.cif
#   From: 2010.05.17/outbox.cif.g08.bks.cpg/sg57_9_cif.got.tgz:16342.got - 2010.06.03 13:58:18.
