data_PCOD9434996
_publ_section_title
;
Structure prediction by ZEFSAII (Michael W. Deem and Ramdas Pophale) SiO2 
 PCOD9434996
Probable space group: P B C M
;
_chemical_formula_sum "Si O2"
_cell_formula_units_Z 64
_cell_length_a 16.302074
_cell_length_b 24.513939
_cell_length_c 9.426909
_cell_angle_alpha 90.000000
_cell_angle_beta 90.000000
_cell_angle_gamma 90.000000
_cell_volume 3767.257239
_symmetry_space_group_name_H-M "P B C M"
_symmetry_group_IT_number 57
_symmetry_cell_setting 'orthorhombic'
loop_
_space_group_symop_operation_xyz
x,y,z
-x,-y,1/2+z
x,1/2-y,-z
-x,1/2+y,1/2-z
-x,-y,-z
x,y,1/2-z
-x,1/2+y,z
x,1/2-y,1/2+z
loop_
_atom_site_type_symbol
_atom_site_label
_atom_site_fract_x
_atom_site_fract_y
_atom_site_fract_z
Si Si1 0.862809 0.883996 0.085072
Si Si2 0.479619 0.694589 0.079770
Si Si3 0.969973 0.053943 0.581414
Si Si4 0.610978 0.608572 0.085686
Si Si5 0.713988 0.195784 0.418173
Si Si6 0.803891 0.083144 0.421038
Si Si7 0.758789 0.695991 0.413398
Si Si8 0.280549 0.028486 0.582265
O O1 0.849822 0.868885 0.250000
O O2 0.801548 0.935094 0.056293
O O3 0.955699 0.903138 0.066476
O O4 0.834725 0.835316 0.984702
O O5 0.492192 0.701125 0.250000
O O6 0.531023 0.641438 0.034488
O O7 0.382903 0.687138 0.052657
O O8 0.505962 0.750000 0.000000
O O9 0.958661 0.043541 0.750000
O O10 0.887151 0.074114 0.507384
O O11 0.000000 0.000000 0.500000
O O12 0.598881 0.593135 0.250000
O O13 0.683019 0.653973 0.079453
O O14 0.645051 0.557273 0.999272
O O15 0.740882 0.250000 0.500000
O O16 0.722034 0.204996 0.250000
O O17 0.763776 0.141367 0.454004
O O18 0.819082 0.079831 0.250000
O O19 0.742194 0.033339 0.456289
O O20 0.739302 0.750000 0.500000
O O21 0.774581 0.709013 0.250000
O O22 0.297004 0.030605 0.750000
#
# Coordination Sequence:
#
# PCOD9434996 Si02
#       8
#     8   8   8   8   8   8   8   8
#     4   9  18  33  49  69  98 131 166 206 245 295
#     4   9  17  31  51  75 101 134 174 219 263 307
#     4  11  21  34  55  81 106 132 168 212 255 303
#     4   9  18  30  46  72 104 133 171 213 257 305
#     4   9  19  36  58  78 103 136 173 218 265 311
#     4  10  20  36  55  78 105 137 175 213 259 312
#     4  10  19  30  46  69  98 135 170 206 251 302
#     4   9  17  31  49  70 101 136 170 205 250 305
#
# _framework density 16.988486000000002
#
# number of rings (size 3 to 8) (size 9 to 14) (size 15 to 20)
#    0.000    2.500    1.250    1.125    0.000    3.000 
#    0.000    1.250    0.000    1.500    0.000    0.000 
#    0.000    0.000    0.000    0.000    0.000    0.000 
#
# Total GULP energy -356839.754328 kJ/mol
# GULP energy per Si atom -5575.621161 kJ/mol
# Density = 1.694982 g / cm^3
# Si number density = 16.988486 Si / 1000 Ang^3
#
#
#
# Elastic Constant Matrix: (Units=GPa)
#
#
# Indices 1 2 3 4 5 6 
#
# 1 69.7942 47.8009 38.3878 0.0000 0.0000 0.0000
# 2 47.8009 98.6743 50.4132 0.0000 0.0000 0.0000
# 3 38.3878 50.4132 56.1161 0.0000 0.0000 0.0000
# 4 0.0000 0.0000 0.0000 29.6680 0.0000 0.0000
# 5 0.0000 0.0000 0.0000 0.0000 23.0162 0.0000
# 6 0.0000 0.0000 0.0000 0.0000 0.0000 23.6452
#
#
#
# Elastic Compliance Matrix: (Units=1/GPa)
#
#
# Indices 1 2 3 4 5 6 
#
# 1 0.024867 -0.006202 -0.011439 0.000000 0.000000 0.000000
# 2 -0.006202 0.020279 -0.013975 0.000000 0.000000 0.000000
# 3 -0.011439 -0.013975 0.038201 0.000000 0.000000 0.000000
# 4 0.000000 0.000000 0.000000 0.033706 0.000000 0.000000
# 5 0.000000 0.000000 0.000000 0.000000 0.043448 0.000000
# 6 0.000000 0.000000 0.000000 0.000000 0.000000 0.042292
#
#
# Mechanical properties :
#
#
# Convention : Reuss Voigt Hill
#
# Bulk Modulus (GPa) = 49.71828 55.30982 52.51405
# Shear Modulus (GPa) = 18.33308 21.13139 19.73224
#
# Velocity S-wave (km/s) = 3.28860 3.53067 3.41179
# Velocity P-wave (km/s) = 6.61432 7.01775 6.81902
#
# Compressibility (1/GPa) = 0.02011333
#
# Stress axis : x y z
#
# Youngs Moduli (GPa) = 40.21327 49.31232 26.17752
#
# Poissons Ratio (x) = 0.30584 0.29946
# Poissons Ratio (y) = 0.24941 0.36584
# Poissons Ratio (z) = 0.46002 0.68916
#
# Static dielectric constant tensor:
#      x y z
#    x 1.570560 0.000000 0.000000 
#    y 0.000000 1.560850 0.000000 
#    z 0.000000 0.000000 1.572230 
# 
# From -- ./inp_files/5682.got.cif
#   From: 2010.05.17/outbox.cif.g08.bks.cpg/sg57_3_cif.got.tgz:5682.got - 2010.06.03 13:58:18.
