data_PCOD9434048
_publ_section_title
;
Structure prediction by ZEFSAII (Michael W. Deem and Ramdas Pophale) SiO2 
 PCOD9434048
Probable space group: P B C M
;
_chemical_formula_sum "Si O2"
_cell_formula_units_Z 56
_cell_length_a 10.704684
_cell_length_b 31.564734
_cell_length_c 7.365834
_cell_angle_alpha 90.000000
_cell_angle_beta 90.000000
_cell_angle_gamma 90.000000
_cell_volume 2488.845355
_symmetry_space_group_name_H-M "P B C M"
_symmetry_group_IT_number 57
_symmetry_cell_setting 'orthorhombic'
loop_
_space_group_symop_operation_xyz
x,y,z
-x,-y,1/2+z
x,1/2-y,-z
-x,1/2+y,1/2-z
-x,-y,-z
x,y,1/2-z
-x,1/2+y,z
x,1/2-y,1/2+z
loop_
_atom_site_type_symbol
_atom_site_label
_atom_site_fract_x
_atom_site_fract_y
_atom_site_fract_z
Si Si1 0.712561 0.048876 0.534239
Si Si2 0.393741 0.637260 0.972121
Si Si3 0.009901 0.935507 0.030903
Si Si4 0.668539 0.863501 0.471792
Si Si5 0.933775 0.838564 0.468822
Si Si6 0.257583 0.042540 0.966807
Si Si7 0.818532 0.201864 0.966526
O O1 0.719939 0.054664 0.750000
O O2 0.633299 0.088897 0.469015
O O3 0.854210 0.052436 0.460140
O O4 0.670395 0.000722 0.505620
O O5 0.393246 0.637788 0.750000
O O6 0.531927 0.651148 0.029386
O O7 0.283056 0.668100 0.033977
O O8 0.013113 0.940156 0.250000
O O9 0.983565 0.886057 0.994320
O O10 0.886296 0.959807 0.964207
O O11 0.670481 0.863220 0.250000
O O12 0.790689 0.837695 0.533615
O O13 0.686651 0.912713 0.528658
O O14 0.927294 0.834176 0.250000
O O15 0.041420 0.807372 0.536828
O O16 0.251003 0.045978 0.750000
O O17 0.823938 0.195431 0.750000
O O18 0.781181 0.250000 0.000000
#
# Coordination Sequence:
#
# PCOD9434048 Si02
#       7
#     8   8   8   8   8   8   8
#     4  10  17  26  43  65  91 122 159 194 225 264
#     4   9  17  30  48  69  93 125 160 191 225 273
#     4   8  13  24  42  63  87 117 155 192 223 262
#     4   8  15  28  47  69  93 123 161 194 220 262
#     4   8  13  26  48  69  88 117 154 189 223 266
#     4   9  17  27  41  64  93 123 156 195 230 259
#     4  10  19  33  54  76  95 115 147 190 235 281
#
# _framework density 22.500392999999999
#
# number of rings (size 3 to 8) (size 9 to 14) (size 15 to 20)
#    0.000    3.143    1.429    2.143    0.000    0.571 
#    0.000    1.429    0.000    4.286    0.000    0.000 
#    0.000    0.000    0.000    0.000    0.000    0.000 
#
# Total GULP energy -312433.153823 kJ/mol
# GULP energy per Si atom -5579.163461 kJ/mol
# Density = 2.244918 g / cm^3
# Si number density = 22.500393 Si / 1000 Ang^3
#
#
#
# Elastic Constant Matrix: (Units=GPa)
#
#
# Indices 1 2 3 4 5 6 
#
# 1 140.6610 33.6225 7.5670 0.0000 0.0000 0.0000
# 2 33.6225 33.8221 -1.5901 0.0000 0.0000 0.0000
# 3 7.5670 -1.5901 80.1891 0.0000 0.0000 0.0000
# 4 0.0000 0.0000 0.0000 11.4454 0.0000 0.0000
# 5 0.0000 0.0000 0.0000 0.0000 -16.4322 0.0000
# 6 0.0000 0.0000 0.0000 0.0000 0.0000 8.1975
#
#
#
# Elastic Compliance Matrix: (Units=1/GPa)
#
#
# Indices 1 2 3 4 5 6 
#
# 1 0.009417 -0.009412 -0.001075 0.000000 0.000000 0.000000
# 2 -0.009412 0.039001 0.001662 0.000000 0.000000 0.000000
# 3 -0.001075 0.001662 0.012605 0.000000 0.000000 0.000000
# 4 0.000000 0.000000 0.000000 0.087371 0.000000 0.000000
# 5 0.000000 0.000000 0.000000 0.000000 -0.060856 0.000000
# 6 0.000000 0.000000 0.000000 0.000000 0.000000 0.121989
#
#
# Mechanical properties :
#
#
# Convention : Reuss Voigt Hill
#
# Bulk Modulus (GPa) = 23.05658 37.09677 30.07667
# Shear Modulus (GPa) = 20.69236 14.98031 17.83634
#
# Velocity S-wave (km/s) = 3.03585 2.58307 2.81857
# Velocity P-wave (km/s) = 4.74952 5.04176 4.89782
#
# Compressibility (1/GPa) = 0.04337157
#
# Stress axis : x y z
#
# Youngs Moduli (GPa) = 106.19238 25.64041 79.33397
#
# Poissons Ratio (x) = 0.24132 0.08530
# Poissons Ratio (y) = 0.99947 -0.13182
# Poissons Ratio (z) = 0.11418 -0.04260
#
# Static dielectric constant tensor:
#      x y z
#    x 1.857120 0.000000 0.000000 
#    y 0.000000 1.803670 0.000000 
#    z 0.000000 0.000000 1.867120 
# 
# From -- ./inp_files/13221.got.cif
#   From: 2010.05.17/outbox.cif.g08.bks.cpg/sg57_7_cif.got.tgz:13221.got - 2010.06.03 13:58:18.
