data_PCOD9434300
_publ_section_title
;
Structure prediction by ZEFSAII (Michael W. Deem and Ramdas Pophale) SiO2 
 PCOD9434300
Probable space group: P B C M
;
_chemical_formula_sum "Si O2"
_cell_formula_units_Z 64
_cell_length_a 13.738869
_cell_length_b 23.487559
_cell_length_c 8.460325
_cell_angle_alpha 90.000000
_cell_angle_beta 90.000000
_cell_angle_gamma 90.000000
_cell_volume 2730.083393
_symmetry_space_group_name_H-M "P B C M"
_symmetry_group_IT_number 57
_symmetry_cell_setting 'orthorhombic'
loop_
_space_group_symop_operation_xyz
x,y,z
-x,-y,1/2+z
x,1/2-y,-z
-x,1/2+y,1/2-z
-x,-y,-z
x,y,1/2-z
-x,1/2+y,z
x,1/2-y,1/2+z
loop_
_atom_site_type_symbol
_atom_site_label
_atom_site_fract_x
_atom_site_fract_y
_atom_site_fract_z
Si Si1 0.895388 0.057137 0.075175
Si Si2 0.586591 0.578849 0.434476
Si Si3 0.473295 0.191658 0.564177
Si Si4 0.109367 0.311279 0.937136
Si Si5 0.309800 0.839035 0.442382
Si Si6 0.104327 0.672987 0.569039
Si Si7 0.377226 0.540548 0.558423
Si Si8 0.129823 0.439577 0.570821
O O1 0.860965 0.076145 0.250000
O O2 0.012794 0.054782 0.087947
O O3 0.886627 0.104483 0.939559
O O4 0.851551 0.995869 0.032197
O O5 0.598150 0.589510 0.250000
O O6 0.593092 0.638149 0.522012
O O7 0.477358 0.557178 0.472013
O O8 0.649062 0.524108 0.483160
O O9 0.432529 0.250000 0.500000
O O10 0.483044 0.194518 0.750000
O O11 0.584822 0.183215 0.500463
O O12 0.122315 0.311705 0.750000
O O13 0.147934 0.374510 0.990934
O O14 0.147346 0.250000 0.000000
O O15 0.993427 0.311948 0.976689
O O16 0.308174 0.834264 0.250000
O O17 0.210154 0.810819 0.500479
O O18 0.309708 0.906440 0.480987
O O19 0.093641 0.692172 0.750000
O O20 0.393499 0.541552 0.750000
O O21 0.171052 0.444680 0.750000
#
# Coordination Sequence:
#
# PCOD9434300 Si02
#       8
#     8   8   8   8   8   8   8   8
#     4   9  16  26  41  61  82 103 131 168 209 247
#     4   9  15  24  41  62  80 101 130 166 211 253
#     4  10  19  31  43  57  81 110 143 177 207 242
#     4  10  20  32  44  60  83 110 142 175 207 242
#     4   8  16  29  43  59  80 110 143 174 204 237
#     4  10  18  29  44  60  82 112 144 173 204 240
#     4   8  14  26  42  59  80 103 131 168 207 247
#     4   8  15  27  42  59  78 102 132 167 206 248
#
# _framework density 23.442509000000001
#
# number of rings (size 3 to 8) (size 9 to 14) (size 15 to 20)
#    0.000    3.000    0.000    3.375    0.000    4.500 
#    0.000    7.500    0.000    0.000    0.000    0.000 
#    0.000    1.000    0.000    6.250    0.000    4.375 
#
# Total GULP energy -356662.784905 kJ/mol
# GULP energy per Si atom -5572.856014 kJ/mol
# Density = 2.338915 g / cm^3
# Si number density = 23.442509 Si / 1000 Ang^3
#
#
#
# Elastic Constant Matrix: (Units=GPa)
#
#
# Indices 1 2 3 4 5 6 
#
# 1 35.6183 -15.0378 -1.4954 0.0000 0.0000 0.0000
# 2 -15.0378 180.1531 30.5330 0.0000 0.0000 0.0000
# 3 -1.4954 30.5330 32.3863 0.0000 0.0000 0.0000
# 4 0.0000 0.0000 0.0000 29.2498 0.0000 0.0000
# 5 0.0000 0.0000 0.0000 0.0000 3.1705 0.0000
# 6 0.0000 0.0000 0.0000 0.0000 0.0000 2.4283
#
#
#
# Elastic Compliance Matrix: (Units=1/GPa)
#
#
# Indices 1 2 3 4 5 6 
#
# 1 0.029136 0.002623 -0.001128 0.000000 0.000000 0.000000
# 2 0.002623 0.006843 -0.006330 0.000000 0.000000 0.000000
# 3 -0.001128 -0.006330 0.036793 0.000000 0.000000 0.000000
# 4 0.000000 0.000000 0.000000 0.034188 0.000000 0.000000
# 5 0.000000 0.000000 0.000000 0.000000 0.315403 0.000000
# 6 0.000000 0.000000 0.000000 0.000000 0.000000 0.411808
#
#
# Mechanical properties :
#
#
# Convention : Reuss Voigt Hill
#
# Bulk Modulus (GPa) = 15.84734 30.68413 23.26574
# Shear Modulus (GPa) = 5.78119 22.58027 14.18073
#
# Velocity S-wave (km/s) = 1.57209 3.10694 2.46217
# Velocity P-wave (km/s) = 3.17334 5.09787 4.24608
#
# Compressibility (1/GPa) = 0.06310206
#
# Stress axis : x y z
#
# Youngs Moduli (GPa) = 34.32231 146.14303 27.17916
#
# Poissons Ratio (x) = -0.38335 0.03065
# Poissons Ratio (y) = -0.09003 0.17204
# Poissons Ratio (z) = 0.03871 0.92507
#
# Static dielectric constant tensor:
#      x y z
#    x 1.956350 0.000000 0.000000 
#    y 0.000000 1.918120 0.000000 
#    z 0.000000 0.000000 1.865970 
# 
# From -- ./inp_files/7453.got.cif
#   From: 2010.05.17/outbox.cif.g08.bks.cpg/sg57_4_cif.got.tgz:7453.got - 2010.06.03 13:58:18.
