data_PCOD9434175
_publ_section_title
;
Structure prediction by ZEFSAII (Michael W. Deem and Ramdas Pophale) SiO2 
 PCOD9434175
Probable space group: P B C M
;
_chemical_formula_sum "Si O2"
_cell_formula_units_Z 48
_cell_length_a 13.033076
_cell_length_b 10.332986
_cell_length_c 14.913075
_cell_angle_alpha 90.000000
_cell_angle_beta 90.000000
_cell_angle_gamma 90.000000
_cell_volume 2008.352636
_symmetry_space_group_name_H-M "P B C M"
_symmetry_group_IT_number 57
_symmetry_cell_setting 'orthorhombic'
loop_
_space_group_symop_operation_xyz
x,y,z
-x,-y,1/2+z
x,1/2-y,-z
-x,1/2+y,1/2-z
-x,-y,-z
x,y,1/2-z
-x,1/2+y,z
x,1/2-y,1/2+z
loop_
_atom_site_type_symbol
_atom_site_label
_atom_site_fract_x
_atom_site_fract_y
_atom_site_fract_z
Si Si1 0.033425 0.506460 0.896461
Si Si2 0.533294 0.926953 0.750000
Si Si3 0.099865 0.239848 0.610539
Si Si4 0.363975 0.786606 0.250000
Si Si5 0.332981 0.261380 0.615322
Si Si6 0.764002 0.155590 0.929654
Si Si7 0.384301 0.029541 0.526983
O O1 0.034698 0.363084 0.858853
O O2 0.150106 0.557482 0.894362
O O3 0.955442 0.610427 0.858338
O O4 0.000000 0.500000 0.000000
O O5 0.423317 0.852143 0.750000
O O6 0.591912 0.855970 0.830797
O O7 0.565149 0.080139 0.750000
O O8 0.103728 0.250000 0.500000
O O9 0.215962 0.247309 0.643914
O O10 0.296642 0.795253 0.341735
O O11 0.381313 0.115178 0.617349
O O12 0.329633 0.357237 0.528994
O O13 0.682202 0.093167 0.999857
O O14 0.821673 0.250000 0.000000
O O15 0.500000 0.000000 0.500000
#
# Coordination Sequence:
#
# PCOD9434175 Si02
#       7
#     8   4   8   4   8   8   8
#     4  10  19  35  64  97 130 171 224 276 344 418
#     4  12  26  46  63  96 138 186 225 296 361 424
#     4  10  17  35  59  92 126 167 217 275 336 408
#     4  12  28  48  69 100 146 182 243 298 365 438
#     4  11  22  40  64  89 132 175 219 282 343 418
#     4  12  25  43  69 103 138 184 233 301 360 425
#     4  11  22  37  64  95 122 169 234 279 341 418
#
# _framework density 23.900185
#
# number of rings (size 3 to 8) (size 9 to 14) (size 15 to 20)
#    0.000    1.000    5.000    3.500    4.667    0.000 
#    0.000    0.833    0.000    3.000    0.000    0.000 
#    0.000    0.000    0.000    0.000    0.000    0.000 
#
# Total GULP energy -267405.639204 kJ/mol
# GULP energy per Si atom -5570.950817 kJ/mol
# Density = 2.384579 g / cm^3
# Si number density = 23.900185 Si / 1000 Ang^3
#
#
#
# Elastic Constant Matrix: (Units=GPa)
#
#
# Indices 1 2 3 4 5 6 
#
# 1 108.1871 19.5589 8.9935 0.0000 0.0000 0.0000
# 2 19.5589 97.7188 28.6826 0.0000 0.0000 0.0000
# 3 8.9935 28.6826 62.5152 0.0000 0.0000 0.0000
# 4 0.0000 0.0000 0.0000 22.6430 0.0000 0.0000
# 5 0.0000 0.0000 0.0000 0.0000 35.1161 0.0000
# 6 0.0000 0.0000 0.0000 0.0000 0.0000 47.9488
#
#
#
# Elastic Compliance Matrix: (Units=1/GPa)
#
#
# Indices 1 2 3 4 5 6 
#
# 1 0.009608 -0.001754 -0.000578 0.000000 0.000000 0.000000
# 2 -0.001754 0.012146 -0.005320 0.000000 0.000000 0.000000
# 3 -0.000578 -0.005320 0.018520 0.000000 0.000000 0.000000
# 4 0.000000 0.000000 0.000000 0.044164 0.000000 0.000000
# 5 0.000000 0.000000 0.000000 0.000000 0.028477 0.000000
# 6 0.000000 0.000000 0.000000 0.000000 0.000000 0.020856
#
#
# Mechanical properties :
#
#
# Convention : Reuss Voigt Hill
#
# Bulk Modulus (GPa) = 40.04615 42.54345 41.29480
# Shear Modulus (GPa) = 31.76654 35.22065 33.49359
#
# Velocity S-wave (km/s) = 3.64968 3.84299 3.74758
# Velocity P-wave (km/s) = 5.87811 6.12622 6.00345
#
# Compressibility (1/GPa) = 0.02497119
#
# Stress axis : x y z
#
# Youngs Moduli (GPa) = 104.07678 82.33088 53.99474
#
# Poissons Ratio (x) = 0.14437 0.03119
# Poissons Ratio (y) = 0.18251 0.28728
# Poissons Ratio (z) = 0.06013 0.43804
#
# Static dielectric constant tensor:
#      x y z
#    x 1.848450 0.000000 0.000000 
#    y 0.000000 1.895540 0.000000 
#    z 0.000000 0.000000 1.711030 
# 
# From -- ./inp_files/22515.got.cif
#   From: 2010.05.17/outbox.cif.g08.bks.cpg/sg57_12_cif.got.tgz:22515.got - 2010.06.03 13:58:18.
