data_PCOD9434816
_publ_section_title
;
Structure prediction by ZEFSAII (Michael W. Deem and Ramdas Pophale) SiO2 
 PCOD9434816
Probable space group: P B C M
;
_chemical_formula_sum "Si O2"
_cell_formula_units_Z 52
_cell_length_a 9.439282
_cell_length_b 13.703309
_cell_length_c 15.428183
_cell_angle_alpha 90.000000
_cell_angle_beta 90.000000
_cell_angle_gamma 90.000000
_cell_volume 1995.626183
_symmetry_space_group_name_H-M "P B C M"
_symmetry_group_IT_number 57
_symmetry_cell_setting 'orthorhombic'
loop_
_space_group_symop_operation_xyz
x,y,z
-x,-y,1/2+z
x,1/2-y,-z
-x,1/2+y,1/2-z
-x,-y,-z
x,y,1/2-z
-x,1/2+y,z
x,1/2-y,1/2+z
loop_
_atom_site_type_symbol
_atom_site_label
_atom_site_fract_x
_atom_site_fract_y
_atom_site_fract_z
Si Si1 0.393413 0.133608 0.750000
Si Si2 0.992034 0.944861 0.345918
Si Si3 0.025389 0.275353 0.593512
Si Si4 0.273748 0.956170 0.417837
Si Si5 0.572171 0.263043 0.100542
Si Si6 0.753662 0.415825 0.601098
Si Si7 0.786854 0.797454 0.750000
Si Si8 0.428100 0.456397 0.750000
O O1 0.465182 0.181056 0.836130
O O2 0.239842 0.181093 0.750000
O O3 0.425405 0.018140 0.750000
O O4 0.050790 0.962325 0.250000
O O5 0.996424 0.830387 0.364259
O O6 0.109074 0.983731 0.413104
O O7 0.842544 0.999282 0.352989
O O8 0.089993 0.250000 0.500000
O O9 0.127107 0.324600 0.664280
O O10 0.883638 0.339634 0.580485
O O11 0.299132 0.840392 0.404169
O O12 0.315923 0.968309 0.517598
O O13 0.357810 0.005214 0.340079
O O14 0.632752 0.159071 0.135132
O O15 0.523409 0.250000 0.000000
O O16 0.633419 0.847692 0.750000
#
# Coordination Sequence:
#
# PCOD9434816 Si02
#       8
#     4   8   8   8   8   8   4   4
#     4  10  24  45  68  87 119 159 218 281 300 360
#     4  12  23  34  54  92 136 171 199 240 308 387
#     4  12  25  42  61  93 139 171 200 251 313 391
#     4  10  18  36  60  93 130 158 203 252 300 385
#     4   9  19  38  67  91 117 152 210 269 315 358
#     4  11  22  36  62  98 129 165 201 250 321 384
#     4  12  28  46  64  92 126 177 212 251 327 380
#     4  10  22  41  72  93 117 168 216 264 317 366
#
# _framework density 26.056984
#
# number of rings (size 3 to 8) (size 9 to 14) (size 15 to 20)
#    0.000    1.231    4.615    1.846    4.308    0.615 
#    2.769    0.000    0.000    3.692    0.000    0.000 
#    0.000    0.000    0.000    0.000    0.000    0.000 
#
# Total GULP energy -290385.638550 kJ/mol
# GULP energy per Si atom -5584.339203 kJ/mol
# Density = 2.599768 g / cm^3
# Si number density = 26.056984 Si / 1000 Ang^3
#
#
#
# Elastic Constant Matrix: (Units=GPa)
#
#
# Indices 1 2 3 4 5 6 
#
# 1 68.6708 -15.3134 20.4559 0.0000 0.0000 0.0000
# 2 -15.3134 113.3628 14.7680 0.0000 0.0000 0.0000
# 3 20.4559 14.7680 102.2726 0.0000 0.0000 0.0000
# 4 0.0000 0.0000 0.0000 20.1831 0.0000 0.0000
# 5 0.0000 0.0000 0.0000 0.0000 9.1622 0.0000
# 6 0.0000 0.0000 0.0000 0.0000 0.0000 35.7773
#
#
#
# Elastic Compliance Matrix: (Units=1/GPa)
#
#
# Indices 1 2 3 4 5 6 
#
# 1 0.016239 0.002667 -0.003633 0.000000 0.000000 0.000000
# 2 0.002667 0.009428 -0.001895 0.000000 0.000000 0.000000
# 3 -0.003633 -0.001895 0.010778 0.000000 0.000000 0.000000
# 4 0.000000 0.000000 0.000000 0.049546 0.000000 0.000000
# 5 0.000000 0.000000 0.000000 0.000000 0.109144 0.000000
# 6 0.000000 0.000000 0.000000 0.000000 0.000000 0.027951
#
#
# Mechanical properties :
#
#
# Convention : Reuss Voigt Hill
#
# Bulk Modulus (GPa) = 32.54840 36.01414 34.28127
# Shear Modulus (GPa) = 20.91610 30.65089 25.78350
#
# Velocity S-wave (km/s) = 2.83628 3.43345 3.14905
# Velocity P-wave (km/s) = 4.82124 5.43777 5.13876
#
# Compressibility (1/GPa) = 0.03072348
#
# Stress axis : x y z
#
# Youngs Moduli (GPa) = 61.57931 106.06319 92.78087
#
# Poissons Ratio (x) = -0.28286 0.33709
# Poissons Ratio (y) = -0.16423 0.17581
# Poissons Ratio (z) = 0.22373 0.20098
#
# Static dielectric constant tensor:
#      x y z
#    x 2.014910 0.000000 0.000000 
#    y 0.000000 2.069250 0.000000 
#    z 0.000000 0.000000 2.115850 
# 
# From -- ./inp_files/17786.got.cif
#   From: 2010.05.17/outbox.cif.g08.bks.cpg/sg57_9_cif.got.tgz:17786.got - 2010.06.03 13:58:18.
