data_PCOD9434827
_publ_section_title
;
Structure prediction by ZEFSAII (Michael W. Deem and Ramdas Pophale) SiO2 
 PCOD9434827
Probable space group: P B C M
;
_chemical_formula_sum "Si O2"
_cell_formula_units_Z 36
_cell_length_a 20.178790
_cell_length_b 7.330046
_cell_length_c 9.982691
_cell_angle_alpha 90.000000
_cell_angle_beta 90.000000
_cell_angle_gamma 90.000000
_cell_volume 1476.554390
_symmetry_space_group_name_H-M "P B C M"
_symmetry_group_IT_number 57
_symmetry_cell_setting 'orthorhombic'
loop_
_space_group_symop_operation_xyz
x,y,z
-x,-y,1/2+z
x,1/2-y,-z
-x,1/2+y,1/2-z
-x,-y,-z
x,y,1/2-z
-x,1/2+y,z
x,1/2-y,1/2+z
loop_
_atom_site_type_symbol
_atom_site_label
_atom_site_fract_x
_atom_site_fract_y
_atom_site_fract_z
Si Si1 0.578586 0.032721 0.995234
Si Si2 0.239672 0.827114 0.750000
Si Si3 0.847986 0.533107 0.970778
Si Si4 0.321731 0.027739 0.250000
Si Si5 0.902134 0.463213 0.250000
Si Si6 0.051794 0.378474 0.250000
Si Si7 0.351343 0.094779 0.750000
O O1 0.628214 0.987397 0.874333
O O2 0.586083 0.250000 0.000000
O O3 0.500000 0.000000 0.000000
O O4 0.604243 0.914996 0.119598
O O5 0.260717 0.612945 0.750000
O O6 0.204168 0.922518 0.620991
O O7 0.312852 0.907260 0.750000
O O8 0.863433 0.435679 0.111667
O O9 0.830801 0.750000 0.000000
O O10 0.915658 0.533563 0.882215
O O11 0.299680 0.238928 0.250000
O O12 0.920393 0.675312 0.250000
O O13 0.973145 0.367203 0.250000
#
# Coordination Sequence:
#
# PCOD9434827 Si02
#       7
#     8   4   8   4   4   4   4
#     4  12  24  47  77 117 155 192 251 321 386 457
#     4  11  24  48  72  96 157 203 257 312 383 479
#     4   9  20  39  69 101 142 202 261 318 395 468
#     4  12  26  48  75 111 147 199 250 305 392 457
#     4  10  18  36  69 104 138 194 247 323 397 466
#     4   9  18  34  66  98 143 187 248 324 405 476
#     4  12  26  48  78 109 145 203 252 310 385 456
#
# _framework density 24.381087000000001
#
# number of rings (size 3 to 8) (size 9 to 14) (size 15 to 20)
#    0.000    1.333    2.222    4.000    0.000    1.778 
#    0.000    2.222   48.889    0.000    0.000    0.000 
#    0.000    0.000    0.000    0.000    0.000    0.000 
#
# Total GULP energy -201246.589029 kJ/mol
# GULP energy per Si atom -5590.183029 kJ/mol
# Density = 2.432559 g / cm^3
# Si number density = 24.381087 Si / 1000 Ang^3
#
#
#
# Elastic Constant Matrix: (Units=GPa)
#
#
# Indices 1 2 3 4 5 6 
#
# 1 134.5714 31.9696 82.7489 0.0000 0.0000 0.0000
# 2 31.9696 138.3723 37.2641 0.0000 0.0000 0.0000
# 3 82.7489 37.2641 211.9334 0.0000 0.0000 0.0000
# 4 0.0000 0.0000 0.0000 23.9241 0.0000 0.0000
# 5 0.0000 0.0000 0.0000 0.0000 26.3970 0.0000
# 6 0.0000 0.0000 0.0000 0.0000 0.0000 52.8210
#
#
#
# Elastic Compliance Matrix: (Units=1/GPa)
#
#
# Indices 1 2 3 4 5 6 
#
# 1 0.010004 -0.001322 -0.003674 0.000000 0.000000 0.000000
# 2 -0.001322 0.007761 -0.000848 0.000000 0.000000 0.000000
# 3 -0.003674 -0.000848 0.006302 0.000000 0.000000 0.000000
# 4 0.000000 0.000000 0.000000 0.041799 0.000000 0.000000
# 5 0.000000 0.000000 0.000000 0.000000 0.037883 0.000000
# 6 0.000000 0.000000 0.000000 0.000000 0.000000 0.018932
#
#
# Mechanical properties :
#
#
# Convention : Reuss Voigt Hill
#
# Bulk Modulus (GPa) = 80.78353 87.64915 84.21634
# Shear Modulus (GPa) = 36.10242 42.82136 39.46189
#
# Velocity S-wave (km/s) = 3.85223 4.19541 4.02748
# Velocity P-wave (km/s) = 7.27955 7.71339 7.49961
#
# Compressibility (1/GPa) = 0.01237876
#
# Stress axis : x y z
#
# Youngs Moduli (GPa) = 99.96021 128.85272 158.68028
#
# Poissons Ratio (x) = 0.17035 0.58293
# Poissons Ratio (y) = 0.13215 0.13462
# Poissons Ratio (z) = 0.36721 0.10932
#
# Static dielectric constant tensor:
#      x y z
#    x 1.902180 0.000000 0.000000 
#    y 0.000000 1.989440 0.000000 
#    z 0.000000 0.000000 4.031690 
# 
# From -- ./inp_files/7728.got.cif
#   From: 2010.05.17/outbox.cif.g08.bks.cpg/sg57_4_cif.got.tgz:7728.got - 2010.06.03 13:58:18.
