data_PCOD9434093
_publ_section_title
;
Structure prediction by ZEFSAII (Michael W. Deem and Ramdas Pophale) SiO2 
 PCOD9434093
Probable space group: P B C M
;
_chemical_formula_sum "Si O2"
_cell_formula_units_Z 56
_cell_length_a 13.729046
_cell_length_b 29.762247
_cell_length_c 7.868586
_cell_angle_alpha 90.000000
_cell_angle_beta 90.000000
_cell_angle_gamma 90.000000
_cell_volume 3215.161351
_symmetry_space_group_name_H-M "P B C M"
_symmetry_group_IT_number 57
_symmetry_cell_setting 'orthorhombic'
loop_
_space_group_symop_operation_xyz
x,y,z
-x,-y,1/2+z
x,1/2-y,-z
-x,1/2+y,1/2-z
-x,-y,-z
x,y,1/2-z
-x,1/2+y,z
x,1/2-y,1/2+z
loop_
_atom_site_type_symbol
_atom_site_label
_atom_site_fract_x
_atom_site_fract_y
_atom_site_fract_z
Si Si1 0.488227 0.799931 0.955098
Si Si2 0.736009 0.200463 0.046338
Si Si3 0.590508 0.444879 0.052840
Si Si4 0.297197 0.469038 0.541364
Si Si5 0.411388 0.112325 0.445990
Si Si6 0.103894 0.980084 0.047570
Si Si7 0.785879 0.395611 0.951578
O O1 0.484728 0.804116 0.750000
O O2 0.376110 0.804151 0.017248
O O3 0.555402 0.840222 0.022670
O O4 0.522239 0.750000 0.000000
O O5 0.731857 0.199687 0.250000
O O6 0.794741 0.156156 0.991718
O O7 0.772593 0.250000 0.000000
O O8 0.560965 0.447163 0.250000
O O9 0.621158 0.494321 0.990137
O O10 0.507868 0.418802 0.951827
O O11 0.691072 0.416963 0.039762
O O12 0.298041 0.468810 0.750000
O O13 0.327630 0.419737 0.480088
O O14 0.193041 0.488275 0.485240
O O15 0.384586 0.120974 0.250000
O O16 0.111328 0.978707 0.250000
O O17 0.125855 0.929711 0.983959
O O18 0.000000 0.000000 0.000000
O O19 0.766029 0.395827 0.750000
#
# Coordination Sequence:
#
# PCOD9434093 Si02
#       7
#     8   8   8   8   8   8   8
#     4   9  17  28  41  60  86 121 159 190 223 261
#     4   9  17  28  42  64  91 123 159 190 224 267
#     4  10  18  27  40  64  94 123 153 186 222 264
#     4   8  17  30  45  65  89 115 150 187 222 272
#     4  10  17  29  45  61  87 123 156 187 221 262
#     4  10  20  35  52  73  94 118 151 190 240 288
#     4  10  18  31  48  68  93 125 159 191 229 276
#
# _framework density 17.417476000000001
#
# number of rings (size 3 to 8) (size 9 to 14) (size 15 to 20)
#    0.000    2.571    1.429    2.571    0.000    1.714 
#    0.000    3.571    0.000    0.000    0.000    1.000 
#    0.000    2.286    0.000    0.000    0.000    0.000 
#
# Total GULP energy -312097.729335 kJ/mol
# GULP energy per Si atom -5573.173738 kJ/mol
# Density = 1.737783 g / cm^3
# Si number density = 17.417476 Si / 1000 Ang^3
#
#
#
# Elastic Constant Matrix: (Units=GPa)
#
#
# Indices 1 2 3 4 5 6 
#
# 1 57.8110 57.8783 -0.7350 0.0000 0.0000 0.0000
# 2 57.8783 177.4267 6.4883 0.0000 0.0000 0.0000
# 3 -0.7350 6.4883 30.4854 0.0000 0.0000 0.0000
# 4 0.0000 0.0000 0.0000 16.3003 0.0000 0.0000
# 5 0.0000 0.0000 0.0000 0.0000 12.3711 0.0000
# 6 0.0000 0.0000 0.0000 0.0000 0.0000 19.3176
#
#
#
# Elastic Compliance Matrix: (Units=1/GPa)
#
#
# Indices 1 2 3 4 5 6 
#
# 1 0.025865 -0.008527 0.002438 0.000000 0.000000 0.000000
# 2 -0.008527 0.008491 -0.002013 0.000000 0.000000 0.000000
# 3 0.002438 -0.002013 0.033290 0.000000 0.000000 0.000000
# 4 0.000000 0.000000 0.000000 0.061349 0.000000 0.000000
# 5 0.000000 0.000000 0.000000 0.000000 0.080833 0.000000
# 6 0.000000 0.000000 0.000000 0.000000 0.000000 0.051766
#
#
# Mechanical properties :
#
#
# Convention : Reuss Voigt Hill
#
# Bulk Modulus (GPa) = 19.43856 43.66513 31.55185
# Shear Modulus (GPa) = 16.95230 23.07055 20.01143
#
# Velocity S-wave (km/s) = 3.12315 3.64340 3.39326
# Velocity P-wave (km/s) = 4.91833 6.54395 5.78850
#
# Compressibility (1/GPa) = 0.05144414
#
# Stress axis : x y z
#
# Youngs Moduli (GPa) = 38.66172 117.76861 30.03925
#
# Poissons Ratio (x) = 1.00418 -0.07325
# Poissons Ratio (y) = 0.32966 0.06046
# Poissons Ratio (z) = -0.09427 0.23704
#
# Static dielectric constant tensor:
#      x y z
#    x 1.578430 0.000000 0.000000 
#    y 0.000000 1.644220 0.000000 
#    z 0.000000 0.000000 1.642050 
# 
# From -- ./inp_files/5923.got.cif
#   From: 2010.05.17/outbox.cif.g08.bks.cpg/sg57_3_cif.got.tgz:5923.got - 2010.06.03 13:58:18.
