data_PCOD9434408
_publ_section_title
;
Structure prediction by ZEFSAII (Michael W. Deem and Ramdas Pophale) SiO2 
 PCOD9434408
Probable space group: P B C M
;
_chemical_formula_sum "Si O2"
_cell_formula_units_Z 64
_cell_length_a 16.703752
_cell_length_b 22.754245
_cell_length_c 9.281548
_cell_angle_alpha 90.000000
_cell_angle_beta 90.000000
_cell_angle_gamma 90.000000
_cell_volume 3527.742509
_symmetry_space_group_name_H-M "P B C M"
_symmetry_group_IT_number 57
_symmetry_cell_setting 'orthorhombic'
loop_
_space_group_symop_operation_xyz
x,y,z
-x,-y,1/2+z
x,1/2-y,-z
-x,1/2+y,1/2-z
-x,-y,-z
x,y,1/2-z
-x,1/2+y,z
x,1/2-y,1/2+z
loop_
_atom_site_type_symbol
_atom_site_label
_atom_site_fract_x
_atom_site_fract_y
_atom_site_fract_z
Si Si1 0.759011 0.095343 0.422231
Si Si2 0.432380 0.423324 0.580735
Si Si3 0.108809 0.812851 0.576776
Si Si4 0.404113 0.936479 0.080546
Si Si5 0.719781 0.623617 0.920926
Si Si6 0.027640 0.402575 0.587688
Si Si7 0.147866 0.478000 0.420077
Si Si8 0.840109 0.698379 0.411384
O O1 0.743677 0.089463 0.250000
O O2 0.804973 0.156555 0.446956
O O3 0.677294 0.086645 0.508981
O O4 0.819430 0.041962 0.461786
O O5 0.434986 0.408726 0.750000
O O6 0.518068 0.414551 0.505754
O O7 0.408910 0.492443 0.568904
O O8 0.364028 0.388607 0.496504
O O9 0.100621 0.750000 0.500000
O O10 0.096746 0.805756 0.750000
O O11 0.044766 0.862769 0.528220
O O12 0.408193 0.921738 0.250000
O O13 0.711877 0.631601 0.750000
O O14 0.778665 0.567514 0.945143
O O15 0.764225 0.677464 0.997407
O O16 0.005366 0.421805 0.750000
O O17 0.068880 0.454977 0.500108
O O18 0.099612 0.355638 0.597694
O O19 0.132322 0.477325 0.250000
O O20 0.881316 0.750000 0.500000
O O21 0.819264 0.716864 0.250000
#
# Coordination Sequence:
#
# PCOD9434408 Si02
#       8
#     8   8   8   8   8   8   8   8
#     4  10  20  36  55  77 109 143 176 220 272 322
#     4  10  19  31  50  77 109 141 173 211 258 313
#     4  10  22  39  58  78 103 139 184 231 273 314
#     4  10  20  32  51  79 108 139 175 213 258 314
#     4  10  18  30  49  73 105 141 175 212 258 314
#     4   9  19  34  52  76 106 138 174 222 270 316
#     4   9  18  31  50  77 108 141 173 209 263 325
#     4  10  19  31  48  71 101 137 178 221 265 313
#
# _framework density 18.141912999999999
#
# number of rings (size 3 to 8) (size 9 to 14) (size 15 to 20)
#    0.000    2.250    1.250    1.875    0.000    4.000 
#    0.000    0.000    0.000    0.750    0.000    3.500 
#    0.000    0.000    0.000    0.000    0.000    0.000 
#
# Total GULP energy -356994.018321 kJ/mol
# GULP energy per Si atom -5578.031536 kJ/mol
# Density = 1.810062 g / cm^3
# Si number density = 18.141913 Si / 1000 Ang^3
#
#
#
# Elastic Constant Matrix: (Units=GPa)
#
#
# Indices 1 2 3 4 5 6 
#
# 1 124.0755 40.8798 62.9709 0.0000 0.0000 0.0000
# 2 40.8798 30.6683 24.3801 0.0000 0.0000 0.0000
# 3 62.9709 24.3801 86.6098 0.0000 0.0000 0.0000
# 4 0.0000 0.0000 0.0000 17.6301 0.0000 0.0000
# 5 0.0000 0.0000 0.0000 0.0000 21.0294 0.0000
# 6 0.0000 0.0000 0.0000 0.0000 0.0000 20.0269
#
#
#
# Elastic Compliance Matrix: (Units=1/GPa)
#
#
# Indices 1 2 3 4 5 6 
#
# 1 0.017930 -0.017439 -0.008127 0.000000 0.000000 0.000000
# 2 -0.017439 0.058969 -0.003920 0.000000 0.000000 0.000000
# 3 -0.008127 -0.003920 0.018559 0.000000 0.000000 0.000000
# 4 0.000000 0.000000 0.000000 0.056721 0.000000 0.000000
# 5 0.000000 0.000000 0.000000 0.000000 0.047553 0.000000
# 6 0.000000 0.000000 0.000000 0.000000 0.000000 0.049933
#
#
# Mechanical properties :
#
#
# Convention : Reuss Voigt Hill
#
# Bulk Modulus (GPa) = 27.40873 55.31281 41.36077
# Shear Modulus (GPa) = 15.58606 19.27880 17.43243
#
# Velocity S-wave (km/s) = 2.93425 3.26339 3.10319
# Velocity P-wave (km/s) = 5.15951 6.68990 5.97392
#
# Compressibility (1/GPa) = 0.03648472
#
# Stress axis : x y z
#
# Youngs Moduli (GPa) = 55.77148 16.95799 53.88338
#
# Poissons Ratio (x) = 0.29574 0.43793
# Poissons Ratio (y) = 0.97263 0.21121
# Poissons Ratio (z) = 0.45328 0.06647
#
# Static dielectric constant tensor:
#      x y z
#    x 1.619200 0.000000 0.000000 
#    y 0.000000 1.632280 0.000000 
#    z 0.000000 0.000000 1.618990 
# 
# From -- ./inp_files/5611.got.cif
#   From: 2010.05.17/outbox.cif.g08.bks.cpg/sg57_3_cif.got.tgz:5611.got - 2010.06.03 13:58:18.
