data_PCOD9434526
_publ_section_title
;
Structure prediction by ZEFSAII (Michael W. Deem and Ramdas Pophale) SiO2 
 PCOD9434526
Probable space group: P B C M
;
_chemical_formula_sum "Si O2"
_cell_formula_units_Z 56
_cell_length_a 11.654159
_cell_length_b 11.587061
_cell_length_c 20.177168
_cell_angle_alpha 90.000000
_cell_angle_beta 90.000000
_cell_angle_gamma 90.000000
_cell_volume 2724.673340
_symmetry_space_group_name_H-M "P B C M"
_symmetry_group_IT_number 57
_symmetry_cell_setting 'orthorhombic'
loop_
_space_group_symop_operation_xyz
x,y,z
-x,-y,1/2+z
x,1/2-y,-z
-x,1/2+y,1/2-z
-x,-y,-z
x,y,1/2-z
-x,1/2+y,z
x,1/2-y,1/2+z
loop_
_atom_site_type_symbol
_atom_site_label
_atom_site_fract_x
_atom_site_fract_y
_atom_site_fract_z
Si Si1 0.966245 0.029159 0.826885
Si Si2 0.301409 0.919966 0.321899
Si Si3 0.373305 0.490384 0.427247
Si Si4 0.388869 0.636599 0.542879
Si Si5 0.297151 0.185187 0.826193
Si Si6 0.513056 0.626943 0.175825
Si Si7 0.949935 0.723051 0.170925
O O1 0.008115 0.028820 0.750000
O O2 0.828438 0.036826 0.824885
O O3 0.006243 0.152858 0.855817
O O4 0.993829 0.901248 0.855398
O O5 0.317748 0.862248 0.250000
O O6 0.329050 0.847455 0.386750
O O7 0.390251 0.026227 0.324760
O O8 0.327223 0.541047 0.495997
O O9 0.482786 0.411189 0.446104
O O10 0.292923 0.415258 0.380096
O O11 0.425335 0.591642 0.381006
O O12 0.392666 0.750000 0.500000
O O13 0.295306 0.142242 0.750000
O O14 0.415311 0.256158 0.834433
O O15 0.187954 0.267909 0.834507
O O16 0.463119 0.626645 0.250000
O O17 0.977091 0.722066 0.250000
#
# Coordination Sequence:
#
# PCOD9434526 Si02
#       7
#     8   8   8   8   8   8   8
#     4   9  16  31  54  84 113 143 185 236 291 338
#     4   9  17  33  57  79 102 140 188 224 273 337
#     4  10  20  33  52  76 106 146 190 227 271 337
#     4  10  21  37  52  75 108 145 181 231 280 330
#     4  10  18  31  52  81 115 147 184 233 279 329
#     4   9  16  29  52  78 108 146 185 227 272 324
#     4   9  17  30  53  83 116 148 183 236 291 337
#
# _framework density 20.552923
#
# number of rings (size 3 to 8) (size 9 to 14) (size 15 to 20)
#    0.000    2.571    1.429    1.286    0.000    0.571 
#    2.571    1.429    0.000    1.714    0.000    0.000 
#    0.000    0.000    0.000    0.000    0.000    0.000 
#
# Total GULP energy -312100.604875 kJ/mol
# GULP energy per Si atom -5573.225087 kJ/mol
# Density = 2.050614 g / cm^3
# Si number density = 20.552923 Si / 1000 Ang^3
#
#
#
# Elastic Constant Matrix: (Units=GPa)
#
#
# Indices 1 2 3 4 5 6 
#
# 1 17.9964 20.7229 9.7041 0.0000 0.0000 0.0000
# 2 20.7229 133.4289 47.8960 0.0000 0.0000 0.0000
# 3 9.7041 47.8960 108.2907 0.0000 0.0000 0.0000
# 4 0.0000 0.0000 0.0000 26.9275 0.0000 0.0000
# 5 0.0000 0.0000 0.0000 0.0000 7.5880 0.0000
# 6 0.0000 0.0000 0.0000 0.0000 0.0000 21.8442
#
#
#
# Elastic Compliance Matrix: (Units=1/GPa)
#
#
# Indices 1 2 3 4 5 6 
#
# 1 0.067928 -0.009943 -0.001689 0.000000 0.000000 0.000000
# 2 -0.009943 0.010365 -0.003693 0.000000 0.000000 0.000000
# 3 -0.001689 -0.003693 0.011019 0.000000 0.000000 0.000000
# 4 0.000000 0.000000 0.000000 0.037137 0.000000 0.000000
# 5 0.000000 0.000000 0.000000 0.000000 0.131788 0.000000
# 6 0.000000 0.000000 0.000000 0.000000 0.000000 0.045779
#
#
# Mechanical properties :
#
#
# Convention : Reuss Voigt Hill
#
# Bulk Modulus (GPa) = 17.04744 46.26242 31.65493
# Shear Modulus (GPa) = 14.11553 23.36480 18.74017
#
# Velocity S-wave (km/s) = 2.62351 3.37532 3.02288
# Velocity P-wave (km/s) = 4.18204 6.14395 5.25536
#
# Compressibility (1/GPa) = 0.05865984
#
# Stress axis : x y z
#
# Youngs Moduli (GPa) = 14.72156 96.48178 90.75056
#
# Poissons Ratio (x) = 0.95937 0.15329
# Poissons Ratio (y) = 0.14638 0.33515
# Poissons Ratio (z) = 0.02487 0.35632
#
# Static dielectric constant tensor:
#      x y z
#    x 1.725510 0.000000 0.000000 
#    y 0.000000 1.808680 0.000000 
#    z 0.000000 0.000000 1.741220 
# 
# From -- ./inp_files/25010.got.cif
#   From: 2010.05.17/outbox.cif.g08.bks.cpg/sg57_13_cif.got.tgz:25010.got - 2010.06.03 13:58:18.
