data_PCOD9434259
_publ_section_title
;
Structure prediction by ZEFSAII (Michael W. Deem and Ramdas Pophale) SiO2 
 PCOD9434259
Probable space group: P B C M
;
_chemical_formula_sum "Si O2"
_cell_formula_units_Z 48
_cell_length_a 11.854242
_cell_length_b 27.291673
_cell_length_c 8.679765
_cell_angle_alpha 90.000000
_cell_angle_beta 90.000000
_cell_angle_gamma 90.000000
_cell_volume 2808.095768
_symmetry_space_group_name_H-M "P B C M"
_symmetry_group_IT_number 57
_symmetry_cell_setting 'orthorhombic'
loop_
_space_group_symop_operation_xyz
x,y,z
-x,-y,1/2+z
x,1/2-y,-z
-x,1/2+y,1/2-z
-x,-y,-z
x,y,1/2-z
-x,1/2+y,z
x,1/2-y,1/2+z
loop_
_atom_site_type_symbol
_atom_site_label
_atom_site_fract_x
_atom_site_fract_y
_atom_site_fract_z
Si Si1 0.158075 0.196674 0.566248
Si Si2 0.717496 0.380519 0.424174
Si Si3 0.526152 0.298251 0.423192
Si Si4 0.107348 0.803413 0.435968
Si Si5 0.519151 0.054026 0.936288
Si Si6 0.650460 0.634333 0.430809
O O1 0.193120 0.250000 0.500000
O O2 0.171370 0.197842 0.750000
O O3 0.230603 0.151885 0.499088
O O4 0.025299 0.190821 0.529583
O O5 0.751137 0.395698 0.250000
O O6 0.623301 0.338215 0.413240
O O7 0.822169 0.350595 0.495338
O O8 0.640974 0.424284 0.492634
O O9 0.573162 0.250000 0.500000
O O10 0.482711 0.289908 0.250000
O O11 0.429150 0.319320 0.531230
O O12 0.142589 0.750000 0.500000
O O13 0.122120 0.802052 0.250000
O O14 0.521797 0.054829 0.750000
O O15 0.417027 0.089431 0.990617
O O16 0.500000 0.000000 0.000000
O O17 0.658719 0.625283 0.250000
#
# Coordination Sequence:
#
# PCOD9434259 Si02
#       6
#     8   8   8   8   8   8
#     4  10  19  31  48  71 101 135 169 202 236 281
#     4   8  16  30  48  70  96 126 158 196 241 290
#     4  10  18  28  43  66  97 128 159 196 240 290
#     4   9  17  30  48  71 100 134 167 197 234 280
#     4  10  20  36  56  77 100 124 157 201 252 303
#     4  11  21  33  49  69  95 127 164 202 243 289
#
# _framework density 17.093433999999998
#
# number of rings (size 3 to 8) (size 9 to 14) (size 15 to 20)
#    0.000    2.333    0.000    5.000    0.000    0.667 
#    0.000    4.167    0.000    1.000    0.000    0.000 
#    0.000    0.000    0.000    0.000    0.000    0.000 
#
# Total GULP energy -267295.099006 kJ/mol
# GULP energy per Si atom -5568.647896 kJ/mol
# Density = 1.705453 g / cm^3
# Si number density = 17.093434 Si / 1000 Ang^3
#
#
#
# Elastic Constant Matrix: (Units=GPa)
#
#
# Indices 1 2 3 4 5 6 
#
# 1 87.9623 44.1597 25.8472 0.0000 0.0000 0.0000
# 2 44.1597 87.1816 34.9521 0.0000 0.0000 0.0000
# 3 25.8472 34.9521 53.1345 0.0000 0.0000 0.0000
# 4 0.0000 0.0000 0.0000 26.4525 0.0000 0.0000
# 5 0.0000 0.0000 0.0000 0.0000 15.6146 0.0000
# 6 0.0000 0.0000 0.0000 0.0000 0.0000 25.2869
#
#
#
# Elastic Compliance Matrix: (Units=1/GPa)
#
#
# Indices 1 2 3 4 5 6 
#
# 1 0.015650 -0.006621 -0.003257 0.000000 0.000000 0.000000
# 2 -0.006621 0.018380 -0.008870 0.000000 0.000000 0.000000
# 3 -0.003257 -0.008870 0.026239 0.000000 0.000000 0.000000
# 4 0.000000 0.000000 0.000000 0.037804 0.000000 0.000000
# 5 0.000000 0.000000 0.000000 0.000000 0.064042 0.000000
# 6 0.000000 0.000000 0.000000 0.000000 0.000000 0.039546
#
#
# Mechanical properties :
#
#
# Convention : Reuss Voigt Hill
#
# Bulk Modulus (GPa) = 43.91226 48.68849 46.30038
# Shear Modulus (GPa) = 20.26359 21.69209 20.97784
#
# Velocity S-wave (km/s) = 3.44679 3.56621 3.50701
# Velocity P-wave (km/s) = 6.44870 6.74557 6.59881
#
# Compressibility (1/GPa) = 0.02277268
#
# Stress axis : x y z
#
# Youngs Moduli (GPa) = 63.89927 54.40715 38.11092
#
# Poissons Ratio (x) = 0.36023 0.12414
# Poissons Ratio (y) = 0.42308 0.33803
# Poissons Ratio (z) = 0.20815 0.48257
#
# Static dielectric constant tensor:
#      x y z
#    x 1.617330 0.000000 0.000000 
#    y 0.000000 1.604010 0.000000 
#    z 0.000000 0.000000 1.589480 
# 
# From -- ./inp_files/3269.got.cif
#   From: 2010.05.17/outbox.cif.g08.bks.cpg/sg57_2_cif.got.tgz:3269.got - 2010.06.03 13:58:18.
