data_PCOD9434911
_publ_section_title
;
Structure prediction by ZEFSAII (Michael W. Deem and Ramdas Pophale) SiO2 
 PCOD9434911
Probable space group: P B C M
;
_chemical_formula_sum "Si O2"
_cell_formula_units_Z 48
_cell_length_a 13.742891
_cell_length_b 23.486047
_cell_length_c 8.743868
_cell_angle_alpha 90.000000
_cell_angle_beta 90.000000
_cell_angle_gamma 90.000000
_cell_volume 2822.224907
_symmetry_space_group_name_H-M "P B C M"
_symmetry_group_IT_number 57
_symmetry_cell_setting 'orthorhombic'
loop_
_space_group_symop_operation_xyz
x,y,z
-x,-y,1/2+z
x,1/2-y,-z
-x,1/2+y,1/2-z
-x,-y,-z
x,y,1/2-z
-x,1/2+y,z
x,1/2-y,1/2+z
loop_
_atom_site_type_symbol
_atom_site_label
_atom_site_fract_x
_atom_site_fract_y
_atom_site_fract_z
Si Si1 0.107491 0.813934 0.433801
Si Si2 0.112453 0.312979 0.067720
Si Si3 0.608059 0.002081 0.934305
Si Si4 0.898928 0.512177 0.923704
Si Si5 0.754161 0.904403 0.928433
Si Si6 0.246443 0.592785 0.076504
O O1 0.116668 0.750000 0.500000
O O2 0.111791 0.812219 0.250000
O O3 0.194130 0.854041 0.495023
O O4 0.997102 0.835076 0.476890
O O5 0.113850 0.310979 0.250000
O O6 0.118155 0.250000 0.000000
O O7 0.205609 0.348586 0.011508
O O8 0.608434 0.003247 0.750000
O O9 0.663702 0.943434 0.983255
O O10 0.500000 0.000000 0.000000
O O11 0.666688 0.057781 0.994118
O O12 0.905557 0.536068 0.750000
O O13 0.837921 0.454527 0.914732
O O14 0.842764 0.553095 0.038415
O O15 0.000000 0.500000 0.000000
O O16 0.740799 0.892396 0.750000
O O17 0.275970 0.607961 0.250000
#
# Coordination Sequence:
#
# PCOD9434911 Si02
#       6
#     8   8   8   8   8   8
#     4  10  20  33  50  74 105 141 178 212 248 294
#     4  10  20  33  51  75 106 143 179 213 249 295
#     4  10  21  37  57  79 102 130 166 212 265 316
#     4  10  19  29  44  68  99 133 166 203 249 300
#     4  10  20  33  50  73 101 132 168 209 253 304
#     4  10  20  33  50  73 101 133 169 209 253 303
#
# _framework density 17.007857999999999
#
# number of rings (size 3 to 8) (size 9 to 14) (size 15 to 20)
#    0.000    2.000    0.000    4.000    0.000    8.667 
#    0.000    0.000    0.000    1.000    0.000    2.333 
#    0.000    0.000    0.000    0.000    0.000    0.000 
#
# Total GULP energy -267424.572085 kJ/mol
# GULP energy per Si atom -5571.345252 kJ/mol
# Density = 1.696915 g / cm^3
# Si number density = 17.007858 Si / 1000 Ang^3
#
#
#
# Elastic Constant Matrix: (Units=GPa)
#
#
# Indices 1 2 3 4 5 6 
#
# 1 130.4069 49.4578 40.5671 0.0000 0.0000 0.0000
# 2 49.4578 82.2599 34.2563 0.0000 0.0000 0.0000
# 3 40.5671 34.2563 68.1356 0.0000 0.0000 0.0000
# 4 0.0000 0.0000 0.0000 31.1255 0.0000 0.0000
# 5 0.0000 0.0000 0.0000 0.0000 24.5388 0.0000
# 6 0.0000 0.0000 0.0000 0.0000 0.0000 19.7726
#
#
#
# Elastic Compliance Matrix: (Units=1/GPa)
#
#
# Indices 1 2 3 4 5 6 
#
# 1 0.010722 -0.004791 -0.003975 0.000000 0.000000 0.000000
# 2 -0.004791 0.017517 -0.005954 0.000000 0.000000 0.000000
# 3 -0.003975 -0.005954 0.020037 0.000000 0.000000 0.000000
# 4 0.000000 0.000000 0.000000 0.032128 0.000000 0.000000
# 5 0.000000 0.000000 0.000000 0.000000 0.040752 0.000000
# 6 0.000000 0.000000 0.000000 0.000000 0.000000 0.050575
#
#
# Mechanical properties :
#
#
# Convention : Reuss Voigt Hill
#
# Bulk Modulus (GPa) = 53.09273 58.81830 55.95552
# Shear Modulus (GPa) = 24.10229 25.52213 24.81221
#
# Velocity S-wave (km/s) = 3.76856 3.87797 3.82366
# Velocity P-wave (km/s) = 7.08664 7.39660 7.24327
#
# Compressibility (1/GPa) = 0.01883497
#
# Stress axis : x y z
#
# Youngs Moduli (GPa) = 93.26729 57.08814 49.90808
#
# Poissons Ratio (x) = 0.27351 0.19838
# Poissons Ratio (y) = 0.44685 0.29717
# Poissons Ratio (z) = 0.37073 0.33992
#
# Static dielectric constant tensor:
#      x y z
#    x 1.576170 0.000000 0.000000 
#    y 0.000000 1.617770 0.000000 
#    z 0.000000 0.000000 1.590790 
# 
# From -- ./inp_files/4895.got.cif
#   From: 2010.05.17/outbox.cif.g08.bks.cpg/sg57_3_cif.got.tgz:4895.got - 2010.06.03 13:58:18.
