data_PCOD9434010
_publ_section_title
;
Structure prediction by ZEFSAII (Michael W. Deem and Ramdas Pophale) SiO2 
 PCOD9434010
Probable space group: P B C M
;
_chemical_formula_sum "Si O2"
_cell_formula_units_Z 60
_cell_length_a 11.481928
_cell_length_b 16.101312
_cell_length_c 18.065290
_cell_angle_alpha 90.000000
_cell_angle_beta 90.000000
_cell_angle_gamma 90.000000
_cell_volume 3339.804322
_symmetry_space_group_name_H-M "P B C M"
_symmetry_group_IT_number 57
_symmetry_cell_setting 'orthorhombic'
loop_
_space_group_symop_operation_xyz
x,y,z
-x,-y,1/2+z
x,1/2-y,-z
-x,1/2+y,1/2-z
-x,-y,-z
x,y,1/2-z
-x,1/2+y,z
x,1/2-y,1/2+z
loop_
_atom_site_type_symbol
_atom_site_label
_atom_site_fract_x
_atom_site_fract_y
_atom_site_fract_z
Si Si1 0.123852 0.250000 0.500000
Si Si2 0.292929 0.099055 0.526283
Si Si3 0.134396 0.521966 0.938526
Si Si4 0.526388 0.687916 0.429911
Si Si5 0.265022 0.703457 0.080313
Si Si6 0.031062 0.621100 0.064778
Si Si7 0.704580 0.129613 0.664598
Si Si8 0.568115 0.846327 0.163164
O O1 0.207374 0.178259 0.529540
O O2 0.042484 0.294560 0.560066
O O3 0.385416 0.118245 0.459695
O O4 0.356865 0.099967 0.605123
O O5 0.213626 0.022761 0.501115
O O6 0.221537 0.565895 0.883214
O O7 0.049866 0.452079 0.903651
O O8 0.055550 0.589451 0.980676
O O9 0.519267 0.750000 0.500000
O O10 0.392777 0.661414 0.417228
O O11 0.569789 0.749303 0.364510
O O12 0.158168 0.642231 0.094666
O O13 0.264365 0.777690 0.138785
O O14 0.250702 0.750000 0.000000
O O15 0.729963 0.117336 0.750000
O O16 0.565569 0.124341 0.653368
O O17 0.598964 0.852453 0.250000
#
# Coordination Sequence:
#
# PCOD9434010 Si02
#       8
#     4   8   8   8   8   8   8   8
#     4  10  16  30  54  72 108 130 176 230 248 304
#     4  10  18  31  53  81 105 135 175 222 269 310
#     4  10  21  33  51  80 111 144 177 218 259 320
#     4   8  15  28  48  78 104 125 168 220 262 304
#     4  10  16  31  58  78 100 132 181 220 250 307
#     4  10  19  32  53  80 102 137 185 216 258 291
#     4  10  20  35  54  79 110 141 171 215 272 328
#     4   9  17  31  52  77 105 134 171 218 275 326
#
# _framework density 17.965122999999998
#
# number of rings (size 3 to 8) (size 9 to 14) (size 15 to 20)
#    0.000    2.400    4.000    0.800    0.000    0.533 
#    0.000    1.333    0.000   13.600    0.000    0.000 
#    0.000    0.000    0.000    0.000    0.000    0.000 
#
# Total GULP energy -334191.299177 kJ/mol
# GULP energy per Si atom -5569.854986 kJ/mol
# Density = 1.792423 g / cm^3
# Si number density = 17.965123 Si / 1000 Ang^3
#
#
#
# Elastic Constant Matrix: (Units=GPa)
#
#
# Indices 1 2 3 4 5 6 
#
# 1 103.1635 38.0613 34.6661 0.0000 0.0000 0.0000
# 2 38.0613 47.6254 22.3426 0.0000 0.0000 0.0000
# 3 34.6661 22.3426 74.6533 0.0000 0.0000 0.0000
# 4 0.0000 0.0000 0.0000 16.9116 0.0000 0.0000
# 5 0.0000 0.0000 0.0000 0.0000 5.8044 0.0000
# 6 0.0000 0.0000 0.0000 0.0000 0.0000 18.5268
#
#
#
# Elastic Compliance Matrix: (Units=1/GPa)
#
#
# Indices 1 2 3 4 5 6 
#
# 1 0.014632 -0.009896 -0.003833 0.000000 0.000000 0.000000
# 2 -0.009896 0.031119 -0.004718 0.000000 0.000000 0.000000
# 3 -0.003833 -0.004718 0.016587 0.000000 0.000000 0.000000
# 4 0.000000 0.000000 0.000000 0.059131 0.000000 0.000000
# 5 0.000000 0.000000 0.000000 0.000000 0.172284 0.000000
# 6 0.000000 0.000000 0.000000 0.000000 0.000000 0.053976
#
#
# Mechanical properties :
#
#
# Convention : Reuss Voigt Hill
#
# Bulk Modulus (GPa) = 39.30096 46.17580 42.73838
# Shear Modulus (GPa) = 12.71923 16.94002 14.82963
#
# Velocity S-wave (km/s) = 2.66371 3.07406 2.87621
# Velocity P-wave (km/s) = 5.60216 6.19344 5.90520
#
# Compressibility (1/GPa) = 0.02544467
#
# Stress axis : x y z
#
# Youngs Moduli (GPa) = 68.34208 32.13465 60.28709
#
# Poissons Ratio (x) = 0.31799 0.23108
# Poissons Ratio (y) = 0.67629 0.28445
# Poissons Ratio (z) = 0.26196 0.15162
#
# Static dielectric constant tensor:
#      x y z
#    x 1.675320 0.000000 0.000000 
#    y 0.000000 1.641740 0.000000 
#    z 0.000000 0.000000 1.592980 
# 
# From -- ./inp_files/21963.got.cif
#   From: 2010.05.17/outbox.cif.g08.bks.cpg/sg57_11_cif.got.tgz:21963.got - 2010.06.03 13:58:18.
