data_PCOD9434232
_publ_section_title
;
Structure prediction by ZEFSAII (Michael W. Deem and Ramdas Pophale) SiO2 
 PCOD9434232
Probable space group: P B C M
;
_chemical_formula_sum "Si O2"
_cell_formula_units_Z 56
_cell_length_a 11.324759
_cell_length_b 8.585738
_cell_length_c 29.843404
_cell_angle_alpha 90.000000
_cell_angle_beta 90.000000
_cell_angle_gamma 90.000000
_cell_volume 2901.716360
_symmetry_space_group_name_H-M "P B C M"
_symmetry_group_IT_number 57
_symmetry_cell_setting 'orthorhombic'
loop_
_space_group_symop_operation_xyz
x,y,z
-x,-y,1/2+z
x,1/2-y,-z
-x,1/2+y,1/2-z
-x,-y,-z
x,y,1/2-z
-x,1/2+y,z
x,1/2-y,1/2+z
loop_
_atom_site_type_symbol
_atom_site_label
_atom_site_fract_x
_atom_site_fract_y
_atom_site_fract_z
Si Si1 0.893822 0.855947 0.907586
Si Si2 0.009186 0.013065 0.750000
Si Si3 0.732820 0.682197 0.654526
Si Si4 0.317053 0.800071 0.302464
Si Si5 0.114766 0.881636 0.658692
Si Si6 0.529725 0.988775 0.303251
Si Si7 0.047683 0.869501 0.466715
Si Si8 0.167724 0.288627 0.750000
O O1 0.001839 0.852876 0.871898
O O2 0.941673 0.729212 0.943761
O O3 0.775228 0.804755 0.882322
O O4 0.886780 0.027722 0.929263
O O5 0.068083 0.943610 0.705947
O O6 0.873100 0.966050 0.750000
O O7 0.044728 0.192167 0.750000
O O8 0.807385 0.526698 0.641653
O O9 0.601112 0.623197 0.663150
O O10 0.770592 0.740015 0.704227
O O11 0.287799 0.785445 0.250000
O O12 0.202135 0.762830 0.331903
O O13 0.390900 0.957935 0.310528
O O14 0.411394 0.657686 0.309377
O O15 0.548870 0.948795 0.250000
O O16 0.114875 0.750000 0.500000
O O17 0.000000 0.000000 0.500000
#
# Coordination Sequence:
#
# PCOD9434232 Si02
#       8
#     8   4   8   8   8   8   8   4
#     4  11  18  31  52  77  98 127 156 198 239 297
#     4  10  18  28  39  60  98 142 161 193 230 271
#     4  10  18  29  46  68 100 132 171 198 235 273
#     4   9  17  31  46  61  90 137 181 209 235 264
#     4  10  18  29  46  68 100 132 171 199 235 273
#     4   9  17  31  46  61  90 137 181 208 234 265
#     4   9  20  36  52  70 100 126 148 189 249 315
#     4  10  18  28  39  60  98 142 161 193 228 271
#
# _framework density 19.298922999999998
#
# number of rings (size 3 to 8) (size 9 to 14) (size 15 to 20)
#    0.000    2.286    4.286    0.000    0.000    0.000 
#    2.571    0.000    0.000    0.000    0.000    0.000 
#    0.000   22.857    0.000    0.000    0.000    0.000 
#
# Total GULP energy -312213.035685 kJ/mol
# GULP energy per Si atom -5575.232780 kJ/mol
# Density = 1.925500 g / cm^3
# Si number density = 19.298923 Si / 1000 Ang^3
#
#
#
# Elastic Constant Matrix: (Units=GPa)
#
#
# Indices 1 2 3 4 5 6 
#
# 1 45.3839 19.3694 10.4936 0.0000 0.0000 0.0000
# 2 19.3694 66.8583 23.5845 0.0000 0.0000 0.0000
# 3 10.4936 23.5845 65.8837 0.0000 0.0000 0.0000
# 4 0.0000 0.0000 0.0000 27.2072 0.0000 0.0000
# 5 0.0000 0.0000 0.0000 0.0000 -8.9939 0.0000
# 6 0.0000 0.0000 0.0000 0.0000 0.0000 33.0344
#
#
#
# Elastic Compliance Matrix: (Units=1/GPa)
#
#
# Indices 1 2 3 4 5 6 
#
# 1 0.025291 -0.006760 -0.001608 0.000000 0.000000 0.000000
# 2 -0.006760 0.018925 -0.005698 0.000000 0.000000 0.000000
# 3 -0.001608 -0.005698 0.017474 0.000000 0.000000 0.000000
# 4 0.000000 0.000000 0.000000 0.036755 0.000000 0.000000
# 5 0.000000 0.000000 0.000000 0.000000 -0.111186 0.000000
# 6 0.000000 0.000000 0.000000 0.000000 0.000000 0.030271
#
#
# Mechanical properties :
#
#
# Convention : Reuss Voigt Hill
#
# Bulk Modulus (GPa) = 29.79894 31.66898 30.73396
# Shear Modulus (GPa) = 87.95132 18.56142 53.25637
#
# Velocity S-wave (km/s) = 6.75811 3.10463 5.25884
# Velocity P-wave (km/s) = 8.73902 5.41267 7.26868
#
# Compressibility (1/GPa) = 0.03355824
#
# Stress axis : x y z
#
# Youngs Moduli (GPa) = 39.53959 52.83919 57.22717
#
# Poissons Ratio (x) = 0.35717 0.09205
# Poissons Ratio (y) = 0.26727 0.32609
# Poissons Ratio (z) = 0.06360 0.30108
#
# Static dielectric constant tensor:
#      x y z
#    x 1.677200 0.000000 0.000000 
#    y 0.000000 1.799820 0.000000 
#    z 0.000000 0.000000 1.687620 
# 
# From -- ./inp_files/29753.got.cif
#   From: 2010.05.17/outbox.cif.g08.bks.cpg/sg57_15_cif.got.tgz:29753.got - 2010.06.03 13:58:18.
