data_PCOD9434899
_publ_section_title
;
Structure prediction by ZEFSAII (Michael W. Deem and Ramdas Pophale) SiO2 
 PCOD9434899
Probable space group: P B C M
;
_chemical_formula_sum "Si O2"
_cell_formula_units_Z 64
_cell_length_a 26.874056
_cell_length_b 18.951284
_cell_length_c 8.726262
_cell_angle_alpha 90.000000
_cell_angle_beta 90.000000
_cell_angle_gamma 90.000000
_cell_volume 4444.266628
_symmetry_space_group_name_H-M "P B C M"
_symmetry_group_IT_number 57
_symmetry_cell_setting 'orthorhombic'
loop_
_space_group_symop_operation_xyz
x,y,z
-x,-y,1/2+z
x,1/2-y,-z
-x,1/2+y,1/2-z
-x,-y,-z
x,y,1/2-z
-x,1/2+y,z
x,1/2-y,1/2+z
loop_
_atom_site_type_symbol
_atom_site_label
_atom_site_fract_x
_atom_site_fract_y
_atom_site_fract_z
Si Si1 0.548827 0.961090 0.565719
Si Si2 0.195644 0.826469 0.567394
Si Si3 0.606331 0.416544 0.565879
Si Si4 0.994616 0.171785 0.566768
Si Si5 0.953811 0.955571 0.933493
Si Si6 0.893223 0.413349 0.066006
Si Si7 0.507657 0.327741 0.933788
Si Si8 0.304759 0.827254 0.066566
O O1 0.549782 0.966898 0.750000
O O2 0.538166 0.879628 0.524224
O O3 0.500000 0.000000 0.500000
O O4 0.593999 0.005014 0.494500
O O5 0.180532 0.750000 0.500000
O O6 0.799952 0.178773 0.250000
O O7 0.154326 0.882686 0.518878
O O8 0.249457 0.843037 0.495303
O O9 0.609123 0.416846 0.750000
O O10 0.559252 0.366662 0.520104
O O11 0.655459 0.383251 0.493916
O O12 0.996263 0.250000 0.500000
O O13 0.997539 0.173468 0.750000
O O14 0.038472 0.121787 0.502278
O O15 0.941830 0.134223 0.526394
O O16 0.957696 0.952396 0.750000
O O17 0.906773 0.005297 0.971089
O O18 0.000000 0.000000 0.000000
O O19 0.886358 0.407934 0.250000
O O20 0.508728 0.323534 0.750000
O O21 0.504298 0.250000 0.000000
O O22 0.304538 0.824258 0.250000
O O23 0.318304 0.750000 0.000000
#
# Coordination Sequence:
#
# PCOD9434899 Si02
#       8
#     8   8   8   8   8   8   8   8
#     4   9  17  29  42  60  84 112 144 179 216 255
#     4  11  21  32  46  63  85 113 145 182 217 253
#     4  10  19  31  45  63  85 113 148 181 215 258
#     4  10  19  29  43  63  88 116 147 180 215 256
#     4   9  17  29  44  61  84 112 143 178 215 255
#     4   9  18  31  45  62  84 113 146 179 215 256
#     4   9  18  28  41  61  86 113 143 176 210 251
#     4  11  21  33  47  63  86 114 144 181 218 254
#
# _framework density 14.400575999999999
#
# number of rings (size 3 to 8) (size 9 to 14) (size 15 to 20)
#    0.000    2.250    0.000    6.750    0.000    8.000 
#    0.000    0.000    0.000    0.000    0.000    0.000 
#    0.000    1.000    0.000    8.250    0.000    5.250 
#
# Total GULP energy -356719.066472 kJ/mol
# GULP energy per Si atom -5573.735414 kJ/mol
# Density = 1.436780 g / cm^3
# Si number density = 14.400576 Si / 1000 Ang^3
#
#
#
# Elastic Constant Matrix: (Units=GPa)
#
#
# Indices 1 2 3 4 5 6 
#
# 1 56.1726 35.8397 31.9392 0.0000 0.0000 0.0000
# 2 35.8397 95.9228 35.3919 0.0000 0.0000 0.0000
# 3 31.9392 35.3919 73.2403 0.0000 0.0000 0.0000
# 4 0.0000 0.0000 0.0000 26.7891 0.0000 0.0000
# 5 0.0000 0.0000 0.0000 0.0000 21.5732 0.0000
# 6 0.0000 0.0000 0.0000 0.0000 0.0000 27.1986
#
#
#
# Elastic Compliance Matrix: (Units=1/GPa)
#
#
# Indices 1 2 3 4 5 6 
#
# 1 0.027055 -0.007004 -0.008414 0.000000 0.000000 0.000000
# 2 -0.007004 0.014500 -0.003953 0.000000 0.000000 0.000000
# 3 -0.008414 -0.003953 0.019233 0.000000 0.000000 0.000000
# 4 0.000000 0.000000 0.000000 0.037329 0.000000 0.000000
# 5 0.000000 0.000000 0.000000 0.000000 0.046354 0.000000
# 6 0.000000 0.000000 0.000000 0.000000 0.000000 0.036767
#
#
# Mechanical properties :
#
#
# Convention : Reuss Voigt Hill
#
# Bulk Modulus (GPa) = 45.35715 47.96411 46.66063
# Shear Modulus (GPa) = 21.99471 23.25654 22.62562
#
# Velocity S-wave (km/s) = 3.91237 4.02303 3.96809
# Velocity P-wave (km/s) = 7.20930 7.41344 7.31208
#
# Compressibility (1/GPa) = 0.02204724
#
# Stress axis : x y z
#
# Youngs Moduli (GPa) = 36.96151 68.96357 51.99456
#
# Poissons Ratio (x) = 0.48304 0.43747
# Poissons Ratio (y) = 0.25889 0.20551
# Poissons Ratio (z) = 0.31098 0.27258
#
# Static dielectric constant tensor:
#      x y z
#    x 1.473860 0.000000 0.000000 
#    y 0.000000 1.486290 0.000000 
#    z 0.000000 0.000000 1.479710 
# 
# From -- ./inp_files/9811.got.cif
#   From: 2010.05.17/outbox.cif.g08.bks.cpg/sg57_5_cif.got.tgz:9811.got - 2010.06.03 13:58:18.
