data_PCOD9434014
_publ_section_title
;
Structure prediction by ZEFSAII (Michael W. Deem and Ramdas Pophale) SiO2 
 PCOD9434014
Probable space group: P B C M
;
_chemical_formula_sum "Si O2"
_cell_formula_units_Z 20
_cell_length_a 13.494351
_cell_length_b 11.638888
_cell_length_c 5.454040
_cell_angle_alpha 90.000000
_cell_angle_beta 90.000000
_cell_angle_gamma 90.000000
_cell_volume 856.607377
_symmetry_space_group_name_H-M "P B C M"
_symmetry_group_IT_number 57
_symmetry_cell_setting 'orthorhombic'
loop_
_space_group_symop_operation_xyz
x,y,z
-x,-y,1/2+z
x,1/2-y,-z
-x,1/2+y,1/2-z
-x,-y,-z
x,y,1/2-z
-x,1/2+y,z
x,1/2-y,1/2+z
loop_
_atom_site_type_symbol
_atom_site_label
_atom_site_fract_x
_atom_site_fract_y
_atom_site_fract_z
Si Si1 0.961111 0.822919 0.750000
Si Si2 0.746497 0.127287 0.750000
Si Si3 0.732809 0.823051 0.750000
Si Si4 0.561608 0.013282 0.750000
Si Si5 0.170767 0.611703 0.250000
O O1 0.975311 0.750000 0.500000
O O2 0.848161 0.861779 0.750000
O O3 0.053624 0.909540 0.750000
O O4 0.800659 0.251640 0.750000
O O5 0.780564 0.068773 0.498168
O O6 0.627415 0.130485 0.750000
O O7 0.721274 0.750000 0.500000
O O8 0.646943 0.916980 0.750000
O O9 0.500000 0.000000 0.500000
#
# Coordination Sequence:
#
# PCOD9434014 Si02
#       5
#     4   4   4   4   4
#     4  10  16  32  62  89 126 159 195 246 297 380
#     4  10  20  35  59  88 124 156 203 253 308 358
#     4  10  23  43  67  91 123 170 213 245 315 391
#     4  12  26  47  62  89 130 162 216 282 306 345
#     4  10  17  35  60  95 121 157 197 240 314 380
#
# _framework density 23.347919000000001
#
# number of rings (size 3 to 8) (size 9 to 14) (size 15 to 20)
#    0.000    1.600    4.000    2.400    0.000    0.000 
#   21.600    2.000    0.000    0.000    0.000    0.000 
#    0.000    0.000    0.000    0.000    0.000    0.000 
#
# Total GULP energy -111722.934722 kJ/mol
# GULP energy per Si atom -5586.146736 kJ/mol
# Density = 2.329478 g / cm^3
# Si number density = 23.347919 Si / 1000 Ang^3
#
#
#
# Elastic Constant Matrix: (Units=GPa)
#
#
# Indices 1 2 3 4 5 6 
#
# 1 206.9627 36.2688 91.7782 0.0000 0.0000 0.0000
# 2 36.2688 35.3408 27.6070 0.0000 0.0000 0.0000
# 3 91.7782 27.6070 268.2780 0.0000 0.0000 0.0000
# 4 0.0000 0.0000 0.0000 30.1896 0.0000 0.0000
# 5 0.0000 0.0000 0.0000 0.0000 85.3157 0.0000
# 6 0.0000 0.0000 0.0000 0.0000 0.0000 26.4525
#
#
#
# Elastic Compliance Matrix: (Units=1/GPa)
#
#
# Indices 1 2 3 4 5 6 
#
# 1 0.006518 -0.005380 -0.001676 0.000000 0.000000 0.000000
# 2 -0.005380 0.035209 -0.001783 0.000000 0.000000 0.000000
# 3 -0.001676 -0.001783 0.004484 0.000000 0.000000 0.000000
# 4 0.000000 0.000000 0.000000 0.033124 0.000000 0.000000
# 5 0.000000 0.000000 0.000000 0.000000 0.011721 0.000000
# 6 0.000000 0.000000 0.000000 0.000000 0.000000 0.037804
#
#
# Mechanical properties :
#
#
# Convention : Reuss Voigt Hill
#
# Bulk Modulus (GPa) = 35.04540 91.32106 63.18323
# Shear Modulus (GPa) = 32.04118 52.05339 42.04729
#
# Velocity S-wave (km/s) = 3.70852 4.72684 4.24831
# Velocity P-wave (km/s) = 5.77756 8.30595 7.15433
#
# Compressibility (1/GPa) = 0.02853442
#
# Stress axis : x y z
#
# Youngs Moduli (GPa) = 153.42523 28.40145 222.99722
#
# Poissons Ratio (x) = 0.15279 0.37378
# Poissons Ratio (y) = 0.82537 0.39757
# Poissons Ratio (z) = 0.25717 0.05064
#
# Static dielectric constant tensor:
#      x y z
#    x 1.849130 0.000000 0.000000 
#    y 0.000000 2.126780 0.000000 
#    z 0.000000 0.000000 1.890600 
# 
# From -- ./inp_files/247.got.cif
#   From: 2010.05.17/outbox.cif.g08.bks.cpg/sg57_1_cif.got.tgz:247.got - 2010.06.03 13:58:18.
