data_PCOD9434519
_publ_section_title
;
Structure prediction by ZEFSAII (Michael W. Deem and Ramdas Pophale) SiO2 
 PCOD9434519
Probable space group: P B C M
;
_chemical_formula_sum "Si O2"
_cell_formula_units_Z 40
_cell_length_a 26.774729
_cell_length_b 9.569853
_cell_length_c 8.625558
_cell_angle_alpha 90.000000
_cell_angle_beta 90.000000
_cell_angle_gamma 90.000000
_cell_volume 2210.128630
_symmetry_space_group_name_H-M "P B C M"
_symmetry_group_IT_number 57
_symmetry_cell_setting 'orthorhombic'
loop_
_space_group_symop_operation_xyz
x,y,z
-x,-y,1/2+z
x,1/2-y,-z
-x,1/2+y,1/2-z
-x,-y,-z
x,y,1/2-z
-x,1/2+y,z
x,1/2-y,1/2+z
loop_
_atom_site_type_symbol
_atom_site_label
_atom_site_fract_x
_atom_site_fract_y
_atom_site_fract_z
Si Si1 0.650942 0.406116 0.064130
Si Si2 0.850283 0.908804 0.064708
Si Si3 0.253386 0.407038 0.564205
Si Si4 0.954718 0.591591 0.064292
Si Si5 0.455247 0.907166 0.935151
O O1 0.645883 0.400188 0.250000
O O2 0.698153 0.502074 0.024962
O O3 0.658704 0.250000 0.000000
O O4 0.598885 0.459564 0.992947
O O5 0.852491 0.907185 0.250000
O O6 0.849149 0.750000 0.000000
O O7 0.797697 0.969628 0.006889
O O8 0.901571 0.968347 0.995689
O O9 0.259609 0.250000 0.500000
O O10 0.248000 0.400536 0.750000
O O11 0.954870 0.595265 0.250000
O O12 0.959119 0.750000 0.000000
O O13 0.000000 0.500000 0.000000
O O14 0.456273 0.904504 0.750000
O O15 0.460247 0.750000 0.000000
O O16 0.500000 0.000000 0.000000
#
# Coordination Sequence:
#
# PCOD9434519 Si02
#       5
#     8   8   8   8   8
#     4  10  21  37  56  79 109 143 179 217 266 321
#     4  10  18  31  52  77 105 139 177 218 266 317
#     4  10  20  34  54  80 107 137 176 221 264 313
#     4  11  21  36  56  80 109 142 180 222 270 322
#     4  11  22  38  59  82 110 143 181 222 268 319
#
# _framework density 18.098495
#
# number of rings (size 3 to 8) (size 9 to 14) (size 15 to 20)
#    0.000    1.600    0.000   10.200    0.000    4.000 
#    0.000    3.000    0.000    2.400    0.000    0.000 
#    0.000    0.000    0.000    0.000    0.000    0.000 
#
# Total GULP energy -223370.785781 kJ/mol
# GULP energy per Si atom -5584.269645 kJ/mol
# Density = 1.805730 g / cm^3
# Si number density = 18.098495 Si / 1000 Ang^3
#
#
#
# Elastic Constant Matrix: (Units=GPa)
#
#
# Indices 1 2 3 4 5 6 
#
# 1 224.4896 73.3533 100.6395 0.0000 0.0000 0.0000
# 2 73.3533 44.8019 38.5741 0.0000 0.0000 0.0000
# 3 100.6395 38.5741 162.5059 0.0000 0.0000 0.0000
# 4 0.0000 0.0000 0.0000 26.5798 0.0000 0.0000
# 5 0.0000 0.0000 0.0000 0.0000 36.6417 0.0000
# 6 0.0000 0.0000 0.0000 0.0000 0.0000 33.9264
#
#
#
# Elastic Compliance Matrix: (Units=1/GPa)
#
#
# Indices 1 2 3 4 5 6 
#
# 1 0.010693 -0.014838 -0.003100 0.000000 0.000000 0.000000
# 2 -0.014838 0.048644 -0.002358 0.000000 0.000000 0.000000
# 3 -0.003100 -0.002358 0.008633 0.000000 0.000000 0.000000
# 4 0.000000 0.000000 0.000000 0.037623 0.000000 0.000000
# 5 0.000000 0.000000 0.000000 0.000000 0.027291 0.000000
# 6 0.000000 0.000000 0.000000 0.000000 0.000000 0.029476
#
#
# Mechanical properties :
#
#
# Convention : Reuss Voigt Hill
#
# Bulk Modulus (GPa) = 36.52424 95.21458 65.86941
# Shear Modulus (GPa) = 23.57645 34.04494 28.81069
#
# Velocity S-wave (km/s) = 3.61317 4.34186 3.99417
# Velocity P-wave (km/s) = 6.13444 8.82377 7.59902
#
# Compressibility (1/GPa) = 0.02737908
#
# Stress axis : x y z
#
# Youngs Moduli (GPa) = 93.52312 20.55746 115.83507
#
# Poissons Ratio (x) = 0.30503 0.35907
# Poissons Ratio (y) = 1.38768 0.27310
# Poissons Ratio (z) = 0.28990 0.04847
#
# Static dielectric constant tensor:
#      x y z
#    x 1.655040 0.000000 0.000000 
#    y 0.000000 1.603120 0.000000 
#    z 0.000000 0.000000 1.603190 
# 
# From -- ./inp_files/9639.got.cif
#   From: 2010.05.17/outbox.cif.g08.bks.cpg/sg57_5_cif.got.tgz:9639.got - 2010.06.03 13:58:18.
