data_PCOD9434472
_publ_section_title
;
Structure prediction by ZEFSAII (Michael W. Deem and Ramdas Pophale) SiO2 
 PCOD9434472
Probable space group: P B C M
;
_chemical_formula_sum "Si O2"
_cell_formula_units_Z 32
_cell_length_a 16.854658
_cell_length_b 14.506062
_cell_length_c 5.615976
_cell_angle_alpha 90.000000
_cell_angle_beta 90.000000
_cell_angle_gamma 90.000000
_cell_volume 1373.076446
_symmetry_space_group_name_H-M "P B C M"
_symmetry_group_IT_number 57
_symmetry_cell_setting 'orthorhombic'
loop_
_space_group_symop_operation_xyz
x,y,z
-x,-y,1/2+z
x,1/2-y,-z
-x,1/2+y,1/2-z
-x,-y,-z
x,y,1/2-z
-x,1/2+y,z
x,1/2-y,1/2+z
loop_
_atom_site_type_symbol
_atom_site_label
_atom_site_fract_x
_atom_site_fract_y
_atom_site_fract_z
Si Si1 0.128753 0.058938 0.250000
Si Si2 0.688423 0.509061 0.250000
Si Si3 0.921371 0.304414 0.250000
Si Si4 0.076770 0.425986 0.250000
Si Si5 0.264977 0.805310 0.250000
Si Si6 0.551848 0.906390 0.999609
Si Si7 0.195681 0.255709 0.250000
O O1 0.090488 0.024938 0.496756
O O2 0.130728 0.171937 0.250000
O O3 0.220937 0.035915 0.250000
O O4 0.683860 0.398740 0.250000
O O5 0.641295 0.555037 0.031521
O O6 0.930515 0.250000 0.500000
O O7 0.993354 0.375403 0.250000
O O8 0.828693 0.334058 0.250000
O O9 0.147262 0.350041 0.250000
O O10 0.277961 0.750000 0.500000
O O11 0.533573 0.857344 0.750000
O O12 0.540569 0.858457 0.250000
O O13 0.500000 0.000000 0.000000
O O14 0.241104 0.250000 0.500000
#
# Coordination Sequence:
#
# PCOD9434472 Si02
#       7
#     4   4   4   4   4   8   4
#     4  10  20  28  48  80 102 132 168 209 274 312
#     4  10  22  34  57  77 118 135 173 232 271 311
#     4  10  18  34  56  72  96 139 190 231 259 317
#     4  10  18  31  49  73 101 136 180 214 253 322
#     4  10  24  39  55  79 102 140 188 229 283 318
#     4   8  16  30  52  79 102 130 169 202 249 308
#     4   8  14  26  41  63  93 122 163 201 232 296
#
# _framework density 23.305330000000001
#
# number of rings (size 3 to 8) (size 9 to 14) (size 15 to 20)
#    0.750    2.000    0.000    3.000    3.500    0.000 
#    0.000    1.250    0.000    0.000    0.000   15.750 
#    0.000    0.000    0.000    0.000    0.000    0.000 
#
# Total GULP energy -178304.783314 kJ/mol
# GULP energy per Si atom -5572.024479 kJ/mol
# Density = 2.325229 g / cm^3
# Si number density = 23.305330 Si / 1000 Ang^3
#
#
#
# Elastic Constant Matrix: (Units=GPa)
#
#
# Indices 1 2 3 4 5 6 
#
# 1 40.1167 18.9136 13.7631 0.0000 0.0000 0.0000
# 2 18.9136 51.5542 16.5917 0.0000 0.0000 0.0000
# 3 13.7631 16.5917 272.6401 0.0000 0.0000 0.0000
# 4 0.0000 0.0000 0.0000 4.9219 0.0000 0.0000
# 5 0.0000 0.0000 0.0000 0.0000 22.4821 0.0000
# 6 0.0000 0.0000 0.0000 0.0000 0.0000 -343.9675
#
#
#
# Elastic Compliance Matrix: (Units=1/GPa)
#
#
# Indices 1 2 3 4 5 6 
#
# 1 0.030342 -0.010851 -0.000871 0.000000 0.000000 0.000000
# 2 -0.010851 0.023665 -0.000892 0.000000 0.000000 0.000000
# 3 -0.000871 -0.000892 0.003766 0.000000 0.000000 0.000000
# 4 0.000000 0.000000 0.000000 0.203173 0.000000 0.000000
# 5 0.000000 0.000000 0.000000 0.000000 0.044480 0.000000
# 6 0.000000 0.000000 0.000000 0.000000 0.000000 -0.002907
#
#
# Mechanical properties :
#
#
# Convention : Reuss Voigt Hill
#
# Bulk Modulus (GPa) = 30.72791 51.42755 41.07773
# Shear Modulus (GPa) = 14.76684 -42.30986 -13.77151
#
# Velocity S-wave (km/s) = 2.51992 -4.26544 -2.43352
# Velocity P-wave (km/s) = 4.65620 1.46420 3.12541
#
# Compressibility (1/GPa) = 0.03254370
#
# Stress axis : x y z
#
# Youngs Moduli (GPa) = 32.95743 42.25606 265.52436
#
# Poissons Ratio (x) = 0.45853 0.23136
# Poissons Ratio (y) = 0.35763 0.23695
# Poissons Ratio (z) = 0.02872 0.03771
#
# Static dielectric constant tensor:
#      x y z
#    x 1.817940 0.000000 0.000000 
#    y 0.000000 1.864360 0.000000 
#    z 0.000000 0.000000 0.227640 
# 
# From -- ./inp_files/541.got.cif
#   From: 2010.05.17/outbox.cif.g08.bks.cpg/sg57_1_cif.got.tgz:541.got - 2010.06.03 13:58:18.
