data_PCOD9434127
_publ_section_title
;
Structure prediction by ZEFSAII (Michael W. Deem and Ramdas Pophale) SiO2 
 PCOD9434127
Probable space group: P B C M
;
_chemical_formula_sum "Si O2"
_cell_formula_units_Z 64
_cell_length_a 19.617656
_cell_length_b 23.849652
_cell_length_c 8.707279
_cell_angle_alpha 90.000000
_cell_angle_beta 90.000000
_cell_angle_gamma 90.000000
_cell_volume 4073.911794
_symmetry_space_group_name_H-M "P B C M"
_symmetry_group_IT_number 57
_symmetry_cell_setting 'orthorhombic'
loop_
_space_group_symop_operation_xyz
x,y,z
-x,-y,1/2+z
x,1/2-y,-z
-x,1/2+y,1/2-z
-x,-y,-z
x,y,1/2-z
-x,1/2+y,z
x,1/2-y,1/2+z
loop_
_atom_site_type_symbol
_atom_site_label
_atom_site_fract_x
_atom_site_fract_y
_atom_site_fract_z
Si Si1 0.477183 0.588264 0.933574
Si Si2 0.608714 0.188285 0.434277
Si Si3 0.896693 0.982698 0.065123
Si Si4 0.602078 0.974259 0.566664
Si Si5 0.249652 0.631706 0.063462
Si Si6 0.024205 0.910990 0.433244
Si Si7 0.744546 0.001148 0.435178
Si Si8 0.107649 0.688043 0.434050
O O1 0.476669 0.593100 0.750000
O O2 0.428600 0.535496 0.977587
O O3 0.447020 0.643987 0.007980
O O4 0.551956 0.571084 0.991527
O O5 0.597746 0.250000 0.500000
O O6 0.608365 0.189970 0.250000
O O7 0.682838 0.164819 0.485990
O O8 0.099948 0.008962 0.750000
O O9 0.926108 0.038888 0.988245
O O10 0.948312 0.932521 0.025456
O O11 0.817821 0.975036 0.024233
O O12 0.598418 0.969604 0.750000
O O13 0.679289 0.972303 0.509498
O O14 0.248767 0.631609 0.250000
O O15 0.253173 0.566699 0.016159
O O16 0.180059 0.661495 0.012547
O O17 0.028234 0.905514 0.250000
O O18 0.049023 0.854157 0.510847
O O19 0.737230 0.999829 0.250000
O O20 0.099769 0.750000 0.500000
O O21 0.108484 0.690115 0.250000
#
# Coordination Sequence:
#
# PCOD9434127 Si02
#       8
#     8   8   8   8   8   8   8   8
#     4  10  20  34  50  70  96 130 166 202 245 292
#     4  11  21  34  50  70  97 132 170 208 243 285
#     4   9  18  32  50  70  98 131 165 203 248 298
#     4  10  20  32  49  74 100 126 161 206 249 293
#     4   9  18  31  48  68  97 134 170 202 239 285
#     4  10  19  31  48  72  97 128 167 208 249 292
#     4  10  17  31  51  72  98 133 166 198 245 298
#     4  11  21  35  50  69  97 134 173 210 248 292
#
# _framework density 15.709716999999999
#
# number of rings (size 3 to 8) (size 9 to 14) (size 15 to 20)
#    0.000    2.000    2.500    2.250    0.000    2.000 
#    0.000    1.875    0.000    0.000    0.000    0.875 
#    0.000    2.000    0.000    0.000    0.000    0.000 
#
# Total GULP energy -357163.986849 kJ/mol
# GULP energy per Si atom -5580.687295 kJ/mol
# Density = 1.567396 g / cm^3
# Si number density = 15.709717 Si / 1000 Ang^3
#
#
#
# Elastic Constant Matrix: (Units=GPa)
#
#
# Indices 1 2 3 4 5 6 
#
# 1 133.7949 66.9930 39.2756 0.0000 0.0000 0.0000
# 2 66.9930 98.5892 32.9998 0.0000 0.0000 0.0000
# 3 39.2756 32.9998 36.8109 0.0000 0.0000 0.0000
# 4 0.0000 0.0000 0.0000 23.2872 0.0000 0.0000
# 5 0.0000 0.0000 0.0000 0.0000 22.3045 0.0000
# 6 0.0000 0.0000 0.0000 0.0000 0.0000 18.6564
#
#
#
# Elastic Compliance Matrix: (Units=1/GPa)
#
#
# Indices 1 2 3 4 5 6 
#
# 1 0.012945 -0.005962 -0.008467 0.000000 0.000000 0.000000
# 2 -0.005962 0.017238 -0.009091 0.000000 0.000000 0.000000
# 3 -0.008467 -0.009091 0.044350 0.000000 0.000000 0.000000
# 4 0.000000 0.000000 0.000000 0.042942 0.000000 0.000000
# 5 0.000000 0.000000 0.000000 0.000000 0.044834 0.000000
# 6 0.000000 0.000000 0.000000 0.000000 0.000000 0.053601
#
#
# Mechanical properties :
#
#
# Convention : Reuss Voigt Hill
#
# Bulk Modulus (GPa) = 36.37511 60.85909 48.61710
# Shear Modulus (GPa) = 18.37467 21.51141 19.94304
#
# Velocity S-wave (km/s) = 3.42371 3.70443 3.56683
# Velocity P-wave (km/s) = 6.23168 7.55784 6.92657
#
# Compressibility (1/GPa) = 0.02749133
#
# Stress axis : x y z
#
# Youngs Moduli (GPa) = 77.25020 58.01234 22.54811
#
# Poissons Ratio (x) = 0.34589 0.19091
# Poissons Ratio (y) = 0.46059 0.20500
# Poissons Ratio (z) = 0.65405 0.52742
#
# Static dielectric constant tensor:
#      x y z
#    x 1.527960 0.000000 0.000000 
#    y 0.000000 1.494510 0.000000 
#    z 0.000000 0.000000 1.524490 
# 
# From -- ./inp_files/7171.got.cif
#   From: 2010.05.17/outbox.cif.g08.bks.cpg/sg57_4_cif.got.tgz:7171.got - 2010.06.03 13:58:18.
