data_PCOD9434932
_publ_section_title
;
Structure prediction by ZEFSAII (Michael W. Deem and Ramdas Pophale) SiO2 
 PCOD9434932
Probable space group: P B C M
;
_chemical_formula_sum "Si O2"
_cell_formula_units_Z 64
_cell_length_a 13.458207
_cell_length_b 23.536534
_cell_length_c 8.756416
_cell_angle_alpha 90.000000
_cell_angle_beta 90.000000
_cell_angle_gamma 90.000000
_cell_volume 2773.678362
_symmetry_space_group_name_H-M "P B C M"
_symmetry_group_IT_number 57
_symmetry_cell_setting 'orthorhombic'
loop_
_space_group_symop_operation_xyz
x,y,z
-x,-y,1/2+z
x,1/2-y,-z
-x,1/2+y,1/2-z
-x,-y,-z
x,y,1/2-z
-x,1/2+y,z
x,1/2-y,1/2+z
loop_
_atom_site_type_symbol
_atom_site_label
_atom_site_fract_x
_atom_site_fract_y
_atom_site_fract_z
Si Si1 0.444935 0.690031 0.433198
Si Si2 0.876566 0.068382 0.072561
Si Si3 0.328476 0.160800 0.070505
Si Si4 0.364262 0.456582 0.077834
Si Si5 0.087362 0.808605 0.566797
Si Si6 0.914904 0.951852 0.073823
Si Si7 0.599590 0.072521 0.577569
Si Si8 0.871130 0.677164 0.921515
O O1 0.409516 0.750000 0.500000
O O2 0.437170 0.689515 0.250000
O O3 0.562234 0.682984 0.475972
O O4 0.391939 0.634173 0.500641
O O5 0.849798 0.072433 0.250000
O O6 0.862399 0.132111 0.008201
O O7 0.994383 0.058174 0.041939
O O8 0.846826 0.004567 0.021461
O O9 0.317707 0.169061 0.250000
O O10 0.236381 0.190544 0.988152
O O11 0.327927 0.093329 0.033096
O O12 0.323517 0.450381 0.250000
O O13 0.482569 0.442712 0.086679
O O14 0.356915 0.521173 0.021087
O O15 0.129532 0.750000 0.500000
O O16 0.093065 0.807984 0.750000
O O17 0.970801 0.810289 0.516977
O O18 0.949435 0.963159 0.250000
O O19 0.866418 0.890962 0.083926
O O20 0.639760 0.072936 0.750000
O O21 0.884623 0.699802 0.750000
#
# Coordination Sequence:
#
# PCOD9434932 Si02
#       8
#     8   8   8   8   8   8   8   8
#     4  10  20  32  45  61  83 113 147 181 213 248
#     4   8  14  25  41  59  78 101 130 166 209 251
#     4  10  20  32  44  60  85 116 149 181 214 252
#     4   9  16  27  44  64  84 107 138 175 215 256
#     4  10  19  30  43  59  82 112 144 176 208 245
#     4   8  14  25  41  60  79 100 129 167 210 253
#     4   9  16  27  44  64  85 108 135 171 215 258
#     4  10  19  30  44  61  83 111 143 177 212 251
#
# _framework density 23.074051999999998
#
# number of rings (size 3 to 8) (size 9 to 14) (size 15 to 20)
#    0.000    2.750    0.000    2.250    0.000    6.000 
#    0.000    1.250    0.000    0.000    0.000    0.000 
#    0.000    1.000    0.000    7.000    0.000    3.750 
#
# Total GULP energy -356841.055703 kJ/mol
# GULP energy per Si atom -5575.641495 kJ/mol
# Density = 2.302153 g / cm^3
# Si number density = 23.074052 Si / 1000 Ang^3
#
#
#
# Elastic Constant Matrix: (Units=GPa)
#
#
# Indices 1 2 3 4 5 6 
#
# 1 35.5638 -7.2615 12.7712 0.0000 0.0000 0.0000
# 2 -7.2615 222.9808 26.6442 0.0000 0.0000 0.0000
# 3 12.7712 26.6442 48.5914 0.0000 0.0000 0.0000
# 4 0.0000 0.0000 0.0000 32.8077 0.0000 0.0000
# 5 0.0000 0.0000 0.0000 0.0000 7.8892 0.0000
# 6 0.0000 0.0000 0.0000 0.0000 0.0000 -6.5401
#
#
#
# Elastic Compliance Matrix: (Units=1/GPa)
#
#
# Indices 1 2 3 4 5 6 
#
# 1 0.032020 0.002192 -0.009618 0.000000 0.000000 0.000000
# 2 0.002192 0.004949 -0.003290 0.000000 0.000000 0.000000
# 3 -0.009618 -0.003290 0.024912 0.000000 0.000000 0.000000
# 4 0.000000 0.000000 0.000000 0.030481 0.000000 0.000000
# 5 0.000000 0.000000 0.000000 0.000000 0.126756 0.000000
# 6 0.000000 0.000000 0.000000 0.000000 0.000000 -0.152903
#
#
# Mechanical properties :
#
#
# Convention : Reuss Voigt Hill
#
# Bulk Modulus (GPa) = 24.72228 41.27155 32.99691
# Shear Modulus (GPa) = 49.44206 25.16348 37.30277
#
# Velocity S-wave (km/s) = 4.63401 3.30594 4.02513
# Velocity P-wave (km/s) = 6.27453 5.70067 5.99447
#
# Compressibility (1/GPa) = 0.04044934
#
# Stress axis : x y z
#
# Youngs Moduli (GPa) = 31.23065 202.05332 40.14203
#
# Poissons Ratio (x) = -0.44289 0.38607
# Poissons Ratio (y) = -0.06846 0.13206
# Poissons Ratio (z) = 0.30037 0.66474
#
# Static dielectric constant tensor:
#      x y z
#    x 1.902220 0.000000 0.000000 
#    y 0.000000 1.940160 0.000000 
#    z 0.000000 0.000000 1.843980 
# 
# From -- ./inp_files/8674.got.cif
#   From: 2010.05.17/outbox.cif.g08.bks.cpg/sg57_5_cif.got.tgz:8674.got - 2010.06.03 13:58:18.
