data_PCOD9434385
_publ_section_title
;
Structure prediction by ZEFSAII (Michael W. Deem and Ramdas Pophale) SiO2 
 PCOD9434385
Probable space group: P B C M
;
_chemical_formula_sum "Si O2"
_cell_formula_units_Z 48
_cell_length_a 11.731549
_cell_length_b 26.951812
_cell_length_c 7.922135
_cell_angle_alpha 90.000000
_cell_angle_beta 90.000000
_cell_angle_gamma 90.000000
_cell_volume 2504.872163
_symmetry_space_group_name_H-M "P B C M"
_symmetry_group_IT_number 57
_symmetry_cell_setting 'orthorhombic'
loop_
_space_group_symop_operation_xyz
x,y,z
-x,-y,1/2+z
x,1/2-y,-z
-x,1/2+y,1/2-z
-x,-y,-z
x,y,1/2-z
-x,1/2+y,z
x,1/2-y,1/2+z
loop_
_atom_site_type_symbol
_atom_site_label
_atom_site_fract_x
_atom_site_fract_y
_atom_site_fract_z
Si Si1 0.262046 0.597168 0.946185
Si Si2 0.368466 0.193605 0.451439
Si Si3 0.741861 0.598482 0.441359
Si Si4 0.867948 0.999657 0.954440
Si Si5 0.516828 0.944220 0.443046
Si Si6 0.633719 0.306469 0.048594
O O1 0.224094 0.602098 0.750000
O O2 0.190717 0.550791 0.018745
O O3 0.393216 0.579875 0.947984
O O4 0.277345 0.652468 0.021350
O O5 0.341613 0.250000 0.500000
O O6 0.364888 0.189671 0.250000
O O7 0.278906 0.152825 0.521305
O O8 0.500647 0.184209 0.502081
O O9 0.785791 0.605122 0.250000
O O10 0.811393 0.552038 0.517406
O O11 0.611618 0.579534 0.439880
O O12 0.851857 0.999552 0.750000
O O13 0.000000 0.000000 0.000000
O O14 0.558600 0.941171 0.250000
O O15 0.500000 0.000000 0.500000
O O16 0.638074 0.310521 0.250000
O O17 0.660037 0.250000 0.000000
#
# Coordination Sequence:
#
# PCOD9434385 Si02
#       6
#     8   8   8   8   8   8
#     4   9  18  32  51  71 103 138 163 202 256 302
#     4  10  19  30  47  74 106 140 168 201 245 299
#     4  10  20  34  52  74 105 137 168 211 257 303
#     4  10  21  39  55  73  99 130 170 217 264 304
#     4  11  19  30  48  75 106 137 167 202 253 312
#     4  10  18  30  47  73 105 140 169 199 244 299
#
# _framework density 19.162655999999998
#
# number of rings (size 3 to 8) (size 9 to 14) (size 15 to 20)
#    0.000    2.000    3.333    2.500    0.000    1.333 
#    0.000    1.667    0.000    1.000    0.000    7.000 
#    0.000    0.000    0.000    0.000    0.000    0.000 
#
# Total GULP energy -267285.055364 kJ/mol
# GULP energy per Si atom -5568.438653 kJ/mol
# Density = 1.911904 g / cm^3
# Si number density = 19.162656 Si / 1000 Ang^3
#
#
#
# Elastic Constant Matrix: (Units=GPa)
#
#
# Indices 1 2 3 4 5 6 
#
# 1 72.0634 61.8936 2.4236 0.0000 0.0000 0.0000
# 2 61.8936 203.0157 7.7118 0.0000 0.0000 0.0000
# 3 2.4236 7.7118 39.6431 0.0000 0.0000 0.0000
# 4 0.0000 0.0000 0.0000 4.3820 0.0000 0.0000
# 5 0.0000 0.0000 0.0000 0.0000 16.8373 0.0000
# 6 0.0000 0.0000 0.0000 0.0000 0.0000 11.4530
#
#
#
# Elastic Compliance Matrix: (Units=1/GPa)
#
#
# Indices 1 2 3 4 5 6 
#
# 1 0.018799 -0.005730 -0.000035 0.000000 0.000000 0.000000
# 2 -0.005730 0.006709 -0.000955 0.000000 0.000000 0.000000
# 3 -0.000035 -0.000955 0.025413 0.000000 0.000000 0.000000
# 4 0.000000 0.000000 0.000000 0.228205 0.000000 0.000000
# 5 0.000000 0.000000 0.000000 0.000000 0.059392 0.000000
# 6 0.000000 0.000000 0.000000 0.000000 0.000000 0.087314
#
#
# Mechanical properties :
#
#
# Convention : Reuss Voigt Hill
#
# Bulk Modulus (GPa) = 26.67935 50.97557 38.82746
# Shear Modulus (GPa) = 11.06771 22.71400 16.89086
#
# Velocity S-wave (km/s) = 2.40587 3.44659 2.97214
# Velocity P-wave (km/s) = 4.65515 6.51904 5.66429
#
# Compressibility (1/GPa) = 0.03748217
#
# Stress axis : x y z
#
# Youngs Moduli (GPa) = 53.19370 149.05542 39.35006
#
# Poissons Ratio (x) = 0.85409 0.00136
# Poissons Ratio (y) = 0.30480 0.03757
# Poissons Ratio (z) = 0.00184 0.14231
#
# Static dielectric constant tensor:
#      x y z
#    x 1.602470 0.000000 0.000000 
#    y 0.000000 1.785520 0.000000 
#    z 0.000000 0.000000 1.714220 
# 
# From -- ./inp_files/3321.got.cif
#   From: 2010.05.17/outbox.cif.g08.bks.cpg/sg57_2_cif.got.tgz:3321.got - 2010.06.03 13:58:18.
