data_PCOD9434576
_publ_section_title
;
Structure prediction by ZEFSAII (Michael W. Deem and Ramdas Pophale) SiO2 
 PCOD9434576
Probable space group: P B C M
;
_chemical_formula_sum "Si O2"
_cell_formula_units_Z 32
_cell_length_a 15.741397
_cell_length_b 5.247072
_cell_length_c 25.199858
_cell_angle_alpha 90.000000
_cell_angle_beta 90.000000
_cell_angle_gamma 90.000000
_cell_volume 2081.413606
_symmetry_space_group_name_H-M "P B C M"
_symmetry_group_IT_number 57
_symmetry_cell_setting 'orthorhombic'
loop_
_space_group_symop_operation_xyz
x,y,z
-x,-y,1/2+z
x,1/2-y,-z
-x,1/2+y,1/2-z
-x,-y,-z
x,y,1/2-z
-x,1/2+y,z
x,1/2-y,1/2+z
loop_
_atom_site_type_symbol
_atom_site_label
_atom_site_fract_x
_atom_site_fract_y
_atom_site_fract_z
Si Si1 0.945158 0.758501 0.436901
Si Si2 0.941807 0.682333 0.250000
Si Si3 0.722308 0.191523 0.189334
Si Si4 0.443327 0.744130 0.250000
Si Si5 0.188735 0.309505 0.847921
O O1 0.928806 0.750000 0.500000
O O2 0.860634 0.725026 0.402802
O O3 0.008682 0.524960 0.424064
O O4 0.882520 0.692553 0.301811
O O5 0.995805 0.423671 0.250000
O O6 0.758836 0.200812 0.250000
O O7 0.621869 0.219602 0.200406
O O8 0.761125 0.426174 0.157452
O O9 0.748798 0.925230 0.164100
O O10 0.509236 0.512712 0.250000
#
# Coordination Sequence:
#
# PCOD9434576 Si02
#       5
#     8   4   8   4   8
#     4  10  21  36  51  68  92 131 178 219 250 275
#     4  12  20  26  40  62  88 122 158 186 230 284
#     4  10  20  32  48  71  99 131 148 193 238 292
#     4  10  18  32  50  72 104 134 154 182 228 300
#     4  12  19  34  46  67 100 127 161 200 250 280
#
# _framework density 15.374166000000001
#
# number of rings (size 3 to 8) (size 9 to 14) (size 15 to 20)
#    0.750    0.500    2.500    6.000    0.000    0.000 
#    0.000    0.000    0.000    0.000    0.000    0.000 
#    0.000   20.000    0.000    0.000    0.000    0.000 
#
# Total GULP energy -178568.865774 kJ/mol
# GULP energy per Si atom -5580.277055 kJ/mol
# Density = 1.533917 g / cm^3
# Si number density = 15.374166 Si / 1000 Ang^3
#
#
#
# Elastic Constant Matrix: (Units=GPa)
#
#
# Indices 1 2 3 4 5 6 
#
# 1 38.9724 -17.4623 3.6840 0.0000 0.0000 0.0000
# 2 -17.4623 15.5604 -11.5529 0.0000 0.0000 0.0000
# 3 3.6840 -11.5529 22.2412 0.0000 0.0000 0.0000
# 4 0.0000 0.0000 0.0000 7.7209 0.0000 0.0000
# 5 0.0000 0.0000 0.0000 0.0000 16.9245 0.0000
# 6 0.0000 0.0000 0.0000 0.0000 0.0000 34.9550
#
#
#
# Elastic Compliance Matrix: (Units=1/GPa)
#
#
# Indices 1 2 3 4 5 6 
#
# 1 0.076502 0.124434 0.051964 0.000000 0.000000 0.000000
# 2 0.124434 0.307007 0.138860 0.000000 0.000000 0.000000
# 3 0.051964 0.138860 0.108483 0.000000 0.000000 0.000000
# 4 0.000000 0.000000 0.000000 0.129518 0.000000 0.000000
# 5 0.000000 0.000000 0.000000 0.000000 0.059086 0.000000
# 6 0.000000 0.000000 0.000000 0.000000 0.000000 0.028608
#
#
# Mechanical properties :
#
#
# Convention : Reuss Voigt Hill
#
# Bulk Modulus (GPa) = 0.89086 2.90128 1.89607
# Shear Modulus (GPa) = 11.04098 18.72709 14.88403
#
# Velocity S-wave (km/s) = 2.68274 3.49390 3.11484
# Velocity P-wave (km/s) = 3.19012 4.26235 3.76460
#
# Compressibility (1/GPa) = 1.12250753
#
# Stress axis : x y z
#
# Youngs Moduli (GPa) = 13.07152 3.25725 9.21802
#
# Poissons Ratio (x) = -0.40531 -0.47900
# Poissons Ratio (y) = -1.62654 -1.28001
# Poissons Ratio (z) = -0.67925 -0.45230
#
# Static dielectric constant tensor:
#      x y z
#    x 1.496480 0.000000 0.000000 
#    y 0.000000 1.533650 0.000000 
#    z 0.000000 0.000000 1.499980 
# 
# From -- ./inp_files/27327.got.cif
#   From: 2010.05.17/outbox.cif.g08.bks.cpg/sg57_14_cif.got.tgz:27327.got - 2010.06.03 13:58:18.
