data_PCOD9434901
_publ_section_title
;
Structure prediction by ZEFSAII (Michael W. Deem and Ramdas Pophale) SiO2 
 PCOD9434901
Probable space group: P B C M
;
_chemical_formula_sum "Si O2"
_cell_formula_units_Z 56
_cell_length_a 16.753624
_cell_length_b 25.399350
_cell_length_c 8.462170
_cell_angle_alpha 90.000000
_cell_angle_beta 90.000000
_cell_angle_gamma 90.000000
_cell_volume 3600.917014
_symmetry_space_group_name_H-M "P B C M"
_symmetry_group_IT_number 57
_symmetry_cell_setting 'orthorhombic'
loop_
_space_group_symop_operation_xyz
x,y,z
-x,-y,1/2+z
x,1/2-y,-z
-x,1/2+y,1/2-z
-x,-y,-z
x,y,1/2-z
-x,1/2+y,z
x,1/2-y,1/2+z
loop_
_atom_site_type_symbol
_atom_site_label
_atom_site_fract_x
_atom_site_fract_y
_atom_site_fract_z
Si Si1 0.377172 0.402071 0.559448
Si Si2 0.124738 0.988744 0.441158
Si Si3 0.977315 0.583356 0.560768
Si Si4 0.918455 0.692498 0.060806
Si Si5 0.265992 0.192843 0.440747
Si Si6 0.532891 0.056178 0.560687
Si Si7 0.304788 0.514969 0.557543
O O1 0.377633 0.402261 0.750000
O O2 0.324370 0.353213 0.503726
O O3 0.468651 0.402482 0.502865
O O4 0.334946 0.456760 0.509136
O O5 0.125044 0.990008 0.250000
O O6 0.214398 0.976652 0.496609
O O7 0.059207 0.945541 0.491600
O O8 0.093409 0.045454 0.498813
O O9 0.975512 0.583475 0.750000
O O10 0.967352 0.642467 0.499851
O O11 0.919912 0.692948 0.250000
O O12 0.825959 0.684809 0.007821
O O13 0.944427 0.750000 0.000000
O O14 0.291662 0.250000 0.500000
O O15 0.266045 0.192463 0.250000
O O16 0.530488 0.056689 0.750000
O O17 0.625762 0.055977 0.509718
O O18 0.500000 0.000000 0.500000
O O19 0.303286 0.515262 0.750000
#
# Coordination Sequence:
#
# PCOD9434901 Si02
#       7
#     8   8   8   8   8   8   8
#     4   9  16  27  42  60  84 112 139 168 206 247
#     4   9  17  30  46  62  86 120 150 177 212 256
#     4  10  19  29  43  66  91 114 145 181 218 259
#     4  10  19  32  48  64  86 115 146 179 215 255
#     4   9  18  30  44  62  84 112 143 173 205 246
#     4   9  16  26  40  59  82 107 137 169 201 239
#     4   8  14  26  43  60  80 110 144 171 202 247
#
# _framework density 15.551594
#
# number of rings (size 3 to 8) (size 9 to 14) (size 15 to 20)
#    0.000    2.857    0.000    3.000    0.000    4.000 
#    0.000    6.429    0.000    0.000    0.000    1.000 
#    0.000    2.286    0.000    0.000    0.000    0.000 
#
# Total GULP energy -311867.632189 kJ/mol
# GULP energy per Si atom -5569.064861 kJ/mol
# Density = 1.551620 g / cm^3
# Si number density = 15.551594 Si / 1000 Ang^3
#
#
#
# Elastic Constant Matrix: (Units=GPa)
#
#
# Indices 1 2 3 4 5 6 
#
# 1 102.1875 42.2437 10.8433 0.0000 0.0000 0.0000
# 2 42.2437 92.0878 13.4661 0.0000 0.0000 0.0000
# 3 10.8433 13.4661 13.5063 0.0000 0.0000 0.0000
# 4 0.0000 0.0000 0.0000 23.8185 0.0000 0.0000
# 5 0.0000 0.0000 0.0000 0.0000 18.0089 0.0000
# 6 0.0000 0.0000 0.0000 0.0000 0.0000 24.3810
#
#
#
# Elastic Compliance Matrix: (Units=1/GPa)
#
#
# Indices 1 2 3 4 5 6 
#
# 1 0.012358 -0.004938 -0.004998 0.000000 0.000000 0.000000
# 2 -0.004938 0.014686 -0.010678 0.000000 0.000000 0.000000
# 3 -0.004998 -0.010678 0.088698 0.000000 0.000000 0.000000
# 4 0.000000 0.000000 0.000000 0.041984 0.000000 0.000000
# 5 0.000000 0.000000 0.000000 0.000000 0.055528 0.000000
# 6 0.000000 0.000000 0.000000 0.000000 0.000000 0.041016
#
#
# Mechanical properties :
#
#
# Convention : Reuss Voigt Hill
#
# Bulk Modulus (GPa) = 13.42026 37.87642 25.64834
# Shear Modulus (GPa) = 15.60870 22.65691 19.13281
#
# Velocity S-wave (km/s) = 3.17152 3.82106 3.51134
# Velocity P-wave (km/s) = 4.69676 6.62386 5.74174
#
# Compressibility (1/GPa) = 0.07451419
#
# Stress axis : x y z
#
# Youngs Moduli (GPa) = 80.92181 68.09277 11.27423
#
# Poissons Ratio (x) = 0.33624 0.05635
# Poissons Ratio (y) = 0.39959 0.12038
# Poissons Ratio (z) = 0.40443 0.72708
#
# Static dielectric constant tensor:
#      x y z
#    x 1.549190 0.000000 0.000000 
#    y 0.000000 1.492110 0.000000 
#    z 0.000000 0.000000 1.525160 
# 
# From -- ./inp_files/7021.got.cif
#   From: 2010.05.17/outbox.cif.g08.bks.cpg/sg57_4_cif.got.tgz:7021.got - 2010.06.03 13:58:18.
