data_PCOD9434055
_publ_section_title
;
Structure prediction by ZEFSAII (Michael W. Deem and Ramdas Pophale) SiO2 
 PCOD9434055
Probable space group: P B C M
;
_chemical_formula_sum "Si O2"
_cell_formula_units_Z 64
_cell_length_a 20.932868
_cell_length_b 23.541987
_cell_length_c 8.913815
_cell_angle_alpha 90.000000
_cell_angle_beta 90.000000
_cell_angle_gamma 90.000000
_cell_volume 4392.739676
_symmetry_space_group_name_H-M "P B C M"
_symmetry_group_IT_number 57
_symmetry_cell_setting 'orthorhombic'
loop_
_space_group_symop_operation_xyz
x,y,z
-x,-y,1/2+z
x,1/2-y,-z
-x,1/2+y,1/2-z
-x,-y,-z
x,y,1/2-z
-x,1/2+y,z
x,1/2-y,1/2+z
loop_
_atom_site_type_symbol
_atom_site_label
_atom_site_fract_x
_atom_site_fract_y
_atom_site_fract_z
Si Si1 0.915257 0.550614 0.078025
Si Si2 0.960263 0.418230 0.077018
Si Si3 0.177720 0.603319 0.569487
Si Si4 0.521785 0.559452 0.070458
Si Si5 0.388521 0.901144 0.569200
Si Si6 0.655506 0.977853 0.930474
Si Si7 0.292034 0.687854 0.570441
Si Si8 0.211570 0.481771 0.428248
O O1 0.900858 0.564193 0.250000
O O2 0.938377 0.484573 0.072762
O O3 0.851185 0.552406 0.980538
O O4 0.975354 0.586107 0.017644
O O5 0.973927 0.404109 0.250000
O O6 0.896125 0.386001 0.026105
O O7 0.178060 0.592486 0.750000
O O8 0.226113 0.654152 0.538149
O O9 0.201572 0.546198 0.488709
O O10 0.519999 0.554072 0.250000
O O11 0.464375 0.602138 0.030943
O O12 0.596450 0.564220 0.030369
O O13 0.500000 0.500000 0.000000
O O14 0.381328 0.902797 0.750000
O O15 0.362218 0.960379 0.500007
O O16 0.348195 0.850195 0.500061
O O17 0.659855 0.983354 0.750000
O O18 0.723204 0.960047 0.997532
O O19 0.291332 0.750000 0.500000
O O20 0.299445 0.690709 0.750000
O O21 0.216620 0.482403 0.250000
#
# Coordination Sequence:
#
# PCOD9434055 Si02
#       8
#     8   8   8   8   8   8   8   8
#     4   9  16  25  36  53  77 104 132 164 199 237
#     4   8  14  25  39  54  72  97 131 167 200 239
#     4   9  18  31  44  56  75 104 136 171 213 252
#     4   8  16  27  41  59  80 104 133 167 204 247
#     4  10  18  30  45  62  80 103 137 175 211 252
#     4  10  17  27  41  59  83 111 138 168 207 249
#     4  11  22  34  47  62  82 109 141 180 220 255
#     4  11  19  25  38  58  81 109 140 172 202 238
#
# _framework density 14.569495999999999
#
# number of rings (size 3 to 8) (size 9 to 14) (size 15 to 20)
#    0.000    2.500    1.250    3.375    0.000    4.500 
#    0.000    0.000    0.000    0.000    0.000    0.000 
#    0.000    0.000    0.000    1.125    0.000   19.500 
#
# Total GULP energy -356324.876147 kJ/mol
# GULP energy per Si atom -5567.576190 kJ/mol
# Density = 1.453633 g / cm^3
# Si number density = 14.569496 Si / 1000 Ang^3
#
#
#
# Elastic Constant Matrix: (Units=GPa)
#
#
# Indices 1 2 3 4 5 6 
#
# 1 150.4814 42.3527 56.1990 0.0000 0.0000 0.0000
# 2 42.3527 38.8814 22.2419 0.0000 0.0000 0.0000
# 3 56.1990 22.2419 61.2841 0.0000 0.0000 0.0000
# 4 0.0000 0.0000 0.0000 11.6822 0.0000 0.0000
# 5 0.0000 0.0000 0.0000 0.0000 25.2121 0.0000
# 6 0.0000 0.0000 0.0000 0.0000 0.0000 10.3809
#
#
#
# Elastic Compliance Matrix: (Units=1/GPa)
#
#
# Indices 1 2 3 4 5 6 
#
# 1 0.012005 -0.008556 -0.007904 0.000000 0.000000 0.000000
# 2 -0.008556 0.038555 -0.006147 0.000000 0.000000 0.000000
# 3 -0.007904 -0.006147 0.025796 0.000000 0.000000 0.000000
# 4 0.000000 0.000000 0.000000 0.085600 0.000000 0.000000
# 5 0.000000 0.000000 0.000000 0.000000 0.039664 0.000000
# 6 0.000000 0.000000 0.000000 0.000000 0.000000 0.096331
#
#
# Mechanical properties :
#
#
# Convention : Reuss Voigt Hill
#
# Bulk Modulus (GPa) = 32.10949 54.69266 43.40107
# Shear Modulus (GPa) = 14.14245 18.11193 16.12719
#
# Velocity S-wave (km/s) = 3.11897 3.52964 3.33064
# Velocity P-wave (km/s) = 5.92092 7.36423 6.68166
#
# Compressibility (1/GPa) = 0.03114344
#
# Stress axis : x y z
#
# Youngs Moduli (GPa) = 83.29822 25.93695 38.76495
#
# Poissons Ratio (x) = 0.22190 0.30639
# Poissons Ratio (y) = 0.71266 0.23830
# Poissons Ratio (z) = 0.65838 0.15944
#
# Static dielectric constant tensor:
#      x y z
#    x 1.535430 0.000000 0.000000 
#    y 0.000000 1.434060 0.000000 
#    z 0.000000 0.000000 1.501630 
# 
# From -- ./inp_files/8786.got.cif
#   From: 2010.05.17/outbox.cif.g08.bks.cpg/sg57_5_cif.got.tgz:8786.got - 2010.06.03 13:58:18.
