data_PCOD9434513
_publ_section_title
;
Structure prediction by ZEFSAII (Michael W. Deem and Ramdas Pophale) SiO2 
 PCOD9434513
Probable space group: P B C M
;
_chemical_formula_sum "Si O2"
_cell_formula_units_Z 64
_cell_length_a 24.984546
_cell_length_b 15.119005
_cell_length_c 8.454672
_cell_angle_alpha 90.000000
_cell_angle_beta 90.000000
_cell_angle_gamma 90.000000
_cell_volume 3193.680280
_symmetry_space_group_name_H-M "P B C M"
_symmetry_group_IT_number 57
_symmetry_cell_setting 'orthorhombic'
loop_
_space_group_symop_operation_xyz
x,y,z
-x,-y,1/2+z
x,1/2-y,-z
-x,1/2+y,1/2-z
-x,-y,-z
x,y,1/2-z
-x,1/2+y,z
x,1/2-y,1/2+z
loop_
_atom_site_type_symbol
_atom_site_label
_atom_site_fract_x
_atom_site_fract_y
_atom_site_fract_z
Si Si1 0.223225 0.349727 0.938408
Si Si2 0.596312 0.657948 0.439016
Si Si3 0.902345 0.345493 0.061095
Si Si4 0.023588 0.345384 0.940108
Si Si5 0.364558 0.846812 0.558709
Si Si6 0.681885 0.528145 0.562200
Si Si7 0.122179 0.037016 0.442943
Si Si8 0.482462 0.904227 0.939841
O O1 0.220153 0.344106 0.750000
O O2 0.169420 0.398582 0.997994
O O3 0.229130 0.250000 0.000000
O O4 0.272148 0.413635 0.983358
O O5 0.620036 0.750000 0.500000
O O6 0.602087 0.651027 0.250000
O O7 0.626530 0.577480 0.521443
O O8 0.533732 0.654704 0.481681
O O9 0.900406 0.342770 0.250000
O O10 0.872995 0.434974 0.005279
O O11 0.883293 0.250000 0.000000
O O12 0.964310 0.356108 0.009463
O O13 0.020015 0.343815 0.750000
O O14 0.065134 0.421121 0.989388
O O15 0.043954 0.250000 0.000000
O O16 0.349369 0.750000 0.500000
O O17 0.365473 0.846601 0.750000
O O18 0.425078 0.870145 0.501268
O O19 0.325608 0.926808 0.508364
O O20 0.690202 0.528936 0.750000
O O21 0.123304 0.036814 0.250000
O O22 0.478807 0.907801 0.750000
O O23 0.500000 0.000000 0.000000
#
# Coordination Sequence:
#
# PCOD9434513 Si02
#       8
#     8   8   8   8   8   8   8   8
#     4  11  23  42  64  87 113 144 184 232 287 340
#     4  11  22  35  56  84 113 148 187 225 275 332
#     4  10  19  34  53  79 113 151 190 229 274 325
#     4  10  18  31  51  80 114 150 187 227 277 331
#     4  10  22  39  60  85 115 149 187 231 279 330
#     4  11  23  41  61  83 113 146 186 234 282 333
#     4   9  20  36  56  80 111 148 187 232 281 334
#     4  10  20  35  55  83 115 151 186 225 274 329
#
# _framework density 20.039577999999999
#
# number of rings (size 3 to 8) (size 9 to 14) (size 15 to 20)
#    0.000    1.750    1.250    4.125    0.000    2.000 
#    0.000    6.875    0.000    3.000    0.000    0.000 
#    0.000    0.000    0.000    0.000    0.000    0.000 
#
# Total GULP energy -357377.864068 kJ/mol
# GULP energy per Si atom -5584.029126 kJ/mol
# Density = 1.999397 g / cm^3
# Si number density = 20.039578 Si / 1000 Ang^3
#
#
#
# Elastic Constant Matrix: (Units=GPa)
#
#
# Indices 1 2 3 4 5 6 
#
# 1 52.8500 45.2785 10.4876 0.0000 0.0000 0.0000
# 2 45.2785 191.9772 22.4543 0.0000 0.0000 0.0000
# 3 10.4876 22.4543 20.0727 0.0000 0.0000 0.0000
# 4 0.0000 0.0000 0.0000 27.1562 0.0000 0.0000
# 5 0.0000 0.0000 0.0000 0.0000 11.1728 0.0000
# 6 0.0000 0.0000 0.0000 0.0000 0.0000 29.8688
#
#
#
# Elastic Compliance Matrix: (Units=1/GPa)
#
#
# Indices 1 2 3 4 5 6 
#
# 1 0.024615 -0.004949 -0.007325 0.000000 0.000000 0.000000
# 2 -0.004949 0.006988 -0.005232 0.000000 0.000000 0.000000
# 3 -0.007325 -0.005232 0.059498 0.000000 0.000000 0.000000
# 4 0.000000 0.000000 0.000000 0.036824 0.000000 0.000000
# 5 0.000000 0.000000 0.000000 0.000000 0.089503 0.000000
# 6 0.000000 0.000000 0.000000 0.000000 0.000000 0.033480
#
#
# Mechanical properties :
#
#
# Convention : Reuss Voigt Hill
#
# Bulk Modulus (GPa) = 17.82824 46.81563 32.32194
# Shear Modulus (GPa) = 16.41416 26.08485 21.24951
#
# Velocity S-wave (km/s) = 2.86508 3.61178 3.25988
# Velocity P-wave (km/s) = 4.45653 6.38792 5.50755
#
# Compressibility (1/GPa) = 0.05609078
#
# Stress axis : x y z
#
# Youngs Moduli (GPa) = 40.62592 143.10192 16.80724
#
# Poissons Ratio (x) = 0.70818 0.12311
# Poissons Ratio (y) = 0.20105 0.08793
# Poissons Ratio (z) = 0.29758 0.74864
#
# Static dielectric constant tensor:
#      x y z
#    x 1.713770 0.000000 0.000000 
#    y 0.000000 1.479320 0.000000 
#    z 0.000000 0.000000 1.675180 
# 
# From -- ./inp_files/9399.got.cif
#   From: 2010.05.17/outbox.cif.g08.bks.cpg/sg57_5_cif.got.tgz:9399.got - 2010.06.03 13:58:18.
