data_PCOD9434020
_publ_section_title
;
Structure prediction by ZEFSAII (Michael W. Deem and Ramdas Pophale) SiO2 
 PCOD9434020
Probable space group: P B C M
;
_chemical_formula_sum "Si O2"
_cell_formula_units_Z 56
_cell_length_a 17.881169
_cell_length_b 5.403545
_cell_length_c 26.845394
_cell_angle_alpha 90.000000
_cell_angle_beta 90.000000
_cell_angle_gamma 90.000000
_cell_volume 2593.847642
_symmetry_space_group_name_H-M "P B C M"
_symmetry_group_IT_number 57
_symmetry_cell_setting 'orthorhombic'
loop_
_space_group_symop_operation_xyz
x,y,z
-x,-y,1/2+z
x,1/2-y,-z
-x,1/2+y,1/2-z
-x,-y,-z
x,y,1/2-z
-x,1/2+y,z
x,1/2-y,1/2+z
loop_
_atom_site_type_symbol
_atom_site_label
_atom_site_fract_x
_atom_site_fract_y
_atom_site_fract_z
Si Si1 0.411708 0.669413 0.195173
Si Si2 0.024751 0.295930 0.595038
Si Si3 0.919607 0.205102 0.194598
Si Si4 0.683888 0.828445 0.806394
Si Si5 0.843129 0.705378 0.161617
Si Si6 0.594630 0.818939 0.055480
Si Si7 0.569755 0.182524 0.592283
O O1 0.448077 0.676152 0.250000
O O2 0.372822 0.403113 0.188842
O O3 0.459280 0.731472 0.146483
O O4 0.353626 0.900002 0.192906
O O5 0.978603 0.295669 0.648705
O O6 0.000127 0.546066 0.569242
O O7 0.111209 0.295024 0.609887
O O8 0.953902 0.202750 0.250000
O O9 0.870988 0.454344 0.188631
O O10 0.869763 0.958689 0.188125
O O11 0.715253 0.800939 0.750000
O O12 0.754432 0.801959 0.842041
O O13 0.503955 0.848349 0.058652
O O14 0.610559 0.580817 0.089803
O O15 0.619813 0.089442 0.073145
O O16 0.617383 0.750000 0.000000
#
# Coordination Sequence:
#
# PCOD9434020 Si02
#       7
#     8   8   8   8   8   8   8
#     4  10  21  34  45  61  88 123 163 196 218 246
#     4   8  16  24  31  45  64  83 108 155 226 293
#     4  10  17  23  32  47  65  83 110 160 231 296
#     4  10  19  30  42  54  73 108 155 201 230 249
#     4  10  18  26  36  48  63  89 128 174 228 276
#     4  10  19  33  55  83 103 115 137 171 222 279
#     4  10  18  32  51  72  99 127 145 175 224 261
#
# _framework density 21.589549999999999
#
# number of rings (size 3 to 8) (size 9 to 14) (size 15 to 20)
#    0.000    2.286    0.000    5.143    0.000    6.857 
#    0.000    2.857    0.000    0.000    0.000    0.000 
#    0.000    0.000    0.000    0.000    0.000    0.000 
#
# Total GULP energy -312383.952936 kJ/mol
# GULP energy per Si atom -5578.284874 kJ/mol
# Density = 2.154041 g / cm^3
# Si number density = 21.589550 Si / 1000 Ang^3
#
#
#
# Elastic Constant Matrix: (Units=GPa)
#
#
# Indices 1 2 3 4 5 6 
#
# 1 48.7715 24.1825 2.8998 0.0000 0.0000 0.0000
# 2 24.1825 209.8152 5.3585 0.0000 0.0000 0.0000
# 3 2.8998 5.3585 46.8503 0.0000 0.0000 0.0000
# 4 0.0000 0.0000 0.0000 15.9476 0.0000 0.0000
# 5 0.0000 0.0000 0.0000 0.0000 39.6924 0.0000
# 6 0.0000 0.0000 0.0000 0.0000 0.0000 23.1335
#
#
#
# Elastic Compliance Matrix: (Units=1/GPa)
#
#
# Indices 1 2 3 4 5 6 
#
# 1 0.021799 -0.002485 -0.001065 0.000000 0.000000 0.000000
# 2 -0.002485 0.005063 -0.000425 0.000000 0.000000 0.000000
# 3 -0.001065 -0.000425 0.021459 0.000000 0.000000 0.000000
# 4 0.000000 0.000000 0.000000 0.062706 0.000000 0.000000
# 5 0.000000 0.000000 0.000000 0.000000 0.025194 0.000000
# 6 0.000000 0.000000 0.000000 0.000000 0.000000 0.043227
#
#
# Mechanical properties :
#
#
# Convention : Reuss Voigt Hill
#
# Bulk Modulus (GPa) = 24.77043 41.14649 32.95846
# Shear Modulus (GPa) = 24.89336 33.95444 29.42390
#
# Velocity S-wave (km/s) = 3.39931 3.97006 3.69572
# Velocity P-wave (km/s) = 5.18704 6.33365 5.78880
#
# Compressibility (1/GPa) = 0.04037072
#
# Stress axis : x y z
#
# Youngs Moduli (GPa) = 45.87286 197.49547 46.60015
#
# Poissons Ratio (x) = 0.49084 0.04963
# Poissons Ratio (y) = 0.11401 0.01982
# Poissons Ratio (z) = 0.04885 0.08399
#
# Static dielectric constant tensor:
#      x y z
#    x 1.772670 0.000000 0.000000 
#    y 0.000000 1.890670 0.000000 
#    z 0.000000 0.000000 1.837170 
# 
# From -- ./inp_files/27644.got.cif
#   From: 2010.05.17/outbox.cif.g08.bks.cpg/sg57_14_cif.got.tgz:27644.got - 2010.06.03 13:58:18.
