data_PCOD9434082
_publ_section_title
;
Structure prediction by ZEFSAII (Michael W. Deem and Ramdas Pophale) SiO2 
 PCOD9434082
Probable space group: P B C M
;
_chemical_formula_sum "Si O2"
_cell_formula_units_Z 28
_cell_length_a 12.149022
_cell_length_b 17.788793
_cell_length_c 5.556827
_cell_angle_alpha 90.000000
_cell_angle_beta 90.000000
_cell_angle_gamma 90.000000
_cell_volume 1200.921655
_symmetry_space_group_name_H-M "P B C M"
_symmetry_group_IT_number 57
_symmetry_cell_setting 'orthorhombic'
loop_
_space_group_symop_operation_xyz
x,y,z
-x,-y,1/2+z
x,1/2-y,-z
-x,1/2+y,1/2-z
-x,-y,-z
x,y,1/2-z
-x,1/2+y,z
x,1/2-y,1/2+z
loop_
_atom_site_type_symbol
_atom_site_label
_atom_site_fract_x
_atom_site_fract_y
_atom_site_fract_z
Si Si1 0.785665 0.914846 0.250000
Si Si2 0.935843 0.439664 0.750000
Si Si3 0.291441 0.352987 0.750000
Si Si4 0.085236 0.233969 0.750000
Si Si5 0.122384 0.937933 0.250000
Si Si6 0.514028 0.399266 0.750000
Si Si7 0.615908 0.440211 0.250000
O O1 0.723560 0.898304 0.499086
O O2 0.877434 0.851215 0.250000
O O3 0.842698 0.995057 0.250000
O O4 0.915953 0.400349 0.497945
O O5 0.054372 0.481869 0.750000
O O6 0.198077 0.287324 0.750000
O O7 0.420677 0.334373 0.750000
O O8 0.028284 0.250000 0.500000
O O9 0.252460 0.947558 0.250000
O O10 0.581240 0.400005 0.500425
O O11 0.448718 0.479888 0.750000
#
# Coordination Sequence:
#
# PCOD9434082 Si02
#       7
#     4   4   4   4   4   4   4
#     4  10  17  28  46  66  91 115 142 180 226 273
#     4  10  19  30  47  66  86 122 155 181 227 269
#     4  10  18  29  44  65  93 116 143 180 226 272
#     4   8  16  27  41  63  90 111 133 175 226 270
#     4  10  20  32  44  63  92 121 154 189 216 259
#     4  10  19  28  43  61  83 120 153 178 216 258
#     4  10  19  30  41  60  87 117 154 185 209 251
#
# _framework density 23.315425000000001
#
# number of rings (size 3 to 8) (size 9 to 14) (size 15 to 20)
#    0.000    2.286    0.000    4.286    0.000    2.286 
#    0.000    0.000    0.000    0.000    0.000    0.000 
#    0.000   61.714    0.000    0.000    0.000    0.000 
#
# Total GULP energy -156365.675580 kJ/mol
# GULP energy per Si atom -5584.488414 kJ/mol
# Density = 2.326236 g / cm^3
# Si number density = 23.315425 Si / 1000 Ang^3
#
#
#
# Elastic Constant Matrix: (Units=GPa)
#
#
# Indices 1 2 3 4 5 6 
#
# 1 132.4980 10.4000 66.6123 0.0000 0.0000 0.0000
# 2 10.4000 47.0179 21.2009 0.0000 0.0000 0.0000
# 3 66.6123 21.2009 280.7740 0.0000 0.0000 0.0000
# 4 0.0000 0.0000 0.0000 13.1209 0.0000 0.0000
# 5 0.0000 0.0000 0.0000 0.0000 28.9381 0.0000
# 6 0.0000 0.0000 0.0000 0.0000 0.0000 26.5554
#
#
#
# Elastic Compliance Matrix: (Units=1/GPa)
#
#
# Indices 1 2 3 4 5 6 
#
# 1 0.008616 -0.001019 -0.001967 0.000000 0.000000 0.000000
# 2 -0.001019 0.022139 -0.001430 0.000000 0.000000 0.000000
# 3 -0.001967 -0.001430 0.004136 0.000000 0.000000 0.000000
# 4 0.000000 0.000000 0.000000 0.076214 0.000000 0.000000
# 5 0.000000 0.000000 0.000000 0.000000 0.034557 0.000000
# 6 0.000000 0.000000 0.000000 0.000000 0.000000 0.037657
#
#
# Mechanical properties :
#
#
# Convention : Reuss Voigt Hill
#
# Bulk Modulus (GPa) = 38.37418 72.96847 55.67132
# Shear Modulus (GPa) = 24.89578 37.86133 31.37855
#
# Velocity S-wave (km/s) = 3.27124 4.03410 3.67253
# Velocity P-wave (km/s) = 5.54639 7.28442 6.47400
#
# Compressibility (1/GPa) = 0.02605919
#
# Stress axis : x y z
#
# Youngs Moduli (GPa) = 116.05958 45.16990 241.76332
#
# Poissons Ratio (x) = 0.04602 0.47561
# Poissons Ratio (y) = 0.11824 0.34571
# Poissons Ratio (z) = 0.22832 0.06459
#
# Static dielectric constant tensor:
#      x y z
#    x 1.929780 0.000000 0.000000 
#    y 0.000000 1.877110 0.000000 
#    z 0.000000 0.000000 1.991670 
# 
# From -- ./inp_files/335.got.cif
#   From: 2010.05.17/outbox.cif.g08.bks.cpg/sg57_1_cif.got.tgz:335.got - 2010.06.03 13:58:18.
