data_PCOD9434345
_publ_section_title
;
Structure prediction by ZEFSAII (Michael W. Deem and Ramdas Pophale) SiO2 
 PCOD9434345
Probable space group: P B C M
;
_chemical_formula_sum "Si O2"
_cell_formula_units_Z 64
_cell_length_a 6.919664
_cell_length_b 22.362594
_cell_length_c 15.646408
_cell_angle_alpha 90.000000
_cell_angle_beta 90.000000
_cell_angle_gamma 90.000000
_cell_volume 2421.150782
_symmetry_space_group_name_H-M "P B C M"
_symmetry_group_IT_number 57
_symmetry_cell_setting 'orthorhombic'
loop_
_space_group_symop_operation_xyz
x,y,z
-x,-y,1/2+z
x,1/2-y,-z
-x,1/2+y,1/2-z
-x,-y,-z
x,y,1/2-z
-x,1/2+y,z
x,1/2-y,1/2+z
loop_
_atom_site_type_symbol
_atom_site_label
_atom_site_fract_x
_atom_site_fract_y
_atom_site_fract_z
Si Si1 0.480788 0.226518 0.405635
Si Si2 0.458416 0.345887 0.152173
Si Si3 0.674378 0.976715 0.353591
Si Si4 0.936076 0.249103 0.603271
Si Si5 0.102483 0.001525 0.148309
Si Si6 0.016856 0.876276 0.611999
Si Si7 0.845429 0.126093 0.918810
Si Si8 0.462816 0.902055 0.651800
O O1 0.438595 0.250000 0.500000
O O2 0.376054 0.278849 0.351418
O O3 0.709388 0.234052 0.383008
O O4 0.451182 0.155936 0.394737
O O5 0.531917 0.354407 0.250000
O O6 0.345694 0.406335 0.130373
O O7 0.629980 0.347722 0.082711
O O8 0.671215 0.982440 0.250000
O O9 0.884689 0.993044 0.387346
O O10 0.527750 0.029144 0.383398
O O11 0.966007 0.250000 0.500000
O O12 0.039382 0.308658 0.637555
O O13 0.958189 0.179698 0.631147
O O14 0.105492 0.996285 0.250000
O O15 0.192748 0.939932 0.116597
O O16 0.135705 0.071260 0.129995
O O17 0.061584 0.877429 0.511173
O O18 0.226752 0.891723 0.652984
O O19 0.527084 0.900891 0.750000
#
# Coordination Sequence:
#
# PCOD9434345 Si02
#       8
#     8   8   8   8   8   8   8   8
#     4   9  16  27  43  67  96 120 149 193 234 268
#     4  10  18  30  48  72  96 120 148 190 240 279
#     4   8  17  31  47  65  91 123 156 188 224 271
#     4   7  13  25  42  64  89 114 141 178 225 269
#     4  10  19  32  47  66  91 125 162 191 219 274
#     4   9  16  29  47  68  93 122 153 192 233 272
#     4  10  18  29  48  73  96 118 148 193 242 278
#     4   9  15  27  46  67  89 122 160 189 218 271
#
# _framework density 26.433712
#
# number of rings (size 3 to 8) (size 9 to 14) (size 15 to 20)
#    0.000    3.000    0.000    4.500    0.000    0.000 
#    0.000    7.500    0.000    3.750    0.000    3.500 
#    0.000    0.000    0.000    0.000    0.000    0.000 
#
# Total GULP energy -356858.734944 kJ/mol
# GULP energy per Si atom -5575.917733 kJ/mol
# Density = 2.637355 g / cm^3
# Si number density = 26.433712 Si / 1000 Ang^3
#
#
#
# Elastic Constant Matrix: (Units=GPa)
#
#
# Indices 1 2 3 4 5 6 
#
# 1 50.0380 38.8943 -5.7724 0.0000 0.0000 0.0000
# 2 38.8943 313.0974 44.0774 0.0000 0.0000 0.0000
# 3 -5.7724 44.0774 54.4853 0.0000 0.0000 0.0000
# 4 0.0000 0.0000 0.0000 37.7639 0.0000 0.0000
# 5 0.0000 0.0000 0.0000 0.0000 -1.0095 0.0000
# 6 0.0000 0.0000 0.0000 0.0000 0.0000 45.8446
#
#
#
# Elastic Compliance Matrix: (Units=1/GPa)
#
#
# Indices 1 2 3 4 5 6 
#
# 1 0.023482 -0.003687 0.005471 0.000000 0.000000 0.000000
# 2 -0.003687 0.004183 -0.003775 0.000000 0.000000 0.000000
# 3 0.005471 -0.003775 0.021987 0.000000 0.000000 0.000000
# 4 0.000000 0.000000 0.000000 0.026480 0.000000 0.000000
# 5 0.000000 0.000000 0.000000 0.000000 -0.990564 0.000000
# 6 0.000000 0.000000 0.000000 0.000000 0.000000 0.021813
#
#
# Mechanical properties :
#
#
# Convention : Reuss Voigt Hill
#
# Bulk Modulus (GPa) = 21.89655 63.55769 42.72712
# Shear Modulus (GPa) = -5.72467 39.21457 16.74495
#
# Velocity S-wave (km/s) = -1.47322 3.85581 2.51961
# Velocity P-wave (km/s) = 2.32545 6.62717 4.96624
#
# Compressibility (1/GPa) = 0.04566929
#
# Stress axis : x y z
#
# Youngs Moduli (GPa) = 42.58599 239.04297 45.48161
#
# Poissons Ratio (x) = 0.88139 -0.24881
# Poissons Ratio (y) = 0.15702 0.17169
# Poissons Ratio (z) = -0.23297 0.90235
#
# Static dielectric constant tensor:
#      x y z
#    x 2.186280 0.000000 0.000000 
#    y 0.000000 2.227040 0.000000 
#    z 0.000000 0.000000 2.014020 
# 
# From -- ./inp_files/21456.got.cif
#   From: 2010.05.17/outbox.cif.g08.bks.cpg/sg57_11_cif.got.tgz:21456.got - 2010.06.03 13:58:18.
