data_PCOD9434486
_publ_section_title
;
Structure prediction by ZEFSAII (Michael W. Deem and Ramdas Pophale) SiO2 
 PCOD9434486
Probable space group: P B C M
;
_chemical_formula_sum "Si O2"
_cell_formula_units_Z 40
_cell_length_a 13.197440
_cell_length_b 20.568336
_cell_length_c 8.550178
_cell_angle_alpha 90.000000
_cell_angle_beta 90.000000
_cell_angle_gamma 90.000000
_cell_volume 2320.940519
_symmetry_space_group_name_H-M "P B C M"
_symmetry_group_IT_number 57
_symmetry_cell_setting 'orthorhombic'
loop_
_space_group_symop_operation_xyz
x,y,z
-x,-y,1/2+z
x,1/2-y,-z
-x,1/2+y,1/2-z
-x,-y,-z
x,y,1/2-z
-x,1/2+y,z
x,1/2-y,1/2+z
loop_
_atom_site_type_symbol
_atom_site_label
_atom_site_fract_x
_atom_site_fract_y
_atom_site_fract_z
Si Si1 0.614351 0.178014 0.939066
Si Si2 0.191881 0.900394 0.060023
Si Si3 0.455400 0.432146 0.062580
Si Si4 0.974741 0.572286 0.937827
Si Si5 0.235523 0.449967 0.562780
O O1 0.615322 0.179075 0.750000
O O2 0.722988 0.149681 0.993865
O O3 0.528112 0.126790 0.988254
O O4 0.596577 0.250000 0.000000
O O5 0.193688 0.900527 0.250000
O O6 0.075174 0.887668 0.013959
O O7 0.222693 0.974021 0.012581
O O8 0.456713 0.434621 0.250000
O O9 0.500000 0.500000 0.000000
O O10 0.340896 0.424537 0.003804
O O11 0.969329 0.571237 0.750000
O O12 0.864477 0.587820 0.005258
O O13 0.000000 0.500000 0.000000
O O14 0.238301 0.449202 0.750000
#
# Coordination Sequence:
#
# PCOD9434486 Si02
#       5
#     8   8   8   8   8
#     4  10  21  37  53  75 106 141 176 218 267 320
#     4   8  15  30  49  70 103 136 164 209 260 307
#     4  11  21  34  54  78 107 139 178 223 271 322
#     4   9  16  27  46  73 103 135 168 207 261 312
#     4  10  18  31  50  75 107 137 171 218 266 312
#
# _framework density 17.234393000000001
#
# number of rings (size 3 to 8) (size 9 to 14) (size 15 to 20)
#    0.000    2.400    2.000    3.000    0.000    1.600 
#    0.000    2.000    0.000    1.200    0.000    2.800 
#    0.000    0.000    0.000    0.000    0.000    0.000 
#
# Total GULP energy -222920.276482 kJ/mol
# GULP energy per Si atom -5573.006912 kJ/mol
# Density = 1.719517 g / cm^3
# Si number density = 17.234393 Si / 1000 Ang^3
#
#
#
# Elastic Constant Matrix: (Units=GPa)
#
#
# Indices 1 2 3 4 5 6 
#
# 1 199.9571 74.1103 37.6686 0.0000 0.0000 0.0000
# 2 74.1103 92.0687 21.2164 0.0000 0.0000 0.0000
# 3 37.6686 21.2164 36.4744 0.0000 0.0000 0.0000
# 4 0.0000 0.0000 0.0000 19.5518 0.0000 0.0000
# 5 0.0000 0.0000 0.0000 0.0000 29.7601 0.0000
# 6 0.0000 0.0000 0.0000 0.0000 0.0000 19.1809
#
#
#
# Elastic Compliance Matrix: (Units=1/GPa)
#
#
# Indices 1 2 3 4 5 6 
#
# 1 0.007882 -0.005160 -0.005138 0.000000 0.000000 0.000000
# 2 -0.005160 0.015921 -0.003932 0.000000 0.000000 0.000000
# 3 -0.005138 -0.003932 0.035010 0.000000 0.000000 0.000000
# 4 0.000000 0.000000 0.000000 0.051146 0.000000 0.000000
# 5 0.000000 0.000000 0.000000 0.000000 0.033602 0.000000
# 6 0.000000 0.000000 0.000000 0.000000 0.000000 0.052135
#
#
# Mechanical properties :
#
#
# Convention : Reuss Voigt Hill
#
# Bulk Modulus (GPa) = 32.94635 66.05451 49.50043
# Shear Modulus (GPa) = 21.34258 26.73223 24.03740
#
# Velocity S-wave (km/s) = 3.52287 3.94267 3.73867
# Velocity P-wave (km/s) = 5.97542 7.69003 6.88630
#
# Compressibility (1/GPa) = 0.03035238
#
# Stress axis : x y z
#
# Youngs Moduli (GPa) = 126.87928 62.80936 28.56343
#
# Poissons Ratio (x) = 0.32411 0.14676
# Poissons Ratio (y) = 0.65472 0.11231
# Poissons Ratio (z) = 0.65190 0.24696
#
# Static dielectric constant tensor:
#      x y z
#    x 1.625510 0.000000 0.000000 
#    y 0.000000 1.551340 0.000000 
#    z 0.000000 0.000000 1.586790 
# 
# From -- ./inp_files/2872.got.cif
#   From: 2010.05.17/outbox.cif.g08.bks.cpg/sg57_2_cif.got.tgz:2872.got - 2010.06.03 13:58:18.
