data_PCOD9434722
_publ_section_title
;
Structure prediction by ZEFSAII (Michael W. Deem and Ramdas Pophale) SiO2 
 PCOD9434722
Probable space group: P B C M
;
_chemical_formula_sum "Si O2"
_cell_formula_units_Z 56
_cell_length_a 11.424206
_cell_length_b 13.723838
_cell_length_c 21.214340
_cell_angle_alpha 90.000000
_cell_angle_beta 90.000000
_cell_angle_gamma 90.000000
_cell_volume 3326.068073
_symmetry_space_group_name_H-M "P B C M"
_symmetry_group_IT_number 57
_symmetry_cell_setting 'orthorhombic'
loop_
_space_group_symop_operation_xyz
x,y,z
-x,-y,1/2+z
x,1/2-y,-z
-x,1/2+y,1/2-z
-x,-y,-z
x,y,1/2-z
-x,1/2+y,z
x,1/2-y,1/2+z
loop_
_atom_site_type_symbol
_atom_site_label
_atom_site_fract_x
_atom_site_fract_y
_atom_site_fract_z
Si Si1 0.838324 0.976354 0.943886
Si Si2 0.429800 0.521311 0.934878
Si Si3 0.266355 0.997856 0.679310
Si Si4 0.488786 0.879952 0.677928
Si Si5 0.578120 0.822200 0.133114
Si Si6 0.075020 0.067081 0.586434
Si Si7 0.189382 0.240204 0.074625
O O1 0.708908 0.021083 0.946272
O O2 0.939174 0.040530 0.912184
O O3 0.831653 0.871716 0.909190
O O4 0.879674 0.954875 0.015505
O O5 0.453404 0.441085 0.879562
O O6 0.481792 0.621937 0.908154
O O7 0.500000 0.500000 0.000000
O O8 0.220960 0.999243 0.750000
O O9 0.351400 0.905437 0.670585
O O10 0.352583 0.091762 0.669893
O O11 0.160090 0.005323 0.631179
O O12 0.520751 0.911706 0.750000
O O13 0.521281 0.766643 0.671099
O O14 0.680132 0.773543 0.091517
O O15 0.101596 0.179736 0.602701
O O16 0.176143 0.250000 0.000000
#
# Coordination Sequence:
#
# PCOD9434722 Si02
#       7
#     8   8   8   8   8   8   8
#     4  10  18  34  54  76 108 136 175 223 270 319
#     4  11  21  34  56  86 113 138 178 232 281 327
#     4   9  18  34  53  74 103 141 184 223 262 323
#     4  10  20  34  53  79 110 146 181 220 278 336
#     4  10  19  31  54  80 106 139 176 223 277 331
#     4   9  19  33  53  75 101 144 179 217 263 322
#     4   9  16  31  52  73 101 138 172 214 266 318
#
# _framework density 16.836696
#
# number of rings (size 3 to 8) (size 9 to 14) (size 15 to 20)
#    0.000    2.286    1.429    3.857    0.000    0.571 
#    2.571    0.714    3.143    0.000    0.000    0.000 
#    0.000    0.000    0.000    0.000    0.000    0.000 
#
# Total GULP energy -311753.203468 kJ/mol
# GULP energy per Si atom -5567.021491 kJ/mol
# Density = 1.679838 g / cm^3
# Si number density = 16.836696 Si / 1000 Ang^3
#
#
#
# Elastic Constant Matrix: (Units=GPa)
#
#
# Indices 1 2 3 4 5 6 
#
# 1 140.6066 57.9541 33.0635 0.0000 0.0000 0.0000
# 2 57.9541 71.3964 15.4489 0.0000 0.0000 0.0000
# 3 33.0635 15.4489 53.6750 0.0000 0.0000 0.0000
# 4 0.0000 0.0000 0.0000 20.6093 0.0000 0.0000
# 5 0.0000 0.0000 0.0000 0.0000 16.0614 0.0000
# 6 0.0000 0.0000 0.0000 0.0000 0.0000 22.0375
#
#
#
# Elastic Compliance Matrix: (Units=1/GPa)
#
#
# Indices 1 2 3 4 5 6 
#
# 1 0.011738 -0.008492 -0.004786 0.000000 0.000000 0.000000
# 2 -0.008492 0.021081 -0.000836 0.000000 0.000000 0.000000
# 3 -0.004786 -0.000836 0.021820 0.000000 0.000000 0.000000
# 4 0.000000 0.000000 0.000000 0.048522 0.000000 0.000000
# 5 0.000000 0.000000 0.000000 0.000000 0.062261 0.000000
# 6 0.000000 0.000000 0.000000 0.000000 0.000000 0.045377
#
#
# Mechanical properties :
#
#
# Convention : Reuss Voigt Hill
#
# Bulk Modulus (GPa) = 37.86643 53.17899 45.52271
# Shear Modulus (GPa) = 20.17510 22.35573 21.26542
#
# Velocity S-wave (km/s) = 3.46538 3.64785 3.55778
# Velocity P-wave (km/s) = 6.20895 7.02824 6.63126
#
# Compressibility (1/GPa) = 0.02640862
#
# Stress axis : x y z
#
# Youngs Moduli (GPa) = 85.19541 47.43710 45.83034
#
# Poissons Ratio (x) = 0.40284 0.21935
# Poissons Ratio (y) = 0.72349 0.03833
# Poissons Ratio (z) = 0.40776 0.03967
#
# Static dielectric constant tensor:
#      x y z
#    x 1.551980 0.000000 0.000000 
#    y 0.000000 1.601470 0.000000 
#    z 0.000000 0.000000 1.584190 
# 
# From -- ./inp_files/25046.got.cif
#   From: 2010.05.17/outbox.cif.g08.bks.cpg/sg57_13_cif.got.tgz:25046.got - 2010.06.03 13:58:18.
