data_PCOD9434215
_publ_section_title
;
Structure prediction by ZEFSAII (Michael W. Deem and Ramdas Pophale) SiO2 
 PCOD9434215
Probable space group: P B C M
;
_chemical_formula_sum "Si O2"
_cell_formula_units_Z 48
_cell_length_a 11.893855
_cell_length_b 27.586416
_cell_length_c 8.486021
_cell_angle_alpha 90.000000
_cell_angle_beta 90.000000
_cell_angle_gamma 90.000000
_cell_volume 2784.338438
_symmetry_space_group_name_H-M "P B C M"
_symmetry_group_IT_number 57
_symmetry_cell_setting 'orthorhombic'
loop_
_space_group_symop_operation_xyz
x,y,z
-x,-y,1/2+z
x,1/2-y,-z
-x,1/2+y,1/2-z
-x,-y,-z
x,y,1/2-z
-x,1/2+y,z
x,1/2-y,1/2+z
loop_
_atom_site_type_symbol
_atom_site_label
_atom_site_fract_x
_atom_site_fract_y
_atom_site_fract_z
Si Si1 0.303983 0.878550 0.571524
Si Si2 0.326265 0.131110 0.565886
Si Si3 0.869241 0.802877 0.440625
Si Si4 0.875814 0.196900 0.440180
Si Si5 0.499940 0.200142 0.072465
Si Si6 0.491681 0.945681 0.438314
O O1 0.277390 0.894896 0.750000
O O2 0.196868 0.849577 0.503712
O O3 0.396509 0.836175 0.580072
O O4 0.372972 0.920951 0.485763
O O5 0.309087 0.120632 0.750000
O O6 0.208367 0.152130 0.503321
O O7 0.408016 0.176818 0.541169
O O8 0.402127 0.086855 0.499210
O O9 0.827596 0.750000 0.500000
O O10 0.869145 0.801953 0.250000
O O11 0.995949 0.807998 0.503087
O O12 0.835823 0.250000 0.500000
O O13 0.870110 0.197551 0.250000
O O14 0.454519 0.205721 0.250000
O O15 0.538482 0.250000 0.000000
O O16 0.498301 0.945129 0.250000
O O17 0.500000 0.000000 0.500000
#
# Coordination Sequence:
#
# PCOD9434215 Si02
#       6
#     8   8   8   8   8   8
#     4   9  19  33  48  69  96 126 160 197 238 284
#     4   9  19  33  48  68  94 125 159 196 239 286
#     4  10  19  31  47  69  99 133 167 198 230 274
#     4  10  19  31  48  71 101 135 168 200 234 277
#     4  10  18  27  42  65  94 125 155 190 232 281
#     4  10  20  35  55  76  97 122 155 199 251 300
#
# _framework density 17.239284999999999
#
# number of rings (size 3 to 8) (size 9 to 14) (size 15 to 20)
#    0.000    2.333    0.000    4.000    0.000    5.333 
#    0.000    0.000    0.000    1.000    0.000    0.000 
#    0.000    0.000    0.000    0.000    0.000    0.000 
#
# Total GULP energy -267216.918120 kJ/mol
# GULP energy per Si atom -5567.019128 kJ/mol
# Density = 1.720005 g / cm^3
# Si number density = 17.239285 Si / 1000 Ang^3
#
#
#
# Elastic Constant Matrix: (Units=GPa)
#
#
# Indices 1 2 3 4 5 6 
#
# 1 83.4529 52.3932 9.1761 0.0000 0.0000 0.0000
# 2 52.3932 103.4910 31.5758 0.0000 0.0000 0.0000
# 3 9.1761 31.5758 24.5128 0.0000 0.0000 0.0000
# 4 0.0000 0.0000 0.0000 22.7976 0.0000 0.0000
# 5 0.0000 0.0000 0.0000 0.0000 18.6057 0.0000
# 6 0.0000 0.0000 0.0000 0.0000 0.0000 25.0968
#
#
#
# Elastic Compliance Matrix: (Units=1/GPa)
#
#
# Indices 1 2 3 4 5 6 
#
# 1 0.018583 -0.012003 0.008505 0.000000 0.000000 0.000000
# 2 -0.012003 0.023672 -0.025999 0.000000 0.000000 0.000000
# 3 0.008505 -0.025999 0.071102 0.000000 0.000000 0.000000
# 4 0.000000 0.000000 0.000000 0.043864 0.000000 0.000000
# 5 0.000000 0.000000 0.000000 0.000000 0.053747 0.000000
# 6 0.000000 0.000000 0.000000 0.000000 0.000000 0.039846
#
#
# Mechanical properties :
#
#
# Convention : Reuss Voigt Hill
#
# Bulk Modulus (GPa) = 18.39507 44.19410 31.29459
# Shear Modulus (GPa) = 15.24718 21.18746 18.21732
#
# Velocity S-wave (km/s) = 2.97719 3.50954 3.25427
# Velocity P-wave (km/s) = 4.74466 6.48952 5.68444
#
# Compressibility (1/GPa) = 0.05436239
#
# Stress axis : x y z
#
# Youngs Moduli (GPa) = 53.81211 42.24449 14.06428
#
# Poissons Ratio (x) = 0.50705 -0.11961
# Poissons Ratio (y) = 0.64589 0.36566
# Poissons Ratio (z) = -0.45766 1.09833
#
# Static dielectric constant tensor:
#      x y z
#    x 1.617900 0.000000 0.000000 
#    y 0.000000 1.592600 0.000000 
#    z 0.000000 0.000000 1.642630 
# 
# From -- ./inp_files/3116.got.cif
#   From: 2010.05.17/outbox.cif.g08.bks.cpg/sg57_2_cif.got.tgz:3116.got - 2010.06.03 13:58:18.
