data_PCOD9434881
_publ_section_title
;
Structure prediction by ZEFSAII (Michael W. Deem and Ramdas Pophale) SiO2 
 PCOD9434881
Probable space group: P B C M
;
_chemical_formula_sum "Si O2"
_cell_formula_units_Z 64
_cell_length_a 18.761214
_cell_length_b 24.886211
_cell_length_c 9.188949
_cell_angle_alpha 90.000000
_cell_angle_beta 90.000000
_cell_angle_gamma 90.000000
_cell_volume 4290.279216
_symmetry_space_group_name_H-M "P B C M"
_symmetry_group_IT_number 57
_symmetry_cell_setting 'orthorhombic'
loop_
_space_group_symop_operation_xyz
x,y,z
-x,-y,1/2+z
x,1/2-y,-z
-x,1/2+y,1/2-z
-x,-y,-z
x,y,1/2-z
-x,1/2+y,z
x,1/2-y,1/2+z
loop_
_atom_site_type_symbol
_atom_site_label
_atom_site_fract_x
_atom_site_fract_y
_atom_site_fract_z
Si Si1 0.245393 0.514996 0.081995
Si Si2 0.809530 0.608211 0.919505
Si Si3 0.480953 0.414972 0.078787
Si Si4 0.908113 0.462939 0.923418
Si Si5 0.943827 0.925510 0.921752
Si Si6 0.389032 0.502133 0.579832
Si Si7 0.285224 0.194819 0.420651
Si Si8 0.543687 0.805725 0.578542
O O1 0.266317 0.524117 0.250000
O O2 0.218341 0.453234 0.069785
O O3 0.174652 0.550083 0.049311
O O4 0.313139 0.521130 0.979919
O O5 0.811454 0.622519 0.750000
O O6 0.888397 0.610209 0.988884
O O7 0.756008 0.646107 0.005608
O O8 0.467224 0.406695 0.250000
O O9 0.551807 0.451266 0.062490
O O10 0.417645 0.450578 0.008852
O O11 0.487968 0.358387 0.997775
O O12 0.912290 0.478392 0.750000
O O13 0.971144 0.420040 0.947157
O O14 0.926584 0.513930 0.023841
O O15 0.930048 0.920525 0.750000
O O16 0.384747 0.488079 0.750000
O O17 0.264872 0.250000 0.500000
O O18 0.268988 0.197632 0.250000
O O19 0.370479 0.188642 0.436577
O O20 0.523263 0.750000 0.500000
O O21 0.526951 0.803775 0.750000
#
# Coordination Sequence:
#
# PCOD9434881 Si02
#       8
#     8   8   8   8   8   8   8   8
#     4   9  17  28  42  60  84 114 144 175 213 255
#     4  10  19  29  41  59  84 113 144 176 210 250
#     4  10  20  33  47  63  87 117 148 183 221 262
#     4   8  15  26  38  55  80 108 137 169 204 241
#     4   9  15  24  39  57  78 106 139 171 202 238
#     4  10  20  31  44  64  88 116 150 185 221 262
#     4  10  20  32  45  62  83 108 139 175 213 250
#     4  10  20  33  50  69  88 112 144 181 220 262
#
# _framework density 14.917444
#
# number of rings (size 3 to 8) (size 9 to 14) (size 15 to 20)
#    0.000    2.500    0.000    3.750    0.000    8.000 
#    0.000    0.000    0.000    0.000    0.000    0.000 
#    0.000    1.000    0.000    5.250    0.000    4.625 
#
# Total GULP energy -356592.509403 kJ/mol
# GULP energy per Si atom -5571.757959 kJ/mol
# Density = 1.488349 g / cm^3
# Si number density = 14.917444 Si / 1000 Ang^3
#
#
#
# Elastic Constant Matrix: (Units=GPa)
#
#
# Indices 1 2 3 4 5 6 
#
# 1 60.7731 2.0766 40.3525 0.0000 0.0000 0.0000
# 2 2.0766 44.7066 35.1816 0.0000 0.0000 0.0000
# 3 40.3525 35.1816 92.8009 0.0000 0.0000 0.0000
# 4 0.0000 0.0000 0.0000 23.3229 0.0000 0.0000
# 5 0.0000 0.0000 0.0000 0.0000 24.7756 0.0000
# 6 0.0000 0.0000 0.0000 0.0000 0.0000 14.1584
#
#
#
# Elastic Compliance Matrix: (Units=1/GPa)
#
#
# Indices 1 2 3 4 5 6 
#
# 1 0.026557 0.011193 -0.015791 0.000000 0.000000 0.000000
# 2 0.011193 0.036596 -0.018741 0.000000 0.000000 0.000000
# 3 -0.015791 -0.018741 0.024747 0.000000 0.000000 0.000000
# 4 0.000000 0.000000 0.000000 0.042876 0.000000 0.000000
# 5 0.000000 0.000000 0.000000 0.000000 0.040362 0.000000
# 6 0.000000 0.000000 0.000000 0.000000 0.000000 0.070629
#
#
# Mechanical properties :
#
#
# Convention : Reuss Voigt Hill
#
# Bulk Modulus (GPa) = 24.25852 39.27800 31.76826
# Shear Modulus (GPa) = 16.54597 20.49606 18.52101
#
# Velocity S-wave (km/s) = 3.33403 3.71073 3.52741
# Velocity P-wave (km/s) = 5.57837 6.68930 6.15893
#
# Compressibility (1/GPa) = 0.04122263
#
# Stress axis : x y z
#
# Youngs Moduli (GPa) = 37.65419 27.32509 40.40852
#
# Poissons Ratio (x) = -0.30586 0.63811
# Poissons Ratio (y) = -0.42148 0.75730
# Poissons Ratio (z) = 0.59461 0.51210
#
# Static dielectric constant tensor:
#      x y z
#    x 1.519880 0.000000 0.000000 
#    y 0.000000 1.473460 0.000000 
#    z 0.000000 0.000000 1.499650 
# 
# From -- ./inp_files/7275.got.cif
#   From: 2010.05.17/outbox.cif.g08.bks.cpg/sg57_4_cif.got.tgz:7275.got - 2010.06.03 13:58:18.
