data_PCOD9434335
_publ_section_title
;
Structure prediction by ZEFSAII (Michael W. Deem and Ramdas Pophale) SiO2 
 PCOD9434335
Probable space group: P B C M
;
_chemical_formula_sum "Si O2"
_cell_formula_units_Z 64
_cell_length_a 16.832694
_cell_length_b 25.163738
_cell_length_c 7.762258
_cell_angle_alpha 90.000000
_cell_angle_beta 90.000000
_cell_angle_gamma 90.000000
_cell_volume 3287.886802
_symmetry_space_group_name_H-M "P B C M"
_symmetry_group_IT_number 57
_symmetry_cell_setting 'orthorhombic'
loop_
_space_group_symop_operation_xyz
x,y,z
-x,-y,1/2+z
x,1/2-y,-z
-x,1/2+y,1/2-z
-x,-y,-z
x,y,1/2-z
-x,1/2+y,z
x,1/2-y,1/2+z
loop_
_atom_site_type_symbol
_atom_site_label
_atom_site_fract_x
_atom_site_fract_y
_atom_site_fract_z
Si Si1 0.867780 0.891368 0.955010
Si Si2 0.471067 0.690508 0.042397
Si Si3 0.973302 0.059514 0.457646
Si Si4 0.606069 0.613324 0.042424
Si Si5 0.710620 0.191111 0.457183
Si Si6 0.794639 0.083829 0.461250
Si Si7 0.746697 0.689328 0.456764
Si Si8 0.272965 0.026992 0.545053
O O1 0.877970 0.885802 0.750000
O O2 0.826649 0.838230 0.023607
O O3 0.953918 0.905149 0.026669
O O4 0.801409 0.937449 0.979709
O O5 0.469221 0.687774 0.250000
O O6 0.524330 0.640686 0.981344
O O7 0.380473 0.687845 0.977510
O O8 0.502932 0.750000 0.000000
O O9 0.970385 0.064053 0.250000
O O10 0.885043 0.073236 0.519652
O O11 0.000000 0.000000 0.500000
O O12 0.603066 0.614051 0.250000
O O13 0.673205 0.654541 0.979310
O O14 0.643674 0.556037 0.997420
O O15 0.741751 0.250000 0.500000
O O16 0.707512 0.187625 0.250000
O O17 0.760778 0.140586 0.518954
O O18 0.794785 0.084240 0.250000
O O19 0.740673 0.033427 0.515297
O O20 0.739161 0.750000 0.500000
O O21 0.746108 0.684062 0.250000
O O22 0.266147 0.026828 0.750000
#
# Coordination Sequence:
#
# PCOD9434335 Si02
#       8
#     8   8   8   8   8   8   8   8
#     4   9  18  31  46  66  95 126 156 197 244 284
#     4   9  17  30  51  73  95 127 167 207 244 286
#     4  10  18  31  51  73  96 124 160 200 240 287
#     4   9  18  31  45  67  98 127 159 198 244 289
#     4   9  18  35  55  74  98 129 164 203 245 289
#     4   9  18  32  51  74 100 128 159 198 248 296
#     4   9  17  28  41  60  88 122 154 185 229 280
#     4  10  18  29  47  71  97 127 162 196 236 289
#
# _framework density 19.465391
#
# number of rings (size 3 to 8) (size 9 to 14) (size 15 to 20)
#    0.000    2.750    1.250    1.500    0.000    2.500 
#    0.000    3.125    0.000    0.000    0.000    0.000 
#    0.000    0.000    0.000    0.000    0.000    0.000 
#
# Total GULP energy -356565.758739 kJ/mol
# GULP energy per Si atom -5571.339980 kJ/mol
# Density = 1.942109 g / cm^3
# Si number density = 19.465391 Si / 1000 Ang^3
#
#
#
# Elastic Constant Matrix: (Units=GPa)
#
#
# Indices 1 2 3 4 5 6 
#
# 1 87.9698 57.8283 2.8012 0.0000 0.0000 0.0000
# 2 57.8283 123.0755 -4.8839 0.0000 0.0000 0.0000
# 3 2.8012 -4.8839 22.2405 0.0000 0.0000 0.0000
# 4 0.0000 0.0000 0.0000 21.4494 0.0000 0.0000
# 5 0.0000 0.0000 0.0000 0.0000 12.8914 0.0000
# 6 0.0000 0.0000 0.0000 0.0000 0.0000 32.8732
#
#
#
# Elastic Compliance Matrix: (Units=1/GPa)
#
#
# Indices 1 2 3 4 5 6 
#
# 1 0.016773 -0.008035 -0.003877 0.000000 0.000000 0.000000
# 2 -0.008035 0.012045 0.003657 0.000000 0.000000 0.000000
# 3 -0.003877 0.003657 0.046254 0.000000 0.000000 0.000000
# 4 0.000000 0.000000 0.000000 0.046621 0.000000 0.000000
# 5 0.000000 0.000000 0.000000 0.000000 0.077571 0.000000
# 6 0.000000 0.000000 0.000000 0.000000 0.000000 0.030420
#
#
# Mechanical properties :
#
#
# Convention : Reuss Voigt Hill
#
# Bulk Modulus (GPa) = 17.07550 38.30856 27.69203
# Shear Modulus (GPa) = 18.81713 25.27879 22.04796
#
# Velocity S-wave (km/s) = 3.11255 3.60759 3.36917
# Velocity P-wave (km/s) = 4.65924 6.08901 5.42147
#
# Compressibility (1/GPa) = 0.05856345
#
# Stress axis : x y z
#
# Youngs Moduli (GPa) = 59.62062 83.01928 21.61958
#
# Poissons Ratio (x) = 0.66703 0.08382
# Poissons Ratio (y) = 0.47903 -0.07906
# Poissons Ratio (z) = 0.23114 -0.30361
#
# Static dielectric constant tensor:
#      x y z
#    x 1.703070 0.000000 0.000000 
#    y 0.000000 1.689670 0.000000 
#    z 0.000000 0.000000 1.715030 
# 
# From -- ./inp_files/5681.got.cif
#   From: 2010.05.17/outbox.cif.g08.bks.cpg/sg57_3_cif.got.tgz:5681.got - 2010.06.03 13:58:18.
