data_PCOD9434234
_publ_section_title
;
Structure prediction by ZEFSAII (Michael W. Deem and Ramdas Pophale) SiO2 
 PCOD9434234
Probable space group: P B C M
;
_chemical_formula_sum "Si O2"
_cell_formula_units_Z 64
_cell_length_a 26.963450
_cell_length_b 19.027422
_cell_length_c 8.768231
_cell_angle_alpha 90.000000
_cell_angle_beta 90.000000
_cell_angle_gamma 90.000000
_cell_volume 4498.496562
_symmetry_space_group_name_H-M "P B C M"
_symmetry_group_IT_number 57
_symmetry_cell_setting 'orthorhombic'
loop_
_space_group_symop_operation_xyz
x,y,z
-x,-y,1/2+z
x,1/2-y,-z
-x,1/2+y,1/2-z
-x,-y,-z
x,y,1/2-z
-x,1/2+y,z
x,1/2-y,1/2+z
loop_
_atom_site_type_symbol
_atom_site_label
_atom_site_fract_x
_atom_site_fract_y
_atom_site_fract_z
Si Si1 0.548040 0.460255 0.066844
Si Si2 0.394622 0.081219 0.932882
Si Si3 0.806816 0.826361 0.932160
Si Si4 0.309114 0.326458 0.567610
Si Si5 0.046453 0.542485 0.433115
Si Si6 0.894151 0.586397 0.933400
Si Si7 0.508489 0.672626 0.933014
Si Si8 0.012177 0.327553 0.933578
O O1 0.548284 0.465772 0.250000
O O2 0.537268 0.379109 0.025594
O O3 0.500000 0.500000 0.000000
O O4 0.593532 0.503965 0.998565
O O5 0.393953 0.078304 0.750000
O O6 0.440551 0.132671 0.979277
O O7 0.344880 0.115472 0.996750
O O8 0.812274 0.824058 0.750000
O O9 0.748886 0.839105 0.968523
O O10 0.820252 0.750000 0.000000
O O11 0.843106 0.884163 0.001460
O O12 0.322406 0.250000 0.500000
O O13 0.314723 0.324649 0.750000
O O14 0.043955 0.540104 0.250000
O O15 0.093488 0.494719 0.477029
O O16 0.000000 0.500000 0.500000
O O17 0.034962 0.622848 0.476413
O O18 0.894480 0.592292 0.750000
O O19 0.938733 0.634354 0.000226
O O20 0.509649 0.677464 0.750000
O O21 0.505481 0.750000 0.000000
O O22 0.016268 0.324931 0.750000
O O23 0.008017 0.250000 0.000000
#
# Coordination Sequence:
#
# PCOD9434234 Si02
#       8
#     8   8   8   8   8   8   8   8
#     4   9  17  29  42  59  83 110 141 175 210 247
#     4  10  19  30  44  62  83 111 145 175 209 250
#     4  10  20  32  44  60  82 109 140 173 208 243
#     4  10  20  32  45  61  83 110 140 175 210 244
#     4   8  16  28  41  57  78 104 134 167 201 238
#     4  10  18  29  44  60  79 107 140 171 205 242
#     4   9  18  28  40  60  84 110 139 170 203 242
#     4  10  18  28  41  59  83 109 137 168 201 240
#
# _framework density 14.226976000000001
#
# number of rings (size 3 to 8) (size 9 to 14) (size 15 to 20)
#    0.000    2.500    0.000    3.750    0.000    6.500 
#    0.000    0.000    0.000    0.000    0.000    0.000 
#    0.000    1.000    0.000    7.500    0.000    4.375 
#
# Total GULP energy -356452.179679 kJ/mol
# GULP energy per Si atom -5569.565307 kJ/mol
# Density = 1.419459 g / cm^3
# Si number density = 14.226976 Si / 1000 Ang^3
#
#
#
# Elastic Constant Matrix: (Units=GPa)
#
#
# Indices 1 2 3 4 5 6 
#
# 1 56.6253 36.8888 26.0088 0.0000 0.0000 0.0000
# 2 36.8888 93.1450 29.3611 0.0000 0.0000 0.0000
# 3 26.0088 29.3611 39.4900 0.0000 0.0000 0.0000
# 4 0.0000 0.0000 0.0000 21.4332 0.0000 0.0000
# 5 0.0000 0.0000 0.0000 0.0000 19.9850 0.0000
# 6 0.0000 0.0000 0.0000 0.0000 0.0000 30.0529
#
#
#
# Elastic Compliance Matrix: (Units=1/GPa)
#
#
# Indices 1 2 3 4 5 6 
#
# 1 0.028428 -0.006996 -0.013522 0.000000 0.000000 0.000000
# 2 -0.006996 0.015744 -0.007098 0.000000 0.000000 0.000000
# 3 -0.013522 -0.007098 0.039506 0.000000 0.000000 0.000000
# 4 0.000000 0.000000 0.000000 0.046657 0.000000 0.000000
# 5 0.000000 0.000000 0.000000 0.000000 0.050037 0.000000
# 6 0.000000 0.000000 0.000000 0.000000 0.000000 0.033275
#
#
# Mechanical properties :
#
#
# Convention : Reuss Voigt Hill
#
# Bulk Modulus (GPa) = 35.15370 41.53086 38.34228
# Shear Modulus (GPa) = 17.96228 20.76101 19.36165
#
# Velocity S-wave (km/s) = 3.55709 3.82418 3.69305
# Velocity P-wave (km/s) = 6.45239 6.98242 6.72263
#
# Compressibility (1/GPa) = 0.02844651
#
# Stress axis : x y z
#
# Youngs Moduli (GPa) = 35.17607 63.51543 25.31274
#
# Poissons Ratio (x) = 0.44438 0.34227
# Poissons Ratio (y) = 0.24611 0.17967
# Poissons Ratio (z) = 0.47564 0.45083
#
# Static dielectric constant tensor:
#      x y z
#    x 1.470290 0.000000 0.000000 
#    y 0.000000 1.479860 0.000000 
#    z 0.000000 0.000000 1.474560 
# 
# From -- ./inp_files/9807.got.cif
#   From: 2010.05.17/outbox.cif.g08.bks.cpg/sg57_5_cif.got.tgz:9807.got - 2010.06.03 13:58:18.
