data_PCOD9434233
_publ_section_title
;
Structure prediction by ZEFSAII (Michael W. Deem and Ramdas Pophale) SiO2 
 PCOD9434233
Probable space group: P B C M
;
_chemical_formula_sum "Si O2"
_cell_formula_units_Z 64
_cell_length_a 27.061980
_cell_length_b 18.970977
_cell_length_c 8.776165
_cell_angle_alpha 90.000000
_cell_angle_beta 90.000000
_cell_angle_gamma 90.000000
_cell_volume 4505.614658
_symmetry_space_group_name_H-M "P B C M"
_symmetry_group_IT_number 57
_symmetry_cell_setting 'orthorhombic'
loop_
_space_group_symop_operation_xyz
x,y,z
-x,-y,1/2+z
x,1/2-y,-z
-x,1/2+y,1/2-z
-x,-y,-z
x,y,1/2-z
-x,1/2+y,z
x,1/2-y,1/2+z
loop_
_atom_site_type_symbol
_atom_site_label
_atom_site_fract_x
_atom_site_fract_y
_atom_site_fract_z
Si Si1 0.987445 0.672316 0.066555
Si Si2 0.308017 0.173885 0.431652
Si Si3 0.393950 0.415776 0.432745
Si Si4 0.105973 0.086283 0.566654
Si Si5 0.806565 0.673379 0.067368
Si Si6 0.046287 0.542472 0.067136
Si Si7 0.493093 0.328089 0.432767
Si Si8 0.454772 0.954445 0.932989
O O1 0.983040 0.674771 0.250000
O O2 0.034693 0.623052 0.024425
O O3 0.991589 0.750000 0.000000
O O4 0.938699 0.634176 0.999181
O O5 0.322111 0.250000 0.500000
O O6 0.310846 0.178339 0.250000
O O7 0.345390 0.115248 0.491354
O O8 0.250800 0.160237 0.474161
O O9 0.389200 0.411535 0.250000
O O10 0.441197 0.366650 0.475128
O O11 0.407677 0.496713 0.471837
O O12 0.106266 0.092295 0.750000
O O13 0.156582 0.115691 0.499501
O O14 0.093345 0.004996 0.523331
O O15 0.810636 0.675757 0.250000
O O16 0.820211 0.750000 0.000000
O O17 0.043722 0.539710 0.250000
O O18 0.000000 0.500000 0.000000
O O19 0.494379 0.250000 0.500000
O O20 0.495645 0.326362 0.250000
O O21 0.536962 0.377484 0.497294
O O22 0.458560 0.951183 0.750000
O O23 0.500000 0.000000 0.000000
#
# Coordination Sequence:
#
# PCOD9434233 Si02
#       8
#     8   8   8   8   8   8   8   8
#     4  10  18  28  41  59  83 109 135 166 198 235
#     4  10  20  31  44  60  81 108 139 173 207 241
#     4   9  18  30  44  61  82 109 141 172 206 244
#     4  10  18  29  44  60  78 106 139 169 202 240
#     4  10  20  32  43  59  81 107 138 172 206 240
#     4   8  16  28  41  57  78 103 133 165 198 235
#     4  10  19  29  42  62  86 113 142 173 206 244
#     4   9  17  29  43  60  82 109 139 172 206 245
#
# _framework density 14.204499999999999
#
# number of rings (size 3 to 8) (size 9 to 14) (size 15 to 20)
#    0.000    2.500    0.000    3.750    0.000    6.500 
#    0.000    0.000    0.000    0.000    0.000    0.000 
#    0.000    1.000    0.000    4.500    0.000    4.500 
#
# Total GULP energy -356451.998873 kJ/mol
# GULP energy per Si atom -5569.562482 kJ/mol
# Density = 1.417217 g / cm^3
# Si number density = 14.204500 Si / 1000 Ang^3
#
#
#
# Elastic Constant Matrix: (Units=GPa)
#
#
# Indices 1 2 3 4 5 6 
#
# 1 59.3325 36.7376 23.2724 0.0000 0.0000 0.0000
# 2 36.7376 92.1078 28.9923 0.0000 0.0000 0.0000
# 3 23.2724 28.9923 37.3003 0.0000 0.0000 0.0000
# 4 0.0000 0.0000 0.0000 20.9022 0.0000 0.0000
# 5 0.0000 0.0000 0.0000 0.0000 20.6511 0.0000
# 6 0.0000 0.0000 0.0000 0.0000 0.0000 27.7350
#
#
#
# Elastic Compliance Matrix: (Units=1/GPa)
#
#
# Indices 1 2 3 4 5 6 
#
# 1 0.025117 -0.006733 -0.010438 0.000000 0.000000 0.000000
# 2 -0.006733 0.016178 -0.008374 0.000000 0.000000 0.000000
# 3 -0.010438 -0.008374 0.039831 0.000000 0.000000 0.000000
# 4 0.000000 0.000000 0.000000 0.047842 0.000000 0.000000
# 5 0.000000 0.000000 0.000000 0.000000 0.048424 0.000000
# 6 0.000000 0.000000 0.000000 0.000000 0.000000 0.036056
#
#
# Mechanical properties :
#
#
# Convention : Reuss Voigt Hill
#
# Bulk Modulus (GPa) = 33.29272 40.74946 37.02109
# Shear Modulus (GPa) = 18.21174 20.50688 19.35931
#
# Velocity S-wave (km/s) = 3.58454 3.80371 3.69575
# Velocity P-wave (km/s) = 6.37346 6.93116 6.65815
#
# Compressibility (1/GPa) = 0.03003660
#
# Stress axis : x y z
#
# Youngs Moduli (GPa) = 39.81369 61.81234 25.10618
#
# Poissons Ratio (x) = 0.41615 0.26206
# Poissons Ratio (y) = 0.26805 0.21024
# Poissons Ratio (z) = 0.41558 0.51762
#
# Static dielectric constant tensor:
#      x y z
#    x 1.462760 0.000000 0.000000 
#    y 0.000000 1.474100 0.000000 
#    z 0.000000 0.000000 1.476840 
# 
# From -- ./inp_files/9809.got.cif
#   From: 2010.05.17/outbox.cif.g08.bks.cpg/sg57_5_cif.got.tgz:9809.got - 2010.06.03 13:58:18.
