data_PCOD9434715
_publ_section_title
;
Structure prediction by ZEFSAII (Michael W. Deem and Ramdas Pophale) SiO2 
 PCOD9434715
Probable space group: P B C M
;
_chemical_formula_sum "Si O2"
_cell_formula_units_Z 48
_cell_length_a 29.583220
_cell_length_b 8.822481
_cell_length_c 9.592982
_cell_angle_alpha 90.000000
_cell_angle_beta 90.000000
_cell_angle_gamma 90.000000
_cell_volume 2503.743325
_symmetry_space_group_name_H-M "P B C M"
_symmetry_group_IT_number 57
_symmetry_cell_setting 'orthorhombic'
loop_
_space_group_symop_operation_xyz
x,y,z
-x,-y,1/2+z
x,1/2-y,-z
-x,1/2+y,1/2-z
-x,-y,-z
x,y,1/2-z
-x,1/2+y,z
x,1/2-y,1/2+z
loop_
_atom_site_type_symbol
_atom_site_label
_atom_site_fract_x
_atom_site_fract_y
_atom_site_fract_z
Si Si1 0.293407 0.098702 0.909401
Si Si2 0.440288 0.010099 0.250000
Si Si3 0.202954 0.907952 0.917436
Si Si4 0.871557 0.597888 0.086211
Si Si5 0.462374 0.129544 0.750000
Si Si6 0.036697 0.904172 0.413612
Si Si7 0.607661 0.931981 0.019990
O O1 0.292971 0.150351 0.750000
O O2 0.342392 0.022029 0.933833
O O3 0.252138 0.984903 0.931113
O O4 0.287961 0.250000 0.000000
O O5 0.455309 0.188496 0.250000
O O6 0.408625 0.987328 0.381922
O O7 0.485408 0.912071 0.250000
O O8 0.193117 0.892736 0.750000
O O9 0.202176 0.750000 0.000000
O O10 0.167403 0.014148 0.998368
O O11 0.859145 0.625897 0.250000
O O12 0.916178 0.494427 0.086947
O O13 0.881630 0.750000 0.000000
O O14 0.434848 0.058285 0.622198
O O15 0.042517 0.750000 0.500000
O O16 0.023638 0.879360 0.250000
O O17 0.000000 0.000000 0.500000
O O18 0.612644 0.750000 0.000000
#
# Coordination Sequence:
#
# PCOD9434715 Si02
#       7
#     8   4   8   8   4   8   8
#     4  10  21  37  60  86 111 145 192 242 290 347
#     4  10  20  32  52  78 102 140 178 222 275 336
#     4  11  24  42  62  89 123 160 199 246 305 368
#     4  11  24  42  65  95 127 165 210 260 309 364
#     4  10  18  34  52  74 106 138 176 224 273 334
#     4  11  24  41  64  94 131 172 217 264 317 371
#     4   9  18  33  53  77 105 136 181 226 276 335
#
# _framework density 19.171295000000001
#
# number of rings (size 3 to 8) (size 9 to 14) (size 15 to 20)
#    0.000    1.667    0.833    3.500    3.500    8.000 
#    0.000    1.667    0.000    0.000    0.000    0.000 
#    0.000    0.000    0.000    0.000    0.000    0.000 
#
# Total GULP energy -267859.246587 kJ/mol
# GULP energy per Si atom -5580.400971 kJ/mol
# Density = 1.912766 g / cm^3
# Si number density = 19.171295 Si / 1000 Ang^3
#
#
#
# Elastic Constant Matrix: (Units=GPa)
#
#
# Indices 1 2 3 4 5 6 
#
# 1 95.2032 25.3664 44.6714 0.0000 0.0000 0.0000
# 2 25.3664 79.2690 55.1123 0.0000 0.0000 0.0000
# 3 44.6714 55.1123 146.7196 0.0000 0.0000 0.0000
# 4 0.0000 0.0000 0.0000 28.4028 0.0000 0.0000
# 5 0.0000 0.0000 0.0000 0.0000 34.0845 0.0000
# 6 0.0000 0.0000 0.0000 0.0000 0.0000 7.2040
#
#
#
# Elastic Compliance Matrix: (Units=1/GPa)
#
#
# Indices 1 2 3 4 5 6 
#
# 1 0.012447 -0.001825 -0.003104 0.000000 0.000000 0.000000
# 2 -0.001825 0.017342 -0.005959 0.000000 0.000000 0.000000
# 3 -0.003104 -0.005959 0.009999 0.000000 0.000000 0.000000
# 4 0.000000 0.000000 0.000000 0.035208 0.000000 0.000000
# 5 0.000000 0.000000 0.000000 0.000000 0.029339 0.000000
# 6 0.000000 0.000000 0.000000 0.000000 0.000000 0.138812
#
#
# Mechanical properties :
#
#
# Convention : Reuss Voigt Hill
#
# Bulk Modulus (GPa) = 55.51673 63.49912 59.50793
# Shear Modulus (GPa) = 18.45529 27.00771 22.73150
#
# Velocity S-wave (km/s) = 3.10603 3.75741 3.44714
# Velocity P-wave (km/s) = 6.47181 7.21236 6.85210
#
# Compressibility (1/GPa) = 0.01801259
#
# Stress axis : x y z
#
# Youngs Moduli (GPa) = 80.34337 57.66366 100.00951
#
# Poissons Ratio (x) = 0.10522 0.31044
# Poissons Ratio (y) = 0.14661 0.59591
# Poissons Ratio (z) = 0.24940 0.34359
#
# Static dielectric constant tensor:
#      x y z
#    x 1.647300 0.000000 0.000000 
#    y 0.000000 1.659180 0.000000 
#    z 0.000000 0.000000 1.679030 
# 
# From -- ./inp_files/10166.got.cif
#   From: 2010.05.17/outbox.cif.g08.bks.cpg/sg57_6_cif.got.tgz:10166.got - 2010.06.03 13:58:18.
