data_PCOD9434274
_publ_section_title
;
Structure prediction by ZEFSAII (Michael W. Deem and Ramdas Pophale) SiO2 
 PCOD9434274
Probable space group: P B C M
;
_chemical_formula_sum "Si O2"
_cell_formula_units_Z 48
_cell_length_a 15.570267
_cell_length_b 21.761470
_cell_length_c 8.975523
_cell_angle_alpha 90.000000
_cell_angle_beta 90.000000
_cell_angle_gamma 90.000000
_cell_volume 3041.193496
_symmetry_space_group_name_H-M "P B C M"
_symmetry_group_IT_number 57
_symmetry_cell_setting 'orthorhombic'
loop_
_space_group_symop_operation_xyz
x,y,z
-x,-y,1/2+z
x,1/2-y,-z
-x,1/2+y,1/2-z
-x,-y,-z
x,y,1/2-z
-x,1/2+y,z
x,1/2-y,1/2+z
loop_
_atom_site_type_symbol
_atom_site_label
_atom_site_fract_x
_atom_site_fract_y
_atom_site_fract_z
Si Si1 0.697645 0.544267 0.927778
Si Si2 0.474539 0.434654 0.571587
Si Si3 0.121404 0.451921 0.572577
Si Si4 0.950466 0.087980 0.571791
Si Si5 0.803154 0.316856 0.428267
Si Si6 0.659490 0.400148 0.572562
O O1 0.694867 0.550942 0.750000
O O2 0.684546 0.471200 0.961556
O O3 0.617728 0.579908 0.001856
O O4 0.789218 0.563060 0.993428
O O5 0.500000 0.500000 0.500000
O O6 0.467869 0.440804 0.750000
O O7 0.557877 0.392866 0.539590
O O8 0.129586 0.445982 0.750000
O O9 0.096909 0.523168 0.538445
O O10 0.041048 0.413163 0.511870
O O11 0.965044 0.089497 0.750000
O O12 0.886955 0.142954 0.529738
O O13 0.805568 0.250000 0.500000
O O14 0.800934 0.312371 0.250000
O O15 0.720575 0.354559 0.484589
O O16 0.671703 0.391750 0.750000
#
# Coordination Sequence:
#
# PCOD9434274 Si02
#       6
#     8   8   8   8   8   8
#     4  10  18  28  45  70  99 130 159 193 237 289
#     4   9  17  28  43  66  95 126 158 192 232 280
#     4  10  18  29  48  71  96 127 161 198 244 296
#     4   9  19  33  46  67  95 126 161 200 246 292
#     4  11  22  35  51  70  95 128 166 205 243 288
#     4   9  18  31  46  66  94 127 161 198 237 281
#
# _framework density 15.783277999999999
#
# number of rings (size 3 to 8) (size 9 to 14) (size 15 to 20)
#    0.000    2.333    1.667    3.000    0.000    5.333 
#    0.000    0.000    0.000    0.000    0.000    1.167 
#    0.000    2.667    0.000    0.000    0.000    0.000 
#
# Total GULP energy -267577.621473 kJ/mol
# GULP energy per Si atom -5574.533781 kJ/mol
# Density = 1.574735 g / cm^3
# Si number density = 15.783278 Si / 1000 Ang^3
#
#
#
# Elastic Constant Matrix: (Units=GPa)
#
#
# Indices 1 2 3 4 5 6 
#
# 1 175.5441 50.3614 72.9822 0.0000 0.0000 0.0000
# 2 50.3614 61.6802 36.7375 0.0000 0.0000 0.0000
# 3 72.9822 36.7375 57.1332 0.0000 0.0000 0.0000
# 4 0.0000 0.0000 0.0000 17.3676 0.0000 0.0000
# 5 0.0000 0.0000 0.0000 0.0000 34.0086 0.0000
# 6 0.0000 0.0000 0.0000 0.0000 0.0000 11.5819
#
#
#
# Elastic Compliance Matrix: (Units=1/GPa)
#
#
# Indices 1 2 3 4 5 6 
#
# 1 0.012194 -0.001100 -0.014870 0.000000 0.000000 0.000000
# 2 -0.001100 0.026375 -0.015555 0.000000 0.000000 0.000000
# 3 -0.014870 -0.015555 0.046499 0.000000 0.000000 0.000000
# 4 0.000000 0.000000 0.000000 0.057579 0.000000 0.000000
# 5 0.000000 0.000000 0.000000 0.000000 0.029404 0.000000
# 6 0.000000 0.000000 0.000000 0.000000 0.000000 0.086342
#
#
# Mechanical properties :
#
#
# Convention : Reuss Voigt Hill
#
# Bulk Modulus (GPa) = 45.41246 68.27997 56.84621
# Shear Modulus (GPa) = 15.20768 21.54338 18.37553
#
# Velocity S-wave (km/s) = 3.10745 3.69853 3.41580
# Velocity P-wave (km/s) = 6.45832 7.84817 7.18692
#
# Compressibility (1/GPa) = 0.02202039
#
# Stress axis : x y z
#
# Youngs Moduli (GPa) = 82.00684 37.91430 21.50575
#
# Poissons Ratio (x) = 0.04170 0.31978
# Poissons Ratio (y) = 0.09020 0.33451
# Poissons Ratio (z) = 1.21940 0.58974
#
# Static dielectric constant tensor:
#      x y z
#    x 1.550430 0.000000 0.000000 
#    y 0.000000 1.493120 0.000000 
#    z 0.000000 0.000000 1.519510 
# 
# From -- ./inp_files/4832.got.cif
#   From: 2010.05.17/outbox.cif.g08.bks.cpg/sg57_3_cif.got.tgz:4832.got - 2010.06.03 13:58:18.
