data_PCOD9434433
_publ_section_title
;
Structure prediction by ZEFSAII (Michael W. Deem and Ramdas Pophale) SiO2 
 PCOD9434433
Probable space group: P B C M
;
_chemical_formula_sum "Si O2"
_cell_formula_units_Z 48
_cell_length_a 18.695170
_cell_length_b 8.311884
_cell_length_c 16.896333
_cell_angle_alpha 90.000000
_cell_angle_beta 90.000000
_cell_angle_gamma 90.000000
_cell_volume 2625.556404
_symmetry_space_group_name_H-M "P B C M"
_symmetry_group_IT_number 57
_symmetry_cell_setting 'orthorhombic'
loop_
_space_group_symop_operation_xyz
x,y,z
-x,-y,1/2+z
x,1/2-y,-z
-x,1/2+y,1/2-z
-x,-y,-z
x,y,1/2-z
-x,1/2+y,z
x,1/2-y,1/2+z
loop_
_atom_site_type_symbol
_atom_site_label
_atom_site_fract_x
_atom_site_fract_y
_atom_site_fract_z
Si Si1 0.935503 0.860333 0.570765
Si Si2 0.444511 0.777982 0.843357
Si Si3 0.168305 0.571805 0.035471
Si Si4 0.441121 0.045872 0.066832
Si Si5 0.939278 0.541232 0.657028
Si Si6 0.667081 0.073917 0.043098
O O1 0.968974 0.750000 0.500000
O O2 0.919727 0.726058 0.636851
O O3 0.869928 0.950767 0.527319
O O4 0.989256 0.986209 0.610451
O O5 0.447850 0.795636 0.750000
O O6 0.428339 0.597499 0.871037
O O7 0.384200 0.895322 0.881370
O O8 0.520921 0.814566 0.884541
O O9 0.122454 0.562340 0.115483
O O10 0.250504 0.532348 0.054743
O O11 0.165503 0.750000 0.000000
O O12 0.369540 0.054484 0.015575
O O13 0.500000 0.000000 0.000000
O O14 0.946709 0.515627 0.750000
O O15 0.664389 0.250000 0.000000
#
# Coordination Sequence:
#
# PCOD9434433 Si02
#       6
#     8   8   8   8   8   8
#     4  10  20  35  54  77 104 136 173 209 250 307
#     4  10  18  30  51  77 103 128 164 215 259 294
#     4  10  19  35  56  76 100 136 177 210 249 306
#     4   9  17  32  50  71  98 133 171 204 244 300
#     4  11  21  34  54  79 106 134 168 215 262 301
#     4   8  17  32  51  72  97 133 171 203 243 302
#
# _framework density 18.281839000000002
#
# number of rings (size 3 to 8) (size 9 to 14) (size 15 to 20)
#    0.000    2.333    0.000    6.000    0.000    0.667 
#    0.000   10.833    0.000   14.000    0.000    0.000 
#    0.000    0.000    0.000    0.000    0.000    0.000 
#
# Total GULP energy -267344.673912 kJ/mol
# GULP energy per Si atom -5569.680706 kJ/mol
# Density = 1.824023 g / cm^3
# Si number density = 18.281839 Si / 1000 Ang^3
#
#
#
# Elastic Constant Matrix: (Units=GPa)
#
#
# Indices 1 2 3 4 5 6 
#
# 1 74.0349 10.9856 18.0437 0.0000 0.0000 0.0000
# 2 10.9856 57.4513 18.5873 0.0000 0.0000 0.0000
# 3 18.0437 18.5873 103.6911 0.0000 0.0000 0.0000
# 4 0.0000 0.0000 0.0000 18.8899 0.0000 0.0000
# 5 0.0000 0.0000 0.0000 0.0000 2.8955 0.0000
# 6 0.0000 0.0000 0.0000 0.0000 0.0000 18.6531
#
#
#
# Elastic Compliance Matrix: (Units=1/GPa)
#
#
# Indices 1 2 3 4 5 6 
#
# 1 0.014330 -0.002052 -0.002126 0.000000 0.000000 0.000000
# 2 -0.002052 0.018772 -0.003008 0.000000 0.000000 0.000000
# 3 -0.002126 -0.003008 0.010553 0.000000 0.000000 0.000000
# 4 0.000000 0.000000 0.000000 0.052938 0.000000 0.000000
# 5 0.000000 0.000000 0.000000 0.000000 0.345363 0.000000
# 6 0.000000 0.000000 0.000000 0.000000 0.000000 0.053610
#
#
# Mechanical properties :
#
#
# Convention : Reuss Voigt Hill
#
# Bulk Modulus (GPa) = 34.14973 36.71227 35.43100
# Shear Modulus (GPa) = 9.62096 20.59174 15.10635
#
# Velocity S-wave (km/s) = 2.29652 3.35975 2.87767
# Velocity P-wave (km/s) = 5.07466 5.93089 5.51940
#
# Compressibility (1/GPa) = 0.02928280
#
# Stress axis : x y z
#
# Youngs Moduli (GPa) = 69.78491 53.27199 94.75894
#
# Poissons Ratio (x) = 0.10933 0.20143
# Poissons Ratio (y) = 0.14322 0.28501
# Poissons Ratio (z) = 0.14834 0.16023
#
# Static dielectric constant tensor:
#      x y z
#    x 1.643510 0.000000 0.000000 
#    y 0.000000 1.697350 0.000000 
#    z 0.000000 0.000000 1.613330 
# 
# From -- ./inp_files/22836.got.cif
#   From: 2010.05.17/outbox.cif.g08.bks.cpg/sg57_12_cif.got.tgz:22836.got - 2010.06.03 13:58:18.
