data_PCOD9434084
_publ_section_title
;
Structure prediction by ZEFSAII (Michael W. Deem and Ramdas Pophale) SiO2 
 PCOD9434084
Probable space group: P B C M
;
_chemical_formula_sum "Si O2"
_cell_formula_units_Z 48
_cell_length_a 15.651366
_cell_length_b 21.833574
_cell_length_c 8.730589
_cell_angle_alpha 90.000000
_cell_angle_beta 90.000000
_cell_angle_gamma 90.000000
_cell_volume 2983.462776
_symmetry_space_group_name_H-M "P B C M"
_symmetry_group_IT_number 57
_symmetry_cell_setting 'orthorhombic'
loop_
_space_group_symop_operation_xyz
x,y,z
-x,-y,1/2+z
x,1/2-y,-z
-x,1/2+y,1/2-z
-x,-y,-z
x,y,1/2-z
-x,1/2+y,z
x,1/2-y,1/2+z
loop_
_atom_site_type_symbol
_atom_site_label
_atom_site_fract_x
_atom_site_fract_y
_atom_site_fract_z
Si Si1 0.651921 0.405976 0.065916
Si Si2 0.114674 0.047366 0.933868
Si Si3 0.307720 0.040632 0.565952
Si Si4 0.943510 0.089977 0.067331
Si Si5 0.807775 0.317765 0.067058
Si Si6 0.479696 0.067749 0.066838
O O1 0.646590 0.411504 0.250000
O O2 0.722062 0.355350 0.024643
O O3 0.681925 0.471348 0.997516
O O4 0.558000 0.392658 0.998066
O O5 0.105044 0.051533 0.750000
O O6 0.212339 0.062512 0.973199
O O7 0.096613 0.976289 0.977088
O O8 0.041334 0.087229 0.012277
O O9 0.316489 0.038694 0.750000
O O10 0.384594 0.080116 0.494453
O O11 0.939400 0.094936 0.250000
O O12 0.887870 0.143220 0.993267
O O13 0.811452 0.314928 0.250000
O O14 0.806928 0.250000 0.000000
O O15 0.481252 0.066304 0.250000
O O16 0.500000 0.000000 0.000000
#
# Coordination Sequence:
#
# PCOD9434084 Si02
#       6
#     8   8   8   8   8   8
#     4  10  19  31  46  66  93 126 161 199 239 286
#     4   9  18  30  47  71  99 131 162 197 246 297
#     4  10  17  28  46  69  98 129 159 194 236 288
#     4  10  19  32  49  70  97 128 164 204 246 294
#     4  11  23  36  52  71  96 129 168 208 247 293
#     4  10  18  27  42  65  94 126 157 191 232 282
#
# _framework density 16.088687
#
# number of rings (size 3 to 8) (size 9 to 14) (size 15 to 20)
#    0.000    2.000    1.667    5.500    0.000    4.000 
#    0.000    0.000    0.000    0.000    0.000    1.167 
#    0.000    5.333    0.000    0.000    0.000    0.000 
#
# Total GULP energy -267708.548423 kJ/mol
# GULP energy per Si atom -5577.261425 kJ/mol
# Density = 1.605207 g / cm^3
# Si number density = 16.088687 Si / 1000 Ang^3
#
#
#
# Elastic Constant Matrix: (Units=GPa)
#
#
# Indices 1 2 3 4 5 6 
#
# 1 175.8779 57.0174 61.2324 0.0000 0.0000 0.0000
# 2 57.0174 67.5981 31.9068 0.0000 0.0000 0.0000
# 3 61.2324 31.9068 70.7311 0.0000 0.0000 0.0000
# 4 0.0000 0.0000 0.0000 19.4069 0.0000 0.0000
# 5 0.0000 0.0000 0.0000 0.0000 28.4846 0.0000
# 6 0.0000 0.0000 0.0000 0.0000 0.0000 13.4789
#
#
#
# Elastic Compliance Matrix: (Units=1/GPa)
#
#
# Indices 1 2 3 4 5 6 
#
# 1 0.009378 -0.005182 -0.005782 0.000000 0.000000 0.000000
# 2 -0.005182 0.021658 -0.005284 0.000000 0.000000 0.000000
# 3 -0.005782 -0.005284 0.021527 0.000000 0.000000 0.000000
# 4 0.000000 0.000000 0.000000 0.051528 0.000000 0.000000
# 5 0.000000 0.000000 0.000000 0.000000 0.035107 0.000000
# 6 0.000000 0.000000 0.000000 0.000000 0.000000 0.074190
#
#
# Mechanical properties :
#
#
# Convention : Reuss Voigt Hill
#
# Bulk Modulus (GPa) = 49.82892 68.28002 59.05447
# Shear Modulus (GPa) = 19.79632 23.21079 21.50356
#
# Velocity S-wave (km/s) = 3.51158 3.80238 3.65987
# Velocity P-wave (km/s) = 6.89059 7.86189 7.39221
#
# Compressibility (1/GPa) = 0.02006867
#
# Stress axis : x y z
#
# Youngs Moduli (GPa) = 106.62775 46.17229 46.45345
#
# Poissons Ratio (x) = 0.23924 0.26857
# Poissons Ratio (y) = 0.55249 0.24547
# Poissons Ratio (z) = 0.61648 0.24399
#
# Static dielectric constant tensor:
#      x y z
#    x 1.584040 0.000000 0.000000 
#    y 0.000000 1.499440 0.000000 
#    z 0.000000 0.000000 1.535470 
# 
# From -- ./inp_files/4924.got.cif
#   From: 2010.05.17/outbox.cif.g08.bks.cpg/sg57_3_cif.got.tgz:4924.got - 2010.06.03 13:58:18.
