data_PCOD9434512
_publ_section_title
;
Structure prediction by ZEFSAII (Michael W. Deem and Ramdas Pophale) SiO2 
 PCOD9434512
Probable space group: P B C M
;
_chemical_formula_sum "Si O2"
_cell_formula_units_Z 64
_cell_length_a 15.857338
_cell_length_b 21.711914
_cell_length_c 8.629603
_cell_angle_alpha 90.000000
_cell_angle_beta 90.000000
_cell_angle_gamma 90.000000
_cell_volume 2971.113277
_symmetry_space_group_name_H-M "P B C M"
_symmetry_group_IT_number 57
_symmetry_cell_setting 'orthorhombic'
loop_
_space_group_symop_operation_xyz
x,y,z
-x,-y,1/2+z
x,1/2-y,-z
-x,1/2+y,1/2-z
-x,-y,-z
x,y,1/2-z
-x,1/2+y,z
x,1/2-y,1/2+z
loop_
_atom_site_type_symbol
_atom_site_label
_atom_site_fract_x
_atom_site_fract_y
_atom_site_fract_z
Si Si1 0.102248 0.865895 0.563789
Si Si2 0.594669 0.910824 0.063422
Si Si3 0.919422 0.634646 0.433696
Si Si4 0.721643 0.154208 0.929713
Si Si5 0.126214 0.492140 0.068191
Si Si6 0.458549 0.812941 0.437606
Si Si7 0.255947 0.317059 0.434599
Si Si8 0.699129 0.492524 0.427874
O O1 0.103091 0.865551 0.750000
O O2 0.187995 0.834766 0.506593
O O3 0.011092 0.841216 0.511858
O O4 0.107159 0.938187 0.515629
O O5 0.594473 0.918613 0.250000
O O6 0.511560 0.873116 0.018192
O O7 0.673253 0.866461 0.017940
O O8 0.613363 0.975279 0.980953
O O9 0.912839 0.643727 0.250000
O O10 0.917255 0.561642 0.471552
O O11 0.837584 0.663658 0.511912
O O12 0.729058 0.171922 0.750000
O O13 0.637276 0.183498 0.998272
O O14 0.701308 0.081091 0.935900
O O15 0.106358 0.485589 0.250000
O O16 0.226281 0.484792 0.040208
O O17 0.498262 0.750000 0.500000
O O18 0.457143 0.811454 0.250000
O O19 0.275852 0.250000 0.500000
O O20 0.257165 0.314739 0.250000
O O21 0.718642 0.509835 0.250000
#
# Coordination Sequence:
#
# PCOD9434512 Si02
#       8
#     8   8   8   8   8   8   8   8
#     4   9  20  35  54  81 113 147 187 231 279 332
#     4  10  21  37  58  84 116 148 182 230 285 340
#     4  11  21  34  53  80 112 148 189 233 277 331
#     4   9  20  38  58  83 116 150 188 236 286 335
#     4  10  18  31  51  79 114 150 186 226 275 331
#     4  10  22  41  62  85 112 145 189 238 285 336
#     4  11  23  38  56  79 110 150 191 234 284 339
#     4  10  19  32  54  84 117 152 188 226 278 342
#
# _framework density 21.540748000000001
#
# number of rings (size 3 to 8) (size 9 to 14) (size 15 to 20)
#    0.000    2.000    1.250    2.250    0.000    4.000 
#    0.000    0.625    0.000    1.500    0.000    0.000 
#    0.000    0.000    0.000    0.000    0.000    0.000 
#
# Total GULP energy -357466.317033 kJ/mol
# GULP energy per Si atom -5585.411204 kJ/mol
# Density = 2.149172 g / cm^3
# Si number density = 21.540748 Si / 1000 Ang^3
#
#
#
# Elastic Constant Matrix: (Units=GPa)
#
#
# Indices 1 2 3 4 5 6 
#
# 1 99.7955 3.2840 7.4175 0.0000 0.0000 0.0000
# 2 3.2840 17.8030 4.4433 0.0000 0.0000 0.0000
# 3 7.4175 4.4433 15.1175 0.0000 0.0000 0.0000
# 4 0.0000 0.0000 0.0000 15.2093 0.0000 0.0000
# 5 0.0000 0.0000 0.0000 0.0000 22.5474 0.0000
# 6 0.0000 0.0000 0.0000 0.0000 0.0000 10.7264
#
#
#
# Elastic Compliance Matrix: (Units=1/GPa)
#
#
# Indices 1 2 3 4 5 6 
#
# 1 0.010408 -0.000696 -0.004902 0.000000 0.000000 0.000000
# 2 -0.000696 0.060663 -0.017488 0.000000 0.000000 0.000000
# 3 -0.004902 -0.017488 0.073694 0.000000 0.000000 0.000000
# 4 0.000000 0.000000 0.000000 0.065749 0.000000 0.000000
# 5 0.000000 0.000000 0.000000 0.000000 0.044351 0.000000
# 6 0.000000 0.000000 0.000000 0.000000 0.000000 0.093228
#
#
# Mechanical properties :
#
#
# Convention : Reuss Voigt Hill
#
# Bulk Modulus (GPa) = 10.14286 18.11175 14.12730
# Shear Modulus (GPa) = 11.70605 17.53472 14.62038
#
# Velocity S-wave (km/s) = 2.33370 2.85621 2.60807
# Velocity P-wave (km/s) = 3.46128 4.39359 3.95500
#
# Compressibility (1/GPa) = 0.09859156
#
# Stress axis : x y z
#
# Youngs Moduli (GPa) = 96.08221 16.48440 13.56971
#
# Poissons Ratio (x) = 0.01148 0.06652
# Poissons Ratio (y) = 0.06692 0.23731
# Poissons Ratio (z) = 0.47099 0.28828
#
# Static dielectric constant tensor:
#      x y z
#    x 1.830740 0.000000 0.000000 
#    y 0.000000 1.802710 0.000000 
#    z 0.000000 0.000000 1.742460 
# 
# From -- ./inp_files/5580.got.cif
#   From: 2010.05.17/outbox.cif.g08.bks.cpg/sg57_3_cif.got.tgz:5580.got - 2010.06.03 13:58:18.
