data_PCOD9434923
_publ_section_title
;
Structure prediction by ZEFSAII (Michael W. Deem and Ramdas Pophale) SiO2 
 PCOD9434923
Probable space group: P B C M
;
_chemical_formula_sum "Si O2"
_cell_formula_units_Z 48
_cell_length_a 8.404075
_cell_length_b 13.457715
_cell_length_c 17.409848
_cell_angle_alpha 90.000000
_cell_angle_beta 90.000000
_cell_angle_gamma 90.000000
_cell_volume 1969.047649
_symmetry_space_group_name_H-M "P B C M"
_symmetry_group_IT_number 57
_symmetry_cell_setting 'orthorhombic'
loop_
_space_group_symop_operation_xyz
x,y,z
-x,-y,1/2+z
x,1/2-y,-z
-x,1/2+y,1/2-z
-x,-y,-z
x,y,1/2-z
-x,1/2+y,z
x,1/2-y,1/2+z
loop_
_atom_site_type_symbol
_atom_site_label
_atom_site_fract_x
_atom_site_fract_y
_atom_site_fract_z
Si Si1 0.417284 0.760656 0.408521
Si Si2 0.439138 0.993995 0.088046
Si Si3 0.239769 0.236283 0.908891
Si Si4 0.241101 0.484620 0.341460
Si Si5 0.111026 0.000193 0.160571
Si Si6 0.089876 0.742453 0.662089
O O1 0.416699 0.750000 0.500000
O O2 0.422879 0.877826 0.390352
O O3 0.589395 0.722357 0.381282
O O4 0.249979 0.722701 0.378614
O O5 0.589974 0.033310 0.136517
O O6 0.259284 0.030340 0.106208
O O7 0.500000 0.000000 0.000000
O O8 0.242351 0.119405 0.887632
O O9 0.079137 0.274908 0.871153
O O10 0.230607 0.250000 0.000000
O O11 0.238809 0.465239 0.250000
O O12 0.069445 0.533053 0.359878
O O13 0.146618 0.025559 0.250000
O O14 0.094699 0.878911 0.158063
O O15 0.099807 0.772029 0.750000
#
# Coordination Sequence:
#
# PCOD9434923 Si02
#       6
#     8   8   8   8   8   8
#     4   9  18  31  46  65  92 124 153 185 231 286
#     4  10  19  29  46  73  96 118 153 200 245 278
#     4   9  16  26  43  69  97 121 150 196 243 278
#     4   9  17  30  48  69  93 124 163 201 236 284
#     4   8  15  28  45  66  91 120 157 197 232 274
#     4   9  16  26  44  68  91 119 158 199 232 269
#
# _framework density 24.377268999999998
#
# number of rings (size 3 to 8) (size 9 to 14) (size 15 to 20)
#    0.000    3.000    0.000    2.500    0.000    5.333 
#    0.000    0.000    0.000    2.000    0.000   21.000 
#    0.000    0.000    0.000    0.000    0.000    0.000 
#
# Total GULP energy -268164.129877 kJ/mol
# GULP energy per Si atom -5586.752706 kJ/mol
# Density = 2.432178 g / cm^3
# Si number density = 24.377269 Si / 1000 Ang^3
#
#
#
# Elastic Constant Matrix: (Units=GPa)
#
#
# Indices 1 2 3 4 5 6 
#
# 1 325.1766 43.4173 98.7958 0.0000 0.0000 0.0000
# 2 43.4173 76.0094 -2.5895 0.0000 0.0000 0.0000
# 3 98.7958 -2.5895 76.4877 0.0000 0.0000 0.0000
# 4 0.0000 0.0000 0.0000 23.3087 0.0000 0.0000
# 5 0.0000 0.0000 0.0000 0.0000 48.6621 0.0000
# 6 0.0000 0.0000 0.0000 0.0000 0.0000 54.3154
#
#
#
# Elastic Compliance Matrix: (Units=1/GPa)
#
#
# Indices 1 2 3 4 5 6 
#
# 1 0.005925 -0.003650 -0.007777 0.000000 0.000000 0.000000
# 2 -0.003650 0.015419 0.005236 0.000000 0.000000 0.000000
# 3 -0.007777 0.005236 0.023297 0.000000 0.000000 0.000000
# 4 0.000000 0.000000 0.000000 0.042902 0.000000 0.000000
# 5 0.000000 0.000000 0.000000 0.000000 0.020550 0.000000
# 6 0.000000 0.000000 0.000000 0.000000 0.000000 0.018411
#
#
# Mechanical properties :
#
#
# Convention : Reuss Voigt Hill
#
# Bulk Modulus (GPa) = 30.99810 84.10233 57.55021
# Shear Modulus (GPa) = 33.41363 47.79391 40.60377
#
# Velocity S-wave (km/s) = 3.70630 4.43266 4.08565
# Velocity P-wave (km/s) = 5.57307 7.79572 6.77615
#
# Compressibility (1/GPa) = 0.03226004
#
# Stress axis : x y z
#
# Youngs Moduli (GPa) = 168.76451 64.85358 42.92457
#
# Poissons Ratio (x) = 0.23669 0.33383
# Poissons Ratio (y) = 0.61592 -0.22476
# Poissons Ratio (z) = 1.31251 -0.33958
#
# Static dielectric constant tensor:
#      x y z
#    x 1.967150 0.000000 0.000000 
#    y 0.000000 1.960000 0.000000 
#    z 0.000000 0.000000 1.834630 
# 
# From -- ./inp_files/16570.got.cif
#   From: 2010.05.17/outbox.cif.g08.bks.cpg/sg57_9_cif.got.tgz:16570.got - 2010.06.03 13:58:18.
