data_PCOD9434542
_publ_section_title
;
Structure prediction by ZEFSAII (Michael W. Deem and Ramdas Pophale) SiO2 
 PCOD9434542
Probable space group: P B C M
;
_chemical_formula_sum "Si O2"
_cell_formula_units_Z 64
_cell_length_a 17.976938
_cell_length_b 23.102164
_cell_length_c 8.597741
_cell_angle_alpha 90.000000
_cell_angle_beta 90.000000
_cell_angle_gamma 90.000000
_cell_volume 3570.694884
_symmetry_space_group_name_H-M "P B C M"
_symmetry_group_IT_number 57
_symmetry_cell_setting 'orthorhombic'
loop_
_space_group_symop_operation_xyz
x,y,z
-x,-y,1/2+z
x,1/2-y,-z
-x,1/2+y,1/2-z
-x,-y,-z
x,y,1/2-z
-x,1/2+y,z
x,1/2-y,1/2+z
loop_
_atom_site_type_symbol
_atom_site_label
_atom_site_fract_x
_atom_site_fract_y
_atom_site_fract_z
Si Si1 0.749829 0.310877 0.437702
Si Si2 0.087691 0.653445 0.562014
Si Si3 0.072881 0.311509 0.564034
Si Si4 0.337294 0.449979 0.065149
Si Si5 0.078930 0.520554 0.562951
Si Si6 0.507926 0.934667 0.935740
Si Si7 0.817453 0.915905 0.938297
Si Si8 0.647535 0.080725 0.937005
O O1 0.719438 0.250000 0.500000
O O2 0.749035 0.309734 0.250000
O O3 0.835826 0.316916 0.489695
O O4 0.704130 0.368337 0.484566
O O5 0.083930 0.656836 0.750000
O O6 0.093514 0.586149 0.515473
O O7 0.010851 0.677643 0.495907
O O8 0.099005 0.250000 0.500000
O O9 0.070832 0.310430 0.750000
O O10 0.128126 0.363331 0.516265
O O11 0.345021 0.452413 0.250000
O O12 0.409907 0.418844 0.993201
O O13 0.263170 0.416892 0.013986
O O14 0.333550 0.516689 0.002869
O O15 0.076349 0.519179 0.750000
O O16 0.141613 0.475319 0.514039
O O17 0.000000 0.500000 0.500000
O O18 0.504358 0.934377 0.750000
O O19 0.435674 0.903571 0.005767
O O20 0.500000 0.000000 0.000000
O O21 0.810169 0.915416 0.750000
O O22 0.648512 0.075971 0.750000
#
# Coordination Sequence:
#
# PCOD9434542 Si02
#       8
#     8   8   8   8   8   8   8   8
#     4  10  22  37  54  76 106 146 186 228 272 315
#     4  10  20  35  55  78 106 139 178 224 269 318
#     4  11  23  38  56  75 100 137 181 225 269 317
#     4  11  21  33  54  85 113 140 177 220 269 323
#     4  10  19  33  53  77 107 137 173 218 270 325
#     4  10  18  31  53  81 112 142 172 208 255 312
#     4  10  21  37  54  76 108 143 176 217 272 323
#     4  10  19  35  56  79 112 147 178 216 269 323
#
# _framework density 17.923683
#
# number of rings (size 3 to 8) (size 9 to 14) (size 15 to 20)
#    0.000    1.750    1.250    5.625    0.000    6.000 
#    0.000    1.250    0.000    0.750    0.000    5.250 
#    0.000    0.000    0.000    0.000    0.000    0.000 
#
# Total GULP energy -357268.619568 kJ/mol
# GULP energy per Si atom -5582.322181 kJ/mol
# Density = 1.788289 g / cm^3
# Si number density = 17.923683 Si / 1000 Ang^3
#
#
#
# Elastic Constant Matrix: (Units=GPa)
#
#
# Indices 1 2 3 4 5 6 
#
# 1 125.9112 33.1043 27.9496 0.0000 0.0000 0.0000
# 2 33.1043 85.1338 20.8826 0.0000 0.0000 0.0000
# 3 27.9496 20.8826 51.7114 0.0000 0.0000 0.0000
# 4 0.0000 0.0000 0.0000 23.2194 0.0000 0.0000
# 5 0.0000 0.0000 0.0000 0.0000 30.7149 0.0000
# 6 0.0000 0.0000 0.0000 0.0000 0.0000 12.7028
#
#
#
# Elastic Compliance Matrix: (Units=1/GPa)
#
#
# Indices 1 2 3 4 5 6 
#
# 1 0.009560 -0.002719 -0.004069 0.000000 0.000000 0.000000
# 2 -0.002719 0.013811 -0.004108 0.000000 0.000000 0.000000
# 3 -0.004069 -0.004108 0.023196 0.000000 0.000000 0.000000
# 4 0.000000 0.000000 0.000000 0.043067 0.000000 0.000000
# 5 0.000000 0.000000 0.000000 0.000000 0.032558 0.000000
# 6 0.000000 0.000000 0.000000 0.000000 0.000000 0.078723
#
#
# Mechanical properties :
#
#
# Convention : Reuss Voigt Hill
#
# Bulk Modulus (GPa) = 40.36236 47.40326 43.88281
# Shear Modulus (GPa) = 21.64817 25.38207 23.51512
#
# Velocity S-wave (km/s) = 3.47911 3.76722 3.62603
# Velocity P-wave (km/s) = 6.22148 6.73998 6.48591
#
# Compressibility (1/GPa) = 0.02477556
#
# Stress axis : x y z
#
# Youngs Moduli (GPa) = 104.59878 72.40493 43.11059
#
# Poissons Ratio (x) = 0.19690 0.17542
# Poissons Ratio (y) = 0.28445 0.17708
# Poissons Ratio (z) = 0.42562 0.29741
#
# Static dielectric constant tensor:
#      x y z
#    x 1.633770 0.000000 0.000000 
#    y 0.000000 1.590540 0.000000 
#    z 0.000000 0.000000 1.601270 
# 
# From -- ./inp_files/7214.got.cif
#   From: 2010.05.17/outbox.cif.g08.bks.cpg/sg57_4_cif.got.tgz:7214.got - 2010.06.03 13:58:18.
