data_PCOD9434795
_publ_section_title
;
Structure prediction by ZEFSAII (Michael W. Deem and Ramdas Pophale) SiO2 
 PCOD9434795
Probable space group: P B C M
;
_chemical_formula_sum "Si O2"
_cell_formula_units_Z 40
_cell_length_a 14.311207
_cell_length_b 9.259755
_cell_length_c 14.792004
_cell_angle_alpha 90.000000
_cell_angle_beta 90.000000
_cell_angle_gamma 90.000000
_cell_volume 1960.210788
_symmetry_space_group_name_H-M "P B C M"
_symmetry_group_IT_number 57
_symmetry_cell_setting 'orthorhombic'
loop_
_space_group_symop_operation_xyz
x,y,z
-x,-y,1/2+z
x,1/2-y,-z
-x,1/2+y,1/2-z
-x,-y,-z
x,y,1/2-z
-x,1/2+y,z
x,1/2-y,1/2+z
loop_
_atom_site_type_symbol
_atom_site_label
_atom_site_fract_x
_atom_site_fract_y
_atom_site_fract_z
Si Si1 0.400395 0.922320 0.498266
Si Si2 0.714978 0.609951 0.854524
Si Si3 0.281892 0.061574 0.143191
Si Si4 0.119535 0.885227 0.051412
Si Si5 0.918822 0.868039 0.421131
O O1 0.408206 0.750000 0.500000
O O2 0.357624 0.960014 0.401240
O O3 0.500000 0.000000 0.500000
O O4 0.332022 0.996669 0.575157
O O5 0.686828 0.582455 0.750000
O O6 0.828644 0.622620 0.857679
O O7 0.691740 0.774463 0.883649
O O8 0.278546 0.059214 0.250000
O O9 0.185886 0.992729 0.105637
O O10 0.026375 0.841401 0.107625
O O11 0.166841 0.750000 0.000000
O O12 0.083193 0.975567 0.966336
O O13 0.900485 0.750000 0.500000
#
# Coordination Sequence:
#
# PCOD9434795 Si02
#       5
#     8   8   8   8   8
#     4  12  26  47  72  95 124 161 206 264 329 392
#     4  11  23  41  67  96 129 171 216 263 320 384
#     4  11  23  41  65  95 132 171 215 265 322 384
#     4  10  20  34  59  93 126 177 223 266 314 363
#     4  10  18  35  61  87 130 175 222 264 311 372
#
# _framework density 20.40597
#
# number of rings (size 3 to 8) (size 9 to 14) (size 15 to 20)
#    0.000    1.200    4.000    2.400    0.000    2.400 
#    0.000    0.000    0.000    0.000    0.000    0.000 
#    0.000    0.000    0.000    0.000    0.000    0.000 
#
# Total GULP energy -222696.035342 kJ/mol
# GULP energy per Si atom -5567.400884 kJ/mol
# Density = 2.035953 g / cm^3
# Si number density = 20.405970 Si / 1000 Ang^3
#
#
#
# Elastic Constant Matrix: (Units=GPa)
#
#
# Indices 1 2 3 4 5 6 
#
# 1 100.2860 35.9858 19.6716 0.0000 0.0000 0.0000
# 2 35.9858 166.5120 43.4074 0.0000 0.0000 0.0000
# 3 19.6716 43.4074 54.2500 0.0000 0.0000 0.0000
# 4 0.0000 0.0000 0.0000 17.5185 0.0000 0.0000
# 5 0.0000 0.0000 0.0000 0.0000 5.9709 0.0000
# 6 0.0000 0.0000 0.0000 0.0000 0.0000 32.5088
#
#
#
# Elastic Compliance Matrix: (Units=1/GPa)
#
#
# Indices 1 2 3 4 5 6 
#
# 1 0.011106 -0.001706 -0.002662 0.000000 0.000000 0.000000
# 2 -0.001706 0.007851 -0.005663 0.000000 0.000000 0.000000
# 3 -0.002662 -0.005663 0.023929 0.000000 0.000000 0.000000
# 4 0.000000 0.000000 0.000000 0.057082 0.000000 0.000000
# 5 0.000000 0.000000 0.000000 0.000000 0.167479 0.000000
# 6 0.000000 0.000000 0.000000 0.000000 0.000000 0.030761
#
#
# Mechanical properties :
#
#
# Convention : Reuss Voigt Hill
#
# Bulk Modulus (GPa) = 43.81353 57.68639 50.74996
# Shear Modulus (GPa) = 15.34314 25.99853 20.67084
#
# Velocity S-wave (km/s) = 2.74504 3.57328 3.18619
# Velocity P-wave (km/s) = 5.61824 6.73462 6.20160
#
# Compressibility (1/GPa) = 0.02282400
#
# Stress axis : x y z
#
# Youngs Moduli (GPa) = 90.04247 127.37994 41.78960
#
# Poissons Ratio (x) = 0.21734 0.11124
# Poissons Ratio (y) = 0.15363 0.23665
# Poissons Ratio (z) = 0.23968 0.72133
#
# Static dielectric constant tensor:
#      x y z
#    x 1.898800 0.000000 0.000000 
#    y 0.000000 1.729670 0.000000 
#    z 0.000000 0.000000 1.709400 
# 
# From -- ./inp_files/18232.got.cif
#   From: 2010.05.17/outbox.cif.g08.bks.cpg/sg57_10_cif.got.tgz:18232.got - 2010.06.03 13:58:18.
