data_PCOD9434374
_publ_section_title
;
Structure prediction by ZEFSAII (Michael W. Deem and Ramdas Pophale) SiO2 
 PCOD9434374
Probable space group: P B C M
;
_chemical_formula_sum "Si O2"
_cell_formula_units_Z 64
_cell_length_a 19.900478
_cell_length_b 22.412269
_cell_length_c 8.529884
_cell_angle_alpha 90.000000
_cell_angle_beta 90.000000
_cell_angle_gamma 90.000000
_cell_volume 3804.455071
_symmetry_space_group_name_H-M "P B C M"
_symmetry_group_IT_number 57
_symmetry_cell_setting 'orthorhombic'
loop_
_space_group_symop_operation_xyz
x,y,z
-x,-y,1/2+z
x,1/2-y,-z
-x,1/2+y,1/2-z
-x,-y,-z
x,y,1/2-z
-x,1/2+y,z
x,1/2-y,1/2+z
loop_
_atom_site_type_symbol
_atom_site_label
_atom_site_fract_x
_atom_site_fract_y
_atom_site_fract_z
Si Si1 0.836385 0.880556 0.061051
Si Si2 0.039186 0.559459 0.940200
Si Si3 0.669507 0.491529 0.059028
Si Si4 0.822534 0.010113 0.561975
Si Si5 0.591483 0.612311 0.436351
Si Si6 0.534826 0.439494 0.437321
Si Si7 0.969504 0.684181 0.938677
Si Si8 0.295105 0.186436 0.563046
O O1 0.838766 0.886765 0.250000
O O2 0.762619 0.859470 0.013080
O O3 0.892675 0.832393 0.016792
O O4 0.847776 0.944539 0.985624
O O5 0.034855 0.557547 0.750000
O O6 0.117480 0.553733 0.988939
O O7 0.009736 0.624068 0.989602
O O8 0.000000 0.500000 0.000000
O O9 0.672064 0.492782 0.250000
O O10 0.745762 0.482460 0.001847
O O11 0.635749 0.554544 0.008884
O O12 0.612949 0.442657 0.013674
O O13 0.818832 0.013803 0.750000
O O14 0.588152 0.608806 0.250000
O O15 0.516167 0.610152 0.501711
O O16 0.633976 0.668278 0.491493
O O17 0.500000 0.500000 0.500000
O O18 0.533089 0.440472 0.250000
O O19 0.973900 0.686554 0.750000
O O20 0.988465 0.750000 0.000000
O O21 0.273867 0.250000 0.500000
O O22 0.298856 0.186316 0.750000
#
# Coordination Sequence:
#
# PCOD9434374 Si02
#       8
#     8   8   8   8   8   8   8   8
#     4  10  20  33  48  69  99 130 165 209 247 291
#     4  10  20  33  52  75 102 131 167 211 257 308
#     4   8  15  27  44  67  94 120 153 192 233 287
#     4  10  18  30  50  74  98 132 166 198 250 307
#     4  10  18  30  46  65  91 124 160 202 241 286
#     4   9  16  27  43  65  92 121 152 191 235 284
#     4  10  21  36  51  72 100 131 171 213 252 300
#     4  11  22  33  46  66  93 131 170 206 246 290
#
# _framework density 16.822382999999999
#
# number of rings (size 3 to 8) (size 9 to 14) (size 15 to 20)
#    0.000    2.250    2.500    2.250    0.000    1.500 
#    0.000    0.625    0.000    0.000    0.000    0.875 
#    0.000    2.000    0.000    0.000    0.000    0.000 
#
# Total GULP energy -356405.690188 kJ/mol
# GULP energy per Si atom -5568.838909 kJ/mol
# Density = 1.678409 g / cm^3
# Si number density = 16.822383 Si / 1000 Ang^3
#
#
#
# Elastic Constant Matrix: (Units=GPa)
#
#
# Indices 1 2 3 4 5 6 
#
# 1 107.4848 44.0630 15.4285 0.0000 0.0000 0.0000
# 2 44.0630 71.3404 11.2554 0.0000 0.0000 0.0000
# 3 15.4285 11.2554 13.4498 0.0000 0.0000 0.0000
# 4 0.0000 0.0000 0.0000 22.1483 0.0000 0.0000
# 5 0.0000 0.0000 0.0000 0.0000 16.2790 0.0000
# 6 0.0000 0.0000 0.0000 0.0000 0.0000 25.3902
#
#
#
# Elastic Compliance Matrix: (Units=1/GPa)
#
#
# Indices 1 2 3 4 5 6 
#
# 1 0.013493 -0.006788 -0.009797 0.000000 0.000000 0.000000
# 2 -0.006788 0.019564 -0.008586 0.000000 0.000000 0.000000
# 3 -0.009797 -0.008586 0.092774 0.000000 0.000000 0.000000
# 4 0.000000 0.000000 0.000000 0.045150 0.000000 0.000000
# 5 0.000000 0.000000 0.000000 0.000000 0.061429 0.000000
# 6 0.000000 0.000000 0.000000 0.000000 0.000000 0.039385
#
#
# Mechanical properties :
#
#
# Convention : Reuss Voigt Hill
#
# Bulk Modulus (GPa) = 13.24690 37.08541 25.16616
# Shear Modulus (GPa) = 14.39677 20.86540 17.63108
#
# Velocity S-wave (km/s) = 2.92860 3.52566 3.24091
# Velocity P-wave (km/s) = 4.39628 6.21827 5.38489
#
# Compressibility (1/GPa) = 0.07548935
#
# Stress axis : x y z
#
# Youngs Moduli (GPa) = 74.11454 51.11314 10.77887
#
# Poissons Ratio (x) = 0.34695 0.10560
# Poissons Ratio (y) = 0.50309 0.09255
# Poissons Ratio (z) = 0.72611 0.43885
#
# Static dielectric constant tensor:
#      x y z
#    x 1.618930 0.000000 0.000000 
#    y 0.000000 1.580480 0.000000 
#    z 0.000000 0.000000 1.569220 
# 
# From -- ./inp_files/7443.got.cif
#   From: 2010.05.17/outbox.cif.g08.bks.cpg/sg57_4_cif.got.tgz:7443.got - 2010.06.03 13:58:18.
