data_PCOD9434149
_publ_section_title
;
Structure prediction by ZEFSAII (Michael W. Deem and Ramdas Pophale) SiO2 
 PCOD9434149
Probable space group: P B C M
;
_chemical_formula_sum "Si O2"
_cell_formula_units_Z 48
_cell_length_a 7.179396
_cell_length_b 14.956321
_cell_length_c 19.148090
_cell_angle_alpha 90.000000
_cell_angle_beta 90.000000
_cell_angle_gamma 90.000000
_cell_volume 2056.071184
_symmetry_space_group_name_H-M "P B C M"
_symmetry_group_IT_number 57
_symmetry_cell_setting 'orthorhombic'
loop_
_space_group_symop_operation_xyz
x,y,z
-x,-y,1/2+z
x,1/2-y,-z
-x,1/2+y,1/2-z
-x,-y,-z
x,y,1/2-z
-x,1/2+y,z
x,1/2-y,1/2+z
loop_
_atom_site_type_symbol
_atom_site_label
_atom_site_fract_x
_atom_site_fract_y
_atom_site_fract_z
Si Si1 0.364752 0.509367 0.327975
Si Si2 0.516234 0.150005 0.432292
Si Si3 0.171798 0.864674 0.168583
Si Si4 0.954054 0.210234 0.426985
Si Si5 0.564115 0.652902 0.590921
Si Si6 0.049006 0.068968 0.173746
O O1 0.440613 0.493433 0.250000
O O2 0.494991 0.569294 0.377467
O O3 0.312619 0.416712 0.366048
O O4 0.175678 0.565172 0.320831
O O5 0.738235 0.177045 0.439289
O O6 0.413651 0.240479 0.407642
O O7 0.448845 0.126212 0.509806
O O8 0.186839 0.840254 0.250000
O O9 0.051592 0.790373 0.128809
O O10 0.367745 0.861696 0.129376
O O11 0.107061 0.966756 0.164316
O O12 0.022439 0.250000 0.500000
O O13 0.073994 0.130618 0.393629
O O14 0.120751 0.101013 0.250000
#
# Coordination Sequence:
#
# PCOD9434149 Si02
#       6
#     8   8   8   8   8   8
#     4  10  20  33  52  77 105 140 174 208 260 317
#     4   9  18  34  53  75 108 135 170 217 263 300
#     4  10  19  33  55  79 103 136 176 217 256 301
#     4  10  17  33  53  77 101 137 177 210 250 312
#     4  10  18  34  56  78 101 135 178 218 252 305
#     4   9  20  35  51  76 109 139 167 213 268 307
#
# _framework density 23.345497000000002
#
# number of rings (size 3 to 8) (size 9 to 14) (size 15 to 20)
#    0.000    2.333    3.333    1.500    0.000    5.333 
#    0.000    1.667    3.667    4.000    0.000    0.000 
#    0.000    0.000    0.000    0.000    0.000    0.000 
#
# Total GULP energy -268257.680837 kJ/mol
# GULP energy per Si atom -5588.701684 kJ/mol
# Density = 2.329236 g / cm^3
# Si number density = 23.345497 Si / 1000 Ang^3
#
#
#
# Elastic Constant Matrix: (Units=GPa)
#
#
# Indices 1 2 3 4 5 6 
#
# 1 33.5852 5.0805 12.1519 0.0000 0.0000 0.0000
# 2 5.0805 70.6336 81.1281 0.0000 0.0000 0.0000
# 3 12.1519 81.1281 188.2813 0.0000 0.0000 0.0000
# 4 0.0000 0.0000 0.0000 49.3788 0.0000 0.0000
# 5 0.0000 0.0000 0.0000 0.0000 14.8103 0.0000
# 6 0.0000 0.0000 0.0000 0.0000 0.0000 40.8734
#
#
#
# Elastic Compliance Matrix: (Units=1/GPa)
#
#
# Indices 1 2 3 4 5 6 
#
# 1 0.030488 0.000133 -0.002025 0.000000 0.000000 0.000000
# 2 0.000133 0.028030 -0.012086 0.000000 0.000000 0.000000
# 3 -0.002025 -0.012086 0.010650 0.000000 0.000000 0.000000
# 4 0.000000 0.000000 0.000000 0.020252 0.000000 0.000000
# 5 0.000000 0.000000 0.000000 0.000000 0.067520 0.000000
# 6 0.000000 0.000000 0.000000 0.000000 0.000000 0.024466
#
#
# Mechanical properties :
#
#
# Convention : Reuss Voigt Hill
#
# Bulk Modulus (GPa) = 24.26559 54.35791 39.31175
# Shear Modulus (GPa) = 22.41154 33.95514 28.18334
#
# Velocity S-wave (km/s) = 3.10174 3.81788 3.47829
# Velocity P-wave (km/s) = 4.82124 6.53985 5.74517
#
# Compressibility (1/GPa) = 0.04121062
#
# Stress axis : x y z
#
# Youngs Moduli (GPa) = 32.80025 35.67577 93.89847
#
# Poissons Ratio (x) = -0.00474 0.19015
# Poissons Ratio (y) = -0.00436 1.13490
# Poissons Ratio (z) = 0.06642 0.43119
#
# Static dielectric constant tensor:
#      x y z
#    x 1.971040 0.000000 0.000000 
#    y 0.000000 1.881100 0.000000 
#    z 0.000000 0.000000 1.860640 
# 
# From -- ./inp_files/20934.got.cif
#   From: 2010.05.17/outbox.cif.g08.bks.cpg/sg57_11_cif.got.tgz:20934.got - 2010.06.03 13:58:18.
