data_PCOD9434186
_publ_section_title
;
Structure prediction by ZEFSAII (Michael W. Deem and Ramdas Pophale) SiO2 
 PCOD9434186
Probable space group: P B C M
;
_chemical_formula_sum "Si O2"
_cell_formula_units_Z 64
_cell_length_a 27.206158
_cell_length_b 19.051327
_cell_length_c 8.694243
_cell_angle_alpha 90.000000
_cell_angle_beta 90.000000
_cell_angle_gamma 90.000000
_cell_volume 4506.342758
_symmetry_space_group_name_H-M "P B C M"
_symmetry_group_IT_number 57
_symmetry_cell_setting 'orthorhombic'
loop_
_space_group_symop_operation_xyz
x,y,z
-x,-y,1/2+z
x,1/2-y,-z
-x,1/2+y,1/2-z
-x,-y,-z
x,y,1/2-z
-x,1/2+y,z
x,1/2-y,1/2+z
loop_
_atom_site_type_symbol
_atom_site_label
_atom_site_fract_x
_atom_site_fract_y
_atom_site_fract_z
Si Si1 0.991247 0.672520 0.065428
Si Si2 0.305785 0.172489 0.066952
Si Si3 0.396082 0.411022 0.434940
Si Si4 0.102918 0.089407 0.564035
Si Si5 0.800537 0.827690 0.064935
Si Si6 0.047020 0.541278 0.064855
Si Si7 0.496620 0.328077 0.434115
Si Si8 0.453804 0.956674 0.934287
O O1 0.988961 0.675186 0.250000
O O2 0.036609 0.621376 0.017962
O O3 0.996014 0.750000 0.000000
O O4 0.941040 0.636509 0.004782
O O5 0.302924 0.177341 0.250000
O O6 0.316937 0.250000 0.000000
O O7 0.348531 0.120149 0.015534
O O8 0.252666 0.151552 0.999891
O O9 0.390540 0.405940 0.250000
O O10 0.444170 0.364186 0.476890
O O11 0.408241 0.492293 0.473283
O O12 0.099622 0.094186 0.750000
O O13 0.155520 0.120372 0.518858
O O14 0.092565 0.008221 0.518819
O O15 0.798070 0.824217 0.250000
O O16 0.811374 0.750000 0.000000
O O17 0.045370 0.540448 0.250000
O O18 0.000000 0.500000 0.000000
O O19 0.499380 0.250000 0.500000
O O20 0.498917 0.326613 0.250000
O O21 0.539332 0.379399 0.497145
O O22 0.457182 0.953273 0.750000
O O23 0.500000 0.000000 0.000000
#
# Coordination Sequence:
#
# PCOD9434186 Si02
#       8
#     8   8   8   8   8   8   8   8
#     4  10  18  26  39  58  82 109 135 165 197 234
#     4  11  21  31  44  60  81 108 138 173 207 241
#     4   9  18  31  45  61  82 110 142 173 206 244
#     4   9  17  29  44  59  77 104 137 169 202 240
#     4  10  19  30  43  58  79 105 133 168 204 238
#     4   8  15  27  40  56  77 102 132 164 198 235
#     4  10  19  29  43  63  87 114 143 174 206 243
#     4   9  17  29  44  61  83 110 139 172 207 245
#
# _framework density 14.202204
#
# number of rings (size 3 to 8) (size 9 to 14) (size 15 to 20)
#    0.000    2.500    0.000    4.875    0.000    6.500 
#    0.000    0.000    0.000    0.000    0.000    0.000 
#    0.000    1.000    0.000    6.000    0.000    3.000 
#
# Total GULP energy -356418.310577 kJ/mol
# GULP energy per Si atom -5569.036103 kJ/mol
# Density = 1.416988 g / cm^3
# Si number density = 14.202204 Si / 1000 Ang^3
#
#
#
# Elastic Constant Matrix: (Units=GPa)
#
#
# Indices 1 2 3 4 5 6 
#
# 1 89.2624 61.4529 34.6800 0.0000 0.0000 0.0000
# 2 61.4529 119.3827 35.5646 0.0000 0.0000 0.0000
# 3 34.6800 35.5646 42.5323 0.0000 0.0000 0.0000
# 4 0.0000 0.0000 0.0000 18.7884 0.0000 0.0000
# 5 0.0000 0.0000 0.0000 0.0000 17.3164 0.0000
# 6 0.0000 0.0000 0.0000 0.0000 0.0000 26.8533
#
#
#
# Elastic Compliance Matrix: (Units=1/GPa)
#
#
# Indices 1 2 3 4 5 6 
#
# 1 0.020311 -0.007353 -0.010412 0.000000 0.000000 0.000000
# 2 -0.007353 0.013817 -0.005558 0.000000 0.000000 0.000000
# 3 -0.010412 -0.005558 0.036649 0.000000 0.000000 0.000000
# 4 0.000000 0.000000 0.000000 0.053224 0.000000 0.000000
# 5 0.000000 0.000000 0.000000 0.000000 0.057749 0.000000
# 6 0.000000 0.000000 0.000000 0.000000 0.000000 0.037239
#
#
# Mechanical properties :
#
#
# Convention : Reuss Voigt Hill
#
# Bulk Modulus (GPa) = 41.44243 57.17471 49.30857
# Shear Modulus (GPa) = 18.26953 20.55694 19.41324
#
# Velocity S-wave (km/s) = 3.59051 3.80866 3.70120
# Velocity P-wave (km/s) = 6.81415 7.72569 7.28419
#
# Compressibility (1/GPa) = 0.02412986
#
# Stress axis : x y z
#
# Youngs Moduli (GPa) = 49.23544 72.37318 27.28576
#
# Poissons Ratio (x) = 0.53217 0.28411
# Poissons Ratio (y) = 0.36203 0.15166
# Poissons Ratio (z) = 0.51266 0.40226
#
# Static dielectric constant tensor:
#      x y z
#    x 1.457730 0.000000 0.000000 
#    y 0.000000 1.484870 0.000000 
#    z 0.000000 0.000000 1.477750 
# 
# From -- ./inp_files/9808.got.cif
#   From: 2010.05.17/outbox.cif.g08.bks.cpg/sg57_5_cif.got.tgz:9808.got - 2010.06.03 13:58:18.
