data_PCOD9434907
_publ_section_title
;
Structure prediction by ZEFSAII (Michael W. Deem and Ramdas Pophale) SiO2 
 PCOD9434907
Probable space group: P B C M
;
_chemical_formula_sum "Si O2"
_cell_formula_units_Z 64
_cell_length_a 13.939991
_cell_length_b 35.110296
_cell_length_c 8.966903
_cell_angle_alpha 90.000000
_cell_angle_beta 90.000000
_cell_angle_gamma 90.000000
_cell_volume 4388.735989
_symmetry_space_group_name_H-M "P B C M"
_symmetry_group_IT_number 57
_symmetry_cell_setting 'orthorhombic'
loop_
_space_group_symop_operation_xyz
x,y,z
-x,-y,1/2+z
x,1/2-y,-z
-x,1/2+y,1/2-z
-x,-y,-z
x,y,1/2-z
-x,1/2+y,z
x,1/2-y,1/2+z
loop_
_atom_site_type_symbol
_atom_site_label
_atom_site_fract_x
_atom_site_fract_y
_atom_site_fract_z
Si Si1 0.133493 0.368395 0.928160
Si Si2 0.145450 0.511337 0.572097
Si Si3 0.344377 0.128099 0.569752
Si Si4 0.956477 0.559430 0.573081
Si Si5 0.458689 0.440446 0.926472
Si Si6 0.639968 0.711734 0.920439
Si Si7 0.873416 0.788989 0.077515
Si Si8 0.363066 0.977448 0.072727
O O1 0.140060 0.368016 0.750000
O O2 0.238889 0.376090 0.998256
O O3 0.065567 0.401993 0.986097
O O4 0.100600 0.327227 0.989181
O O5 0.145317 0.502677 0.750000
O O6 0.115787 0.473355 0.484325
O O7 0.251486 0.525315 0.532162
O O8 0.062526 0.542405 0.545117
O O9 0.335197 0.128532 0.750000
O O10 0.411211 0.094145 0.514941
O O11 0.384410 0.169659 0.520620
O O12 0.944564 0.565229 0.750000
O O13 0.457400 0.432787 0.750000
O O14 0.397291 0.479025 0.953385
O O15 0.565165 0.450428 0.983064
O O16 0.608644 0.713713 0.750000
O O17 0.756631 0.712206 0.923416
O O18 0.606251 0.750000 0.000000
O O19 0.903298 0.791046 0.250000
O O20 0.906628 0.750000 0.000000
O O21 0.373730 0.970093 0.250000
#
# Coordination Sequence:
#
# PCOD9434907 Si02
#       8
#     8   8   8   8   8   8   8   8
#     4  11  20  29  42  61  87 118 149 181 216 255
#     4   9  18  32  48  64  84 113 147 181 218 258
#     4  10  19  30  43  61  86 115 146 180 216 253
#     4  10  19  30  45  65  87 112 145 183 219 256
#     4  10  19  29  44  66  87 110 142 177 214 257
#     4   8  15  25  38  56  79 108 139 169 203 244
#     4   9  16  27  41  59  83 112 145 177 212 254
#     4   9  18  32  46  60  83 113 143 177 215 255
#
# _framework density 14.582786
#
# number of rings (size 3 to 8) (size 9 to 14) (size 15 to 20)
#    0.000    2.500    0.000    4.125    0.000    6.000 
#    0.000    0.000    0.000    0.000    0.000    0.000 
#    0.000    1.000    0.000    6.500    0.000    4.875 
#
# Total GULP energy -356713.847899 kJ/mol
# GULP energy per Si atom -5573.653873 kJ/mol
# Density = 1.454960 g / cm^3
# Si number density = 14.582786 Si / 1000 Ang^3
#
#
#
# Elastic Constant Matrix: (Units=GPa)
#
#
# Indices 1 2 3 4 5 6 
#
# 1 56.5003 31.0773 31.0505 0.0000 0.0000 0.0000
# 2 31.0773 109.5556 62.5714 0.0000 0.0000 0.0000
# 3 31.0505 62.5714 83.2337 0.0000 0.0000 0.0000
# 4 0.0000 0.0000 0.0000 28.2707 0.0000 0.0000
# 5 0.0000 0.0000 0.0000 0.0000 17.3301 0.0000
# 6 0.0000 0.0000 0.0000 0.0000 0.0000 14.9149
#
#
#
# Elastic Compliance Matrix: (Units=1/GPa)
#
#
# Indices 1 2 3 4 5 6 
#
# 1 0.022748 -0.002814 -0.006370 0.000000 0.000000 0.000000
# 2 -0.002814 0.016344 -0.011237 0.000000 0.000000 0.000000
# 3 -0.006370 -0.011237 0.022838 0.000000 0.000000 0.000000
# 4 0.000000 0.000000 0.000000 0.035372 0.000000 0.000000
# 5 0.000000 0.000000 0.000000 0.000000 0.057703 0.000000
# 6 0.000000 0.000000 0.000000 0.000000 0.000000 0.067047
#
#
# Mechanical properties :
#
#
# Convention : Reuss Voigt Hill
#
# Bulk Modulus (GPa) = 47.42277 55.40976 51.41626
# Shear Modulus (GPa) = 18.52372 20.40916 19.46644
#
# Velocity S-wave (km/s) = 3.56792 3.74510 3.65758
# Velocity P-wave (km/s) = 7.04015 7.53526 7.29191
#
# Compressibility (1/GPa) = 0.02108692
#
# Stress axis : x y z
#
# Youngs Moduli (GPa) = 43.95988 61.18521 43.78661
#
# Poissons Ratio (x) = 0.17220 0.27894
# Poissons Ratio (y) = 0.12372 0.49201
# Poissons Ratio (z) = 0.28004 0.68751
#
# Static dielectric constant tensor:
#      x y z
#    x 1.458940 0.000000 0.000000 
#    y 0.000000 1.486020 0.000000 
#    z 0.000000 0.000000 1.491230 
# 
# From -- ./inp_files/6052.got.cif
#   From: 2010.05.17/outbox.cif.g08.bks.cpg/sg57_4_cif.got.tgz:6052.got - 2010.06.03 13:58:18.
