data_PCOD9434522
_publ_section_title
;
Structure prediction by ZEFSAII (Michael W. Deem and Ramdas Pophale) SiO2 
 PCOD9434522
Probable space group: P B C M
;
_chemical_formula_sum "Si O2"
_cell_formula_units_Z 64
_cell_length_a 13.034579
_cell_length_b 29.226738
_cell_length_c 8.640714
_cell_angle_alpha 90.000000
_cell_angle_beta 90.000000
_cell_angle_gamma 90.000000
_cell_volume 3291.751071
_symmetry_space_group_name_H-M "P B C M"
_symmetry_group_IT_number 57
_symmetry_cell_setting 'orthorhombic'
loop_
_space_group_symop_operation_xyz
x,y,z
-x,-y,1/2+z
x,1/2-y,-z
-x,1/2+y,1/2-z
-x,-y,-z
x,y,1/2-z
-x,1/2+y,z
x,1/2-y,1/2+z
loop_
_atom_site_type_symbol
_atom_site_label
_atom_site_fract_x
_atom_site_fract_y
_atom_site_fract_z
Si Si1 0.604553 0.801157 0.435321
Si Si2 0.267706 0.452938 0.062839
Si Si3 0.958415 0.951925 0.564603
Si Si4 0.333086 0.944607 0.563713
Si Si5 0.533117 0.603615 0.563446
Si Si6 0.859908 0.117264 0.436387
Si Si7 0.034926 0.699169 0.566844
Si Si8 0.822900 0.698369 0.065072
O O1 0.585065 0.750000 0.500000
O O2 0.606842 0.797551 0.250000
O O3 0.529733 0.842691 0.482292
O O4 0.716625 0.818009 0.492833
O O5 0.260301 0.452096 0.250000
O O6 0.301630 0.504230 0.014698
O O7 0.358812 0.418952 0.014676
O O8 0.155653 0.442215 0.996670
O O9 0.955424 0.954193 0.750000
O O10 0.043051 0.914326 0.520691
O O11 0.000000 0.000000 0.500000
O O12 0.338968 0.945409 0.750000
O O13 0.439911 0.926308 0.499212
O O14 0.242464 0.909814 0.519527
O O15 0.530639 0.602181 0.750000
O O16 0.860580 0.123307 0.250000
O O17 0.874215 0.165632 0.518435
O O18 0.050420 0.750000 0.500000
O O19 0.021643 0.702052 0.750000
O O20 0.930378 0.678426 0.492259
O O21 0.817766 0.697661 0.250000
O O22 0.828355 0.750000 0.000000
#
# Coordination Sequence:
#
# PCOD9434522 Si02
#       8
#     8   8   8   8   8   8   8   8
#     4  10  20  36  55  82 115 152 193 243 295 347
#     4  10  21  40  61  88 123 157 194 245 300 353
#     4  11  22  38  61  90 124 159 198 241 295 361
#     4  10  21  40  63  84 117 157 196 243 299 354
#     4  10  23  39  60  88 119 151 199 250 293 353
#     4  10  22  40  59  86 122 159 200 247 296 352
#     4  11  22  37  58  85 117 157 200 246 298 355
#     4  10  18  31  52  78 111 149 187 233 286 347
#
# _framework density 19.442537999999999
#
# number of rings (size 3 to 8) (size 9 to 14) (size 15 to 20)
#    0.000    1.750    1.250    4.875    1.750    3.500 
#    0.000    0.625    0.000    1.500    0.000    0.000 
#    0.000    0.000    0.000    0.000    0.000    0.000 
#
# Total GULP energy -357390.924344 kJ/mol
# GULP energy per Si atom -5584.233193 kJ/mol
# Density = 1.939829 g / cm^3
# Si number density = 19.442538 Si / 1000 Ang^3
#
#
#
# Elastic Constant Matrix: (Units=GPa)
#
#
# Indices 1 2 3 4 5 6 
#
# 1 105.6931 34.7991 17.0524 0.0000 0.0000 0.0000
# 2 34.7991 79.5512 22.0888 0.0000 0.0000 0.0000
# 3 17.0524 22.0888 47.7476 0.0000 0.0000 0.0000
# 4 0.0000 0.0000 0.0000 19.1446 0.0000 0.0000
# 5 0.0000 0.0000 0.0000 0.0000 31.1014 0.0000
# 6 0.0000 0.0000 0.0000 0.0000 0.0000 19.0980
#
#
#
# Elastic Compliance Matrix: (Units=1/GPa)
#
#
# Indices 1 2 3 4 5 6 
#
# 1 0.011216 -0.004353 -0.001992 0.000000 0.000000 0.000000
# 2 -0.004353 0.016113 -0.005899 0.000000 0.000000 0.000000
# 3 -0.001992 -0.005899 0.024384 0.000000 0.000000 0.000000
# 4 0.000000 0.000000 0.000000 0.052234 0.000000 0.000000
# 5 0.000000 0.000000 0.000000 0.000000 0.032153 0.000000
# 6 0.000000 0.000000 0.000000 0.000000 0.000000 0.052361
#
#
# Mechanical properties :
#
#
# Convention : Reuss Voigt Hill
#
# Bulk Modulus (GPa) = 36.73228 42.31919 39.52574
# Shear Modulus (GPa) = 22.52002 24.47225 23.49613
#
# Velocity S-wave (km/s) = 3.40705 3.55166 3.48011
# Velocity P-wave (km/s) = 5.86610 6.21551 6.04333
#
# Compressibility (1/GPa) = 0.02722401
#
# Stress axis : x y z
#
# Youngs Moduli (GPa) = 89.15822 62.06203 41.01062
#
# Poissons Ratio (x) = 0.27018 0.08168
# Poissons Ratio (y) = 0.38813 0.24194
# Poissons Ratio (z) = 0.17758 0.36613
#
# Static dielectric constant tensor:
#      x y z
#    x 1.679190 0.000000 0.000000 
#    y 0.000000 1.682800 0.000000 
#    z 0.000000 0.000000 1.626140 
# 
# From -- ./inp_files/3816.got.cif
#   From: 2010.05.17/outbox.cif.g08.bks.cpg/sg57_2_cif.got.tgz:3816.got - 2010.06.03 13:58:18.
