data_PCOD9434960
_publ_section_title
;
Structure prediction by ZEFSAII (Michael W. Deem and Ramdas Pophale) SiO2 
 PCOD9434960
Probable space group: P B C M
;
_chemical_formula_sum "Si O2"
_cell_formula_units_Z 48
_cell_length_a 12.370782
_cell_length_b 26.955419
_cell_length_c 8.229608
_cell_angle_alpha 90.000000
_cell_angle_beta 90.000000
_cell_angle_gamma 90.000000
_cell_volume 2744.241892
_symmetry_space_group_name_H-M "P B C M"
_symmetry_group_IT_number 57
_symmetry_cell_setting 'orthorhombic'
loop_
_space_group_symop_operation_xyz
x,y,z
-x,-y,1/2+z
x,1/2-y,-z
-x,1/2+y,1/2-z
-x,-y,-z
x,y,1/2-z
-x,1/2+y,z
x,1/2-y,1/2+z
loop_
_atom_site_type_symbol
_atom_site_label
_atom_site_fract_x
_atom_site_fract_y
_atom_site_fract_z
Si Si1 0.214177 0.070799 0.946324
Si Si2 0.826244 0.306440 0.553913
Si Si3 0.542364 0.946053 0.442713
Si Si4 0.987296 0.620088 0.053993
Si Si5 0.339651 0.610734 0.445301
Si Si6 0.851542 0.036095 0.053151
O O1 0.215528 0.069913 0.750000
O O2 0.338081 0.068488 0.004762
O O3 0.159276 0.019580 0.007569
O O4 0.135877 0.115311 0.998535
O O5 0.820566 0.250000 0.500000
O O6 0.825475 0.308286 0.750000
O O7 0.937135 0.334028 0.500659
O O8 0.723984 0.339969 0.498787
O O9 0.551130 0.950104 0.250000
O O10 0.455181 0.904033 0.485935
O O11 0.500000 0.000000 0.500000
O O12 0.988864 0.619747 0.250000
O O13 0.051825 0.570982 0.993759
O O14 0.348513 0.613051 0.250000
O O15 0.258539 0.565450 0.484488
O O16 0.859761 0.034323 0.250000
#
# Coordination Sequence:
#
# PCOD9434960 Si02
#       6
#     8   8   8   8   8   8
#     4  10  19  30  45  67 100 137 166 199 241 283
#     4   9  19  35  57  79 101 127 159 208 264 306
#     4  11  21  32  48  71 102 140 176 208 244 293
#     4   9  18  31  48  71  97 128 164 201 245 297
#     4   9  17  33  52  72 101 134 166 207 253 294
#     4   8  14  28  46  65  97 132 160 196 240 284
#
# _framework density 17.491168999999999
#
# number of rings (size 3 to 8) (size 9 to 14) (size 15 to 20)
#    0.000    2.667    1.667    3.000    0.000    2.667 
#    0.000    2.500    0.000    1.000    0.000    0.000 
#    0.000    0.000    0.000    0.000    0.000    0.000 
#
# Total GULP energy -267430.626858 kJ/mol
# GULP energy per Si atom -5571.471393 kJ/mol
# Density = 1.745136 g / cm^3
# Si number density = 17.491169 Si / 1000 Ang^3
#
#
#
# Elastic Constant Matrix: (Units=GPa)
#
#
# Indices 1 2 3 4 5 6 
#
# 1 123.1534 62.3659 14.4296 0.0000 0.0000 0.0000
# 2 62.3659 107.0103 12.1391 0.0000 0.0000 0.0000
# 3 14.4296 12.1391 11.6709 0.0000 0.0000 0.0000
# 4 0.0000 0.0000 0.0000 22.7221 0.0000 0.0000
# 5 0.0000 0.0000 0.0000 0.0000 24.3364 0.0000
# 6 0.0000 0.0000 0.0000 0.0000 0.0000 11.0863
#
#
#
# Elastic Compliance Matrix: (Units=1/GPa)
#
#
# Indices 1 2 3 4 5 6 
#
# 1 0.012262 -0.006153 -0.008761 0.000000 0.000000 0.000000
# 2 -0.006153 0.013682 -0.006624 0.000000 0.000000 0.000000
# 3 -0.008761 -0.006624 0.103405 0.000000 0.000000 0.000000
# 4 0.000000 0.000000 0.000000 0.044010 0.000000 0.000000
# 5 0.000000 0.000000 0.000000 0.000000 0.041091 0.000000
# 6 0.000000 0.000000 0.000000 0.000000 0.000000 0.090202
#
#
# Mechanical properties :
#
#
# Convention : Reuss Voigt Hill
#
# Bulk Modulus (GPa) = 11.59105 46.63375 29.11240
# Shear Modulus (GPa) = 13.28073 21.82228 17.55150
#
# Velocity S-wave (km/s) = 2.75850 3.53599 3.17116
# Velocity P-wave (km/s) = 4.09718 6.58712 5.48530
#
# Compressibility (1/GPa) = 0.08627350
#
# Stress axis : x y z
#
# Youngs Moduli (GPa) = 81.55137 73.08839 9.67071
#
# Poissons Ratio (x) = 0.44968 0.08473
# Poissons Ratio (y) = 0.50175 0.06406
# Poissons Ratio (z) = 0.71449 0.48414
#
# Static dielectric constant tensor:
#      x y z
#    x 1.632300 0.000000 0.000000 
#    y 0.000000 1.587360 0.000000 
#    z 0.000000 0.000000 1.614480 
# 
# From -- ./inp_files/3263.got.cif
#   From: 2010.05.17/outbox.cif.g08.bks.cpg/sg57_2_cif.got.tgz:3263.got - 2010.06.03 13:58:18.
