data_PCOD9434549
_publ_section_title
;
Structure prediction by ZEFSAII (Michael W. Deem and Ramdas Pophale) SiO2 
 PCOD9434549
Probable space group: P B C M
;
_chemical_formula_sum "Si O2"
_cell_formula_units_Z 40
_cell_length_a 9.115613
_cell_length_b 16.855644
_cell_length_c 10.814472
_cell_angle_alpha 90.000000
_cell_angle_beta 90.000000
_cell_angle_gamma 90.000000
_cell_volume 1661.638514
_symmetry_space_group_name_H-M "P B C M"
_symmetry_group_IT_number 57
_symmetry_cell_setting 'orthorhombic'
loop_
_space_group_symop_operation_xyz
x,y,z
-x,-y,1/2+z
x,1/2-y,-z
-x,1/2+y,1/2-z
-x,-y,-z
x,y,1/2-z
-x,1/2+y,z
x,1/2-y,1/2+z
loop_
_atom_site_type_symbol
_atom_site_label
_atom_site_fract_x
_atom_site_fract_y
_atom_site_fract_z
Si Si1 0.026023 0.157636 0.510531
Si Si2 0.966272 0.433117 0.250000
Si Si3 0.346180 0.813576 0.750000
Si Si4 0.644298 0.620914 0.250000
Si Si5 0.051161 0.398299 0.750000
Si Si6 0.598119 0.250000 0.500000
Si Si7 0.302834 0.002545 0.750000
Si Si8 0.632871 0.891733 0.022579
O O1 0.002275 0.250000 0.500000
O O2 0.948117 0.117268 0.626880
O O3 0.979157 0.116432 0.381755
O O4 0.201441 0.143716 0.530001
O O5 0.131682 0.470476 0.250000
O O6 0.876955 0.514454 0.250000
O O7 0.524368 0.809659 0.750000
O O8 0.307260 0.773168 0.879365
O O9 0.315083 0.907646 0.750000
O O10 0.806398 0.658767 0.250000
O O11 0.622296 0.578409 0.380956
O O12 0.491872 0.175596 0.533453
O O13 0.372029 0.042514 0.628265
#
# Coordination Sequence:
#
# PCOD9434549 Si02
#       8
#     8   4   4   4   4   4   4   8
#     4  10  18  31  54  83 106 133 173 222 270 310
#     4  10  21  34  53  78 112 144 169 213 263 316
#     4  10  21  35  53  80 103 138 182 219 268 311
#     4   8  18  30  50  78 106 127 167 215 266 306
#     4  10  19  33  51  78 114 137 171 210 271 315
#     4  10  18  32  54  78 106 134 172 226 270 308
#     4  10  21  34  51  76 109 144 177 209 262 322
#     4   9  17  31  51  80 109 130 164 225 277 307
#
# _framework density 24.072624000000001
#
# number of rings (size 3 to 8) (size 9 to 14) (size 15 to 20)
#    0.000    2.400    1.000    1.800    0.000    3.200 
#    0.000    1.000    2.200    0.000    5.200    0.000 
#    0.000    0.000    0.000    0.000    0.000    0.000 
#
# Total GULP energy -223510.672399 kJ/mol
# GULP energy per Si atom -5587.766810 kJ/mol
# Density = 2.401783 g / cm^3
# Si number density = 24.072624 Si / 1000 Ang^3
#
#
#
# Elastic Constant Matrix: (Units=GPa)
#
#
# Indices 1 2 3 4 5 6 
#
# 1 62.9932 17.1241 8.5672 0.0000 0.0000 0.0000
# 2 17.1241 160.0829 117.2467 0.0000 0.0000 0.0000
# 3 8.5672 117.2467 280.6144 0.0000 0.0000 0.0000
# 4 0.0000 0.0000 0.0000 46.5068 0.0000 0.0000
# 5 0.0000 0.0000 0.0000 0.0000 -6.9268 0.0000
# 6 0.0000 0.0000 0.0000 0.0000 0.0000 19.9281
#
#
#
# Elastic Compliance Matrix: (Units=1/GPa)
#
#
# Indices 1 2 3 4 5 6 
#
# 1 0.016372 -0.001996 0.000334 0.000000 0.000000 0.000000
# 2 -0.001996 0.009245 -0.003802 0.000000 0.000000 0.000000
# 3 0.000334 -0.003802 0.005142 0.000000 0.000000 0.000000
# 4 0.000000 0.000000 0.000000 0.021502 0.000000 0.000000
# 5 0.000000 0.000000 0.000000 0.000000 -0.144366 0.000000
# 6 0.000000 0.000000 0.000000 0.000000 0.000000 0.050180
#
#
# Mechanical properties :
#
#
# Convention : Reuss Voigt Hill
#
# Bulk Modulus (GPa) = 50.42545 87.72960 69.07753
# Shear Modulus (GPa) = -205.01997 35.95180 -84.53409
#
# Velocity S-wave (km/s) = -9.23862 3.86874 -5.93233
# Velocity P-wave (km/s) = 9.63380 7.51525 4.26211
#
# Compressibility (1/GPa) = 0.01983125
#
# Stress axis : x y z
#
# Youngs Moduli (GPa) = 61.08032 108.17034 194.48317
#
# Poissons Ratio (x) = 0.21591 -0.06499
# Poissons Ratio (y) = 0.12192 0.73936
# Poissons Ratio (z) = -0.02041 0.41123
#
# Static dielectric constant tensor:
#      x y z
#    x 2.049250 0.000000 0.000000 
#    y 0.000000 1.870320 0.000000 
#    z 0.000000 0.000000 1.938440 
# 
# From -- ./inp_files/12795.got.cif
#   From: 2010.05.17/outbox.cif.g08.bks.cpg/sg57_7_cif.got.tgz:12795.got - 2010.06.03 13:58:18.
