data_PCOD9434908
_publ_section_title
;
Structure prediction by ZEFSAII (Michael W. Deem and Ramdas Pophale) SiO2 
 PCOD9434908
Probable space group: P B C M
;
_chemical_formula_sum "Si O2"
_cell_formula_units_Z 48
_cell_length_a 4.850428
_cell_length_b 21.953274
_cell_length_c 15.731251
_cell_angle_alpha 90.000000
_cell_angle_beta 90.000000
_cell_angle_gamma 90.000000
_cell_volume 1675.107259
_symmetry_space_group_name_H-M "P B C M"
_symmetry_group_IT_number 57
_symmetry_cell_setting 'orthorhombic'
loop_
_space_group_symop_operation_xyz
x,y,z
-x,-y,1/2+z
x,1/2-y,-z
-x,1/2+y,1/2-z
-x,-y,-z
x,y,1/2-z
-x,1/2+y,z
x,1/2-y,1/2+z
loop_
_atom_site_type_symbol
_atom_site_label
_atom_site_fract_x
_atom_site_fract_y
_atom_site_fract_z
Si Si1 0.765144 0.951874 0.088819
Si Si2 0.041629 0.925895 0.593061
Si Si3 0.590053 0.337256 0.750000
Si Si4 0.240069 0.786172 0.250000
Si Si5 0.383424 0.180769 0.589931
Si Si6 0.191497 0.303199 0.902690
Si Si7 0.360389 0.457572 0.750000
Si Si8 0.131250 0.922579 0.250000
O O1 0.983437 0.941978 0.163629
O O2 0.578956 0.892160 0.100765
O O3 0.899071 0.939725 0.997194
O O4 0.707593 0.024603 0.093096
O O5 0.057377 0.852245 0.593473
O O6 0.831977 0.941354 0.669203
O O7 0.830470 0.286151 0.750000
O O8 0.391626 0.323303 0.828369
O O9 0.620884 0.410662 0.750000
O O10 0.421731 0.795179 0.164362
O O11 0.079138 0.849759 0.250000
O O12 0.130504 0.230597 0.604889
O O13 0.376241 0.187663 0.488180
O O14 0.400147 0.531338 0.750000
#
# Coordination Sequence:
#
# PCOD9434908 Si02
#       8
#     8   8   4   4   8   8   4   4
#     4   9  16  27  45  67  91 117 145 182 226 271
#     4   8  14  25  45  69  89 112 148 186 222 260
#     4   8  14  27  48  67  84 110 150 188 214 250
#     4  10  19  29  44  67  91 118 150 184 220 262
#     4   9  16  27  45  67  89 114 148 186 218 257
#     4   8  14  25  45  70  86 107 148 192 218 246
#     4   8  14  27  48  71  90 114 150 190 218 254
#     4  10  19  29  44  67  95 122 144 178 232 274
#
# _framework density 28.654882000000001
#
# number of rings (size 3 to 8) (size 9 to 14) (size 15 to 20)
#    0.000    3.333    0.000    0.500    0.000    0.000 
#    0.000    0.000    0.000   54.000    0.000    1.167 
#    0.000    0.000    0.000    0.000    0.000    0.000 
#
# Total GULP energy -267401.265374 kJ/mol
# GULP energy per Si atom -5570.859695 kJ/mol
# Density = 2.858966 g / cm^3
# Si number density = 28.654882 Si / 1000 Ang^3
#
#
#
# Elastic Constant Matrix: (Units=GPa)
#
#
# Indices 1 2 3 4 5 6 
#
# 1 79.9858 28.7094 47.0462 0.0000 0.0000 0.0000
# 2 28.7094 129.8376 94.3900 0.0000 0.0000 0.0000
# 3 47.0462 94.3900 174.7488 0.0000 0.0000 0.0000
# 4 0.0000 0.0000 0.0000 62.8508 0.0000 0.0000
# 5 0.0000 0.0000 0.0000 0.0000 10.1694 0.0000
# 6 0.0000 0.0000 0.0000 0.0000 0.0000 30.9571
#
#
#
# Elastic Compliance Matrix: (Units=1/GPa)
#
#
# Indices 1 2 3 4 5 6 
#
# 1 0.014885 -0.000622 -0.003671 0.000000 0.000000 0.000000
# 2 -0.000622 0.012708 -0.006697 0.000000 0.000000 0.000000
# 3 -0.003671 -0.006697 0.010328 0.000000 0.000000 0.000000
# 4 0.000000 0.000000 0.000000 0.015911 0.000000 0.000000
# 5 0.000000 0.000000 0.000000 0.000000 0.098334 0.000000
# 6 0.000000 0.000000 0.000000 0.000000 0.000000 0.032303
#
#
# Mechanical properties :
#
#
# Convention : Reuss Voigt Hill
#
# Bulk Modulus (GPa) = 62.73330 80.54040 71.63685
# Shear Modulus (GPa) = 23.61138 35.09057 29.35098
#
# Velocity S-wave (km/s) = 2.87364 3.50322 3.20393
# Velocity P-wave (km/s) = 5.74026 6.67319 6.22423
#
# Compressibility (1/GPa) = 0.01594050
#
# Stress axis : x y z
#
# Youngs Moduli (GPa) = 67.18197 78.69163 96.82468
#
# Poissons Ratio (x) = 0.04898 0.35546
# Poissons Ratio (y) = 0.04182 0.64839
# Poissons Ratio (z) = 0.24663 0.52696
#
# Static dielectric constant tensor:
#      x y z
#    x 2.303270 0.000000 0.000000 
#    y 0.000000 2.480260 0.000000 
#    z 0.000000 0.000000 2.337250 
# 
# From -- ./inp_files/16829.got.cif
#   From: 2010.05.17/outbox.cif.g08.bks.cpg/sg57_9_cif.got.tgz:16829.got - 2010.06.03 13:58:18.
