data_PCOD9434212
_publ_section_title
;
Structure prediction by ZEFSAII (Michael W. Deem and Ramdas Pophale) SiO2 
 PCOD9434212
Probable space group: P B C M
;
_chemical_formula_sum "Si O2"
_cell_formula_units_Z 56
_cell_length_a 18.270047
_cell_length_b 21.803290
_cell_length_c 8.972576
_cell_angle_alpha 90.000000
_cell_angle_beta 90.000000
_cell_angle_gamma 90.000000
_cell_volume 3574.199926
_symmetry_space_group_name_H-M "P B C M"
_symmetry_group_IT_number 57
_symmetry_cell_setting 'orthorhombic'
loop_
_space_group_symop_operation_xyz
x,y,z
-x,-y,1/2+z
x,1/2-y,-z
-x,1/2+y,1/2-z
-x,-y,-z
x,y,1/2-z
-x,1/2+y,z
x,1/2-y,1/2+z
loop_
_atom_site_type_symbol
_atom_site_label
_atom_site_fract_x
_atom_site_fract_y
_atom_site_fract_z
Si Si1 0.937293 0.071776 0.927811
Si Si2 0.096018 0.058583 0.925844
Si Si3 0.243667 0.457781 0.925417
Si Si4 0.606349 0.536369 0.926637
Si Si5 0.780355 0.104478 0.575333
Si Si6 0.450125 0.589003 0.573075
Si Si7 0.655641 0.183363 0.072995
O O1 0.934346 0.055043 0.750000
O O2 0.866871 0.114276 0.953930
O O3 0.019848 0.094187 0.957610
O O4 0.923447 0.011080 0.025273
O O5 0.110399 0.061165 0.750000
O O6 0.169889 0.073591 0.013708
O O7 0.251452 0.447424 0.750000
O O8 0.233925 0.531645 0.947691
O O9 0.316983 0.439514 0.011549
O O10 0.611263 0.524386 0.750000
O O11 0.536834 0.580522 0.952199
O O12 0.587273 0.472918 0.010410
O O13 0.765579 0.117352 0.750000
O O14 0.726710 0.144245 0.475882
O O15 0.436680 0.592761 0.750000
O O16 0.413446 0.645895 0.491258
O O17 0.651470 0.187778 0.250000
O O18 0.659357 0.250000 0.000000
#
# Coordination Sequence:
#
# PCOD9434212 Si02
#       7
#     8   8   8   8   8   8   8
#     4   8  15  26  39  56  82 117 149 183 222 260
#     4   9  15  23  37  58  85 116 152 184 215 261
#     4  10  18  27  42  63  93 125 152 188 230 271
#     4  10  19  30  48  70  92 121 156 191 230 282
#     4   9  17  30  45  62  87 118 154 192 232 272
#     4  10  20  34  49  68  93 119 151 193 238 282
#     4  12  24  36  51  68  90 121 159 198 238 281
#
# _framework density 15.667842
#
# number of rings (size 3 to 8) (size 9 to 14) (size 15 to 20)
#    0.000    2.286    1.429    3.857    0.000    4.571 
#    0.000    0.000    0.000    0.000    0.000    0.000 
#    0.000    1.143    0.000    5.429    0.000    5.000 
#
# Total GULP energy -312037.279853 kJ/mol
# GULP energy per Si atom -5572.094283 kJ/mol
# Density = 1.563218 g / cm^3
# Si number density = 15.667842 Si / 1000 Ang^3
#
#
#
# Elastic Constant Matrix: (Units=GPa)
#
#
# Indices 1 2 3 4 5 6 
#
# 1 136.8247 19.8350 62.3575 0.0000 0.0000 0.0000
# 2 19.8350 31.3199 30.1789 0.0000 0.0000 0.0000
# 3 62.3575 30.1789 91.5739 0.0000 0.0000 0.0000
# 4 0.0000 0.0000 0.0000 16.5190 0.0000 0.0000
# 5 0.0000 0.0000 0.0000 0.0000 28.3548 0.0000
# 6 0.0000 0.0000 0.0000 0.0000 0.0000 7.0203
#
#
#
# Elastic Compliance Matrix: (Units=1/GPa)
#
#
# Indices 1 2 3 4 5 6 
#
# 1 0.010600 0.000355 -0.007335 0.000000 0.000000 0.000000
# 2 0.000355 0.046797 -0.015664 0.000000 0.000000 0.000000
# 3 -0.007335 -0.015664 0.021077 0.000000 0.000000 0.000000
# 4 0.000000 0.000000 0.000000 0.060536 0.000000 0.000000
# 5 0.000000 0.000000 0.000000 0.000000 0.035267 0.000000
# 6 0.000000 0.000000 0.000000 0.000000 0.000000 0.142444
#
#
# Mechanical properties :
#
#
# Convention : Reuss Voigt Hill
#
# Bulk Modulus (GPa) = 30.13324 53.82903 41.98113
# Shear Modulus (GPa) = 13.40221 20.20196 16.80209
#
# Velocity S-wave (km/s) = 2.92789 3.59470 3.27829
# Velocity P-wave (km/s) = 5.54115 7.18750 6.41734
#
# Compressibility (1/GPa) = 0.03318594
#
# Stress axis : x y z
#
# Youngs Moduli (GPa) = 94.33826 21.36877 47.44456
#
# Poissons Ratio (x) = -0.00758 0.34801
# Poissons Ratio (y) = -0.03347 0.74317
# Poissons Ratio (z) = 0.69198 0.33472
#
# Static dielectric constant tensor:
#      x y z
#    x 1.581510 0.000000 0.000000 
#    y 0.000000 1.480140 0.000000 
#    z 0.000000 0.000000 1.504480 
# 
# From -- ./inp_files/7011.got.cif
#   From: 2010.05.17/outbox.cif.g08.bks.cpg/sg57_4_cif.got.tgz:7011.got - 2010.06.03 13:58:18.
