data_PCOD9434258
_publ_section_title
;
Structure prediction by ZEFSAII (Michael W. Deem and Ramdas Pophale) SiO2 
 PCOD9434258
Probable space group: P B C M
;
_chemical_formula_sum "Si O2"
_cell_formula_units_Z 48
_cell_length_a 11.877507
_cell_length_b 27.586386
_cell_length_c 8.460522
_cell_angle_alpha 90.000000
_cell_angle_beta 90.000000
_cell_angle_gamma 90.000000
_cell_volume 2772.153426
_symmetry_space_group_name_H-M "P B C M"
_symmetry_group_IT_number 57
_symmetry_cell_setting 'orthorhombic'
loop_
_space_group_symop_operation_xyz
x,y,z
-x,-y,1/2+z
x,1/2-y,-z
-x,1/2+y,1/2-z
-x,-y,-z
x,y,1/2-z
-x,1/2+y,z
x,1/2-y,1/2+z
loop_
_atom_site_type_symbol
_atom_site_label
_atom_site_fract_x
_atom_site_fract_y
_atom_site_fract_z
Si Si1 0.339285 0.869382 0.566438
Si Si2 0.291031 0.121512 0.570526
Si Si3 0.887005 0.803209 0.440722
Si Si4 0.857525 0.197160 0.440835
Si Si5 0.487834 0.200119 0.928014
Si Si6 0.516100 0.945925 0.439294
O O1 0.328062 0.882050 0.750000
O O2 0.220366 0.848095 0.507286
O O3 0.420232 0.823231 0.541834
O O4 0.408524 0.912596 0.484228
O O5 0.258623 0.106675 0.750000
O O6 0.185444 0.150592 0.498973
O O7 0.384604 0.163501 0.581164
O O8 0.366402 0.078128 0.497844
O O9 0.847503 0.750000 0.500000
O O10 0.879881 0.802799 0.250000
O O11 0.016010 0.808008 0.494974
O O12 0.815368 0.250000 0.500000
O O13 0.858249 0.198203 0.250000
O O14 0.533736 0.205545 0.750000
O O15 0.448782 0.250000 0.000000
O O16 0.524501 0.945253 0.250000
O O17 0.500000 0.000000 0.500000
#
# Coordination Sequence:
#
# PCOD9434258 Si02
#       6
#     8   8   8   8   8   8
#     4  10  20  33  49  70  96 127 163 201 244 290
#     4   8  17  31  47  69  96 126 158 197 242 288
#     4  10  18  30  48  70  99 134 168 198 233 279
#     4  10  20  32  47  70 101 135 169 203 237 279
#     4  10  18  28  43  66  97 128 159 196 240 290
#     4  10  20  36  56  77 100 124 157 201 252 303
#
# _framework density 17.315059000000002
#
# number of rings (size 3 to 8) (size 9 to 14) (size 15 to 20)
#    0.000    2.333    0.000    5.500    0.000    4.000 
#    0.000    9.167    0.000    1.000    0.000    0.000 
#    0.000    0.000    0.000    0.000    0.000    0.000 
#
# Total GULP energy -267223.773145 kJ/mol
# GULP energy per Si atom -5567.161941 kJ/mol
# Density = 1.727565 g / cm^3
# Si number density = 17.315059 Si / 1000 Ang^3
#
#
#
# Elastic Constant Matrix: (Units=GPa)
#
#
# Indices 1 2 3 4 5 6 
#
# 1 81.1682 47.4424 11.5194 0.0000 0.0000 0.0000
# 2 47.4424 94.7106 24.8637 0.0000 0.0000 0.0000
# 3 11.5194 24.8637 34.6966 0.0000 0.0000 0.0000
# 4 0.0000 0.0000 0.0000 20.9672 0.0000 0.0000
# 5 0.0000 0.0000 0.0000 0.0000 17.7019 0.0000
# 6 0.0000 0.0000 0.0000 0.0000 0.0000 24.4707
#
#
#
# Elastic Compliance Matrix: (Units=1/GPa)
#
#
# Indices 1 2 3 4 5 6 
#
# 1 0.017430 -0.008883 0.000579 0.000000 0.000000 0.000000
# 2 -0.008883 0.017532 -0.009614 0.000000 0.000000 0.000000
# 3 0.000579 -0.009614 0.035519 0.000000 0.000000 0.000000
# 4 0.000000 0.000000 0.000000 0.047693 0.000000 0.000000
# 5 0.000000 0.000000 0.000000 0.000000 0.056491 0.000000
# 6 0.000000 0.000000 0.000000 0.000000 0.000000 0.040865
#
#
# Mechanical properties :
#
#
# Convention : Reuss Voigt Hill
#
# Bulk Modulus (GPa) = 28.86526 42.02516 35.44521
# Shear Modulus (GPa) = 19.01747 21.07794 20.04771
#
# Velocity S-wave (km/s) = 3.31769 3.49279 3.40637
# Velocity P-wave (km/s) = 5.60204 6.37101 5.99886
#
# Compressibility (1/GPa) = 0.03464372
#
# Stress axis : x y z
#
# Youngs Moduli (GPa) = 57.37230 57.03808 28.15403
#
# Poissons Ratio (x) = 0.50667 -0.01629
# Poissons Ratio (y) = 0.50964 0.27068
# Poissons Ratio (z) = -0.03320 0.54839
#
# Static dielectric constant tensor:
#      x y z
#    x 1.622890 0.000000 0.000000 
#    y 0.000000 1.602720 0.000000 
#    z 0.000000 0.000000 1.670170 
# 
# From -- ./inp_files/3309.got.cif
#   From: 2010.05.17/outbox.cif.g08.bks.cpg/sg57_2_cif.got.tgz:3309.got - 2010.06.03 13:58:18.
