data_PCOD9434615
_publ_section_title
;
Structure prediction by ZEFSAII (Michael W. Deem and Ramdas Pophale) SiO2 
 PCOD9434615
Probable space group: P B C M
;
_chemical_formula_sum "Si O2"
_cell_formula_units_Z 56
_cell_length_a 15.897661
_cell_length_b 5.478509
_cell_length_c 26.714951
_cell_angle_alpha 90.000000
_cell_angle_beta 90.000000
_cell_angle_gamma 90.000000
_cell_volume 2326.751450
_symmetry_space_group_name_H-M "P B C M"
_symmetry_group_IT_number 57
_symmetry_cell_setting 'orthorhombic'
loop_
_space_group_symop_operation_xyz
x,y,z
-x,-y,1/2+z
x,1/2-y,-z
-x,1/2+y,1/2-z
-x,-y,-z
x,y,1/2-z
-x,1/2+y,z
x,1/2-y,1/2+z
loop_
_atom_site_type_symbol
_atom_site_label
_atom_site_fract_x
_atom_site_fract_y
_atom_site_fract_z
Si Si1 0.317404 0.315594 0.906274
Si Si2 0.895959 0.855080 0.053620
Si Si3 0.783538 0.726990 0.194245
Si Si4 0.108292 0.774364 0.804664
Si Si5 0.918551 0.141984 0.909795
Si Si6 0.498296 0.837456 0.866703
Si Si7 0.656857 0.315776 0.944157
O O1 0.281618 0.266908 0.851118
O O2 0.418521 0.335686 0.900990
O O3 0.291045 0.579158 0.926730
O O4 0.299910 0.081582 0.940960
O O5 0.876956 0.626458 0.090252
O O6 0.997358 0.887120 0.057654
O O7 0.868021 0.127456 0.068007
O O8 0.872295 0.750000 0.000000
O O9 0.744971 0.749432 0.250000
O O10 0.829799 0.462073 0.194132
O O11 0.844129 0.965945 0.189886
O O12 0.065686 0.773628 0.750000
O O13 0.054697 0.727936 0.854257
O O14 0.499179 0.587328 0.836755
O O15 0.418611 0.837298 0.903772
O O16 0.627465 0.250000 0.000000
#
# Coordination Sequence:
#
# PCOD9434615 Si02
#       7
#     8   8   8   8   8   8   8
#     4  10  19  32  52  74 100 130 172 216 248 301
#     4  10  19  33  55  83 110 143 178 201 240 304
#     4  10  21  38  58  75  95 134 180 219 260 303
#     4  10  21  37  57  79 102 132 175 218 260 307
#     4  10  18  32  54  80 108 138 172 215 254 293
#     4   8  16  27  44  71  99 125 160 199 246 302
#     4  10  19  31  51  76 104 136 164 198 255 318
#
# _framework density 24.067889999999998
#
# number of rings (size 3 to 8) (size 9 to 14) (size 15 to 20)
#    0.000    2.286    0.000    4.286    0.000    5.143 
#    0.000    2.857    0.000   30.000    0.000    0.000 
#    0.000    0.000    0.000    0.000    0.000    0.000 
#
# Total GULP energy -312514.894641 kJ/mol
# GULP energy per Si atom -5580.623119 kJ/mol
# Density = 2.401311 g / cm^3
# Si number density = 24.067890 Si / 1000 Ang^3
#
#
#
# Elastic Constant Matrix: (Units=GPa)
#
#
# Indices 1 2 3 4 5 6 
#
# 1 51.3429 20.7665 -1.1600 0.0000 0.0000 0.0000
# 2 20.7665 265.4927 20.1735 0.0000 0.0000 0.0000
# 3 -1.1600 20.1735 96.9556 0.0000 0.0000 0.0000
# 4 0.0000 0.0000 0.0000 33.1132 0.0000 0.0000
# 5 0.0000 0.0000 0.0000 0.0000 2.5277 0.0000
# 6 0.0000 0.0000 0.0000 0.0000 0.0000 22.4655
#
#
#
# Elastic Compliance Matrix: (Units=1/GPa)
#
#
# Indices 1 2 3 4 5 6 
#
# 1 0.020145 -0.001620 0.000578 0.000000 0.000000 0.000000
# 2 -0.001620 0.003957 -0.000843 0.000000 0.000000 0.000000
# 3 0.000578 -0.000843 0.010496 0.000000 0.000000 0.000000
# 4 0.000000 0.000000 0.000000 0.030199 0.000000 0.000000
# 5 0.000000 0.000000 0.000000 0.000000 0.395618 0.000000
# 6 0.000000 0.000000 0.000000 0.000000 0.000000 0.044513
#
#
# Mechanical properties :
#
#
# Convention : Reuss Voigt Hill
#
# Bulk Modulus (GPa) = 32.43612 54.81679 43.62646
# Shear Modulus (GPa) = 9.63440 36.55538 23.09489
#
# Velocity S-wave (km/s) = 2.00292 3.90146 3.10106
# Velocity P-wave (km/s) = 4.34225 6.56663 5.56667
#
# Compressibility (1/GPa) = 0.03082983
#
# Stress axis : x y z
#
# Youngs Moduli (GPa) = 49.64003 252.69722 95.27190
#
# Poissons Ratio (x) = 0.40928 -0.05507
# Poissons Ratio (y) = 0.08040 0.08029
# Poissons Ratio (z) = -0.02869 0.21297
#
# Static dielectric constant tensor:
#      x y z
#    x 1.947070 0.000000 0.000000 
#    y 0.000000 2.047760 0.000000 
#    z 0.000000 0.000000 1.883910 
# 
# From -- ./inp_files/27639.got.cif
#   From: 2010.05.17/outbox.cif.g08.bks.cpg/sg57_14_cif.got.tgz:27639.got - 2010.06.03 13:58:18.
