data_PCOD9434738
_publ_section_title
;
Structure prediction by ZEFSAII (Michael W. Deem and Ramdas Pophale) SiO2 
 PCOD9434738
Probable space group: P B C M
;
_chemical_formula_sum "Si O2"
_cell_formula_units_Z 48
_cell_length_a 8.552700
_cell_length_b 22.322072
_cell_length_c 13.577557
_cell_angle_alpha 90.000000
_cell_angle_beta 90.000000
_cell_angle_gamma 90.000000
_cell_volume 2592.145516
_symmetry_space_group_name_H-M "P B C M"
_symmetry_group_IT_number 57
_symmetry_cell_setting 'orthorhombic'
loop_
_space_group_symop_operation_xyz
x,y,z
-x,-y,1/2+z
x,1/2-y,-z
-x,1/2+y,1/2-z
-x,-y,-z
x,y,1/2-z
-x,1/2+y,z
x,1/2-y,1/2+z
loop_
_atom_site_type_symbol
_atom_site_label
_atom_site_fract_x
_atom_site_fract_y
_atom_site_fract_z
Si Si1 0.629848 0.991747 0.637415
Si Si2 0.756688 0.657365 0.958378
Si Si3 0.439395 0.600366 0.000954
Si Si4 0.938629 0.942825 0.943324
Si Si5 0.880937 0.728446 0.362144
Si Si6 0.178360 0.847036 0.634758
O O1 0.582093 0.000141 0.750000
O O2 0.516428 0.944906 0.581353
O O3 0.800416 0.962442 0.628925
O O4 0.633540 0.054535 0.578318
O O5 0.578212 0.637393 0.948433
O O6 0.833532 0.703107 0.881670
O O7 0.861790 0.599077 0.972873
O O8 0.774474 0.690810 0.063559
O O9 0.319982 0.643606 0.058645
O O10 0.068673 0.904811 0.886404
O O11 0.000000 0.000000 0.000000
O O12 0.852663 0.711375 0.250000
O O13 0.060701 0.709191 0.384243
O O14 0.225970 0.845259 0.750000
#
# Coordination Sequence:
#
# PCOD9434738 Si02
#       6
#     8   8   8   8   8   8
#     4  10  20  34  53  82 121 157 186 225 285 351
#     4   9  20  36  56  79 110 149 185 231 287 339
#     4  10  20  34  55  84 117 151 189 236 285 343
#     4  10  18  34  56  78 115 151 184 227 280 345
#     4   9  19  38  60  79 104 145 196 240 282 334
#     4  10  19  33  58  85 110 147 196 240 278 332
#
# _framework density 18.517478000000001
#
# number of rings (size 3 to 8) (size 9 to 14) (size 15 to 20)
#    0.000    2.333    1.667    1.000    0.000    5.333 
#    0.000    8.333    0.000    0.000    0.000    0.000 
#    0.000    0.000    0.000    0.000    0.000    0.000 
#
# Total GULP energy -267512.461950 kJ/mol
# GULP energy per Si atom -5573.176291 kJ/mol
# Density = 1.847533 g / cm^3
# Si number density = 18.517478 Si / 1000 Ang^3
#
#
#
# Elastic Constant Matrix: (Units=GPa)
#
#
# Indices 1 2 3 4 5 6 
#
# 1 43.5444 30.5328 -0.0711 0.0000 0.0000 0.0000
# 2 30.5328 78.8790 4.2520 0.0000 0.0000 0.0000
# 3 -0.0711 4.2520 54.5672 0.0000 0.0000 0.0000
# 4 0.0000 0.0000 0.0000 14.0184 0.0000 0.0000
# 5 0.0000 0.0000 0.0000 0.0000 17.3173 0.0000
# 6 0.0000 0.0000 0.0000 0.0000 0.0000 24.0978
#
#
#
# Elastic Compliance Matrix: (Units=1/GPa)
#
#
# Indices 1 2 3 4 5 6 
#
# 1 0.031574 -0.012276 0.000998 0.000000 0.000000 0.000000
# 2 -0.012276 0.017504 -0.001380 0.000000 0.000000 0.000000
# 3 0.000998 -0.001380 0.018435 0.000000 0.000000 0.000000
# 4 0.000000 0.000000 0.000000 0.071335 0.000000 0.000000
# 5 0.000000 0.000000 0.000000 0.000000 0.057746 0.000000
# 6 0.000000 0.000000 0.000000 0.000000 0.000000 0.041498
#
#
# Mechanical properties :
#
#
# Convention : Reuss Voigt Hill
#
# Bulk Modulus (GPa) = 23.69837 27.37978 25.53908
# Shear Modulus (GPa) = 18.01982 20.57183 19.29582
#
# Velocity S-wave (km/s) = 3.12288 3.33669 3.23156
# Velocity P-wave (km/s) = 5.08220 5.44635 5.26742
#
# Compressibility (1/GPa) = 0.04219699
#
# Stress axis : x y z
#
# Youngs Moduli (GPa) = 31.67144 57.13070 54.24511
#
# Poissons Ratio (x) = 0.70132 -0.05412
# Poissons Ratio (y) = 0.38879 0.07485
# Poissons Ratio (z) = -0.03160 0.07883
#
# Static dielectric constant tensor:
#      x y z
#    x 1.659080 0.000000 0.000000 
#    y 0.000000 1.686060 0.000000 
#    z 0.000000 0.000000 1.629100 
# 
# From -- ./inp_files/16550.got.cif
#   From: 2010.05.17/outbox.cif.g08.bks.cpg/sg57_9_cif.got.tgz:16550.got - 2010.06.03 13:58:18.
