data_PCOD9434177
_publ_section_title
;
Structure prediction by ZEFSAII (Michael W. Deem and Ramdas Pophale) SiO2 
 PCOD9434177
Probable space group: P B C M
;
_chemical_formula_sum "Si O2"
_cell_formula_units_Z 32
_cell_length_a 10.214352
_cell_length_b 13.565449
_cell_length_c 10.290841
_cell_angle_alpha 90.000000
_cell_angle_beta 90.000000
_cell_angle_gamma 90.000000
_cell_volume 1425.922301
_symmetry_space_group_name_H-M "P B C M"
_symmetry_group_IT_number 57
_symmetry_cell_setting 'orthorhombic'
loop_
_space_group_symop_operation_xyz
x,y,z
-x,-y,1/2+z
x,1/2-y,-z
-x,1/2+y,1/2-z
-x,-y,-z
x,y,1/2-z
-x,1/2+y,z
x,1/2-y,1/2+z
loop_
_atom_site_type_symbol
_atom_site_label
_atom_site_fract_x
_atom_site_fract_y
_atom_site_fract_z
Si Si1 0.400446 0.250000 0.000000
Si Si2 0.977748 0.659427 0.250000
Si Si3 0.853253 0.369446 0.517359
Si Si4 0.565910 0.427473 0.897986
Si Si5 0.965186 0.116030 0.750000
Si Si6 0.758238 0.804875 0.250000
O O1 0.491065 0.324667 0.920160
O O2 0.317192 0.193673 0.887516
O O3 0.030613 0.611152 0.119927
O O4 0.051373 0.765036 0.250000
O O5 0.829194 0.696159 0.250000
O O6 0.840419 0.250000 0.500000
O O7 0.717819 0.410730 0.570345
O O8 0.893697 0.415851 0.380099
O O9 0.550653 0.461876 0.750000
O O10 0.500000 0.500000 0.000000
O O11 0.123843 0.114564 0.750000
#
# Coordination Sequence:
#
# PCOD9434177 Si02
#       6
#     4   4   8   8   4   4
#     4  12  24  42  70  96 136 182 212 264 346 408
#     4   8  16  31  58  94 121 160 216 266 307 380
#     4  10  17  35  64  94 120 162 221 268 317 370
#     4  12  28  44  66  98 136 177 225 278 328 394
#     4   8  18  29  60 100 119 156 212 272 313 384
#     4  10  20  36  64 104 132 166 220 260 342 406
#
# _framework density 22.441616
#
# number of rings (size 3 to 8) (size 9 to 14) (size 15 to 20)
#    0.750    1.000    3.750    1.500    3.500    0.000 
#    0.000    0.000    0.000    9.000    0.000    0.000 
#    0.000    0.000    0.000    0.000    0.000    0.000 
#
# Total GULP energy -178635.844589 kJ/mol
# GULP energy per Si atom -5582.370143 kJ/mol
# Density = 2.239054 g / cm^3
# Si number density = 22.441616 Si / 1000 Ang^3
#
#
#
# Elastic Constant Matrix: (Units=GPa)
#
#
# Indices 1 2 3 4 5 6 
#
# 1 80.9255 11.8901 41.9640 0.0000 0.0000 0.0000
# 2 11.8901 63.4059 11.2516 0.0000 0.0000 0.0000
# 3 41.9640 11.2516 177.0100 0.0000 0.0000 0.0000
# 4 0.0000 0.0000 0.0000 -8.6852 0.0000 0.0000
# 5 0.0000 0.0000 0.0000 0.0000 58.8604 0.0000
# 6 0.0000 0.0000 0.0000 0.0000 0.0000 20.8716
#
#
#
# Elastic Compliance Matrix: (Units=1/GPa)
#
#
# Indices 1 2 3 4 5 6 
#
# 1 0.014364 -0.002113 -0.003271 0.000000 0.000000 0.000000
# 2 -0.002113 0.016262 -0.000533 0.000000 0.000000 0.000000
# 3 -0.003271 -0.000533 0.006459 0.000000 0.000000 0.000000
# 4 0.000000 0.000000 0.000000 -0.115138 0.000000 0.000000
# 5 0.000000 0.000000 0.000000 0.000000 0.016989 0.000000
# 6 0.000000 0.000000 0.000000 0.000000 0.000000 0.047912
#
#
# Mechanical properties :
#
#
# Convention : Reuss Voigt Hill
#
# Bulk Modulus (GPa) = 39.60230 50.17255 44.88742
# Shear Modulus (GPa) = 704.39858 31.29174 367.84516
#
# Velocity S-wave (km/s) = 17.73589 3.73817 12.81670
# Velocity P-wave (km/s) = 20.90696 6.40604 15.46186
#
# Compressibility (1/GPa) = 0.02525106
#
# Stress axis : x y z
#
# Youngs Moduli (GPa) = 69.62029 61.49235 154.83000
#
# Poissons Ratio (x) = 0.12994 0.50643
# Poissons Ratio (y) = 0.14711 0.08249
# Poissons Ratio (z) = 0.22772 0.03276
#
# Static dielectric constant tensor:
#      x y z
#    x 1.783530 0.000000 0.000000 
#    y 0.000000 1.914180 0.000000 
#    z 0.000000 0.000000 1.795010 
# 
# From -- ./inp_files/2452.got.cif
#   From: 2010.05.17/outbox.cif.g08.bks.cpg/sg57_2_cif.got.tgz:2452.got - 2010.06.03 13:58:18.
