data_PCOD9434410
_publ_section_title
;
Structure prediction by ZEFSAII (Michael W. Deem and Ramdas Pophale) SiO2 
 PCOD9434410
Probable space group: P B C M
;
_chemical_formula_sum "Si O2"
_cell_formula_units_Z 48
_cell_length_a 9.449847
_cell_length_b 17.043585
_cell_length_c 16.595155
_cell_angle_alpha 90.000000
_cell_angle_beta 90.000000
_cell_angle_gamma 90.000000
_cell_volume 2672.803559
_symmetry_space_group_name_H-M "P B C M"
_symmetry_group_IT_number 57
_symmetry_cell_setting 'orthorhombic'
loop_
_space_group_symop_operation_xyz
x,y,z
-x,-y,1/2+z
x,1/2-y,-z
-x,1/2+y,1/2-z
-x,-y,-z
x,y,1/2-z
-x,1/2+y,z
x,1/2-y,1/2+z
loop_
_atom_site_type_symbol
_atom_site_label
_atom_site_fract_x
_atom_site_fract_y
_atom_site_fract_z
Si Si1 0.837921 0.377386 0.653925
Si Si2 0.170567 0.448196 0.347889
Si Si3 0.346930 0.767669 0.406135
Si Si4 0.926428 0.778563 0.591363
Si Si5 0.099874 0.636526 0.656688
Si Si6 0.337463 0.207140 0.846418
O O1 0.862799 0.377680 0.750000
O O2 0.787219 0.464015 0.629191
O O3 0.727121 0.308535 0.633893
O O4 0.984575 0.356093 0.609089
O O5 0.169268 0.444521 0.250000
O O6 0.272412 0.377071 0.374160
O O7 0.008458 0.429812 0.373369
O O8 0.357188 0.750000 0.500000
O O9 0.240640 0.840599 0.390783
O O10 0.500408 0.783916 0.370342
O O11 0.948258 0.750000 0.500000
O O12 0.762083 0.773460 0.613383
O O13 0.001537 0.714144 0.649016
O O14 0.136139 0.622888 0.750000
O O15 0.324011 0.212200 0.750000
#
# Coordination Sequence:
#
# PCOD9434410 Si02
#       6
#     8   8   8   8   8   8
#     4  10  18  33  54  77 100 129 167 212 250 288
#     4   8  17  32  53  75  97 126 170 212 246 290
#     4  11  21  33  50  76 104 133 168 208 249 297
#     4  10  18  30  49  75 101 127 161 203 247 295
#     4   9  16  31  51  71  94 130 168 198 237 297
#     4  10  19  35  53  70  95 135 170 199 245 307
#
# _framework density 17.958672
#
# number of rings (size 3 to 8) (size 9 to 14) (size 15 to 20)
#    0.000    2.333    0.000    7.500    0.000    0.000 
#    0.000   10.000    0.000    4.000    0.000    0.000 
#    0.000    0.000    0.000    0.000    0.000    0.000 
#
# Total GULP energy -267453.612246 kJ/mol
# GULP energy per Si atom -5571.950255 kJ/mol
# Density = 1.791780 g / cm^3
# Si number density = 17.958672 Si / 1000 Ang^3
#
#
#
# Elastic Constant Matrix: (Units=GPa)
#
#
# Indices 1 2 3 4 5 6 
#
# 1 131.8877 45.4296 19.7425 0.0000 0.0000 0.0000
# 2 45.4296 81.4658 15.7322 0.0000 0.0000 0.0000
# 3 19.7425 15.7322 69.4608 0.0000 0.0000 0.0000
# 4 0.0000 0.0000 0.0000 5.3010 0.0000 0.0000
# 5 0.0000 0.0000 0.0000 0.0000 39.5641 0.0000
# 6 0.0000 0.0000 0.0000 0.0000 0.0000 17.2354
#
#
#
# Elastic Compliance Matrix: (Units=1/GPa)
#
#
# Indices 1 2 3 4 5 6 
#
# 1 0.009547 -0.005020 -0.001577 0.000000 0.000000 0.000000
# 2 -0.005020 0.015476 -0.002078 0.000000 0.000000 0.000000
# 3 -0.001577 -0.002078 0.015315 0.000000 0.000000 0.000000
# 4 0.000000 0.000000 0.000000 0.188644 0.000000 0.000000
# 5 0.000000 0.000000 0.000000 0.000000 0.025275 0.000000
# 6 0.000000 0.000000 0.000000 0.000000 0.000000 0.058020
#
#
# Mechanical properties :
#
#
# Convention : Reuss Voigt Hill
#
# Bulk Modulus (GPa) = 43.49896 49.40257 46.45076
# Shear Modulus (GPa) = 14.82402 25.88076 20.35239
#
# Velocity S-wave (km/s) = 2.87619 3.80034 3.37009
# Velocity P-wave (km/s) = 5.94173 6.84292 6.40819
#
# Compressibility (1/GPa) = 0.02298906
#
# Stress axis : x y z
#
# Youngs Moduli (GPa) = 104.74215 64.61765 65.29343
#
# Poissons Ratio (x) = 0.32435 0.10295
# Poissons Ratio (y) = 0.52576 0.13571
# Poissons Ratio (z) = 0.16515 0.13430
#
# Static dielectric constant tensor:
#      x y z
#    x 1.625920 0.000000 0.000000 
#    y 0.000000 1.651730 0.000000 
#    z 0.000000 0.000000 1.632820 
# 
# From -- ./inp_files/16352.got.cif
#   From: 2010.05.17/outbox.cif.g08.bks.cpg/sg57_9_cif.got.tgz:16352.got - 2010.06.03 13:58:18.
