data_PCOD9434452
_publ_section_title
;
Structure prediction by ZEFSAII (Michael W. Deem and Ramdas Pophale) SiO2 
 PCOD9434452
Probable space group: P B C M
;
_chemical_formula_sum "Si O2"
_cell_formula_units_Z 40
_cell_length_a 8.664543
_cell_length_b 22.745378
_cell_length_c 10.177864
_cell_angle_alpha 90.000000
_cell_angle_beta 90.000000
_cell_angle_gamma 90.000000
_cell_volume 2005.836193
_symmetry_space_group_name_H-M "P B C M"
_symmetry_group_IT_number 57
_symmetry_cell_setting 'orthorhombic'
loop_
_space_group_symop_operation_xyz
x,y,z
-x,-y,1/2+z
x,1/2-y,-z
-x,1/2+y,1/2-z
-x,-y,-z
x,y,1/2-z
-x,1/2+y,z
x,1/2-y,1/2+z
loop_
_atom_site_type_symbol
_atom_site_label
_atom_site_fract_x
_atom_site_fract_y
_atom_site_fract_z
Si Si1 0.382015 0.315190 0.494320
Si Si2 0.410588 0.917133 0.401305
Si Si3 0.853894 0.684516 0.750000
Si Si4 0.715961 0.519971 0.526059
Si Si5 0.168261 0.318111 0.750000
Si Si6 0.049738 0.056279 0.750000
Si Si7 0.174361 0.444995 0.750000
O O1 0.448369 0.250000 0.500000
O O2 0.519586 0.360044 0.469064
O O3 0.260055 0.321656 0.374857
O O4 0.279990 0.320248 0.624439
O O5 0.364803 0.907114 0.250000
O O6 0.285931 0.951073 0.489552
O O7 0.558081 0.961277 0.403015
O O8 0.911594 0.753066 0.750000
O O9 0.968037 0.627763 0.750000
O O10 0.851457 0.540813 0.620040
O O11 0.727943 0.551269 0.384176
O O12 0.085108 0.382176 0.750000
O O13 0.920012 0.005960 0.750000
#
# Coordination Sequence:
#
# PCOD9434452 Si02
#       7
#     8   8   4   8   4   4   4
#     4  10  18  30  53  79 109 140 172 221 279 329
#     4  11  19  34  57  77 119 140 169 225 277 349
#     4  10  18  35  51  74 108 145 177 224 284 326
#     4  11  22  34  53  84 107 145 181 216 286 319
#     4  10  20  31  51  82 110 131 183 236 270 318
#     4  12  22  38  56  75 115 150 190 231 269 330
#     4  12  22  36  54  83 113 142 190 235 265 326
#
# _framework density 19.941808000000002
#
# number of rings (size 3 to 8) (size 9 to 14) (size 15 to 20)
#    0.000    1.200    7.000    0.600    0.000    0.800 
#    0.000    0.000    0.000    2.400    0.000    0.000 
#    0.000    0.000    0.000    0.000    0.000    0.000 
#
# Total GULP energy -222857.309357 kJ/mol
# GULP energy per Si atom -5571.432734 kJ/mol
# Density = 1.989642 g / cm^3
# Si number density = 19.941808 Si / 1000 Ang^3
#
#
#
# Elastic Constant Matrix: (Units=GPa)
#
#
# Indices 1 2 3 4 5 6 
#
# 1 16.2698 25.7705 6.6887 0.0000 0.0000 0.0000
# 2 25.7705 197.1419 14.2268 0.0000 0.0000 0.0000
# 3 6.6887 14.2268 139.2728 0.0000 0.0000 0.0000
# 4 0.0000 0.0000 0.0000 26.4613 0.0000 0.0000
# 5 0.0000 0.0000 0.0000 0.0000 12.3608 0.0000
# 6 0.0000 0.0000 0.0000 0.0000 0.0000 34.2772
#
#
#
# Elastic Compliance Matrix: (Units=1/GPa)
#
#
# Indices 1 2 3 4 5 6 
#
# 1 0.078540 -0.010069 -0.002743 0.000000 0.000000 0.000000
# 2 -0.010069 0.006401 -0.000170 0.000000 0.000000 0.000000
# 3 -0.002743 -0.000170 0.007329 0.000000 0.000000 0.000000
# 4 0.000000 0.000000 0.000000 0.037791 0.000000 0.000000
# 5 0.000000 0.000000 0.000000 0.000000 0.080901 0.000000
# 6 0.000000 0.000000 0.000000 0.000000 0.000000 0.029174
#
#
# Mechanical properties :
#
#
# Convention : Reuss Voigt Hill
#
# Bulk Modulus (GPa) = 15.08176 49.56181 32.32178
# Shear Modulus (GPa) = 17.34889 35.01976 26.18433
#
# Velocity S-wave (km/s) = 2.95274 4.19513 3.62752
# Velocity P-wave (km/s) = 4.38226 6.95504 5.81278
#
# Compressibility (1/GPa) = 0.06630527
#
# Stress axis : x y z
#
# Youngs Moduli (GPa) = 12.73236 156.22606 136.43862
#
# Poissons Ratio (x) = 1.57301 0.37431
# Poissons Ratio (y) = 0.12820 0.02324
# Poissons Ratio (z) = 0.03493 0.02661
#
# Static dielectric constant tensor:
#      x y z
#    x 1.705460 0.000000 0.000000 
#    y 0.000000 1.808560 0.000000 
#    z 0.000000 0.000000 1.704670 
# 
# From -- ./inp_files/1602.got.cif
#   From: 2010.05.17/outbox.cif.g08.bks.cpg/sg57_1_cif.got.tgz:1602.got - 2010.06.03 13:58:18.
