data_PCOD9434263
_publ_section_title
;
Structure prediction by ZEFSAII (Michael W. Deem and Ramdas Pophale) SiO2 
 PCOD9434263
Probable space group: P B C M
;
_chemical_formula_sum "Si O2"
_cell_formula_units_Z 64
_cell_length_a 14.671599
_cell_length_b 30.755153
_cell_length_c 7.661366
_cell_angle_alpha 90.000000
_cell_angle_beta 90.000000
_cell_angle_gamma 90.000000
_cell_volume 3457.017280
_symmetry_space_group_name_H-M "P B C M"
_symmetry_group_IT_number 57
_symmetry_cell_setting 'orthorhombic'
loop_
_space_group_symop_operation_xyz
x,y,z
-x,-y,1/2+z
x,1/2-y,-z
-x,1/2+y,1/2-z
-x,-y,-z
x,y,1/2-z
-x,1/2+y,z
x,1/2-y,1/2+z
loop_
_atom_site_type_symbol
_atom_site_label
_atom_site_fract_x
_atom_site_fract_y
_atom_site_fract_z
Si Si1 0.984872 0.449058 0.960499
Si Si2 0.446688 0.069301 0.954999
Si Si3 0.301279 0.005944 0.456015
Si Si4 0.174580 0.087785 0.036605
Si Si5 0.209177 0.918747 0.550526
Si Si6 0.488472 0.200381 0.459986
Si Si7 0.322409 0.350535 0.550607
Si Si8 0.615996 0.122223 0.038891
O O1 0.982422 0.446455 0.750000
O O2 0.888666 0.430744 0.029156
O O3 0.072082 0.421441 0.021561
O O4 0.000000 0.500000 0.000000
O O5 0.430165 0.073990 0.750000
O O6 0.402826 0.023864 0.012019
O O7 0.388566 0.106985 0.051410
O O8 0.550840 0.081642 0.990416
O O9 0.289876 0.998298 0.250000
O O10 0.234724 0.045581 0.510300
O O11 0.266648 0.963442 0.551557
O O12 0.175219 0.089590 0.250000
O O13 0.228939 0.130442 0.972833
O O14 0.191657 0.904821 0.750000
O O15 0.281634 0.884966 0.471309
O O16 0.509532 0.250000 0.500000
O O17 0.484638 0.195527 0.250000
O O18 0.388462 0.185871 0.529357
O O19 0.563461 0.165509 0.522828
O O20 0.302333 0.337589 0.750000
O O21 0.620129 0.123519 0.250000
#
# Coordination Sequence:
#
# PCOD9434263 Si02
#       8
#     8   8   8   8   8   8   8   8
#     4  10  18  29  45  67  90 117 156 200 232 263
#     4  10  18  28  44  65  87 115 155 196 225 263
#     4  10  18  29  44  61  87 124 157 189 232 275
#     4   8  14  26  44  63  87 119 151 180 221 270
#     4  10  20  31  45  64  88 117 158 202 228 257
#     4   9  17  30  50  71  92 115 143 179 225 280
#     4   8  15  29  46  66  93 123 146 174 223 280
#     4   9  19  35  47  61  90 124 149 181 231 278
#
# _framework density 18.513068000000001
#
# number of rings (size 3 to 8) (size 9 to 14) (size 15 to 20)
#    0.000    2.750    1.250    3.000    0.000    3.000 
#    0.000    0.000    0.000    0.000    0.000    0.875 
#    0.000    0.000    0.000    0.000    0.000    0.000 
#
# Total GULP energy -356609.472787 kJ/mol
# GULP energy per Si atom -5572.023012 kJ/mol
# Density = 1.847093 g / cm^3
# Si number density = 18.513068 Si / 1000 Ang^3
#
#
#
# Elastic Constant Matrix: (Units=GPa)
#
#
# Indices 1 2 3 4 5 6 
#
# 1 164.8032 55.9678 2.2192 0.0000 0.0000 0.0000
# 2 55.9678 76.2124 -0.1863 0.0000 0.0000 0.0000
# 3 2.2192 -0.1863 48.1037 0.0000 0.0000 0.0000
# 4 0.0000 0.0000 0.0000 13.3624 0.0000 0.0000
# 5 0.0000 0.0000 0.0000 0.0000 3.8739 0.0000
# 6 0.0000 0.0000 0.0000 0.0000 0.0000 19.9472
#
#
#
# Elastic Compliance Matrix: (Units=1/GPa)
#
#
# Indices 1 2 3 4 5 6 
#
# 1 0.008091 -0.005943 -0.000396 0.000000 0.000000 0.000000
# 2 -0.005943 0.017486 0.000342 0.000000 0.000000 0.000000
# 3 -0.000396 0.000342 0.020808 0.000000 0.000000 0.000000
# 4 0.000000 0.000000 0.000000 0.074837 0.000000 0.000000
# 5 0.000000 0.000000 0.000000 0.000000 0.258140 0.000000
# 6 0.000000 0.000000 0.000000 0.000000 0.000000 0.050132
#
#
# Mechanical properties :
#
#
# Convention : Reuss Voigt Hill
#
# Bulk Modulus (GPa) = 29.07739 45.01341 37.04540
# Shear Modulus (GPa) = 11.03865 22.84460 16.94163
#
# Velocity S-wave (km/s) = 2.44450 3.51660 3.02837
# Velocity P-wave (km/s) = 4.86908 6.39186 5.68172
#
# Compressibility (1/GPa) = 0.03439099
#
# Stress axis : x y z
#
# Youngs Moduli (GPa) = 123.58702 57.18714 48.05839
#
# Poissons Ratio (x) = 0.33987 0.01905
# Poissons Ratio (y) = 0.73449 -0.01643
# Poissons Ratio (z) = 0.04898 -0.01955
#
# Static dielectric constant tensor:
#      x y z
#    x 1.700200 0.000000 0.000000 
#    y 0.000000 1.629310 0.000000 
#    z 0.000000 0.000000 1.687640 
# 
# From -- ./inp_files/6075.got.cif
#   From: 2010.05.17/outbox.cif.g08.bks.cpg/sg57_4_cif.got.tgz:6075.got - 2010.06.03 13:58:18.
