data_PCOD9434426
_publ_section_title
;
Structure prediction by ZEFSAII (Michael W. Deem and Ramdas Pophale) SiO2 
 PCOD9434426
Probable space group: P B C M
;
_chemical_formula_sum "Si O2"
_cell_formula_units_Z 64
_cell_length_a 12.646756
_cell_length_b 29.378895
_cell_length_c 7.572578
_cell_angle_alpha 90.000000
_cell_angle_beta 90.000000
_cell_angle_gamma 90.000000
_cell_volume 2813.574065
_symmetry_space_group_name_H-M "P B C M"
_symmetry_group_IT_number 57
_symmetry_cell_setting 'orthorhombic'
loop_
_space_group_symop_operation_xyz
x,y,z
-x,-y,1/2+z
x,1/2-y,-z
-x,1/2+y,1/2-z
-x,-y,-z
x,y,1/2-z
-x,1/2+y,z
x,1/2-y,1/2+z
loop_
_atom_site_type_symbol
_atom_site_label
_atom_site_fract_x
_atom_site_fract_y
_atom_site_fract_z
Si Si1 0.092712 0.298962 0.540813
Si Si2 0.876541 0.337009 0.453883
Si Si3 0.750995 0.035492 0.036536
Si Si4 0.818069 0.605008 0.034780
Si Si5 0.575737 0.395376 0.039246
Si Si6 0.381410 0.451181 0.453567
Si Si7 0.033611 0.933626 0.951375
Si Si8 0.651323 0.198279 0.538320
O O1 0.140648 0.250000 0.500000
O O2 0.080177 0.303119 0.750000
O O3 0.157545 0.343198 0.481494
O O4 0.975860 0.303133 0.460308
O O5 0.858478 0.350281 0.250000
O O6 0.916432 0.382573 0.549973
O O7 0.770672 0.313401 0.524334
O O8 0.757629 0.031525 0.250000
O O9 0.871598 0.036576 0.968287
O O10 0.676179 0.995236 0.966222
O O11 0.689367 0.081884 0.993687
O O12 0.815486 0.602848 0.250000
O O13 0.917194 0.574003 0.970952
O O14 0.708949 0.586925 0.961203
O O15 0.557781 0.393557 0.250000
O O16 0.486516 0.429329 0.965060
O O17 0.578704 0.343486 0.972804
O O18 0.405838 0.463277 0.250000
O O19 0.018600 0.948896 0.750000
O O20 0.620996 0.250000 0.500000
O O21 0.653744 0.194880 0.750000
#
# Coordination Sequence:
#
# PCOD9434426 Si02
#       8
#     8   8   8   8   8   8   8   8
#     4  10  20  34  53  79 109 143 183 229 276 326
#     4  10  18  30  50  78 110 144 178 214 266 329
#     4  10  20  35  58  87 111 140 182 226 279 334
#     4   9  20  37  54  76 110 147 182 224 273 325
#     4  10  21  39  57  79 112 144 180 229 277 324
#     4  10  22  38  57  80 109 145 187 233 276 323
#     4   9  18  33  53  79 114 145 173 220 273 323
#     4  10  21  34  51  77 108 141 177 216 267 324
#
# _framework density 22.746870000000001
#
# number of rings (size 3 to 8) (size 9 to 14) (size 15 to 20)
#    0.000    2.250    1.250    2.250    0.000    6.500 
#    0.000    0.625    0.000    3.000    0.000    0.000 
#    0.000    0.000    0.000    0.000    0.000    0.000 
#
# Total GULP energy -357382.416466 kJ/mol
# GULP energy per Si atom -5584.100257 kJ/mol
# Density = 2.269510 g / cm^3
# Si number density = 22.746870 Si / 1000 Ang^3
#
#
#
# Elastic Constant Matrix: (Units=GPa)
#
#
# Indices 1 2 3 4 5 6 
#
# 1 56.4585 -10.5509 -5.0821 0.0000 0.0000 0.0000
# 2 -10.5509 85.6509 -3.1933 0.0000 0.0000 0.0000
# 3 -5.0821 -3.1933 61.8906 0.0000 0.0000 0.0000
# 4 0.0000 0.0000 0.0000 14.0824 0.0000 0.0000
# 5 0.0000 0.0000 0.0000 0.0000 24.1422 0.0000
# 6 0.0000 0.0000 0.0000 0.0000 0.0000 31.6724
#
#
#
# Elastic Compliance Matrix: (Units=1/GPa)
#
#
# Indices 1 2 3 4 5 6 
#
# 1 0.018290 0.002314 0.001621 0.000000 0.000000 0.000000
# 2 0.002314 0.011990 0.000809 0.000000 0.000000 0.000000
# 3 0.001621 0.000809 0.016332 0.000000 0.000000 0.000000
# 4 0.000000 0.000000 0.000000 0.071010 0.000000 0.000000
# 5 0.000000 0.000000 0.000000 0.000000 0.041421 0.000000
# 6 0.000000 0.000000 0.000000 0.000000 0.000000 0.031573
#
#
# Mechanical properties :
#
#
# Convention : Reuss Voigt Hill
#
# Bulk Modulus (GPa) = 17.82526 18.48304 18.15415
# Shear Modulus (GPa) = 25.02110 28.83449 26.92780
#
# Velocity S-wave (km/s) = 3.32019 3.56423 3.44438
# Velocity P-wave (km/s) = 4.74885 5.00815 4.88022
#
# Compressibility (1/GPa) = 0.05610016
#
# Stress axis : x y z
#
# Youngs Moduli (GPa) = 54.67343 83.39976 61.22799
#
# Poissons Ratio (x) = -0.19295 -0.09927
# Poissons Ratio (y) = -0.12649 -0.04951
# Poissons Ratio (z) = -0.08864 -0.06744
#
# Static dielectric constant tensor:
#      x y z
#    x 1.833940 0.000000 0.000000 
#    y 0.000000 1.890940 0.000000 
#    z 0.000000 0.000000 1.867400 
# 
# From -- ./inp_files/3899.got.cif
#   From: 2010.05.17/outbox.cif.g08.bks.cpg/sg57_2_cif.got.tgz:3899.got - 2010.06.03 13:58:18.
