data_PCOD9434078
_publ_section_title
;
Structure prediction by ZEFSAII (Michael W. Deem and Ramdas Pophale) SiO2 
 PCOD9434078
Probable space group: P B C M
;
_chemical_formula_sum "Si O2"
_cell_formula_units_Z 48
_cell_length_a 15.771112
_cell_length_b 22.177533
_cell_length_c 8.658190
_cell_angle_alpha 90.000000
_cell_angle_beta 90.000000
_cell_angle_gamma 90.000000
_cell_volume 3028.326257
_symmetry_space_group_name_H-M "P B C M"
_symmetry_group_IT_number 57
_symmetry_cell_setting 'orthorhombic'
loop_
_space_group_symop_operation_xyz
x,y,z
-x,-y,1/2+z
x,1/2-y,-z
-x,1/2+y,1/2-z
-x,-y,-z
x,y,1/2-z
-x,1/2+y,z
x,1/2-y,1/2+z
loop_
_atom_site_type_symbol
_atom_site_label
_atom_site_fract_x
_atom_site_fract_y
_atom_site_fract_z
Si Si1 0.940752 0.416337 0.936327
Si Si2 0.807072 0.182919 0.063421
Si Si3 0.876580 0.956735 0.565644
Si Si4 0.657369 0.404218 0.937504
Si Si5 0.476446 0.433907 0.564750
Si Si6 0.303197 0.457697 0.065456
O O1 0.934541 0.422625 0.750000
O O2 0.888659 0.357205 0.981584
O O3 0.040070 0.418093 0.977961
O O4 0.897752 0.475552 0.008740
O O5 0.804933 0.185222 0.250000
O O6 0.724115 0.145572 0.009452
O O7 0.809298 0.250000 0.000000
O O8 0.868812 0.956537 0.750000
O O9 0.788208 0.936768 0.492225
O O10 0.660585 0.404681 0.750000
O O11 0.558856 0.394651 0.980919
O O12 0.685144 0.471911 0.985943
O O13 0.500000 0.500000 0.500000
O O14 0.472533 0.436110 0.750000
O O15 0.383507 0.420955 0.499212
O O16 0.306427 0.457096 0.250000
#
# Coordination Sequence:
#
# PCOD9434078 Si02
#       6
#     8   8   8   8   8   8
#     4   9  18  32  46  62  92 125 150 187 239 281
#     4  10  19  33  48  65  90 124 158 189 227 272
#     4  10  18  27  45  70  91 118 155 190 227 283
#     4   8  15  28  44  59  87 123 149 177 225 269
#     4   9  16  26  41  64  89 119 151 181 218 269
#     4  10  17  28  44  64  92 126 148 179 231 277
#
# _framework density 15.850339999999999
#
# number of rings (size 3 to 8) (size 9 to 14) (size 15 to 20)
#    0.000    2.667    1.667    2.500    0.000    1.333 
#    0.000    1.667    0.000    0.000    0.000    1.167 
#    0.000    0.000    0.000    0.000    0.000    0.000 
#
# Total GULP energy -267301.966141 kJ/mol
# GULP energy per Si atom -5568.790961 kJ/mol
# Density = 1.581426 g / cm^3
# Si number density = 15.850340 Si / 1000 Ang^3
#
#
#
# Elastic Constant Matrix: (Units=GPa)
#
#
# Indices 1 2 3 4 5 6 
#
# 1 180.8260 55.4350 41.0316 0.0000 0.0000 0.0000
# 2 55.4350 69.1125 14.6778 0.0000 0.0000 0.0000
# 3 41.0316 14.6778 27.0994 0.0000 0.0000 0.0000
# 4 0.0000 0.0000 0.0000 17.6340 0.0000 0.0000
# 5 0.0000 0.0000 0.0000 0.0000 25.0607 0.0000
# 6 0.0000 0.0000 0.0000 0.0000 0.0000 15.2177
#
#
#
# Elastic Compliance Matrix: (Units=1/GPa)
#
#
# Indices 1 2 3 4 5 6 
#
# 1 0.009934 -0.005394 -0.012119 0.000000 0.000000 0.000000
# 2 -0.005394 0.019279 -0.002275 0.000000 0.000000 0.000000
# 3 -0.012119 -0.002275 0.056483 0.000000 0.000000 0.000000
# 4 0.000000 0.000000 0.000000 0.056709 0.000000 0.000000
# 5 0.000000 0.000000 0.000000 0.000000 0.039903 0.000000
# 6 0.000000 0.000000 0.000000 0.000000 0.000000 0.065713
#
#
# Mechanical properties :
#
#
# Convention : Reuss Voigt Hill
#
# Bulk Modulus (GPa) = 21.68274 55.48074 38.58174
# Shear Modulus (GPa) = 16.50327 22.64205 19.57266
#
# Velocity S-wave (km/s) = 3.23025 3.78364 3.51784
# Velocity P-wave (km/s) = 5.25567 7.35981 6.39487
#
# Compressibility (1/GPa) = 0.04611964
#
# Stress axis : x y z
#
# Youngs Moduli (GPa) = 100.66596 51.87037 17.70435
#
# Poissons Ratio (x) = 0.27979 0.21457
# Poissons Ratio (y) = 0.54300 0.04027
# Poissons Ratio (z) = 1.22001 0.11799
#
# Static dielectric constant tensor:
#      x y z
#    x 1.587150 0.000000 0.000000 
#    y 0.000000 1.488030 0.000000 
#    z 0.000000 0.000000 1.534640 
# 
# From -- ./inp_files/4875.got.cif
#   From: 2010.05.17/outbox.cif.g08.bks.cpg/sg57_3_cif.got.tgz:4875.got - 2010.06.03 13:58:18.
