data_PCOD9434430
_publ_section_title
;
Structure prediction by ZEFSAII (Michael W. Deem and Ramdas Pophale) SiO2 
 PCOD9434430
Probable space group: P B C M
;
_chemical_formula_sum "Si O2"
_cell_formula_units_Z 64
_cell_length_a 21.184262
_cell_length_b 21.185182
_cell_length_c 8.768446
_cell_angle_alpha 90.000000
_cell_angle_beta 90.000000
_cell_angle_gamma 90.000000
_cell_volume 3935.212328
_symmetry_space_group_name_H-M "P B C M"
_symmetry_group_IT_number 57
_symmetry_cell_setting 'orthorhombic'
loop_
_space_group_symop_operation_xyz
x,y,z
-x,-y,1/2+z
x,1/2-y,-z
-x,1/2+y,1/2-z
-x,-y,-z
x,y,1/2-z
-x,1/2+y,z
x,1/2-y,1/2+z
loop_
_atom_site_type_symbol
_atom_site_label
_atom_site_fract_x
_atom_site_fract_y
_atom_site_fract_z
Si Si1 0.302997 0.470531 0.931003
Si Si2 0.710612 0.662700 0.572983
Si Si3 0.166782 0.498404 0.930494
Si Si4 0.555081 0.542193 0.431717
Si Si5 0.420456 0.185366 0.429876
Si Si6 0.979522 0.685268 0.432620
Si Si7 0.848495 0.642272 0.566699
Si Si8 0.954731 0.054258 0.432145
O O1 0.300210 0.450257 0.750000
O O2 0.241262 0.513683 0.953166
O O3 0.375602 0.488901 0.958275
O O4 0.292355 0.412455 0.044907
O O5 0.698601 0.678309 0.750000
O O6 0.654362 0.686273 0.467174
O O7 0.782641 0.677568 0.530850
O O8 0.154499 0.497529 0.750000
O O9 0.154984 0.427795 0.994656
O O10 0.116054 0.542866 0.009904
O O11 0.500000 0.500000 0.500000
O O12 0.546702 0.545179 0.250000
O O13 0.556918 0.615840 0.486717
O O14 0.447732 0.250000 0.500000
O O15 0.429889 0.187078 0.250000
O O16 0.006283 0.750000 0.500000
O O17 0.976165 0.688945 0.250000
O O18 0.909592 0.675663 0.499987
O O19 0.018754 0.622875 0.475497
O O20 0.852539 0.637059 0.750000
O O21 0.956732 0.048857 0.250000
O O22 0.000000 0.000000 0.500000
#
# Coordination Sequence:
#
# PCOD9434430 Si02
#       8
#     8   8   8   8   8   8   8   8
#     4   8  16  30  46  69 101 131 162 200 242 290
#     4   9  17  28  44  67  93 126 165 202 239 279
#     4  10  18  30  51  75  99 129 164 206 251 292
#     4   9  18  32  50  74 103 134 166 202 244 292
#     4  10  20  33  48  68  96 131 169 207 243 287
#     4  11  24  38  51  68  94 128 165 206 256 307
#     4  10  19  31  48  69  96 129 166 205 243 289
#     4  11  22  35  53  76  99 127 165 208 255 305
#
# _framework density 16.263417
#
# number of rings (size 3 to 8) (size 9 to 14) (size 15 to 20)
#    0.000    2.250    1.250    3.000    0.000    6.500 
#    0.000    0.000    0.000    0.000    0.000    0.875 
#    0.000    0.000    0.000    0.000    0.000    0.000 
#
# Total GULP energy -356561.323641 kJ/mol
# GULP energy per Si atom -5571.270682 kJ/mol
# Density = 1.622640 g / cm^3
# Si number density = 16.263417 Si / 1000 Ang^3
#
#
#
# Elastic Constant Matrix: (Units=GPa)
#
#
# Indices 1 2 3 4 5 6 
#
# 1 106.7867 62.6343 32.2480 0.0000 0.0000 0.0000
# 2 62.6343 101.0473 35.8463 0.0000 0.0000 0.0000
# 3 32.2480 35.8463 33.8515 0.0000 0.0000 0.0000
# 4 0.0000 0.0000 0.0000 24.5008 0.0000 0.0000
# 5 0.0000 0.0000 0.0000 0.0000 26.7700 0.0000
# 6 0.0000 0.0000 0.0000 0.0000 0.0000 10.8863
#
#
#
# Elastic Compliance Matrix: (Units=1/GPa)
#
#
# Indices 1 2 3 4 5 6 
#
# 1 0.015822 -0.007144 -0.007507 0.000000 0.000000 0.000000
# 2 -0.007144 0.019076 -0.013395 0.000000 0.000000 0.000000
# 3 -0.007507 -0.013395 0.050877 0.000000 0.000000 0.000000
# 4 0.000000 0.000000 0.000000 0.040815 0.000000 0.000000
# 5 0.000000 0.000000 0.000000 0.000000 0.037355 0.000000
# 6 0.000000 0.000000 0.000000 0.000000 0.000000 0.091859
#
#
# Mechanical properties :
#
#
# Convention : Reuss Voigt Hill
#
# Bulk Modulus (GPa) = 33.69001 55.90476 44.79738
# Shear Modulus (GPa) = 15.53806 19.82855 17.68330
#
# Velocity S-wave (km/s) = 3.09431 3.49551 3.30101
# Velocity P-wave (km/s) = 5.79021 7.12325 6.49104
#
# Compressibility (1/GPa) = 0.02968239
#
# Stress axis : x y z
#
# Youngs Moduli (GPa) = 63.20416 52.42098 19.65532
#
# Poissons Ratio (x) = 0.37449 0.14756
# Poissons Ratio (y) = 0.45152 0.26328
# Poissons Ratio (z) = 0.47450 0.70218
#
# Static dielectric constant tensor:
#      x y z
#    x 1.565030 0.000000 0.000000 
#    y 0.000000 1.571940 0.000000 
#    z 0.000000 0.000000 1.549000 
# 
# From -- ./inp_files/8746.got.cif
#   From: 2010.05.17/outbox.cif.g08.bks.cpg/sg57_5_cif.got.tgz:8746.got - 2010.06.03 13:58:18.
