data_PCOD9434208
_publ_section_title
;
Structure prediction by ZEFSAII (Michael W. Deem and Ramdas Pophale) SiO2 
 PCOD9434208
Probable space group: P B C M
;
_chemical_formula_sum "Si O2"
_cell_formula_units_Z 56
_cell_length_a 21.160517
_cell_length_b 18.618855
_cell_length_c 7.619527
_cell_angle_alpha 90.000000
_cell_angle_beta 90.000000
_cell_angle_gamma 90.000000
_cell_volume 3001.976280
_symmetry_space_group_name_H-M "P B C M"
_symmetry_group_IT_number 57
_symmetry_cell_setting 'orthorhombic'
loop_
_space_group_symop_operation_xyz
x,y,z
-x,-y,1/2+z
x,1/2-y,-z
-x,1/2+y,1/2-z
-x,-y,-z
x,y,1/2-z
-x,1/2+y,z
x,1/2-y,1/2+z
loop_
_atom_site_type_symbol
_atom_site_label
_atom_site_fract_x
_atom_site_fract_y
_atom_site_fract_z
Si Si1 0.560275 0.050443 0.039689
Si Si2 0.244909 0.170388 0.538375
Si Si3 0.470091 0.333481 0.959528
Si Si4 0.351912 0.431916 0.045287
Si Si5 0.109138 0.131896 0.546366
Si Si6 0.030458 0.669263 0.539195
Si Si7 0.072572 0.979233 0.458705
O O1 0.568388 0.054223 0.250000
O O2 0.534904 0.127605 0.978259
O O3 0.620442 0.006400 0.968641
O O4 0.500000 0.000000 0.000000
O O5 0.269790 0.250000 0.500000
O O6 0.242468 0.163145 0.750000
O O7 0.291311 0.108568 0.468728
O O8 0.173451 0.162895 0.468192
O O9 0.465917 0.343303 0.750000
O O10 0.468738 0.250000 0.000000
O O11 0.409871 0.375268 0.036783
O O12 0.337902 0.445502 0.250000
O O13 0.107492 0.153764 0.750000
O O14 0.041586 0.157186 0.469802
O O15 0.111606 0.045027 0.537984
O O16 0.050951 0.750000 0.500000
O O17 0.027256 0.660952 0.750000
O O18 0.074973 0.603425 0.478005
O O19 0.083008 0.981527 0.250000
O O20 0.000000 0.000000 0.500000
#
# Coordination Sequence:
#
# PCOD9434208 Si02
#       7
#     8   8   8   8   8   8   8
#     4   8  15  27  42  59  80 107 139 173 212 254
#     4  10  20  31  44  63  88 116 147 178 208 246
#     4  10  18  27  41  62  86 111 139 175 217 260
#     4   9  17  30  45  61  84 114 145 178 212 251
#     4   9  18  31  43  60  86 115 146 176 205 245
#     4   9  17  27  41  62  86 108 134 168 206 246
#     4   9  17  29  44  63  85 111 142 176 212 252
#
# _framework density 18.654377
#
# number of rings (size 3 to 8) (size 9 to 14) (size 15 to 20)
#    0.000    2.857    0.000    2.571    0.000    5.714 
#    0.000    0.000    0.000    0.000    0.000    1.000 
#    0.000    4.571    0.000    0.000    0.000    0.571 
#
# Total GULP energy -311753.626609 kJ/mol
# GULP energy per Si atom -5567.029047 kJ/mol
# Density = 1.861192 g / cm^3
# Si number density = 18.654377 Si / 1000 Ang^3
#
#
#
# Elastic Constant Matrix: (Units=GPa)
#
#
# Indices 1 2 3 4 5 6 
#
# 1 27.4002 -4.5438 -2.6245 0.0000 0.0000 0.0000
# 2 -4.5438 63.1228 -17.4927 0.0000 0.0000 0.0000
# 3 -2.6245 -17.4927 40.5118 0.0000 0.0000 0.0000
# 4 0.0000 0.0000 0.0000 16.4577 0.0000 0.0000
# 5 0.0000 0.0000 0.0000 0.0000 5.6517 0.0000
# 6 0.0000 0.0000 0.0000 0.0000 0.0000 27.0721
#
#
#
# Elastic Compliance Matrix: (Units=1/GPa)
#
#
# Indices 1 2 3 4 5 6 
#
# 1 0.037523 0.003833 0.004086 0.000000 0.000000 0.000000
# 2 0.003833 0.018387 0.008188 0.000000 0.000000 0.000000
# 3 0.004086 0.008188 0.028484 0.000000 0.000000 0.000000
# 4 0.000000 0.000000 0.000000 0.060762 0.000000 0.000000
# 5 0.000000 0.000000 0.000000 0.000000 0.176938 0.000000
# 6 0.000000 0.000000 0.000000 0.000000 0.000000 0.036938
#
#
# Mechanical properties :
#
#
# Convention : Reuss Voigt Hill
#
# Bulk Modulus (GPa) = 8.57565 9.07919 8.82742
# Shear Modulus (GPa) = 13.67285 20.21604 16.94444
#
# Velocity S-wave (km/s) = 2.71025 3.29555 3.01713
# Velocity P-wave (km/s) = 3.79488 4.39983 4.10850
#
# Compressibility (1/GPa) = 0.11660917
#
# Stress axis : x y z
#
# Youngs Moduli (GPa) = 26.65017 54.38597 35.10709
#
# Poissons Ratio (x) = -0.20848 -0.14345
# Poissons Ratio (y) = -0.10216 -0.28745
# Poissons Ratio (z) = -0.10890 -0.44530
#
# Static dielectric constant tensor:
#      x y z
#    x 1.654720 0.000000 0.000000 
#    y 0.000000 1.705410 0.000000 
#    z 0.000000 0.000000 1.685250 
# 
# From -- ./inp_files/8283.got.cif
#   From: 2010.05.17/outbox.cif.g08.bks.cpg/sg57_5_cif.got.tgz:8283.got - 2010.06.03 13:58:18.
