data_PCOD9434865
_publ_section_title
;
Structure prediction by ZEFSAII (Michael W. Deem and Ramdas Pophale) SiO2 
 PCOD9434865
Probable space group: P B C M
;
_chemical_formula_sum "Si O2"
_cell_formula_units_Z 48
_cell_length_a 18.760131
_cell_length_b 12.714296
_cell_length_c 8.677503
_cell_angle_alpha 90.000000
_cell_angle_beta 90.000000
_cell_angle_gamma 90.000000
_cell_volume 2069.774143
_symmetry_space_group_name_H-M "P B C M"
_symmetry_group_IT_number 57
_symmetry_cell_setting 'orthorhombic'
loop_
_space_group_symop_operation_xyz
x,y,z
-x,-y,1/2+z
x,1/2-y,-z
-x,1/2+y,1/2-z
-x,-y,-z
x,y,1/2-z
-x,1/2+y,z
x,1/2-y,1/2+z
loop_
_atom_site_type_symbol
_atom_site_label
_atom_site_fract_x
_atom_site_fract_y
_atom_site_fract_z
Si Si1 0.190770 0.619882 0.250000
Si Si2 0.030959 0.872617 0.750000
Si Si3 0.731457 0.396163 0.432273
Si Si4 0.581158 0.122637 0.077083
Si Si5 0.280282 0.145055 0.072215
Si Si6 0.059989 0.250000 0.500000
Si Si7 0.107594 0.412379 0.250000
Si Si8 0.431534 0.373313 0.079047
O O1 0.112045 0.669052 0.250000
O O2 0.228596 0.646167 0.412740
O O3 0.174177 0.492758 0.250000
O O4 0.989080 0.824906 0.605973
O O5 0.042793 0.999841 0.750000
O O6 0.749221 0.372816 0.250000
O O7 0.649208 0.365023 0.465827
O O8 0.741273 0.523269 0.452676
O O9 0.591309 0.167263 0.250000
O O10 0.573679 0.998085 0.096922
O O11 0.506551 0.149602 0.998954
O O12 0.271544 0.162468 0.250000
O O13 0.246593 0.250000 0.000000
O O14 0.363070 0.148066 0.024107
O O15 0.101892 0.333779 0.394192
O O16 0.426148 0.325907 0.250000
#
# Coordination Sequence:
#
# PCOD9434865 Si02
#       8
#     4   4   8   8   8   4   4   8
#     4  10  22  40  54  92 128 162 210 264 302 380
#     4   9  21  38  67 103 132 171 216 267 319 386
#     4  10  20  36  51  75 109 156 202 243 308 367
#     4   9  15  26  47  66  95 128 171 239 298 359
#     4  10  20  31  46  66  96 142 193 248 310 379
#     4  10  18  42  68  96 136 176 212 264 332 372
#     4   9  21  38  63 101 138 173 220 263 315 382
#     4   9  16  25  41  68  89 119 172 237 299 355
#
# _framework density 23.190937000000002
#
# number of rings (size 3 to 8) (size 9 to 14) (size 15 to 20)
#    0.500    2.000    0.833    2.000    2.333    4.000 
#    7.500    0.000    0.000    0.000    2.167    0.000 
#    0.000    0.000    0.000    0.000    0.000    0.000 
#
# Total GULP energy -267557.100394 kJ/mol
# GULP energy per Si atom -5574.106258 kJ/mol
# Density = 2.313815 g / cm^3
# Si number density = 23.190937 Si / 1000 Ang^3
#
#
#
# Elastic Constant Matrix: (Units=GPa)
#
#
# Indices 1 2 3 4 5 6 
#
# 1 81.2930 3.0986 52.0172 0.0000 0.0000 0.0000
# 2 3.0986 123.2463 42.3037 0.0000 0.0000 0.0000
# 3 52.0172 42.3037 137.7142 0.0000 0.0000 0.0000
# 4 0.0000 0.0000 0.0000 34.4351 0.0000 0.0000
# 5 0.0000 0.0000 0.0000 0.0000 -150.0665 0.0000
# 6 0.0000 0.0000 0.0000 0.0000 0.0000 158.6440
#
#
#
# Elastic Compliance Matrix: (Units=1/GPa)
#
#
# Indices 1 2 3 4 5 6 
#
# 1 0.016628 0.001943 -0.006877 0.000000 0.000000 0.000000
# 2 0.001943 0.009297 -0.003590 0.000000 0.000000 0.000000
# 3 -0.006877 -0.003590 0.010962 0.000000 0.000000 0.000000
# 4 0.000000 0.000000 0.000000 0.029040 0.000000 0.000000
# 5 0.000000 0.000000 0.000000 0.000000 -0.006664 0.000000
# 6 0.000000 0.000000 0.000000 0.000000 0.000000 0.006303
#
#
# Mechanical properties :
#
#
# Convention : Reuss Voigt Hill
#
# Bulk Modulus (GPa) = 50.40883 59.67695 55.04289
# Shear Modulus (GPa) = 56.03622 24.92480 40.48051
#
# Velocity S-wave (km/s) = 4.92092 3.28192 4.18249
# Velocity P-wave (km/s) = 7.35329 6.33641 6.86371
#
# Compressibility (1/GPa) = 0.01983779
#
# Stress axis : x y z
#
# Youngs Moduli (GPa) = 60.14042 107.56002 91.22586
#
# Poissons Ratio (x) = -0.20894 0.62739
# Poissons Ratio (y) = -0.11683 0.32747
# Poissons Ratio (z) = 0.41361 0.38611
#
# Static dielectric constant tensor:
#      x y z
#    x 1.784530 0.000000 0.000000 
#    y 0.000000 1.968210 0.000000 
#    z 0.000000 0.000000 1.822340 
# 
# From -- ./inp_files/7896.got.cif
#   From: 2010.05.17/outbox.cif.g08.bks.cpg/sg57_4_cif.got.tgz:7896.got - 2010.06.03 13:58:18.
