data_PCOD9434839
_publ_section_title
;
Structure prediction by ZEFSAII (Michael W. Deem and Ramdas Pophale) SiO2 
 PCOD9434839
Probable space group: P B C M
;
_chemical_formula_sum "Si O2"
_cell_formula_units_Z 44
_cell_length_a 14.245918
_cell_length_b 10.559169
_cell_length_c 13.168020
_cell_angle_alpha 90.000000
_cell_angle_beta 90.000000
_cell_angle_gamma 90.000000
_cell_volume 1980.800142
_symmetry_space_group_name_H-M "P B C M"
_symmetry_group_IT_number 57
_symmetry_cell_setting 'orthorhombic'
loop_
_space_group_symop_operation_xyz
x,y,z
-x,-y,1/2+z
x,1/2-y,-z
-x,1/2+y,1/2-z
-x,-y,-z
x,y,1/2-z
-x,1/2+y,z
x,1/2-y,1/2+z
loop_
_atom_site_type_symbol
_atom_site_label
_atom_site_fract_x
_atom_site_fract_y
_atom_site_fract_z
Si Si1 0.469062 0.360861 0.137130
Si Si2 0.108170 0.750000 0.000000
Si Si3 0.035794 0.539213 0.638986
Si Si4 0.407378 0.090250 0.087630
Si Si5 0.822401 0.059155 0.136886
Si Si6 0.797442 0.883886 0.949684
O O1 0.429406 0.384900 0.250000
O O2 0.472768 0.207266 0.126102
O O3 0.559578 0.453332 0.126934
O O4 0.414623 0.402428 0.035252
O O5 0.045406 0.642628 0.948724
O O6 0.172930 0.800769 0.909076
O O7 0.053551 0.596712 0.750000
O O8 0.115732 0.436101 0.615014
O O9 0.931834 0.483069 0.641801
O O10 0.299468 0.120376 0.112560
O O11 0.782784 0.048049 0.250000
O O12 0.781546 0.976765 0.045692
O O13 0.818312 0.750000 0.000000
#
# Coordination Sequence:
#
# PCOD9434839 Si02
#       6
#     8   4   8   8   8   8
#     4  10  20  39  64  91 129 170 205 256 319 386
#     4  10  18  38  58  72 116 160 206 258 310 352
#     4  10  23  37  59  91 124 167 215 259 311 374
#     4  10  22  41  65  98 129 161 213 260 315 390
#     4  10  23  38  60  91 123 169 216 258 313 374
#     4  11  22  40  62  93 129 165 202 266 315 364
#
# _framework density 22.213245000000001
#
# number of rings (size 3 to 8) (size 9 to 14) (size 15 to 20)
#    0.000    1.818    1.818    3.273    5.091    2.909 
#    0.000   14.545    0.000   17.455    0.000    0.000 
#    0.000    0.000    0.000    0.000    0.000    0.000 
#
# Total GULP energy -245379.149635 kJ/mol
# GULP energy per Si atom -5576.798855 kJ/mol
# Density = 2.216269 g / cm^3
# Si number density = 22.213245 Si / 1000 Ang^3
#
#
#
# Elastic Constant Matrix: (Units=GPa)
#
#
# Indices 1 2 3 4 5 6 
#
# 1 56.6056 30.7701 -5.3373 0.0000 0.0000 0.0000
# 2 30.7701 73.1647 6.3960 0.0000 0.0000 0.0000
# 3 -5.3373 6.3960 127.3550 0.0000 0.0000 0.0000
# 4 0.0000 0.0000 0.0000 15.8238 0.0000 0.0000
# 5 0.0000 0.0000 0.0000 0.0000 3.6535 0.0000
# 6 0.0000 0.0000 0.0000 0.0000 0.0000 -23.0161
#
#
#
# Elastic Compliance Matrix: (Units=1/GPa)
#
#
# Indices 1 2 3 4 5 6 
#
# 1 0.023171 -0.009873 0.001467 0.000000 0.000000 0.000000
# 2 -0.009873 0.017935 -0.001315 0.000000 0.000000 0.000000
# 3 0.001467 -0.001315 0.007980 0.000000 0.000000 0.000000
# 4 0.000000 0.000000 0.000000 0.063196 0.000000 0.000000
# 5 0.000000 0.000000 0.000000 0.000000 0.273710 0.000000
# 6 0.000000 0.000000 0.000000 0.000000 0.000000 -0.043448
#
#
# Mechanical properties :
#
#
# Convention : Reuss Voigt Hill
#
# Bulk Modulus (GPa) = 33.73316 35.64252 34.68784
# Shear Modulus (GPa) = 13.44568 14.31201 13.87884
#
# Velocity S-wave (km/s) = 2.46295 2.54106 2.50231
# Velocity P-wave (km/s) = 4.82775 4.96888 4.89883
#
# Compressibility (1/GPa) = 0.02964442
#
# Stress axis : x y z
#
# Youngs Moduli (GPa) = 43.15680 55.75706 125.32012
#
# Poissons Ratio (x) = 0.55050 -0.18384
# Poissons Ratio (y) = 0.42609 0.16473
# Poissons Ratio (z) = -0.06331 0.07329
#
# Static dielectric constant tensor:
#      x y z
#    x 1.815520 0.000000 0.000000 
#    y 0.000000 1.863420 0.000000 
#    z 0.000000 0.000000 1.960610 
# 
# From -- ./inp_files/18889.got.cif
#   From: 2010.05.17/outbox.cif.g08.bks.cpg/sg57_10_cif.got.tgz:18889.got - 2010.06.03 13:58:18.
