data_PCOD9434255
_publ_section_title
;
Structure prediction by ZEFSAII (Michael W. Deem and Ramdas Pophale) SiO2 
 PCOD9434255
Probable space group: P B C M
;
_chemical_formula_sum "Si O2"
_cell_formula_units_Z 56
_cell_length_a 19.909632
_cell_length_b 18.440868
_cell_length_c 8.770473
_cell_angle_alpha 90.000000
_cell_angle_beta 90.000000
_cell_angle_gamma 90.000000
_cell_volume 3220.087017
_symmetry_space_group_name_H-M "P B C M"
_symmetry_group_IT_number 57
_symmetry_cell_setting 'orthorhombic'
loop_
_space_group_symop_operation_xyz
x,y,z
-x,-y,1/2+z
x,1/2-y,-z
-x,1/2+y,1/2-z
-x,-y,-z
x,y,1/2-z
-x,1/2+y,z
x,1/2-y,1/2+z
loop_
_atom_site_type_symbol
_atom_site_label
_atom_site_fract_x
_atom_site_fract_y
_atom_site_fract_z
Si Si1 0.070917 0.523158 0.567919
Si Si2 0.405683 0.831636 0.066581
Si Si3 0.799255 0.545481 0.932152
Si Si4 0.552365 0.831122 0.433415
Si Si5 0.139260 0.673749 0.932635
Si Si6 0.699424 0.669157 0.565456
Si Si7 0.728454 0.392822 0.568934
O O1 0.067497 0.521910 0.750000
O O2 0.130305 0.470357 0.512024
O O3 0.093889 0.604596 0.520955
O O4 0.000000 0.500000 0.500000
O O5 0.401331 0.828263 0.250000
O O6 0.479643 0.862606 0.022440
O O7 0.401180 0.750000 0.000000
O O8 0.343746 0.876249 0.000917
O O9 0.810445 0.550510 0.750000
O O10 0.758773 0.616082 0.984698
O O11 0.752504 0.475096 0.958401
O O12 0.552374 0.750000 0.500000
O O13 0.552165 0.827345 0.250000
O O14 0.625292 0.861765 0.478554
O O15 0.140885 0.677258 0.750000
O O16 0.115597 0.750000 0.000000
O O17 0.214036 0.657092 0.994280
O O18 0.705917 0.750000 0.500000
O O19 0.701248 0.672773 0.750000
O O20 0.727189 0.379817 0.750000
#
# Coordination Sequence:
#
# PCOD9434255 Si02
#       7
#     8   8   8   8   8   8   8
#     4  10  21  37  58  81 106 134 165 199 240 290
#     4  10  18  28  43  65  94 128 166 208 249 292
#     4   9  19  35  54  74  99 130 163 198 242 296
#     4   8  15  27  44  65  91 124 162 204 250 293
#     4  10  20  34  53  78 104 132 166 204 242 286
#     4   9  17  32  53  75  97 125 164 209 252 295
#     4  10  19  31  47  68  97 133 167 202 244 292
#
# _framework density 17.390834000000002
#
# number of rings (size 3 to 8) (size 9 to 14) (size 15 to 20)
#    0.000    2.571    0.000    2.143    0.000    3.429 
#    0.000    1.429    0.000    0.000    0.000    0.000 
#    0.000    0.000    0.000    0.000    0.000    0.000 
#
# Total GULP energy -312101.517833 kJ/mol
# GULP energy per Si atom -5573.241390 kJ/mol
# Density = 1.735125 g / cm^3
# Si number density = 17.390834 Si / 1000 Ang^3
#
#
#
# Elastic Constant Matrix: (Units=GPa)
#
#
# Indices 1 2 3 4 5 6 
#
# 1 178.7928 73.8934 47.9756 0.0000 0.0000 0.0000
# 2 73.8934 68.6319 30.5792 0.0000 0.0000 0.0000
# 3 47.9756 30.5792 35.7852 0.0000 0.0000 0.0000
# 4 0.0000 0.0000 0.0000 21.8369 0.0000 0.0000
# 5 0.0000 0.0000 0.0000 0.0000 24.2739 0.0000
# 6 0.0000 0.0000 0.0000 0.0000 0.0000 19.6048
#
#
#
# Elastic Compliance Matrix: (Units=1/GPa)
#
#
# Indices 1 2 3 4 5 6 
#
# 1 0.011235 -0.008696 -0.007631 0.000000 0.000000 0.000000
# 2 -0.008696 0.030260 -0.014199 0.000000 0.000000 0.000000
# 3 -0.007631 -0.014199 0.050308 0.000000 0.000000 0.000000
# 4 0.000000 0.000000 0.000000 0.045794 0.000000 0.000000
# 5 0.000000 0.000000 0.000000 0.000000 0.041196 0.000000
# 6 0.000000 0.000000 0.000000 0.000000 0.000000 0.051008
#
#
# Mechanical properties :
#
#
# Convention : Reuss Voigt Hill
#
# Bulk Modulus (GPa) = 32.51976 65.34514 48.93245
# Shear Modulus (GPa) = 16.60562 21.86058 19.23310
#
# Velocity S-wave (km/s) = 3.09342 3.54929 3.32916
# Velocity P-wave (km/s) = 5.61239 7.37920 6.55559
#
# Compressibility (1/GPa) = 0.03075053
#
# Stress axis : x y z
#
# Youngs Moduli (GPa) = 89.01073 33.04743 19.87745
#
# Poissons Ratio (x) = 0.28738 0.15168
# Poissons Ratio (y) = 0.77403 0.28224
# Poissons Ratio (z) = 0.67923 0.46925
#
# Static dielectric constant tensor:
#      x y z
#    x 1.602130 0.000000 0.000000 
#    y 0.000000 1.575990 0.000000 
#    z 0.000000 0.000000 1.584200 
# 
# From -- ./inp_files/8341.got.cif
#   From: 2010.05.17/outbox.cif.g08.bks.cpg/sg57_5_cif.got.tgz:8341.got - 2010.06.03 13:58:18.
