data_PCOD9434611
_publ_section_title
;
Structure prediction by ZEFSAII (Michael W. Deem and Ramdas Pophale) SiO2 
 PCOD9434611
Probable space group: P B C M
;
_chemical_formula_sum "Si O2"
_cell_formula_units_Z 60
_cell_length_a 20.703451
_cell_length_b 5.214900
_cell_length_c 27.118049
_cell_angle_alpha 90.000000
_cell_angle_beta 90.000000
_cell_angle_gamma 90.000000
_cell_volume 2927.838847
_symmetry_space_group_name_H-M "P B C M"
_symmetry_group_IT_number 57
_symmetry_cell_setting 'orthorhombic'
loop_
_space_group_symop_operation_xyz
x,y,z
-x,-y,1/2+z
x,1/2-y,-z
-x,1/2+y,1/2-z
-x,-y,-z
x,y,1/2-z
-x,1/2+y,z
x,1/2-y,1/2+z
loop_
_atom_site_type_symbol
_atom_site_label
_atom_site_fract_x
_atom_site_fract_y
_atom_site_fract_z
Si Si1 0.819248 0.068491 0.423504
Si Si2 0.250523 0.084647 0.396614
Si Si3 0.583391 0.625027 0.052655
Si Si4 0.424143 0.735767 0.196581
Si Si5 0.247066 0.250000 0.500000
Si Si6 0.661625 0.767459 0.804724
Si Si7 0.559041 0.121087 0.091225
Si Si8 0.037597 0.750477 0.940357
O O1 0.774296 0.294589 0.401999
O O2 0.891735 0.168188 0.422751
O O3 0.807028 0.796982 0.396227
O O4 0.797101 0.980283 0.478777
O O5 0.282520 0.154568 0.450513
O O6 0.292478 0.146196 0.349085
O O7 0.604198 0.340331 0.067767
O O8 0.505120 0.582669 0.058855
O O9 0.595756 0.852152 0.091178
O O10 0.596115 0.750000 0.000000
O O11 0.456045 0.692582 0.250000
O O12 0.367993 0.518884 0.192389
O O13 0.461915 0.700761 0.145853
O O14 0.394783 0.019085 0.195617
O O15 0.692859 0.786447 0.750000
O O16 0.013361 0.470063 0.925147
O O17 0.039950 0.750000 0.000000
#
# Coordination Sequence:
#
# PCOD9434611 Si02
#       8
#     8   8   8   8   4   8   8   8
#     4  10  19  31  47  71 101 139 172 204 255 301
#     4  10  19  32  54  70  98 134 174 210 253 312
#     4  10  19  33  55  75 107 140 177 207 244 283
#     4  10  21  37  56  76 104 133 162 208 271 319
#     4   8  20  28  52  68 100 142 160 200 256 306
#     4  10  21  38  58  78 100 133 170 221 273 310
#     4  10  18  32  54  78 100 137 169 205 246 304
#     4  10  19  26  40  65 100 139 174 205 238 297
#
# _framework density 20.492930999999999
#
# number of rings (size 3 to 8) (size 9 to 14) (size 15 to 20)
#    0.800    1.333    0.000    5.600    2.800    0.000 
#    0.000    2.667   11.733    0.000    0.000    0.000 
#    0.000   10.667    0.000    0.000    0.000    0.000 
#
# Total GULP energy -334659.862810 kJ/mol
# GULP energy per Si atom -5577.664380 kJ/mol
# Density = 2.044629 g / cm^3
# Si number density = 20.492931 Si / 1000 Ang^3
#
#
#
# Elastic Constant Matrix: (Units=GPa)
#
#
# Indices 1 2 3 4 5 6 
#
# 1 57.8298 15.8602 25.1632 0.0000 0.0000 0.0000
# 2 15.8602 119.5484 -9.4473 0.0000 0.0000 0.0000
# 3 25.1632 -9.4473 97.8119 0.0000 0.0000 0.0000
# 4 0.0000 0.0000 0.0000 25.3697 0.0000 0.0000
# 5 0.0000 0.0000 0.0000 0.0000 10.2907 0.0000
# 6 0.0000 0.0000 0.0000 0.0000 0.0000 32.0004
#
#
#
# Elastic Compliance Matrix: (Units=1/GPa)
#
#
# Indices 1 2 3 4 5 6 
#
# 1 0.020603 -0.003176 -0.005607 0.000000 0.000000 0.000000
# 2 -0.003176 0.008919 0.001679 0.000000 0.000000 0.000000
# 3 -0.005607 0.001679 0.011828 0.000000 0.000000 0.000000
# 4 0.000000 0.000000 0.000000 0.039417 0.000000 0.000000
# 5 0.000000 0.000000 0.000000 0.000000 0.097175 0.000000
# 6 0.000000 0.000000 0.000000 0.000000 0.000000 0.031250
#
#
# Mechanical properties :
#
#
# Convention : Reuss Voigt Hill
#
# Bulk Modulus (GPa) = 36.84560 37.59358 37.21959
# Shear Modulus (GPa) = 21.51009 29.77309 25.64159
#
# Velocity S-wave (km/s) = 3.24332 3.81576 3.54113
# Velocity P-wave (km/s) = 5.66076 6.14799 5.90940
#
# Compressibility (1/GPa) = 0.02714029
#
# Stress axis : x y z
#
# Youngs Moduli (GPa) = 48.53629 112.12159 84.54262
#
# Poissons Ratio (x) = 0.35615 0.47405
# Poissons Ratio (y) = 0.15417 -0.14192
# Poissons Ratio (z) = 0.27215 -0.18821
#
# Static dielectric constant tensor:
#      x y z
#    x 1.784470 0.000000 0.000000 
#    y 0.000000 1.818240 0.000000 
#    z 0.000000 0.000000 1.784520 
# 
# From -- ./inp_files/27697.got.cif
#   From: 2010.05.17/outbox.cif.g08.bks.cpg/sg57_14_cif.got.tgz:27697.got - 2010.06.03 13:58:18.
