data_PCOD9434555
_publ_section_title
;
Structure prediction by ZEFSAII (Michael W. Deem and Ramdas Pophale) SiO2 
 PCOD9434555
Probable space group: P B C M
;
_chemical_formula_sum "Si O2"
_cell_formula_units_Z 64
_cell_length_a 18.341354
_cell_length_b 11.073330
_cell_length_c 14.183065
_cell_angle_alpha 90.000000
_cell_angle_beta 90.000000
_cell_angle_gamma 90.000000
_cell_volume 2880.578594
_symmetry_space_group_name_H-M "P B C M"
_symmetry_group_IT_number 57
_symmetry_cell_setting 'orthorhombic'
loop_
_space_group_symop_operation_xyz
x,y,z
-x,-y,1/2+z
x,1/2-y,-z
-x,1/2+y,1/2-z
-x,-y,-z
x,y,1/2-z
-x,1/2+y,z
x,1/2-y,1/2+z
loop_
_atom_site_type_symbol
_atom_site_label
_atom_site_fract_x
_atom_site_fract_y
_atom_site_fract_z
Si Si1 0.803876 0.483338 0.359730
Si Si2 0.944383 0.071329 0.137349
Si Si3 0.080854 0.380130 0.515004
Si Si4 0.350937 0.108272 0.390946
Si Si5 0.569141 0.128033 0.607481
Si Si6 0.363222 0.627006 0.100345
Si Si7 0.396347 0.132660 0.610236
Si Si8 0.789569 0.198726 0.360935
O O1 0.825792 0.496880 0.250000
O O2 0.865668 0.532943 0.428059
O O3 0.729732 0.557433 0.375919
O O4 0.791750 0.341573 0.376872
O O5 0.957294 0.063263 0.250000
O O6 0.868174 0.140596 0.121627
O O7 0.009298 0.135683 0.080201
O O8 0.938543 0.942576 0.084319
O O9 0.115827 0.250000 0.500000
O O10 0.369873 0.122323 0.501640
O O11 0.362599 0.242916 0.352201
O O12 0.403818 0.001154 0.354774
O O13 0.610484 0.246743 0.645476
O O14 0.591259 0.122773 0.496895
O O15 0.483344 0.144563 0.616261
O O16 0.376193 0.499105 0.149365
O O17 0.277070 0.640122 0.082869
O O18 0.772766 0.178532 0.250000
#
# Coordination Sequence:
#
# PCOD9434555 Si02
#       8
#     8   8   8   8   8   8   8   8
#     4  11  25  44  67  96 138 183 230 286 346 410
#     4  10  25  47  73 106 143 181 225 284 339 403
#     4  11  27  45  72 107 141 185 229 273 340 422
#     4  10  19  34  56  88 124 173 216 280 340 415
#     4  10  18  32  55  88 123 167 221 286 343 414
#     4  10  18  31  56  88 117 162 216 281 331 403
#     4  10  20  32  56  87 130 164 220 291 346 420
#     4  10  23  42  66  93 130 175 225 283 344 402
#
# _framework density 22.217759999999998
#
# number of rings (size 3 to 8) (size 9 to 14) (size 15 to 20)
#    0.000    1.750    1.250    4.125    8.750    1.000 
#    0.000    1.875    0.000    8.250    0.000    0.000 
#    0.000    0.000    0.000    0.000    0.000    0.000 
#
# Total GULP energy -357727.571387 kJ/mol
# GULP energy per Si atom -5589.493303 kJ/mol
# Density = 2.216719 g / cm^3
# Si number density = 22.217760 Si / 1000 Ang^3
#
#
#
# Elastic Constant Matrix: (Units=GPa)
#
#
# Indices 1 2 3 4 5 6 
#
# 1 101.7003 27.2027 20.8923 0.0000 0.0000 0.0000
# 2 27.2027 181.1696 31.8433 0.0000 0.0000 0.0000
# 3 20.8923 31.8433 117.3766 0.0000 0.0000 0.0000
# 4 0.0000 0.0000 0.0000 -11.0442 0.0000 0.0000
# 5 0.0000 0.0000 0.0000 0.0000 55.6636 0.0000
# 6 0.0000 0.0000 0.0000 0.0000 0.0000 24.3278
#
#
#
# Elastic Compliance Matrix: (Units=1/GPa)
#
#
# Indices 1 2 3 4 5 6 
#
# 1 0.010494 -0.001310 -0.001512 0.000000 0.000000 0.000000
# 2 -0.001310 0.005960 -0.001384 0.000000 0.000000 0.000000
# 3 -0.001512 -0.001384 0.009164 0.000000 0.000000 0.000000
# 4 0.000000 0.000000 0.000000 -0.090546 0.000000 0.000000
# 5 0.000000 0.000000 0.000000 0.000000 0.017965 0.000000
# 6 0.000000 0.000000 0.000000 0.000000 0.000000 0.041105
#
#
# Mechanical properties :
#
#
# Convention : Reuss Voigt Hill
#
# Bulk Modulus (GPa) = 58.12032 62.23591 60.17811
# Shear Modulus (GPa) = 603.17628 35.14332 319.15980
#
# Velocity S-wave (km/s) = 16.49464 3.98146 11.99844
# Velocity P-wave (km/s) = 19.72259 7.01488 14.80184
#
# Compressibility (1/GPa) = 0.01720569
#
# Stress axis : x y z
#
# Youngs Moduli (GPa) = 95.29371 167.79781 109.12065
#
# Poissons Ratio (x) = 0.21978 0.16504
# Poissons Ratio (y) = 0.12482 0.15098
# Poissons Ratio (z) = 0.14413 0.23217
#
# Static dielectric constant tensor:
#      x y z
#    x 1.762930 0.000000 0.000000 
#    y 0.000000 1.942040 0.000000 
#    z 0.000000 0.000000 1.822410 
# 
# From -- ./inp_files/19102.got.cif
#   From: 2010.05.17/outbox.cif.g08.bks.cpg/sg57_10_cif.got.tgz:19102.got - 2010.06.03 13:58:18.
