data_PCOD9434103
_publ_section_title
;
Structure prediction by ZEFSAII (Michael W. Deem and Ramdas Pophale) SiO2 
 PCOD9434103
Probable space group: P B C M
;
_chemical_formula_sum "Si O2"
_cell_formula_units_Z 48
_cell_length_a 15.709326
_cell_length_b 9.448876
_cell_length_c 13.481373
_cell_angle_alpha 90.000000
_cell_angle_beta 90.000000
_cell_angle_gamma 90.000000
_cell_volume 2001.113984
_symmetry_space_group_name_H-M "P B C M"
_symmetry_group_IT_number 57
_symmetry_cell_setting 'orthorhombic'
loop_
_space_group_symop_operation_xyz
x,y,z
-x,-y,1/2+z
x,1/2-y,-z
-x,1/2+y,1/2-z
-x,-y,-z
x,y,1/2-z
-x,1/2+y,z
x,1/2-y,1/2+z
loop_
_atom_site_type_symbol
_atom_site_label
_atom_site_fract_x
_atom_site_fract_y
_atom_site_fract_z
Si Si1 0.830240 0.211615 0.889179
Si Si2 0.410566 0.618241 0.042393
Si Si3 0.255288 0.012011 0.640327
Si Si4 0.764784 0.906549 0.581936
Si Si5 0.578014 0.597352 0.133800
Si Si6 0.971453 0.407333 0.250000
Si Si7 0.111153 0.302074 0.750000
O O1 0.789599 0.357822 0.851931
O O2 0.769487 0.072610 0.883707
O O3 0.916965 0.158054 0.839659
O O4 0.851678 0.250000 0.000000
O O5 0.353825 0.522902 0.114163
O O6 0.492713 0.678310 0.100294
O O7 0.357511 0.750000 0.000000
O O8 0.429978 0.532114 0.942736
O O9 0.249503 0.079268 0.750000
O O10 0.223116 0.086250 0.537580
O O11 0.671700 0.844464 0.608202
O O12 0.834370 0.833456 0.651378
O O13 0.574939 0.565747 0.250000
O O14 0.961902 0.575789 0.250000
O O15 0.065996 0.348769 0.250000
#
# Coordination Sequence:
#
# PCOD9434103 Si02
#       7
#     8   8   8   8   8   4   4
#     4   9  17  31  54  84 114 142 186 244 301 359
#     4  10  21  32  48  81 119 151 195 248 298 345
#     4  10  17  29  52  83 120 153 192 244 300 354
#     4   9  18  32  54  84 109 154 197 243 296 368
#     4  10  19  33  53  77 110 152 203 240 289 356
#     4  10  20  36  60  91 120 150 194 255 314 378
#     4  10  20  38  64  91 118 154 208 255 318 384
#
# _framework density 23.986637999999999
#
# number of rings (size 3 to 8) (size 9 to 14) (size 15 to 20)
#    0.000    2.333    1.667    3.000    0.000    2.667 
#    0.000    7.500    0.000    9.000    0.000    0.000 
#    0.000    0.000    0.000    0.000    0.000    0.000 
#
# Total GULP energy -267969.928751 kJ/mol
# GULP energy per Si atom -5582.706849 kJ/mol
# Density = 2.393204 g / cm^3
# Si number density = 23.986638 Si / 1000 Ang^3
#
#
#
# Elastic Constant Matrix: (Units=GPa)
#
#
# Indices 1 2 3 4 5 6 
#
# 1 106.0711 33.3928 44.3007 0.0000 0.0000 0.0000
# 2 33.3928 68.0711 33.0143 0.0000 0.0000 0.0000
# 3 44.3007 33.0143 207.5586 0.0000 0.0000 0.0000
# 4 0.0000 0.0000 0.0000 20.8514 0.0000 0.0000
# 5 0.0000 0.0000 0.0000 0.0000 25.8365 0.0000
# 6 0.0000 0.0000 0.0000 0.0000 0.0000 -4.2917
#
#
#
# Elastic Compliance Matrix: (Units=1/GPa)
#
#
# Indices 1 2 3 4 5 6 
#
# 1 0.011687 -0.004901 -0.001715 0.000000 0.000000 0.000000
# 2 -0.004901 0.017974 -0.001813 0.000000 0.000000 0.000000
# 3 -0.001715 -0.001813 0.005472 0.000000 0.000000 0.000000
# 4 0.000000 0.000000 0.000000 0.047958 0.000000 0.000000
# 5 0.000000 0.000000 0.000000 0.000000 0.038705 0.000000
# 6 0.000000 0.000000 0.000000 0.000000 0.000000 -0.233007
#
#
# Mechanical properties :
#
#
# Convention : Reuss Voigt Hill
#
# Bulk Modulus (GPa) = 54.71891 67.01295 60.86593
# Shear Modulus (GPa) = -56.65017 26.54545 -15.05236
#
# Velocity S-wave (km/s) = -4.86504 3.33028 -2.50777
# Velocity P-wave (km/s) = 2.94897 6.54110 4.12853
#
# Compressibility (1/GPa) = 0.01827522
#
# Stress axis : x y z
#
# Youngs Moduli (GPa) = 85.56620 55.63542 182.73971
#
# Poissons Ratio (x) = 0.27269 0.31336
# Poissons Ratio (y) = 0.41940 0.33128
# Poissons Ratio (z) = 0.14673 0.10086
#
# Static dielectric constant tensor:
#      x y z
#    x 1.960310 0.000000 0.000000 
#    y 0.000000 1.959270 0.000000 
#    z 0.000000 0.000000 1.867730 
# 
# From -- ./inp_files/18454.got.cif
#   From: 2010.05.17/outbox.cif.g08.bks.cpg/sg57_10_cif.got.tgz:18454.got - 2010.06.03 13:58:18.
