data_PCOD9434765
_publ_section_title
;
Structure prediction by ZEFSAII (Michael W. Deem and Ramdas Pophale) SiO2 
 PCOD9434765
Probable space group: P B C M
;
_chemical_formula_sum "Si O2"
_cell_formula_units_Z 48
_cell_length_a 9.979858
_cell_length_b 14.735829
_cell_length_c 14.477795
_cell_angle_alpha 90.000000
_cell_angle_beta 90.000000
_cell_angle_gamma 90.000000
_cell_volume 2129.125973
_symmetry_space_group_name_H-M "P B C M"
_symmetry_group_IT_number 57
_symmetry_cell_setting 'orthorhombic'
loop_
_space_group_symop_operation_xyz
x,y,z
-x,-y,1/2+z
x,1/2-y,-z
-x,1/2+y,1/2-z
-x,-y,-z
x,y,1/2-z
-x,1/2+y,z
x,1/2-y,1/2+z
loop_
_atom_site_type_symbol
_atom_site_label
_atom_site_fract_x
_atom_site_fract_y
_atom_site_fract_z
Si Si1 0.595249 0.509080 0.087410
Si Si2 0.286067 0.814574 0.138378
Si Si3 0.352134 0.882435 0.645520
Si Si4 0.124130 0.012773 0.861615
Si Si5 0.976026 0.701122 0.637090
Si Si6 0.139738 0.395874 0.638248
O O1 0.639396 0.406847 0.111476
O O2 0.492273 0.566099 0.150660
O O3 0.729484 0.568260 0.087319
O O4 0.500000 0.500000 0.000000
O O5 0.285189 0.818091 0.250000
O O6 0.353975 0.719655 0.106862
O O7 0.130585 0.810446 0.107435
O O8 0.301082 0.868583 0.750000
O O9 0.242114 0.949139 0.600537
O O10 0.142505 0.019454 0.750000
O O11 0.110889 0.115472 0.895196
O O12 0.983022 0.964204 0.877811
O O13 0.979162 0.700517 0.750000
O O14 0.911494 0.796518 0.610884
O O15 0.165849 0.396631 0.750000
#
# Coordination Sequence:
#
# PCOD9434765 Si02
#       6
#     8   8   8   8   8   8
#     4  12  26  40  57  87 136 182 208 245 312 404
#     4  10  19  37  66  92 119 161 214 271 329 374
#     4  10  21  38  62  92 121 157 211 273 322 375
#     4   9  16  30  58  94 124 147 199 273 327 373
#     4   9  16  29  60  98 122 150 201 273 336 373
#     4  10  18  34  62  94 123 159 214 271 318 373
#
# _framework density 22.544461999999999
#
# number of rings (size 3 to 8) (size 9 to 14) (size 15 to 20)
#    0.000    2.000    3.333    1.500    0.000    2.000 
#    0.000    4.167    0.000    0.000    0.000    0.000 
#    0.000    0.000    0.000    0.000    0.000    0.000 
#
# Total GULP energy -268176.101720 kJ/mol
# GULP energy per Si atom -5587.002119 kJ/mol
# Density = 2.249315 g / cm^3
# Si number density = 22.544462 Si / 1000 Ang^3
#
#
#
# Elastic Constant Matrix: (Units=GPa)
#
#
# Indices 1 2 3 4 5 6 
#
# 1 149.3054 99.2180 30.7382 0.0000 0.0000 0.0000
# 2 99.2180 246.6037 34.8397 0.0000 0.0000 0.0000
# 3 30.7382 34.8397 55.4241 0.0000 0.0000 0.0000
# 4 0.0000 0.0000 0.0000 15.4169 0.0000 0.0000
# 5 0.0000 0.0000 0.0000 0.0000 24.8590 0.0000
# 6 0.0000 0.0000 0.0000 0.0000 0.0000 41.1218
#
#
#
# Elastic Compliance Matrix: (Units=1/GPa)
#
#
# Indices 1 2 3 4 5 6 
#
# 1 0.009629 -0.003424 -0.003188 0.000000 0.000000 0.000000
# 2 -0.003424 0.005668 -0.001664 0.000000 0.000000 0.000000
# 3 -0.003188 -0.001664 0.020857 0.000000 0.000000 0.000000
# 4 0.000000 0.000000 0.000000 0.064864 0.000000 0.000000
# 5 0.000000 0.000000 0.000000 0.000000 0.040227 0.000000
# 6 0.000000 0.000000 0.000000 0.000000 0.000000 0.024318
#
#
# Mechanical properties :
#
#
# Convention : Reuss Voigt Hill
#
# Bulk Modulus (GPa) = 51.01519 86.76947 68.89233
# Shear Modulus (GPa) = 26.50435 35.38202 30.94319
#
# Velocity S-wave (km/s) = 3.43249 3.96590 3.70880
# Velocity P-wave (km/s) = 6.19574 7.71640 6.99750
#
# Compressibility (1/GPa) = 0.01960200
#
# Stress axis : x y z
#
# Youngs Moduli (GPa) = 103.85011 176.43899 47.94604
#
# Poissons Ratio (x) = 0.60409 0.15286
# Poissons Ratio (y) = 0.35556 0.07978
# Poissons Ratio (z) = 0.33109 0.29357
#
# Static dielectric constant tensor:
#      x y z
#    x 1.783260 0.000000 0.000000 
#    y 0.000000 1.835780 0.000000 
#    z 0.000000 0.000000 1.944200 
# 
# From -- ./inp_files/20976.got.cif
#   From: 2010.05.17/outbox.cif.g08.bks.cpg/sg57_11_cif.got.tgz:20976.got - 2010.06.03 13:58:18.
