data_PCOD9434801
_publ_section_title
;
Structure prediction by ZEFSAII (Michael W. Deem and Ramdas Pophale) SiO2 
 PCOD9434801
Probable space group: P B C M
;
_chemical_formula_sum "Si O2"
_cell_formula_units_Z 64
_cell_length_a 13.602104
_cell_length_b 16.276687
_cell_length_c 14.004406
_cell_angle_alpha 90.000000
_cell_angle_beta 90.000000
_cell_angle_gamma 90.000000
_cell_volume 3100.536127
_symmetry_space_group_name_H-M "P B C M"
_symmetry_group_IT_number 57
_symmetry_cell_setting 'orthorhombic'
loop_
_space_group_symop_operation_xyz
x,y,z
-x,-y,1/2+z
x,1/2-y,-z
-x,1/2+y,1/2-z
-x,-y,-z
x,y,1/2-z
-x,1/2+y,z
x,1/2-y,1/2+z
loop_
_atom_site_type_symbol
_atom_site_label
_atom_site_fract_x
_atom_site_fract_y
_atom_site_fract_z
Si Si1 0.423734 0.049658 0.866473
Si Si2 0.887498 0.842922 0.507038
Si Si3 0.803209 0.540385 0.862975
Si Si4 0.490871 0.126699 0.366705
Si Si5 0.723663 0.582622 0.360889
Si Si6 0.924170 0.076462 0.484266
Si Si7 0.569965 0.303323 0.132907
Si Si8 0.762372 0.393960 0.138727
O O1 0.426937 0.050168 0.750000
O O2 0.309348 0.055693 0.894089
O O3 0.491308 0.126505 0.897248
O O4 0.462028 0.959880 0.897479
O O5 0.856220 0.750000 0.500000
O O6 0.869414 0.886755 0.405630
O O7 0.817324 0.891442 0.579000
O O8 0.000090 0.851626 0.540087
O O9 0.806766 0.537696 0.750000
O O10 0.847017 0.456597 0.906758
O O11 0.493470 0.125588 0.250000
O O12 0.376366 0.125183 0.393771
O O13 0.542003 0.211160 0.397167
O O14 0.739711 0.603633 0.250000
O O15 0.712418 0.484314 0.366267
O O16 0.859869 0.100328 0.575759
O O17 0.000000 0.000000 0.500000
O O18 0.569058 0.304494 0.250000
O O19 0.679582 0.330491 0.104566
O O20 0.785504 0.378498 0.250000
#
# Coordination Sequence:
#
# PCOD9434801 Si02
#       8
#     8   8   8   8   8   8   8   8
#     4   9  17  32  54  83 118 158 197 243 301 357
#     4  11  25  43  60  88 125 154 197 263 316 363
#     4  10  22  40  64  87 116 162 207 247 304 374
#     4   9  17  31  54  87 127 163 200 249 303 362
#     4  10  19  35  63  91 118 159 203 246 302 369
#     4  10  21  41  60  84 113 157 203 261 311 356
#     4   9  17  30  54  88 124 162 204 250 301 365
#     4  10  18  35  63  90 118 160 211 252 305 378
#
# _framework density 20.641590000000001
#
# number of rings (size 3 to 8) (size 9 to 14) (size 15 to 20)
#    0.000    2.250    3.750    0.000    1.750    3.000 
#    2.250    2.500    0.000    0.000    0.000    0.000 
#    0.000    0.000    0.000    0.000    0.000    0.000 
#
# Total GULP energy -357428.100402 kJ/mol
# GULP energy per Si atom -5584.814069 kJ/mol
# Density = 2.059461 g / cm^3
# Si number density = 20.641590 Si / 1000 Ang^3
#
#
#
# Elastic Constant Matrix: (Units=GPa)
#
#
# Indices 1 2 3 4 5 6 
#
# 1 122.7909 43.0606 35.0766 0.0000 0.0000 0.0000
# 2 43.0606 98.7021 21.9118 0.0000 0.0000 0.0000
# 3 35.0766 21.9118 70.9793 0.0000 0.0000 0.0000
# 4 0.0000 0.0000 0.0000 15.9197 0.0000 0.0000
# 5 0.0000 0.0000 0.0000 0.0000 30.8253 0.0000
# 6 0.0000 0.0000 0.0000 0.0000 0.0000 18.6534
#
#
#
# Elastic Compliance Matrix: (Units=1/GPa)
#
#
# Indices 1 2 3 4 5 6 
#
# 1 0.010621 -0.003723 -0.004099 0.000000 0.000000 0.000000
# 2 -0.003723 0.012182 -0.001921 0.000000 0.000000 0.000000
# 3 -0.004099 -0.001921 0.016707 0.000000 0.000000 0.000000
# 4 0.000000 0.000000 0.000000 0.062815 0.000000 0.000000
# 5 0.000000 0.000000 0.000000 0.000000 0.032441 0.000000
# 6 0.000000 0.000000 0.000000 0.000000 0.000000 0.053609
#
#
# Mechanical properties :
#
#
# Convention : Reuss Voigt Hill
#
# Bulk Modulus (GPa) = 49.94074 54.73004 52.33539
# Shear Modulus (GPa) = 23.30604 25.90791 24.60697
#
# Velocity S-wave (km/s) = 3.36383 3.54663 3.45644
# Velocity P-wave (km/s) = 6.27167 6.58357 6.42951
#
# Compressibility (1/GPa) = 0.02002373
#
# Stress axis : x y z
#
# Youngs Moduli (GPa) = 94.15648 82.08621 59.85439
#
# Poissons Ratio (x) = 0.30564 0.24535
# Poissons Ratio (y) = 0.35059 0.11496
# Poissons Ratio (z) = 0.38595 0.15766
#
# Static dielectric constant tensor:
#      x y z
#    x 1.733660 0.000000 0.000000 
#    y 0.000000 1.742380 0.000000 
#    z 0.000000 0.000000 1.774320 
# 
# From -- ./inp_files/17958.got.cif
#   From: 2010.05.17/outbox.cif.g08.bks.cpg/sg57_9_cif.got.tgz:17958.got - 2010.06.03 13:58:18.
