data_PCOD9434718
_publ_section_title
;
Structure prediction by ZEFSAII (Michael W. Deem and Ramdas Pophale) SiO2 
 PCOD9434718
Probable space group: P B C M
;
_chemical_formula_sum "Si O2"
_cell_formula_units_Z 44
_cell_length_a 18.494257
_cell_length_b 9.744480
_cell_length_c 14.229996
_cell_angle_alpha 90.000000
_cell_angle_beta 90.000000
_cell_angle_gamma 90.000000
_cell_volume 2564.486014
_symmetry_space_group_name_H-M "P B C M"
_symmetry_group_IT_number 57
_symmetry_cell_setting 'orthorhombic'
loop_
_space_group_symop_operation_xyz
x,y,z
-x,-y,1/2+z
x,1/2-y,-z
-x,1/2+y,1/2-z
-x,-y,-z
x,y,1/2-z
-x,1/2+y,z
x,1/2-y,1/2+z
loop_
_atom_site_type_symbol
_atom_site_label
_atom_site_fract_x
_atom_site_fract_y
_atom_site_fract_z
Si Si1 0.553171 0.250000 0.000000
Si Si2 0.420219 0.253589 0.637304
Si Si3 0.806156 0.914725 0.495613
Si Si4 0.926797 0.567401 0.361527
Si Si5 0.063590 0.387188 0.138223
Si Si6 0.356736 0.471763 0.495733
O O1 0.499924 0.256295 0.909563
O O2 0.601173 0.386043 0.001940
O O3 0.419825 0.259107 0.750000
O O4 0.377579 0.378880 0.586770
O O5 0.383998 0.116319 0.594144
O O6 0.791862 0.750000 0.500000
O O7 0.863262 0.936030 0.411681
O O8 0.729264 0.986274 0.488520
O O9 0.851773 0.959873 0.586413
O O10 0.918117 0.554056 0.250000
O O11 0.945549 0.725958 0.383326
O O12 0.992763 0.470787 0.391225
O O13 0.071011 0.401957 0.250000
#
# Coordination Sequence:
#
# PCOD9434718 Si02
#       6
#     4   8   8   8   8   8
#     4  10  22  38  56  82 120 140 172 226 276 326
#     4  10  20  38  64  82 103 144 188 222 263 328
#     4  10  18  34  52  75 101 138 179 211 259 318
#     4   9  18  32  51  73 100 133 173 218 258 307
#     4   9  18  32  51  73 100 133 173 218 258 307
#     4  10  21  38  54  85 116 141 178 228 272 323
#
# _framework density 17.157433999999999
#
# number of rings (size 3 to 8) (size 9 to 14) (size 15 to 20)
#    0.000    2.545    1.818    2.727    0.000    4.364 
#    3.273    0.000    0.000    0.000    0.000    0.000 
#    0.000    0.000    0.000    0.000    0.000    0.000 
#
# Total GULP energy -245342.024354 kJ/mol
# GULP energy per Si atom -5575.955099 kJ/mol
# Density = 1.711838 g / cm^3
# Si number density = 17.157434 Si / 1000 Ang^3
#
#
#
# Elastic Constant Matrix: (Units=GPa)
#
#
# Indices 1 2 3 4 5 6 
#
# 1 125.5457 40.7384 0.0826 0.0000 0.0000 0.0000
# 2 40.7384 65.0586 10.2603 0.0000 0.0000 0.0000
# 3 0.0826 10.2603 64.1583 0.0000 0.0000 0.0000
# 4 0.0000 0.0000 0.0000 23.5376 0.0000 0.0000
# 5 0.0000 0.0000 0.0000 0.0000 13.2552 0.0000
# 6 0.0000 0.0000 0.0000 0.0000 0.0000 23.6407
#
#
#
# Elastic Compliance Matrix: (Units=1/GPa)
#
#
# Indices 1 2 3 4 5 6 
#
# 1 0.010061 -0.006461 0.001020 0.000000 0.000000 0.000000
# 2 -0.006461 0.019918 -0.003177 0.000000 0.000000 0.000000
# 3 0.001020 -0.003177 0.016093 0.000000 0.000000 0.000000
# 4 0.000000 0.000000 0.000000 0.042485 0.000000 0.000000
# 5 0.000000 0.000000 0.000000 0.000000 0.075442 0.000000
# 6 0.000000 0.000000 0.000000 0.000000 0.000000 0.042300
#
#
# Mechanical properties :
#
#
# Convention : Reuss Voigt Hill
#
# Bulk Modulus (GPa) = 34.67816 39.65837 37.16827
# Shear Modulus (GPa) = 21.44573 25.66544 23.55559
#
# Velocity S-wave (km/s) = 3.53928 3.87185 3.70930
# Velocity P-wave (km/s) = 6.07928 6.56909 6.32892
#
# Compressibility (1/GPa) = 0.02883659
#
# Stress axis : x y z
#
# Youngs Moduli (GPa) = 99.39296 50.20707 62.13809
#
# Poissons Ratio (x) = 0.32439 -0.06340
# Poissons Ratio (y) = 0.64217 0.19741
# Poissons Ratio (z) = -0.10141 0.15950
#
# Static dielectric constant tensor:
#      x y z
#    x 1.563010 0.000000 0.000000 
#    y 0.000000 1.580220 0.000000 
#    z 0.000000 0.000000 1.589830 
# 
# From -- ./inp_files/18890.got.cif
#   From: 2010.05.17/outbox.cif.g08.bks.cpg/sg57_10_cif.got.tgz:18890.got - 2010.06.03 13:58:18.
