data_PCOD9434933
_publ_section_title
;
Structure prediction by ZEFSAII (Michael W. Deem and Ramdas Pophale) SiO2 
 PCOD9434933
Probable space group: P B C M
;
_chemical_formula_sum "Si O2"
_cell_formula_units_Z 64
_cell_length_a 15.504870
_cell_length_b 31.026674
_cell_length_c 9.183497
_cell_angle_alpha 90.000000
_cell_angle_beta 90.000000
_cell_angle_gamma 90.000000
_cell_volume 4417.854823
_symmetry_space_group_name_H-M "P B C M"
_symmetry_group_IT_number 57
_symmetry_cell_setting 'orthorhombic'
loop_
_space_group_symop_operation_xyz
x,y,z
-x,-y,1/2+z
x,1/2-y,-z
-x,1/2+y,1/2-z
-x,-y,-z
x,y,1/2-z
-x,1/2+y,z
x,1/2-y,1/2+z
loop_
_atom_site_type_symbol
_atom_site_label
_atom_site_fract_x
_atom_site_fract_y
_atom_site_fract_z
Si Si1 0.585659 0.552521 0.417268
Si Si2 0.904146 0.880822 0.423856
Si Si3 0.100767 0.292894 0.916811
Si Si4 0.109033 0.706672 0.081589
Si Si5 0.761827 0.950517 0.076122
Si Si6 0.893255 0.382520 0.075342
Si Si7 0.764358 0.051995 0.075749
Si Si8 0.586554 0.052305 0.582303
O O1 0.581878 0.566819 0.250000
O O2 0.675643 0.564028 0.493247
O O3 0.583529 0.500080 0.416841
O O4 0.501971 0.567136 0.507147
O O5 0.898852 0.873999 0.250000
O O6 0.875621 0.837172 0.503568
O O7 0.842796 0.920662 0.462675
O O8 0.004888 0.889203 0.457327
O O9 0.129403 0.292626 0.750000
O O10 0.995821 0.291862 0.917285
O O11 0.130189 0.250000 0.000000
O O12 0.137221 0.705106 0.250000
O O13 0.138549 0.750000 0.000000
O O14 0.132235 0.663561 0.993787
O O15 0.747105 0.947310 0.250000
O O16 0.777871 0.001035 0.044621
O O17 0.882700 0.382003 0.250000
O O18 0.836442 0.419452 0.001946
O O19 0.765790 0.057889 0.250000
O O20 0.670903 0.064058 0.010219
O O21 0.593294 0.066453 0.750000
#
# Coordination Sequence:
#
# PCOD9434933 Si02
#       8
#     8   8   8   8   8   8   8   8
#     4   9  16  26  42  63  83 104 134 174 217 258
#     4   9  18  31  44  59  83 115 149 182 214 251
#     4   9  16  26  42  62  82 105 135 173 217 260
#     4   9  16  27  43  62  82 105 135 173 217 260
#     4   9  18  31  44  59  83 116 149 180 215 253
#     4  10  19  30  43  60  84 115 149 182 215 252
#     4  10  19  30  43  60  84 114 148 183 216 252
#     4   9  16  27  43  61  81 106 136 172 216 261
#
# _framework density 14.486668
#
# number of rings (size 3 to 8) (size 9 to 14) (size 15 to 20)
#    0.000    2.750    0.000    2.250    0.000    8.000 
#    0.000    0.000    0.000    0.000    0.000    0.000 
#    0.000    1.000    0.000    7.000    0.000    6.000 
#
# Total GULP energy -356521.231691 kJ/mol
# GULP energy per Si atom -5570.644245 kJ/mol
# Density = 1.445370 g / cm^3
# Si number density = 14.486668 Si / 1000 Ang^3
#
#
#
# Elastic Constant Matrix: (Units=GPa)
#
#
# Indices 1 2 3 4 5 6 
#
# 1 82.1313 57.5851 59.2880 0.0000 0.0000 0.0000
# 2 57.5851 82.3238 59.4493 0.0000 0.0000 0.0000
# 3 59.2880 59.4493 96.3180 0.0000 0.0000 0.0000
# 4 0.0000 0.0000 0.0000 23.5459 0.0000 0.0000
# 5 0.0000 0.0000 0.0000 0.0000 22.0523 0.0000
# 6 0.0000 0.0000 0.0000 0.0000 0.0000 -0.8096
#
#
#
# Elastic Compliance Matrix: (Units=1/GPa)
#
#
# Indices 1 2 3 4 5 6 
#
# 1 0.027793 -0.012786 -0.009216 0.000000 0.000000 0.000000
# 2 -0.012786 0.027797 -0.009287 0.000000 0.000000 0.000000
# 3 -0.009216 -0.009287 0.021787 0.000000 0.000000 0.000000
# 4 0.000000 0.000000 0.000000 0.042470 0.000000 0.000000
# 5 0.000000 0.000000 0.000000 0.000000 0.045347 0.000000
# 6 0.000000 0.000000 0.000000 0.000000 0.000000 -1.235138
#
#
# Mechanical properties :
#
#
# Convention : Reuss Voigt Hill
#
# Bulk Modulus (GPa) = 67.56771 68.15755 67.86263
# Shear Modulus (GPa) = -4.98786 14.58778 4.79996
#
# Velocity S-wave (km/s) = -1.85756 3.17674 1.82224
# Velocity P-wave (km/s) = 6.49167 7.78499 7.16757
#
# Compressibility (1/GPa) = 0.01479997
#
# Stress axis : x y z
#
# Youngs Moduli (GPa) = 35.98028 35.97521 45.89853
#
# Poissons Ratio (x) = 0.45997 0.42301
# Poissons Ratio (y) = 0.46003 0.42624
# Poissons Ratio (z) = 0.33160 0.33409
#
# Static dielectric constant tensor:
#      x y z
#    x 1.460030 0.000000 0.000000 
#    y 0.000000 1.459310 0.000000 
#    z 0.000000 0.000000 1.487010 
# 
# From -- ./inp_files/6063.got.cif
#   From: 2010.05.17/outbox.cif.g08.bks.cpg/sg57_4_cif.got.tgz:6063.got - 2010.06.03 13:58:18.
