data_PCOD9434769
_publ_section_title
;
Structure prediction by ZEFSAII (Michael W. Deem and Ramdas Pophale) SiO2 
 PCOD9434769
Probable space group: P B C M
;
_chemical_formula_sum "Si O2"
_cell_formula_units_Z 40
_cell_length_a 22.926738
_cell_length_b 7.171912
_cell_length_c 10.428435
_cell_angle_alpha 90.000000
_cell_angle_beta 90.000000
_cell_angle_gamma 90.000000
_cell_volume 1714.732419
_symmetry_space_group_name_H-M "P B C M"
_symmetry_group_IT_number 57
_symmetry_cell_setting 'orthorhombic'
loop_
_space_group_symop_operation_xyz
x,y,z
-x,-y,1/2+z
x,1/2-y,-z
-x,1/2+y,1/2-z
-x,-y,-z
x,y,1/2-z
-x,1/2+y,z
x,1/2-y,1/2+z
loop_
_atom_site_type_symbol
_atom_site_label
_atom_site_fract_x
_atom_site_fract_y
_atom_site_fract_z
Si Si1 0.248487 0.411101 0.604997
Si Si2 0.448103 0.414290 0.750000
Si Si3 0.370578 0.476721 0.980492
Si Si4 0.876119 0.032029 0.523015
Si Si5 0.085888 0.014927 0.750000
Si Si6 0.416646 0.521625 0.250000
Si Si7 0.951548 0.419142 0.250000
O O1 0.246895 0.250000 0.500000
O O2 0.254155 0.339097 0.750000
O O3 0.307095 0.526389 0.574611
O O4 0.186882 0.511170 0.587447
O O5 0.421415 0.509279 0.876744
O O6 0.517450 0.405132 0.750000
O O7 0.424551 0.203169 0.750000
O O8 0.369659 0.250000 0.000000
O O9 0.383908 0.565911 0.117896
O O10 0.884780 0.250000 0.500000
O O11 0.881198 0.937864 0.382843
O O12 0.926512 0.979393 0.623651
O O13 0.074741 0.790344 0.750000
O O14 0.020702 0.094103 0.750000
#
# Coordination Sequence:
#
# PCOD9434769 Si02
#       7
#     8   4   8   8   4   4   4
#     4  11  23  39  62  88 115 149 199 247 288 343
#     4  10  18  35  52  80 108 145 181 226 279 336
#     4   9  19  34  56  79 110 145 185 228 285 332
#     4  10  22  40  60  85 120 158 189 234 297 348
#     4  10  22  35  60  86 116 153 195 230 287 348
#     4  10  20  33  56  80 110 145 183 232 279 342
#     4  10  20  39  58  84 118 155 191 236 285 342
#
# _framework density 23.327255999999998
#
# number of rings (size 3 to 8) (size 9 to 14) (size 15 to 20)
#    0.000    2.000    2.000    1.200    5.600    1.600 
#    0.000    2.000    0.000    0.000    0.000    0.000 
#    0.000    0.000    0.000    0.000    0.000    0.000 
#
# Total GULP energy -223640.833126 kJ/mol
# GULP energy per Si atom -5591.020828 kJ/mol
# Density = 2.327416 g / cm^3
# Si number density = 23.327256 Si / 1000 Ang^3
#
#
#
# Elastic Constant Matrix: (Units=GPa)
#
#
# Indices 1 2 3 4 5 6 
#
# 1 133.1112 -14.2923 73.2520 0.0000 0.0000 0.0000
# 2 -14.2923 46.0871 9.3260 0.0000 0.0000 0.0000
# 3 73.2520 9.3260 203.6198 0.0000 0.0000 0.0000
# 4 0.0000 0.0000 0.0000 1.1926 0.0000 0.0000
# 5 0.0000 0.0000 0.0000 0.0000 -303.9866 0.0000
# 6 0.0000 0.0000 0.0000 0.0000 0.0000 20.1636
#
#
#
# Elastic Compliance Matrix: (Units=1/GPa)
#
#
# Indices 1 2 3 4 5 6 
#
# 1 0.010006 0.003867 -0.003777 0.000000 0.000000 0.000000
# 2 0.003867 0.023396 -0.002463 0.000000 0.000000 0.000000
# 3 -0.003777 -0.002463 0.006383 0.000000 0.000000 0.000000
# 4 0.000000 0.000000 0.000000 0.838492 0.000000 0.000000
# 5 0.000000 0.000000 0.000000 0.000000 -0.003290 0.000000
# 6 0.000000 0.000000 0.000000 0.000000 0.000000 0.049594
#
#
# Mechanical properties :
#
#
# Convention : Reuss Voigt Hill
#
# Bulk Modulus (GPa) = 28.53892 57.70996 43.12444
# Shear Modulus (GPa) = 5.31346 -35.55725 -15.12189
#
# Velocity S-wave (km/s) = 1.51087 -3.90844 -2.54884
# Velocity P-wave (km/s) = 3.91208 2.10360 3.14082
#
# Compressibility (1/GPa) = 0.03503987
#
# Stress axis : x y z
#
# Youngs Moduli (GPa) = 99.93824 42.74286 156.67528
#
# Poissons Ratio (x) = -0.16530 0.59174
# Poissons Ratio (y) = -0.38649 0.38586
# Poissons Ratio (z) = 0.37745 0.10527
#
# Static dielectric constant tensor:
#      x y z
#    x 1.832610 0.000000 0.000000 
#    y 0.000000 1.930190 0.000000 
#    z 0.000000 0.000000 1.897710 
# 
# From -- ./inp_files/6300.got.cif
#   From: 2010.05.17/outbox.cif.g08.bks.cpg/sg57_4_cif.got.tgz:6300.got - 2010.06.03 13:58:18.
