data_PCOD9434361
_publ_section_title
;
Structure prediction by ZEFSAII (Michael W. Deem and Ramdas Pophale) SiO2 
 PCOD9434361
Probable space group: P B C M
;
_chemical_formula_sum "Si O2"
_cell_formula_units_Z 64
_cell_length_a 20.199767
_cell_length_b 20.001275
_cell_length_c 9.039210
_cell_angle_alpha 90.000000
_cell_angle_beta 90.000000
_cell_angle_gamma 90.000000
_cell_volume 3652.031519
_symmetry_space_group_name_H-M "P B C M"
_symmetry_group_IT_number 57
_symmetry_cell_setting 'orthorhombic'
loop_
_space_group_symop_operation_xyz
x,y,z
-x,-y,1/2+z
x,1/2-y,-z
-x,1/2+y,1/2-z
-x,-y,-z
x,y,1/2-z
-x,1/2+y,z
x,1/2-y,1/2+z
loop_
_atom_site_type_symbol
_atom_site_label
_atom_site_fract_x
_atom_site_fract_y
_atom_site_fract_z
Si Si1 0.402798 0.571593 0.927557
Si Si2 0.479867 0.323001 0.073060
Si Si3 0.378232 0.418561 0.573832
Si Si4 0.839669 0.315706 0.080061
Si Si5 0.904535 0.560125 0.575980
Si Si6 0.263944 0.594765 0.073937
Si Si7 0.951461 0.072999 0.920035
Si Si8 0.227646 0.455724 0.926016
O O1 0.390823 0.573271 0.750000
O O2 0.462734 0.621988 0.960689
O O3 0.408651 0.492205 0.965450
O O4 0.338389 0.596402 0.013771
O O5 0.477210 0.314992 0.250000
O O6 0.490205 0.250000 0.000000
O O7 0.414051 0.359317 0.012460
O O8 0.387815 0.409566 0.750000
O O9 0.299148 0.422043 0.545368
O O10 0.821038 0.303748 0.250000
O O11 0.898084 0.369267 0.076163
O O12 0.863686 0.250000 0.000000
O O13 0.777607 0.344441 0.990960
O O14 0.889990 0.563195 0.750000
O O15 0.926134 0.485315 0.527006
O O16 0.838589 0.579006 0.486706
O O17 0.974079 0.597460 0.545033
O O18 0.261917 0.592759 0.250000
O O19 0.232268 0.527272 0.006482
O O20 0.953789 0.046397 0.750000
O O21 0.222201 0.466176 0.750000
#
# Coordination Sequence:
#
# PCOD9434361 Si02
#       8
#     8   8   8   8   8   8   8   8
#     4   9  20  38  58  81 111 147 181 224 277 328
#     4  11  23  38  58  82 111 145 183 225 275 331
#     4   9  19  36  58  82 110 143 183 228 278 329
#     4  11  22  36  52  70 102 144 181 218 262 314
#     4  10  18  29  51  80 105 132 173 219 264 315
#     4  11  21  33  52  79 106 137 178 219 259 313
#     4   9  19  33  49  72 104 139 172 215 267 310
#     4  10  19  33  53  79 111 142 170 215 274 321
#
# _framework density 17.524494000000001
#
# number of rings (size 3 to 8) (size 9 to 14) (size 15 to 20)
#    0.000    2.000    1.250    3.750    0.000    5.000 
#    0.000    1.250    0.000    0.750    0.000    3.500 
#    0.000    0.000    0.000    0.000    0.000    0.000 
#
# Total GULP energy -356910.577338 kJ/mol
# GULP energy per Si atom -5576.727771 kJ/mol
# Density = 1.748461 g / cm^3
# Si number density = 17.524494 Si / 1000 Ang^3
#
#
#
# Elastic Constant Matrix: (Units=GPa)
#
#
# Indices 1 2 3 4 5 6 
#
# 1 95.0237 25.6551 43.8845 0.0000 0.0000 0.0000
# 2 25.6551 48.5528 27.2720 0.0000 0.0000 0.0000
# 3 43.8845 27.2720 65.1499 0.0000 0.0000 0.0000
# 4 0.0000 0.0000 0.0000 21.6122 0.0000 0.0000
# 5 0.0000 0.0000 0.0000 0.0000 28.9411 0.0000
# 6 0.0000 0.0000 0.0000 0.0000 0.0000 11.6926
#
#
#
# Elastic Compliance Matrix: (Units=1/GPa)
#
#
# Indices 1 2 3 4 5 6 
#
# 1 0.015617 -0.003063 -0.009237 0.000000 0.000000 0.000000
# 2 -0.003063 0.027528 -0.009460 0.000000 0.000000 0.000000
# 3 -0.009237 -0.009460 0.025531 0.000000 0.000000 0.000000
# 4 0.000000 0.000000 0.000000 0.046270 0.000000 0.000000
# 5 0.000000 0.000000 0.000000 0.000000 0.034553 0.000000
# 6 0.000000 0.000000 0.000000 0.000000 0.000000 0.085524
#
#
# Mechanical properties :
#
#
# Convention : Reuss Voigt Hill
#
# Bulk Modulus (GPa) = 39.75264 44.70550 42.22907
# Shear Modulus (GPa) = 17.42590 19.91018 18.66804
#
# Velocity S-wave (km/s) = 3.15679 3.37432 3.26736
# Velocity P-wave (km/s) = 6.00170 6.38334 6.19546
#
# Compressibility (1/GPa) = 0.02515556
#
# Stress axis : x y z
#
# Youngs Moduli (GPa) = 64.03447 36.32601 39.16791
#
# Poissons Ratio (x) = 0.11128 0.36179
# Poissons Ratio (y) = 0.19616 0.37053
# Poissons Ratio (z) = 0.59148 0.34365
#
# Static dielectric constant tensor:
#      x y z
#    x 1.628990 0.000000 0.000000 
#    y 0.000000 1.553400 0.000000 
#    z 0.000000 0.000000 1.589420 
# 
# From -- ./inp_files/8764.got.cif
#   From: 2010.05.17/outbox.cif.g08.bks.cpg/sg57_5_cif.got.tgz:8764.got - 2010.06.03 13:58:18.
