data_PCOD9434079
_publ_section_title
;
Structure prediction by ZEFSAII (Michael W. Deem and Ramdas Pophale) SiO2 
 PCOD9434079
Probable space group: P B C M
;
_chemical_formula_sum "Si O2"
_cell_formula_units_Z 56
_cell_length_a 13.982381
_cell_length_b 29.406736
_cell_length_c 8.390314
_cell_angle_alpha 90.000000
_cell_angle_beta 90.000000
_cell_angle_gamma 90.000000
_cell_volume 3449.897316
_symmetry_space_group_name_H-M "P B C M"
_symmetry_group_IT_number 57
_symmetry_cell_setting 'orthorhombic'
loop_
_space_group_symop_operation_xyz
x,y,z
-x,-y,1/2+z
x,1/2-y,-z
-x,1/2+y,1/2-z
-x,-y,-z
x,y,1/2-z
-x,1/2+y,z
x,1/2-y,1/2+z
loop_
_atom_site_type_symbol
_atom_site_label
_atom_site_fract_x
_atom_site_fract_y
_atom_site_fract_z
Si Si1 0.418735 0.890099 0.940739
Si Si2 0.601064 0.946434 0.942747
Si Si3 0.101296 0.017874 0.057467
Si Si4 0.293088 0.534679 0.557336
Si Si5 0.203499 0.393480 0.942965
Si Si6 0.507996 0.799797 0.439249
Si Si7 0.724917 0.700042 0.059042
O O1 0.423684 0.888065 0.750000
O O2 0.506567 0.921703 0.002885
O O3 0.323582 0.916531 0.992384
O O4 0.438143 0.839993 0.006585
O O5 0.593680 0.948837 0.750000
O O6 0.693120 0.915456 0.978486
O O7 0.629185 0.996812 0.999406
O O8 0.101789 0.018672 0.250000
O O9 0.126916 0.069183 0.000741
O O10 0.189575 0.985027 0.009270
O O11 0.000000 0.000000 0.000000
O O12 0.295408 0.535651 0.750000
O O13 0.195259 0.391942 0.750000
O O14 0.209040 0.341575 0.000002
O O15 0.478188 0.750000 0.500000
O O16 0.515070 0.798827 0.250000
O O17 0.614876 0.808374 0.507428
O O18 0.725979 0.700133 0.250000
O O19 0.752636 0.750000 0.000000
#
# Coordination Sequence:
#
# PCOD9434079 Si02
#       7
#     8   8   8   8   8   8   8
#     4  11  19  29  46  67  93 125 159 194 230 271
#     4   8  14  26  43  62  90 125 157 184 219 268
#     4   9  18  33  52  70  92 121 155 195 242 290
#     4   9  18  31  46  66  92 123 156 190 232 281
#     4   8  14  27  46  65  90 127 157 184 230 284
#     4  11  21  32  45  64  92 127 165 199 232 271
#     4  10  17  28  45  65  93 125 160 193 228 272
#
# _framework density 16.232368000000001
#
# number of rings (size 3 to 8) (size 9 to 14) (size 15 to 20)
#    0.000    2.571    1.429    5.143    0.000    0.571 
#    0.000    2.143    0.000    0.000    0.000    1.000 
#    0.000    4.571    0.000    0.000    0.000    0.000 
#
# Total GULP energy -312031.010257 kJ/mol
# GULP energy per Si atom -5571.982326 kJ/mol
# Density = 1.619542 g / cm^3
# Si number density = 16.232368 Si / 1000 Ang^3
#
#
#
# Elastic Constant Matrix: (Units=GPa)
#
#
# Indices 1 2 3 4 5 6 
#
# 1 60.7667 63.5484 13.9538 0.0000 0.0000 0.0000
# 2 63.5484 162.9734 27.3218 0.0000 0.0000 0.0000
# 3 13.9538 27.3218 35.3690 0.0000 0.0000 0.0000
# 4 0.0000 0.0000 0.0000 12.8402 0.0000 0.0000
# 5 0.0000 0.0000 0.0000 0.0000 18.2906 0.0000
# 6 0.0000 0.0000 0.0000 0.0000 0.0000 23.7392
#
#
#
# Elastic Compliance Matrix: (Units=1/GPa)
#
#
# Indices 1 2 3 4 5 6 
#
# 1 0.028063 -0.010439 -0.003008 0.000000 0.000000 0.000000
# 2 -0.010439 0.010932 -0.004326 0.000000 0.000000 0.000000
# 3 -0.003008 -0.004326 0.032802 0.000000 0.000000 0.000000
# 4 0.000000 0.000000 0.000000 0.077880 0.000000 0.000000
# 5 0.000000 0.000000 0.000000 0.000000 0.054673 0.000000
# 6 0.000000 0.000000 0.000000 0.000000 0.000000 0.042124
#
#
# Mechanical properties :
#
#
# Convention : Reuss Voigt Hill
#
# Bulk Modulus (GPa) = 27.58511 52.08412 39.83462
# Shear Modulus (GPa) = 17.00078 21.25967 19.13022
#
# Velocity S-wave (km/s) = 3.23977 3.62292 3.43669
# Velocity P-wave (km/s) = 5.57006 7.04677 6.35148
#
# Compressibility (1/GPa) = 0.03625144
#
# Stress axis : x y z
#
# Youngs Moduli (GPa) = 35.63348 91.47837 30.48596
#
# Poissons Ratio (x) = 0.95490 0.09170
# Poissons Ratio (y) = 0.37196 0.13189
# Poissons Ratio (z) = 0.10719 0.39575
#
# Static dielectric constant tensor:
#      x y z
#    x 1.521830 0.000000 0.000000 
#    y 0.000000 1.582790 0.000000 
#    z 0.000000 0.000000 1.559690 
# 
# From -- ./inp_files/5877.got.cif
#   From: 2010.05.17/outbox.cif.g08.bks.cpg/sg57_3_cif.got.tgz:5877.got - 2010.06.03 13:58:18.
