data_PCOD9434556
_publ_section_title
;
Structure prediction by ZEFSAII (Michael W. Deem and Ramdas Pophale) SiO2 
 PCOD9434556
Probable space group: P B C M
;
_chemical_formula_sum "Si O2"
_cell_formula_units_Z 40
_cell_length_a 9.421604
_cell_length_b 18.021986
_cell_length_c 14.106411
_cell_angle_alpha 90.000000
_cell_angle_beta 90.000000
_cell_angle_gamma 90.000000
_cell_volume 2395.212379
_symmetry_space_group_name_H-M "P B C M"
_symmetry_group_IT_number 57
_symmetry_cell_setting 'orthorhombic'
loop_
_space_group_symop_operation_xyz
x,y,z
-x,-y,1/2+z
x,1/2-y,-z
-x,1/2+y,1/2-z
-x,-y,-z
x,y,1/2-z
-x,1/2+y,z
x,1/2-y,1/2+z
loop_
_atom_site_type_symbol
_atom_site_label
_atom_site_fract_x
_atom_site_fract_y
_atom_site_fract_z
Si Si1 0.293420 0.458217 0.950297
Si Si2 0.074647 0.164655 0.003997
Si Si3 0.043666 0.549237 0.861155
Si Si4 0.136501 0.602787 0.143293
Si Si5 0.411364 0.520817 0.358056
O O1 0.184293 0.523540 0.918537
O O2 0.426739 0.458981 0.879955
O O3 0.199745 0.384247 0.949784
O O4 0.357711 0.469029 0.055829
O O5 0.029954 0.120473 0.908581
O O6 0.114829 0.250000 0.000000
O O7 0.936114 0.156689 0.069836
O O8 0.074229 0.559584 0.750000
O O9 0.936593 0.478750 0.869674
O O10 0.103152 0.626472 0.250000
O O11 0.303925 0.590258 0.134342
O O12 0.395275 0.491944 0.250000
#
# Coordination Sequence:
#
# PCOD9434556 Si02
#       5
#     8   8   8   8   8
#     4  10  19  34  54  80 106 134 181 223 264 310
#     4  11  21  34  50  78 110 144 171 213 265 322
#     4  10  18  33  54  77 102 133 176 221 259 305
#     4   9  17  33  55  76 101 133 176 219 259 305
#     4  10  18  31  57  81 100 130 174 226 268 306
#
# _framework density 16.69998
#
# number of rings (size 3 to 8) (size 9 to 14) (size 15 to 20)
#    0.000    2.000    4.000    1.800    0.000    1.600 
#    0.000    1.000    0.000    0.000    0.000    0.000 
#    0.000    0.000    0.000    0.000    0.000    0.000 
#
# Total GULP energy -222791.810178 kJ/mol
# GULP energy per Si atom -5569.795254 kJ/mol
# Density = 1.666197 g / cm^3
# Si number density = 16.699980 Si / 1000 Ang^3
#
#
#
# Elastic Constant Matrix: (Units=GPa)
#
#
# Indices 1 2 3 4 5 6 
#
# 1 90.6901 8.6117 11.1032 0.0000 0.0000 0.0000
# 2 8.6117 59.0437 -0.4252 0.0000 0.0000 0.0000
# 3 11.1032 -0.4252 71.9003 0.0000 0.0000 0.0000
# 4 0.0000 0.0000 0.0000 7.7772 0.0000 0.0000
# 5 0.0000 0.0000 0.0000 0.0000 28.4976 0.0000
# 6 0.0000 0.0000 0.0000 0.0000 0.0000 8.1778
#
#
#
# Elastic Compliance Matrix: (Units=1/GPa)
#
#
# Indices 1 2 3 4 5 6 
#
# 1 0.011402 -0.001676 -0.001771 0.000000 0.000000 0.000000
# 2 -0.001676 0.017184 0.000360 0.000000 0.000000 0.000000
# 3 -0.001771 0.000360 0.014184 0.000000 0.000000 0.000000
# 4 0.000000 0.000000 0.000000 0.128581 0.000000 0.000000
# 5 0.000000 0.000000 0.000000 0.000000 0.035091 0.000000
# 6 0.000000 0.000000 0.000000 0.000000 0.000000 0.122282
#
#
# Mechanical properties :
#
#
# Convention : Reuss Voigt Hill
#
# Bulk Modulus (GPa) = 27.32428 28.91263 28.11845
# Shear Modulus (GPa) = 14.40528 22.38014 18.39271
#
# Velocity S-wave (km/s) = 2.94018 3.66475 3.32228
# Velocity P-wave (km/s) = 5.28428 5.93782 5.62056
#
# Compressibility (1/GPa) = 0.03659749
#
# Stress axis : x y z
#
# Youngs Moduli (GPa) = 87.70017 58.19491 70.50337
#
# Poissons Ratio (x) = 0.09753 0.12484
# Poissons Ratio (y) = 0.14697 -0.02541
# Poissons Ratio (z) = 0.15529 -0.02097
#
# Static dielectric constant tensor:
#      x y z
#    x 1.582130 0.000000 0.000000 
#    y 0.000000 1.531140 0.000000 
#    z 0.000000 0.000000 1.606090 
# 
# From -- ./inp_files/15909.got.cif
#   From: 2010.05.17/outbox.cif.g08.bks.cpg/sg57_8_cif.got.tgz:15909.got - 2010.06.03 13:58:18.
