data_PCOD9434761
_publ_section_title
;
Structure prediction by ZEFSAII (Michael W. Deem and Ramdas Pophale) SiO2 
 PCOD9434761
Probable space group: P B C M
;
_chemical_formula_sum "Si O2"
_cell_formula_units_Z 32
_cell_length_a 9.363066
_cell_length_b 13.554453
_cell_length_c 9.801817
_cell_angle_alpha 90.000000
_cell_angle_beta 90.000000
_cell_angle_gamma 90.000000
_cell_volume 1243.960730
_symmetry_space_group_name_H-M "P B C M"
_symmetry_group_IT_number 57
_symmetry_cell_setting 'orthorhombic'
loop_
_space_group_symop_operation_xyz
x,y,z
-x,-y,1/2+z
x,1/2-y,-z
-x,1/2+y,1/2-z
-x,-y,-z
x,y,1/2-z
-x,1/2+y,z
x,1/2-y,1/2+z
loop_
_atom_site_type_symbol
_atom_site_label
_atom_site_fract_x
_atom_site_fract_y
_atom_site_fract_z
Si Si1 0.543063 0.383560 0.750000
Si Si2 0.258537 0.015119 0.250000
Si Si3 0.952643 0.681027 0.750000
Si Si4 0.874665 0.080669 0.527286
Si Si5 0.035328 0.614529 0.250000
Si Si6 0.512122 0.750000 0.500000
Si Si7 0.638951 0.884376 0.250000
O O1 0.368492 0.397782 0.750000
O O2 0.567186 0.320126 0.888808
O O3 0.589307 0.500390 0.750000
O O4 0.085472 0.029878 0.250000
O O5 0.264549 0.956572 0.107481
O O6 0.923767 0.795702 0.750000
O O7 0.811106 0.616855 0.750000
O O8 0.049156 0.660843 0.880195
O O9 0.859855 0.117465 0.375944
O O10 0.000000 0.000000 0.500000
O O11 0.593359 0.824665 0.389957
#
# Coordination Sequence:
#
# PCOD9434761 Si02
#       7
#     4   4   4   8   4   4   4
#     4  11  23  46  71 101 140 181 231 297 353 422
#     4   9  20  38  60  89 134 166 210 261 348 406
#     4  11  22  34  62  96 124 166 228 274 333 391
#     4   9  20  36  56  89 127 170 201 267 332 406
#     4  10  18  34  61  92 126 156 223 281 315 388
#     4  10  24  44  68 104 132 180 242 286 344 418
#     4  11  25  40  72 104 136 181 232 301 355 397
#
# _framework density 25.724283
#
# number of rings (size 3 to 8) (size 9 to 14) (size 15 to 20)
#    0.000    2.000    0.000    3.750   10.500    0.000 
#    0.000    0.000   11.000    0.000    0.000    0.000 
#    0.000    0.000    0.000    0.000    0.000    0.000 
#
# Total GULP energy -178329.879856 kJ/mol
# GULP energy per Si atom -5572.808745 kJ/mol
# Density = 2.566573 g / cm^3
# Si number density = 25.724283 Si / 1000 Ang^3
#
#
#
# Elastic Constant Matrix: (Units=GPa)
#
#
# Indices 1 2 3 4 5 6 
#
# 1 82.8455 18.3936 29.8344 0.0000 0.0000 0.0000
# 2 18.3936 119.8926 58.8834 0.0000 0.0000 0.0000
# 3 29.8344 58.8834 250.3078 0.0000 0.0000 0.0000
# 4 0.0000 0.0000 0.0000 24.5179 0.0000 0.0000
# 5 0.0000 0.0000 0.0000 0.0000 -11.2424 0.0000
# 6 0.0000 0.0000 0.0000 0.0000 0.0000 25.8780
#
#
#
# Elastic Compliance Matrix: (Units=1/GPa)
#
#
# Indices 1 2 3 4 5 6 
#
# 1 0.012809 -0.001374 -0.001203 0.000000 0.000000 0.000000
# 2 -0.001374 0.009578 -0.002089 0.000000 0.000000 0.000000
# 3 -0.001203 -0.002089 0.004630 0.000000 0.000000 0.000000
# 4 0.000000 0.000000 0.000000 0.040786 0.000000 0.000000
# 5 0.000000 0.000000 0.000000 0.000000 -0.088949 0.000000
# 6 0.000000 0.000000 0.000000 0.000000 0.000000 0.038643
#
#
# Mechanical properties :
#
#
# Convention : Reuss Voigt Hill
#
# Bulk Modulus (GPa) = 56.55106 74.14095 65.34601
# Shear Modulus (GPa) = 152.78684 30.89302 91.83993
#
# Velocity S-wave (km/s) = 7.71511 3.46920 5.98157
# Velocity P-wave (km/s) = 10.06952 6.70307 8.55355
#
# Compressibility (1/GPa) = 0.01768313
#
# Stress axis : x y z
#
# Youngs Moduli (GPa) = 78.06930 104.40873 215.98140
#
# Poissons Ratio (x) = 0.14346 0.25993
# Poissons Ratio (y) = 0.10727 0.45126
# Poissons Ratio (z) = 0.09396 0.21814
#
# Static dielectric constant tensor:
#      x y z
#    x 2.108970 0.000000 0.000000 
#    y 0.000000 2.183820 0.000000 
#    z 0.000000 0.000000 2.984170 
# 
# From -- ./inp_files/2553.got.cif
#   From: 2010.05.17/outbox.cif.g08.bks.cpg/sg57_2_cif.got.tgz:2553.got - 2010.06.03 13:58:18.
