data_PCOD9434870
_publ_section_title
;
Structure prediction by ZEFSAII (Michael W. Deem and Ramdas Pophale) SiO2 
 PCOD9434870
Probable space group: P B C M
;
_chemical_formula_sum "Si O2"
_cell_formula_units_Z 64
_cell_length_a 16.242762
_cell_length_b 23.176195
_cell_length_c 9.459939
_cell_angle_alpha 90.000000
_cell_angle_beta 90.000000
_cell_angle_gamma 90.000000
_cell_volume 3561.150705
_symmetry_space_group_name_H-M "P B C M"
_symmetry_group_IT_number 57
_symmetry_cell_setting 'orthorhombic'
loop_
_space_group_symop_operation_xyz
x,y,z
-x,-y,1/2+z
x,1/2-y,-z
-x,1/2+y,1/2-z
-x,-y,-z
x,y,1/2-z
-x,1/2+y,z
x,1/2-y,1/2+z
loop_
_atom_site_type_symbol
_atom_site_label
_atom_site_fract_x
_atom_site_fract_y
_atom_site_fract_z
Si Si1 0.555017 0.806585 0.588090
Si Si2 0.541153 0.396414 0.087899
Si Si3 0.230784 0.077654 0.581247
Si Si4 0.643144 0.480940 0.587459
Si Si5 0.083460 0.987706 0.918688
Si Si6 0.204719 0.610492 0.087544
Si Si7 0.307018 0.806108 0.088971
Si Si8 0.246394 0.193935 0.087914
O O1 0.528259 0.750000 0.500000
O O2 0.523857 0.804524 0.750000
O O3 0.525176 0.863781 0.508152
O O4 0.653848 0.805077 0.591775
O O5 0.514234 0.404518 0.250000
O O6 0.617787 0.351466 0.088685
O O7 0.575448 0.454573 0.016520
O O8 0.234020 0.089149 0.750000
O O9 0.152733 0.036330 0.553593
O O10 0.223487 0.135602 0.492852
O O11 0.313541 0.041054 0.546393
O O12 0.613652 0.484227 0.750000
O O13 0.719230 0.435226 0.587806
O O14 0.069733 0.987085 0.750000
O O15 0.125535 0.926556 0.956694
O O16 0.000000 0.000000 0.000000
O O17 0.195174 0.629951 0.250000
O O18 0.230970 0.661615 0.985393
O O19 0.289107 0.790439 0.250000
O O20 0.328911 0.750000 0.000000
O O21 0.217259 0.195171 0.250000
O O22 0.219261 0.250000 0.000000
#
# Coordination Sequence:
#
# PCOD9434870 Si02
#       8
#     8   8   8   8   8   8   8   8
#     4  10  20  33  48  67  93 126 167 213 260 305
#     4  10  19  29  44  68  96 127 166 210 253 296
#     4   9  18  34  55  78 104 133 165 201 244 295
#     4   8  15  29  48  68  94 129 163 199 244 289
#     4   9  18  32  53  81 107 130 155 187 232 284
#     4   8  15  29  46  65  93 126 158 191 228 273
#     4  10  19  28  41  64  92 125 164 201 238 281
#     4  10  21  36  55  77  99 128 167 210 254 299
#
# _framework density 17.971719
#
# number of rings (size 3 to 8) (size 9 to 14) (size 15 to 20)
#    0.000    2.750    0.000    3.375    0.000    5.500 
#    0.000    3.125    0.000    0.750    0.000    5.250 
#    0.000    0.000    0.000    0.000    0.000    0.000 
#
# Total GULP energy -357051.436745 kJ/mol
# GULP energy per Si atom -5578.928699 kJ/mol
# Density = 1.793081 g / cm^3
# Si number density = 17.971719 Si / 1000 Ang^3
#
#
#
# Elastic Constant Matrix: (Units=GPa)
#
#
# Indices 1 2 3 4 5 6 
#
# 1 35.0729 20.0737 27.9081 0.0000 0.0000 0.0000
# 2 20.0737 85.5908 57.6317 0.0000 0.0000 0.0000
# 3 27.9081 57.6317 108.0103 0.0000 0.0000 0.0000
# 4 0.0000 0.0000 0.0000 31.4126 0.0000 0.0000
# 5 0.0000 0.0000 0.0000 0.0000 23.1881 0.0000
# 6 0.0000 0.0000 0.0000 0.0000 0.0000 18.2722
#
#
#
# Elastic Compliance Matrix: (Units=1/GPa)
#
#
# Indices 1 2 3 4 5 6 
#
# 1 0.036533 -0.003453 -0.007597 0.000000 0.000000 0.000000
# 2 -0.003453 0.018561 -0.009012 0.000000 0.000000 0.000000
# 3 -0.007597 -0.009012 0.016030 0.000000 0.000000 0.000000
# 4 0.000000 0.000000 0.000000 0.031834 0.000000 0.000000
# 5 0.000000 0.000000 0.000000 0.000000 0.043126 0.000000
# 6 0.000000 0.000000 0.000000 0.000000 0.000000 0.054728
#
#
# Mechanical properties :
#
#
# Convention : Reuss Voigt Hill
#
# Bulk Modulus (GPa) = 32.25696 48.87788 40.56742
# Shear Modulus (GPa) = 19.89896 22.77862 21.33879
#
# Velocity S-wave (km/s) = 3.33113 3.56402 3.44954
# Velocity P-wave (km/s) = 5.72564 6.64774 6.20384
#
# Compressibility (1/GPa) = 0.03100106
#
# Stress axis : x y z
#
# Youngs Moduli (GPa) = 27.37219 53.87590 62.38360
#
# Poissons Ratio (x) = 0.18601 0.47395
# Poissons Ratio (y) = 0.09450 0.56218
# Poissons Ratio (z) = 0.20796 0.48551
#
# Static dielectric constant tensor:
#      x y z
#    x 1.610010 0.000000 0.000000 
#    y 0.000000 1.619350 0.000000 
#    z 0.000000 0.000000 1.609320 
# 
# From -- ./inp_files/7353.got.cif
#   From: 2010.05.17/outbox.cif.g08.bks.cpg/sg57_4_cif.got.tgz:7353.got - 2010.06.03 13:58:18.
