data_PCOD9434853
_publ_section_title
;
Structure prediction by ZEFSAII (Michael W. Deem and Ramdas Pophale) SiO2 
 PCOD9434853
Probable space group: P B C M
;
_chemical_formula_sum "Si O2"
_cell_formula_units_Z 40
_cell_length_a 8.789813
_cell_length_b 15.311234
_cell_length_c 14.829379
_cell_angle_alpha 90.000000
_cell_angle_beta 90.000000
_cell_angle_gamma 90.000000
_cell_volume 1995.780589
_symmetry_space_group_name_H-M "P B C M"
_symmetry_group_IT_number 57
_symmetry_cell_setting 'orthorhombic'
loop_
_space_group_symop_operation_xyz
x,y,z
-x,-y,1/2+z
x,1/2-y,-z
-x,1/2+y,1/2-z
-x,-y,-z
x,y,1/2-z
-x,1/2+y,z
x,1/2-y,1/2+z
loop_
_atom_site_type_symbol
_atom_site_label
_atom_site_fract_x
_atom_site_fract_y
_atom_site_fract_z
Si Si1 0.349078 0.603113 0.093647
Si Si2 0.365700 0.229722 0.750000
Si Si3 0.726673 0.276974 0.750000
Si Si4 0.557772 0.531650 0.750000
Si Si5 0.154090 0.992003 0.444771
Si Si6 0.801613 0.079800 0.750000
Si Si7 0.318424 0.176596 0.429382
O O1 0.251004 0.666306 0.159274
O O2 0.399021 0.524314 0.161255
O O3 0.502654 0.652198 0.063828
O O4 0.264054 0.568901 0.005400
O O5 0.545479 0.254694 0.750000
O O6 0.359468 0.125206 0.750000
O O7 0.294317 0.276545 0.665110
O O8 0.809406 0.184712 0.750000
O O9 0.376814 0.549989 0.750000
O O10 0.131747 0.956149 0.343589
O O11 0.229356 0.087023 0.438142
O O12 0.000000 0.000000 0.500000
O O13 0.276055 0.250000 0.500000
#
# Coordination Sequence:
#
# PCOD9434853 Si02
#       7
#     8   4   4   4   8   4   8
#     4  10  21  39  69  99 132 166 223 274 335 398
#     4   9  19  34  61  99 132 154 207 280 338 376
#     4   8  20  36  63 102 122 159 215 282 321 393
#     4  10  18  38  71 101 130 165 218 285 340 388
#     4  12  27  44  65  94 140 186 221 267 340 421
#     4  11  23  42  67  94 132 172 226 275 345 385
#     4  11  22  39  65 100 129 169 226 280 330 388
#
# _framework density 20.042285
#
# number of rings (size 3 to 8) (size 9 to 14) (size 15 to 20)
#    0.000    1.600    2.000    3.000    8.400    1.600 
#    3.600    1.000    0.000    0.000    0.000    0.000 
#    0.000    0.000    0.000    0.000    0.000    0.000 
#
# Total GULP energy -223565.964350 kJ/mol
# GULP energy per Si atom -5589.149109 kJ/mol
# Density = 1.999667 g / cm^3
# Si number density = 20.042285 Si / 1000 Ang^3
#
#
#
# Elastic Constant Matrix: (Units=GPa)
#
#
# Indices 1 2 3 4 5 6 
#
# 1 28.6286 14.6710 25.7700 0.0000 0.0000 0.0000
# 2 14.6710 139.5981 69.0841 0.0000 0.0000 0.0000
# 3 25.7700 69.0841 163.9397 0.0000 0.0000 0.0000
# 4 0.0000 0.0000 0.0000 -18.8541 0.0000 0.0000
# 5 0.0000 0.0000 0.0000 0.0000 17.0677 0.0000
# 6 0.0000 0.0000 0.0000 0.0000 0.0000 2.8111
#
#
#
# Elastic Compliance Matrix: (Units=1/GPa)
#
#
# Indices 1 2 3 4 5 6 
#
# 1 0.040906 -0.001411 -0.005835 0.000000 0.000000 0.000000
# 2 -0.001411 0.009100 -0.003613 0.000000 0.000000 0.000000
# 3 -0.005835 -0.003613 0.008539 0.000000 0.000000 0.000000
# 4 0.000000 0.000000 0.000000 -0.053039 0.000000 0.000000
# 5 0.000000 0.000000 0.000000 0.000000 0.058590 0.000000
# 6 0.000000 0.000000 0.000000 0.000000 0.000000 0.355735
#
#
# Mechanical properties :
#
#
# Convention : Reuss Voigt Hill
#
# Bulk Modulus (GPa) = 27.15439 61.24629 44.20034
# Shear Modulus (GPa) = 11.01745 15.04769 13.03257
#
# Velocity S-wave (km/s) = 2.34713 2.74304 2.55277
# Velocity P-wave (km/s) = 4.57420 6.37630 5.54890
#
# Compressibility (1/GPa) = 0.03682645
#
# Stress axis : x y z
#
# Youngs Moduli (GPa) = 24.44626 109.89497 117.10298
#
# Poissons Ratio (x) = 0.15508 0.68335
# Poissons Ratio (y) = 0.03450 0.42306
# Poissons Ratio (z) = 0.14265 0.39702
#
# Static dielectric constant tensor:
#      x y z
#    x 1.702240 0.000000 0.000000 
#    y 0.000000 1.727360 0.000000 
#    z 0.000000 0.000000 1.682440 
# 
# From -- ./inp_files/15990.got.cif
#   From: 2010.05.17/outbox.cif.g08.bks.cpg/sg57_8_cif.got.tgz:15990.got - 2010.06.03 13:58:18.
