data_PCOD9434110
_publ_section_title
;
Structure prediction by ZEFSAII (Michael W. Deem and Ramdas Pophale) SiO2 
 PCOD9434110
Probable space group: P B C M
;
_chemical_formula_sum "Si O2"
_cell_formula_units_Z 40
_cell_length_a 8.479210
_cell_length_b 16.058324
_cell_length_c 11.280900
_cell_angle_alpha 90.000000
_cell_angle_beta 90.000000
_cell_angle_gamma 90.000000
_cell_volume 1536.028794
_symmetry_space_group_name_H-M "P B C M"
_symmetry_group_IT_number 57
_symmetry_cell_setting 'orthorhombic'
loop_
_space_group_symop_operation_xyz
x,y,z
-x,-y,1/2+z
x,1/2-y,-z
-x,1/2+y,1/2-z
-x,-y,-z
x,y,1/2-z
-x,1/2+y,z
x,1/2-y,1/2+z
loop_
_atom_site_type_symbol
_atom_site_label
_atom_site_fract_x
_atom_site_fract_y
_atom_site_fract_z
Si Si1 0.442781 0.590004 0.750000
Si Si2 0.994732 0.057464 0.750000
Si Si3 0.592267 0.757989 0.750000
Si Si4 0.895709 0.620631 0.250000
Si Si5 0.376228 0.250000 0.000000
Si Si6 0.888006 0.888537 0.489487
Si Si7 0.687273 0.446315 0.750000
Si Si8 0.332122 0.951138 0.005398
O O1 0.582034 0.657720 0.750000
O O2 0.527250 0.500730 0.750000
O O3 0.346525 0.598777 0.872015
O O4 0.005161 0.109008 0.872192
O O5 0.161470 0.007028 0.750000
O O6 0.871553 0.980166 0.750000
O O7 0.747220 0.816620 0.750000
O O8 0.530022 0.773683 0.617616
O O9 0.964562 0.634009 0.382635
O O10 0.255803 0.324885 0.029060
O O11 0.804450 0.978527 0.505274
O O12 0.688836 0.405668 0.620703
O O13 0.500000 0.000000 0.000000
#
# Coordination Sequence:
#
# PCOD9434110 Si02
#       8
#     4   4   4   4   4   8   4   8
#     4  10  17  30  48  72 110 140 172 225 280 326
#     4  10  18  33  50  69 107 154 187 234 285 317
#     4  10  20  32  48  73 106 144 180 224 278 332
#     4  10  21  32  47  72 109 143 188 242 282 325
#     4  10  18  32  50  74 112 144 172 226 272 314
#     4  10  19  31  50  78 111 144 188 233 272 329
#     4   8  16  27  45  72 102 137 179 215 259 324
#     4   9  16  27  46  72 106 142 171 217 271 319
#
# _framework density 26.041179
#
# number of rings (size 3 to 8) (size 9 to 14) (size 15 to 20)
#    0.000    2.400    0.000    5.400    0.000    0.000 
#    0.000    3.000    0.000    0.000    0.000    0.000 
#    0.000  830.400    0.000    0.000    0.000    0.000 
#
# Total GULP energy -222896.042782 kJ/mol
# GULP energy per Si atom -5572.401070 kJ/mol
# Density = 2.598191 g / cm^3
# Si number density = 26.041179 Si / 1000 Ang^3
#
#
#
# Elastic Constant Matrix: (Units=GPa)
#
#
# Indices 1 2 3 4 5 6 
#
# 1 74.0458 18.3289 50.2523 0.0000 0.0000 0.0000
# 2 18.3289 79.4091 50.1843 0.0000 0.0000 0.0000
# 3 50.2523 50.1843 344.9229 0.0000 0.0000 0.0000
# 4 0.0000 0.0000 0.0000 11.9336 0.0000 0.0000
# 5 0.0000 0.0000 0.0000 0.0000 3.1091 0.0000
# 6 0.0000 0.0000 0.0000 0.0000 0.0000 30.3680
#
#
#
# Elastic Compliance Matrix: (Units=1/GPa)
#
#
# Indices 1 2 3 4 5 6 
#
# 1 0.015375 -0.002349 -0.001898 0.000000 0.000000 0.000000
# 2 -0.002349 0.014227 -0.001728 0.000000 0.000000 0.000000
# 3 -0.001898 -0.001728 0.003427 0.000000 0.000000 0.000000
# 4 0.000000 0.000000 0.000000 0.083797 0.000000 0.000000
# 5 0.000000 0.000000 0.000000 0.000000 0.321638 0.000000
# 6 0.000000 0.000000 0.000000 0.000000 0.000000 0.032929
#
#
# Mechanical properties :
#
#
# Convention : Reuss Voigt Hill
#
# Bulk Modulus (GPa) = 47.44063 81.76763 64.60413
# Shear Modulus (GPa) = 10.19637 34.38962 22.29299
#
# Velocity S-wave (km/s) = 1.98090 3.63793 2.92904
# Velocity P-wave (km/s) = 4.84655 7.00811 6.02506
#
# Compressibility (1/GPa) = 0.02107898
#
# Stress axis : x y z
#
# Youngs Moduli (GPa) = 65.04111 70.28839 291.79014
#
# Poissons Ratio (x) = 0.16512 0.55388
# Poissons Ratio (y) = 0.15279 0.50413
# Poissons Ratio (z) = 0.12346 0.12144
#
# Static dielectric constant tensor:
#      x y z
#    x 2.041460 0.000000 0.000000 
#    y 0.000000 2.028470 0.000000 
#    z 0.000000 0.000000 1.749110 
# 
# From -- ./inp_files/11671.got.cif
#   From: 2010.05.17/outbox.cif.g08.bks.cpg/sg57_6_cif.got.tgz:11671.got - 2010.06.03 13:58:18.
