data_PCOD9434532
_publ_section_title
;
Structure prediction by ZEFSAII (Michael W. Deem and Ramdas Pophale) SiO2 
 PCOD9434532
Probable space group: P B C M
;
_chemical_formula_sum "Si O2"
_cell_formula_units_Z 64
_cell_length_a 22.277366
_cell_length_b 19.366230
_cell_length_c 8.581052
_cell_angle_alpha 90.000000
_cell_angle_beta 90.000000
_cell_angle_gamma 90.000000
_cell_volume 3702.111197
_symmetry_space_group_name_H-M "P B C M"
_symmetry_group_IT_number 57
_symmetry_cell_setting 'orthorhombic'
loop_
_space_group_symop_operation_xyz
x,y,z
-x,-y,1/2+z
x,1/2-y,-z
-x,1/2+y,1/2-z
-x,-y,-z
x,y,1/2-z
-x,1/2+y,z
x,1/2-y,1/2+z
loop_
_atom_site_type_symbol
_atom_site_label
_atom_site_fract_x
_atom_site_fract_y
_atom_site_fract_z
Si Si1 0.988351 0.576934 0.436735
Si Si2 0.606203 0.678592 0.437450
Si Si3 0.732550 0.633966 0.432328
Si Si4 0.189362 0.929194 0.934887
Si Si5 0.147516 0.078450 0.439292
Si Si6 0.689860 0.491572 0.564544
Si Si7 0.906165 0.327058 0.434537
Si Si8 0.560207 0.966687 0.064820
O O1 0.992047 0.575029 0.250000
O O2 0.920312 0.597435 0.481230
O O3 0.000000 0.500000 0.500000
O O4 0.038043 0.628927 0.499957
O O5 0.579535 0.750000 0.500000
O O6 0.606894 0.678752 0.250000
O O7 0.675457 0.674137 0.499848
O O8 0.573961 0.608800 0.493705
O O9 0.735707 0.651370 0.250000
O O10 0.800677 0.631935 0.493972
O O11 0.711763 0.554968 0.458594
O O12 0.179340 0.924362 0.750000
O O13 0.261229 0.932100 0.963435
O O14 0.153731 0.868241 0.016828
O O15 0.162782 0.002740 0.992926
O O16 0.151229 0.073770 0.250000
O O17 0.696037 0.510030 0.750000
O O18 0.619143 0.485527 0.533623
O O19 0.906231 0.250000 0.500000
O O20 0.910648 0.324992 0.250000
O O21 0.555324 0.959093 0.250000
O O22 0.500000 0.000000 0.000000
#
# Coordination Sequence:
#
# PCOD9434532 Si02
#       8
#     8   8   8   8   8   8   8   8
#     4  11  21  34  54  79 107 139 180 225 270 323
#     4  10  19  32  51  75 105 142 181 221 266 317
#     4   8  15  28  46  70  99 130 166 207 252 302
#     4  10  18  31  53  78 102 129 166 212 263 314
#     4   9  17  30  50  75 102 132 169 214 259 307
#     4   8  16  29  48  75 104 131 162 206 253 300
#     4  12  25  40  55  74 102 137 177 224 280 334
#     4  10  19  33  53  80 113 146 182 221 263 310
#
# _framework density 17.287433
#
# number of rings (size 3 to 8) (size 9 to 14) (size 15 to 20)
#    0.000    2.250    1.250    2.625    0.000    2.000 
#    0.000    0.625    0.000    2.250    0.000    3.500 
#    0.000    0.000    0.000    0.000    0.000    0.000 
#
# Total GULP energy -356543.341539 kJ/mol
# GULP energy per Si atom -5570.989712 kJ/mol
# Density = 1.724809 g / cm^3
# Si number density = 17.287433 Si / 1000 Ang^3
#
#
#
# Elastic Constant Matrix: (Units=GPa)
#
#
# Indices 1 2 3 4 5 6 
#
# 1 145.6900 61.2616 42.5990 0.0000 0.0000 0.0000
# 2 61.2616 96.2230 28.0995 0.0000 0.0000 0.0000
# 3 42.5990 28.0995 54.5804 0.0000 0.0000 0.0000
# 4 0.0000 0.0000 0.0000 24.0017 0.0000 0.0000
# 5 0.0000 0.0000 0.0000 0.0000 22.5966 0.0000
# 6 0.0000 0.0000 0.0000 0.0000 0.0000 15.0870
#
#
#
# Elastic Compliance Matrix: (Units=1/GPa)
#
#
# Indices 1 2 3 4 5 6 
#
# 1 0.010693 -0.005144 -0.005697 0.000000 0.000000 0.000000
# 2 -0.005144 0.014706 -0.003556 0.000000 0.000000 0.000000
# 3 -0.005697 -0.003556 0.024599 0.000000 0.000000 0.000000
# 4 0.000000 0.000000 0.000000 0.041664 0.000000 0.000000
# 5 0.000000 0.000000 0.000000 0.000000 0.044254 0.000000
# 6 0.000000 0.000000 0.000000 0.000000 0.000000 0.066282
#
#
# Mechanical properties :
#
#
# Convention : Reuss Voigt Hill
#
# Bulk Modulus (GPa) = 47.16350 62.26819 54.71584
# Shear Modulus (GPa) = 21.00307 23.30597 22.15452
#
# Velocity S-wave (km/s) = 3.48937 3.67569 3.58374
# Velocity P-wave (km/s) = 6.60117 7.35607 6.98882
#
# Compressibility (1/GPa) = 0.02120284
#
# Stress axis : x y z
#
# Youngs Moduli (GPa) = 93.52161 67.99948 40.65198
#
# Poissons Ratio (x) = 0.34978 0.23160
# Poissons Ratio (y) = 0.48107 0.14457
# Poissons Ratio (z) = 0.53282 0.24183
#
# Static dielectric constant tensor:
#      x y z
#    x 1.633800 0.000000 0.000000 
#    y 0.000000 1.559080 0.000000 
#    z 0.000000 0.000000 1.585540 
# 
# From -- ./inp_files/8475.got.cif
#   From: 2010.05.17/outbox.cif.g08.bks.cpg/sg57_5_cif.got.tgz:8475.got - 2010.06.03 13:58:18.
