data_PCOD9434225
_publ_section_title
;
Structure prediction by ZEFSAII (Michael W. Deem and Ramdas Pophale) SiO2 
 PCOD9434225
Probable space group: P B C M
;
_chemical_formula_sum "Si O2"
_cell_formula_units_Z 64
_cell_length_a 17.383901
_cell_length_b 25.100722
_cell_length_c 7.876964
_cell_angle_alpha 90.000000
_cell_angle_beta 90.000000
_cell_angle_gamma 90.000000
_cell_volume 3437.101160
_symmetry_space_group_name_H-M "P B C M"
_symmetry_group_IT_number 57
_symmetry_cell_setting 'orthorhombic'
loop_
_space_group_symop_operation_xyz
x,y,z
-x,-y,1/2+z
x,1/2-y,-z
-x,1/2+y,1/2-z
-x,-y,-z
x,y,1/2-z
-x,1/2+y,z
x,1/2-y,1/2+z
loop_
_atom_site_type_symbol
_atom_site_label
_atom_site_fract_x
_atom_site_fract_y
_atom_site_fract_z
Si Si1 0.574803 0.812181 0.048094
Si Si2 0.028597 0.088904 0.044957
Si Si3 0.818839 0.973673 0.957671
Si Si4 0.237943 0.688015 0.955081
Si Si5 0.878737 0.689788 0.453632
Si Si6 0.271013 0.128753 0.045948
Si Si7 0.146777 0.912620 0.451787
Si Si8 0.592202 0.312333 0.046023
O O1 0.570208 0.812734 0.250000
O O2 0.491064 0.831629 0.981062
O O3 0.587565 0.750000 0.000000
O O4 0.645671 0.849189 0.997992
O O5 0.025586 0.087544 0.250000
O O6 0.096740 0.048733 0.992674
O O7 0.058230 0.147145 0.988291
O O8 0.943724 0.079047 0.979309
O O9 0.817794 0.973955 0.750000
O O10 0.755938 0.929949 0.013098
O O11 0.810994 0.034212 0.018106
O O12 0.238293 0.687279 0.750000
O O13 0.177354 0.644039 0.018799
O O14 0.323573 0.670091 0.015319
O O15 0.223971 0.750000 0.000000
O O16 0.894648 0.750000 0.500000
O O17 0.876991 0.686254 0.250000
O O18 0.795309 0.669557 0.516034
O O19 0.266572 0.127729 0.250000
O O20 0.160207 0.911398 0.250000
O O21 0.592788 0.318939 0.250000
O O22 0.590869 0.250000 0.000000
#
# Coordination Sequence:
#
# PCOD9434225 Si02
#       8
#     8   8   8   8   8   8   8   8
#     4  10  18  27  43  68  94 119 149 183 219 262
#     4   9  18  32  47  64  88 117 147 183 227 265
#     4   8  16  32  50  66  88 118 151 186 223 264
#     4   9  18  32  49  69  93 119 147 181 223 270
#     4   9  18  30  43  60  86 120 150 176 214 264
#     4   9  17  30  46  64  89 120 151 184 221 260
#     4  10  19  31  50  72  88 110 150 191 223 263
#     4   8  15  28  44  63  89 119 147 178 218 261
#
# _framework density 18.620342000000001
#
# number of rings (size 3 to 8) (size 9 to 14) (size 15 to 20)
#    0.000    3.000    0.000    2.625    0.000    3.500 
#    0.000    5.000    0.000    0.750    0.000    0.000 
#    0.000    0.000    0.000    0.000    0.000    0.625 
#
# Total GULP energy -356363.687319 kJ/mol
# GULP energy per Si atom -5568.182614 kJ/mol
# Density = 1.857796 g / cm^3
# Si number density = 18.620342 Si / 1000 Ang^3
#
#
#
# Elastic Constant Matrix: (Units=GPa)
#
#
# Indices 1 2 3 4 5 6 
#
# 1 69.8442 41.9093 3.3653 0.0000 0.0000 0.0000
# 2 41.9093 119.2001 10.6203 0.0000 0.0000 0.0000
# 3 3.3653 10.6203 17.3093 0.0000 0.0000 0.0000
# 4 0.0000 0.0000 0.0000 12.0742 0.0000 0.0000
# 5 0.0000 0.0000 0.0000 0.0000 18.7298 0.0000
# 6 0.0000 0.0000 0.0000 0.0000 0.0000 15.1552
#
#
#
# Elastic Compliance Matrix: (Units=1/GPa)
#
#
# Indices 1 2 3 4 5 6 
#
# 1 0.018148 -0.006417 0.000409 0.000000 0.000000 0.000000
# 2 -0.006417 0.011143 -0.005590 0.000000 0.000000 0.000000
# 3 0.000409 -0.005590 0.061123 0.000000 0.000000 0.000000
# 4 0.000000 0.000000 0.000000 0.082821 0.000000 0.000000
# 5 0.000000 0.000000 0.000000 0.000000 0.053391 0.000000
# 6 0.000000 0.000000 0.000000 0.000000 0.000000 0.065984
#
#
# Mechanical properties :
#
#
# Convention : Reuss Voigt Hill
#
# Bulk Modulus (GPa) = 14.87682 35.34927 25.11304
# Shear Modulus (GPa) = 14.78360 19.22241 17.00300
#
# Velocity S-wave (km/s) = 2.82077 3.21648 3.02510
# Velocity P-wave (km/s) = 4.31461 5.72885 5.07127
#
# Compressibility (1/GPa) = 0.06721866
#
# Stress axis : x y z
#
# Youngs Moduli (GPa) = 55.10111 89.73867 16.36058
#
# Poissons Ratio (x) = 0.57587 -0.00669
# Poissons Ratio (y) = 0.35359 0.09145
# Poissons Ratio (z) = -0.02253 0.50160
#
# Static dielectric constant tensor:
#      x y z
#    x 1.681100 0.000000 0.000000 
#    y 0.000000 1.648460 0.000000 
#    z 0.000000 0.000000 1.683210 
# 
# From -- ./inp_files/7411.got.cif
#   From: 2010.05.17/outbox.cif.g08.bks.cpg/sg57_4_cif.got.tgz:7411.got - 2010.06.03 13:58:18.
