data_PCOD9434685
_publ_section_title
;
Structure prediction by ZEFSAII (Michael W. Deem and Ramdas Pophale) SiO2 
 PCOD9434685
Probable space group: P B C M
;
_chemical_formula_sum "Si O2"
_cell_formula_units_Z 48
_cell_length_a 7.249517
_cell_length_b 15.683600
_cell_length_c 18.570935
_cell_angle_alpha 90.000000
_cell_angle_beta 90.000000
_cell_angle_gamma 90.000000
_cell_volume 2111.487914
_symmetry_space_group_name_H-M "P B C M"
_symmetry_group_IT_number 57
_symmetry_cell_setting 'orthorhombic'
loop_
_space_group_symop_operation_xyz
x,y,z
-x,-y,1/2+z
x,1/2-y,-z
-x,1/2+y,1/2-z
-x,-y,-z
x,y,1/2-z
-x,1/2+y,z
x,1/2-y,1/2+z
loop_
_atom_site_type_symbol
_atom_site_label
_atom_site_fract_x
_atom_site_fract_y
_atom_site_fract_z
Si Si1 0.475069 0.970639 0.917304
Si Si2 0.134488 0.743635 0.581194
Si Si3 0.570079 0.715768 0.423253
Si Si4 0.900111 0.091185 0.163123
Si Si5 0.620148 0.627187 0.829481
Si Si6 0.050188 0.919613 0.169647
O O1 0.594563 0.884391 0.910599
O O2 0.274168 0.938611 0.886881
O O3 0.500969 0.057733 0.872424
O O4 0.500000 0.000000 0.000000
O O5 0.061029 0.750000 0.500000
O O6 0.350422 0.766122 0.577193
O O7 0.049893 0.815010 0.634208
O O8 0.116409 0.649163 0.612615
O O9 0.639134 0.750000 0.500000
O O10 0.639330 0.780361 0.363782
O O11 0.856073 0.093134 0.250000
O O12 0.058916 0.020088 0.152807
O O13 0.544502 0.634647 0.750000
O O14 0.828724 0.593407 0.826621
O O15 0.122920 0.902772 0.250000
#
# Coordination Sequence:
#
# PCOD9434685 Si02
#       6
#     8   8   8   8   8   8
#     4  10  18  33  57  81 110 148 182 229 275 338
#     4  10  21  35  56  86 112 145 191 231 279 340
#     4  10  20  35  55  82 113 145 182 232 285 329
#     4   9  19  36  58  80 111 153 191 230 287 343
#     4  10  21  36  56  83 111 146 191 232 277 339
#     4   9  19  37  56  77 109 149 189 229 278 337
#
# _framework density 22.732785
#
# number of rings (size 3 to 8) (size 9 to 14) (size 15 to 20)
#    0.000    2.333    1.667    2.000    0.000    5.333 
#    0.000    1.667    0.000    0.000    0.000    0.000 
#    0.000    0.000    0.000    0.000    0.000    0.000 
#
# Total GULP energy -267761.201364 kJ/mol
# GULP energy per Si atom -5578.358362 kJ/mol
# Density = 2.268104 g / cm^3
# Si number density = 22.732785 Si / 1000 Ang^3
#
#
#
# Elastic Constant Matrix: (Units=GPa)
#
#
# Indices 1 2 3 4 5 6 
#
# 1 57.4707 35.9138 25.2408 0.0000 0.0000 0.0000
# 2 35.9138 112.1944 54.7216 0.0000 0.0000 0.0000
# 3 25.2408 54.7216 157.4306 0.0000 0.0000 0.0000
# 4 0.0000 0.0000 0.0000 44.4681 0.0000 0.0000
# 5 0.0000 0.0000 0.0000 0.0000 -6.3509 0.0000
# 6 0.0000 0.0000 0.0000 0.0000 0.0000 28.6751
#
#
#
# Elastic Compliance Matrix: (Units=1/GPa)
#
#
# Indices 1 2 3 4 5 6 
#
# 1 0.021969 -0.006399 -0.001298 0.000000 0.000000 0.000000
# 2 -0.006399 0.012597 -0.003353 0.000000 0.000000 0.000000
# 3 -0.001298 -0.003353 0.007725 0.000000 0.000000 0.000000
# 4 0.000000 0.000000 0.000000 0.022488 0.000000 0.000000
# 5 0.000000 0.000000 0.000000 0.000000 -0.157457 0.000000
# 6 0.000000 0.000000 0.000000 0.000000 0.000000 0.034873
#
#
# Mechanical properties :
#
#
# Convention : Reuss Voigt Hill
#
# Bulk Modulus (GPa) = 49.52528 62.09424 55.80976
# Shear Modulus (GPa) = -172.56745 27.43975 -72.56385
#
# Velocity S-wave (km/s) = -8.72216 3.47804 -5.65594
# Velocity P-wave (km/s) = 8.92197 6.59569 4.24844
#
# Compressibility (1/GPa) = 0.02019171
#
# Stress axis : x y z
#
# Youngs Moduli (GPa) = 45.51820 79.38583 129.44299
#
# Poissons Ratio (x) = 0.50802 0.16801
# Poissons Ratio (y) = 0.29129 0.43396
# Poissons Ratio (z) = 0.05908 0.26614
#
# Static dielectric constant tensor:
#      x y z
#    x 1.929760 0.000000 0.000000 
#    y 0.000000 1.922470 0.000000 
#    z 0.000000 0.000000 1.825650 
# 
# From -- ./inp_files/24242.got.cif
#   From: 2010.05.17/outbox.cif.g08.bks.cpg/sg57_13_cif.got.tgz:24242.got - 2010.06.03 13:58:18.
