data_PCOD9434598
_publ_section_title
;
Structure prediction by ZEFSAII (Michael W. Deem and Ramdas Pophale) SiO2 
 PCOD9434598
Probable space group: P B C M
;
_chemical_formula_sum "Si O2"
_cell_formula_units_Z 64
_cell_length_a 12.465660
_cell_length_b 32.314949
_cell_length_c 8.381594
_cell_angle_alpha 90.000000
_cell_angle_beta 90.000000
_cell_angle_gamma 90.000000
_cell_volume 3376.333767
_symmetry_space_group_name_H-M "P B C M"
_symmetry_group_IT_number 57
_symmetry_cell_setting 'orthorhombic'
loop_
_space_group_symop_operation_xyz
x,y,z
-x,-y,1/2+z
x,1/2-y,-z
-x,1/2+y,1/2-z
-x,-y,-z
x,y,1/2-z
-x,1/2+y,z
x,1/2-y,1/2+z
loop_
_atom_site_type_symbol
_atom_site_label
_atom_site_fract_x
_atom_site_fract_y
_atom_site_fract_z
Si Si1 0.124147 0.137461 0.444124
Si Si2 0.034600 0.703420 0.059257
Si Si3 0.175309 0.502025 0.558616
Si Si4 0.593146 0.969346 0.556758
Si Si5 0.258346 0.702562 0.939707
Si Si6 0.012332 0.939162 0.942155
Si Si7 0.367629 0.124170 0.054847
Si Si8 0.489846 0.797679 0.940588
O O1 0.129326 0.136037 0.250000
O O2 0.073955 0.180866 0.493058
O O3 0.243493 0.126971 0.498532
O O4 0.033290 0.104817 0.492316
O O5 0.040465 0.702509 0.250000
O O6 0.145778 0.683602 0.996350
O O7 0.030796 0.750000 0.000000
O O8 0.178109 0.500225 0.750000
O O9 0.291971 0.487993 0.501819
O O10 0.126262 0.545878 0.507261
O O11 0.083510 0.469931 0.503854
O O12 0.593129 0.969215 0.750000
O O13 0.500000 0.000000 0.500000
O O14 0.585986 0.920894 0.505935
O O15 0.263627 0.798008 0.250000
O O16 0.370669 0.687317 0.009973
O O17 0.254411 0.750000 0.000000
O O18 0.017583 0.940742 0.750000
O O19 0.369028 0.124263 0.250000
O O20 0.429334 0.166001 0.003708
O O21 0.495704 0.795424 0.750000
O O22 0.507046 0.750000 0.000000
#
# Coordination Sequence:
#
# PCOD9434598 Si02
#       8
#     8   8   8   8   8   8   8   8
#     4   9  17  32  54  77 101 136 178 216 253 307
#     4  10  19  32  52  77 106 137 174 213 257 310
#     4   9  17  31  53  77 103 131 164 209 261 308
#     4  10  20  37  58  78 106 143 181 221 266 319
#     4  10  18  32  53  73 100 135 172 214 262 312
#     4   9  16  30  54  78  99 128 170 212 250 302
#     4   9  18  35  57  78 104 143 184 218 260 321
#     4  10  19  33  56  82 108 140 181 224 266 313
#
# _framework density 18.955473000000001
#
# number of rings (size 3 to 8) (size 9 to 14) (size 15 to 20)
#    0.000    2.500    1.250    3.375    0.000    1.000 
#    2.250    2.500    0.000    5.250    0.000    0.000 
#    0.000    0.000    0.000    0.000    0.000    0.000 
#
# Total GULP energy -356408.174246 kJ/mol
# GULP energy per Si atom -5568.877723 kJ/mol
# Density = 1.891233 g / cm^3
# Si number density = 18.955473 Si / 1000 Ang^3
#
#
#
# Elastic Constant Matrix: (Units=GPa)
#
#
# Indices 1 2 3 4 5 6 
#
# 1 106.5667 75.5779 14.8655 0.0000 0.0000 0.0000
# 2 75.5779 108.3823 15.8521 0.0000 0.0000 0.0000
# 3 14.8655 15.8521 24.2535 0.0000 0.0000 0.0000
# 4 0.0000 0.0000 0.0000 18.9655 0.0000 0.0000
# 5 0.0000 0.0000 0.0000 0.0000 -16.7267 0.0000
# 6 0.0000 0.0000 0.0000 0.0000 0.0000 34.8502
#
#
#
# Elastic Compliance Matrix: (Units=1/GPa)
#
#
# Indices 1 2 3 4 5 6 
#
# 1 0.018796 -0.012629 -0.003266 0.000000 0.000000 0.000000
# 2 -0.012629 0.018688 -0.004473 0.000000 0.000000 0.000000
# 3 -0.003266 -0.004473 0.046157 0.000000 0.000000 0.000000
# 4 0.000000 0.000000 0.000000 0.052727 0.000000 0.000000
# 5 0.000000 0.000000 0.000000 0.000000 -0.059785 0.000000
# 6 0.000000 0.000000 0.000000 0.000000 0.000000 0.028694
#
#
# Mechanical properties :
#
#
# Convention : Reuss Voigt Hill
#
# Bulk Modulus (GPa) = 23.30837 50.19927 36.75382
# Shear Modulus (GPa) = 31.18821 16.27825 23.73323
#
# Velocity S-wave (km/s) = 4.06068 2.93364 3.54227
# Velocity P-wave (km/s) = 5.85735 6.16565 6.01348
#
# Compressibility (1/GPa) = 0.04290305
#
# Stress axis : x y z
#
# Youngs Moduli (GPa) = 53.20190 53.51091 21.66521
#
# Poissons Ratio (x) = 0.67582 0.07076
# Poissons Ratio (y) = 0.67191 0.09692
# Poissons Ratio (z) = 0.17376 0.23938
#
# Static dielectric constant tensor:
#      x y z
#    x 1.676620 0.000000 0.000000 
#    y 0.000000 1.700180 0.000000 
#    z 0.000000 0.000000 1.661130 
# 
# From -- ./inp_files/13340.got.cif
#   From: 2010.05.17/outbox.cif.g08.bks.cpg/sg57_7_cif.got.tgz:13340.got - 2010.06.03 13:58:18.
