data_PCOD9434117
_publ_section_title
;
Structure prediction by ZEFSAII (Michael W. Deem and Ramdas Pophale) SiO2 
 PCOD9434117
Probable space group: P B C M
;
_chemical_formula_sum "Si O2"
_cell_formula_units_Z 64
_cell_length_a 12.195072
_cell_length_b 18.868116
_cell_length_c 14.905987
_cell_angle_alpha 90.000000
_cell_angle_beta 90.000000
_cell_angle_gamma 90.000000
_cell_volume 3429.838290
_symmetry_space_group_name_H-M "P B C M"
_symmetry_group_IT_number 57
_symmetry_cell_setting 'orthorhombic'
loop_
_space_group_symop_operation_xyz
x,y,z
-x,-y,1/2+z
x,1/2-y,-z
-x,1/2+y,1/2-z
-x,-y,-z
x,y,1/2-z
-x,1/2+y,z
x,1/2-y,1/2+z
loop_
_atom_site_type_symbol
_atom_site_label
_atom_site_fract_x
_atom_site_fract_y
_atom_site_fract_z
Si Si1 0.846095 0.858947 0.854969
Si Si2 0.016433 0.749998 0.391518
Si Si3 0.650700 0.071265 0.851414
Si Si4 0.896051 0.103627 0.896164
Si Si5 0.607505 0.595723 0.141972
Si Si6 0.582497 0.333793 0.523230
Si Si7 0.814520 0.365851 0.904788
Si Si8 0.975707 0.473089 0.644884
O O1 0.837502 0.874454 0.750000
O O2 0.899438 0.781904 0.865063
O O3 0.725139 0.873058 0.889566
O O4 0.938376 0.913469 0.889440
O O5 0.015522 0.750000 0.500000
O O6 0.049137 0.826488 0.355931
O O7 0.111728 0.695586 0.361376
O O8 0.615314 0.091504 0.750000
O O9 0.784329 0.074618 0.852035
O O10 0.614653 0.989799 0.868118
O O11 0.606024 0.122378 0.930581
O O12 0.989071 0.044473 0.902882
O O13 0.853521 0.127093 0.992935
O O14 0.591276 0.609479 0.250000
O O15 0.516821 0.631954 0.079236
O O16 0.570384 0.250000 0.500000
O O17 0.688835 0.345056 0.587374
O O18 0.854637 0.440479 0.864741
O O19 0.995185 0.485727 0.750000
#
# Coordination Sequence:
#
# PCOD9434117 Si02
#       8
#     8   8   8   8   8   8   8   8
#     4   9  18  33  52  77 108 142 184 227 272 337
#     4   9  18  32  51  80 114 144 179 225 281 338
#     4  10  20  37  62  89 118 152 199 249 292 350
#     4  10  17  30  54  84 113 144 184 231 285 340
#     4  10  21  39  62  84 113 156 200 243 291 348
#     4  11  23  39  60  87 117 151 198 247 297 352
#     4   9  19  34  50  75 112 146 180 230 282 338
#     4  10  18  30  51  78 109 144 184 225 272 335
#
# _framework density 18.659772
#
# number of rings (size 3 to 8) (size 9 to 14) (size 15 to 20)
#    0.000    2.250    1.250    3.000    0.000    2.500 
#    0.000    2.500    2.750    0.000    0.000    0.000 
#    0.000    0.000    0.000    0.000    0.000    0.000 
#
# Total GULP energy -356467.788523 kJ/mol
# GULP energy per Si atom -5569.809196 kJ/mol
# Density = 1.861730 g / cm^3
# Si number density = 18.659772 Si / 1000 Ang^3
#
#
#
# Elastic Constant Matrix: (Units=GPa)
#
#
# Indices 1 2 3 4 5 6 
#
# 1 105.5277 73.0357 41.2839 0.0000 0.0000 0.0000
# 2 73.0357 133.1037 23.7716 0.0000 0.0000 0.0000
# 3 41.2839 23.7716 57.4972 0.0000 0.0000 0.0000
# 4 0.0000 0.0000 0.0000 213.2075 0.0000 0.0000
# 5 0.0000 0.0000 0.0000 0.0000 20.6154 0.0000
# 6 0.0000 0.0000 0.0000 0.0000 0.0000 25.1943
#
#
#
# Elastic Compliance Matrix: (Units=1/GPa)
#
#
# Indices 1 2 3 4 5 6 
#
# 1 0.019811 -0.008994 -0.010506 0.000000 0.000000 0.000000
# 2 -0.008994 0.012195 0.001416 0.000000 0.000000 0.000000
# 3 -0.010506 0.001416 0.024350 0.000000 0.000000 0.000000
# 4 0.000000 0.000000 0.000000 0.004690 0.000000 0.000000
# 5 0.000000 0.000000 0.000000 0.000000 0.048507 0.000000
# 6 0.000000 0.000000 0.000000 0.000000 0.000000 0.039692
#
#
# Mechanical properties :
#
#
# Convention : Reuss Voigt Hill
#
# Bulk Modulus (GPa) = 49.53446 63.59010 56.56228
# Shear Modulus (GPa) = 26.02201 62.33925 44.18063
#
# Velocity S-wave (km/s) = 3.73842 5.78627 4.87117
# Velocity P-wave (km/s) = 6.72593 8.87659 7.87502
#
# Compressibility (1/GPa) = 0.02018797
#
# Stress axis : x y z
#
# Youngs Moduli (GPa) = 50.47592 81.99826 41.06713
#
# Poissons Ratio (x) = 0.73753 0.43146
# Poissons Ratio (y) = 0.45400 -0.05815
# Poissons Ratio (z) = 0.53031 -0.11612
#
# Static dielectric constant tensor:
#      x y z
#    x 1.658950 0.000000 0.000000 
#    y 0.000000 1.674450 0.000000 
#    z 0.000000 0.000000 1.689520 
# 
# From -- ./inp_files/17992.got.cif
#   From: 2010.05.17/outbox.cif.g08.bks.cpg/sg57_9_cif.got.tgz:17992.got - 2010.06.03 13:58:18.
