data_PCOD9434304
_publ_section_title
;
Structure prediction by ZEFSAII (Michael W. Deem and Ramdas Pophale) SiO2 
 PCOD9434304
Probable space group: P B C M
;
_chemical_formula_sum "Si O2"
_cell_formula_units_Z 48
_cell_length_a 12.597129
_cell_length_b 7.886919
_cell_length_c 24.620404
_cell_angle_alpha 90.000000
_cell_angle_beta 90.000000
_cell_angle_gamma 90.000000
_cell_volume 2446.099576
_symmetry_space_group_name_H-M "P B C M"
_symmetry_group_IT_number 57
_symmetry_cell_setting 'orthorhombic'
loop_
_space_group_symop_operation_xyz
x,y,z
-x,-y,1/2+z
x,1/2-y,-z
-x,1/2+y,1/2-z
-x,-y,-z
x,y,1/2-z
-x,1/2+y,z
x,1/2-y,1/2+z
loop_
_atom_site_type_symbol
_atom_site_label
_atom_site_fract_x
_atom_site_fract_y
_atom_site_fract_z
Si Si1 0.336035 0.700196 0.938795
Si Si2 0.460445 0.428607 0.750000
Si Si3 0.437734 0.323209 0.560908
Si Si4 0.335569 0.779428 0.750000
Si Si5 0.832147 0.646996 0.750000
Si Si6 0.316308 0.270765 0.661485
Si Si7 0.198241 0.866506 0.158432
Si Si8 0.949528 0.487374 0.250000
O O1 0.438229 0.814781 0.921784
O O2 0.390223 0.512784 0.938618
O O3 0.231067 0.701412 0.901100
O O4 0.308120 0.750000 0.000000
O O5 0.410032 0.612758 0.750000
O O6 0.585599 0.434147 0.750000
O O7 0.415734 0.329834 0.697964
O O8 0.432402 0.250000 0.500000
O O9 0.364073 0.221447 0.603579
O O10 0.265417 0.754656 0.802482
O O11 0.758315 0.649008 0.803298
O O12 0.924042 0.509148 0.750000
O O13 0.894520 0.828260 0.750000
O O14 0.248145 0.444294 0.656877
O O15 0.091077 0.895040 0.194114
#
# Coordination Sequence:
#
# PCOD9434304 Si02
#       8
#     8   4   8   4   4   8   8   4
#     4  10  18  29  44  65  92 125 155 182 212 252
#     4   9  15  25  40  60  84 113 141 171 210 258
#     4  10  18  29  44  65  92 125 155 182 212 252
#     4   9  15  25  40  60  84 113 141 171 210 258
#     4   9  17  33  52  70  88 111 143 185 232 276
#     4   8  16  29  45  62  87 118 145 173 219 270
#     4   8  16  29  45  62  87 118 145 173 219 270
#     4   9  17  33  52  70  88 111 143 185 232 276
#
# _framework density 19.623076000000001
#
# number of rings (size 3 to 8) (size 9 to 14) (size 15 to 20)
#    0.000    3.000    0.000    5.000    0.000    0.000 
#    0.000    8.333    0.000    1.000    0.000    7.000 
#    0.000    0.000    0.000    0.000    0.000    0.000 
#
# Total GULP energy -267392.292577 kJ/mol
# GULP energy per Si atom -5570.672762 kJ/mol
# Density = 1.957841 g / cm^3
# Si number density = 19.623076 Si / 1000 Ang^3
#
#
#
# Elastic Constant Matrix: (Units=GPa)
#
#
# Indices 1 2 3 4 5 6 
#
# 1 64.7823 17.3156 34.9449 0.0000 0.0000 0.0000
# 2 17.3156 59.4131 10.2175 0.0000 0.0000 0.0000
# 3 34.9449 10.2175 97.2999 0.0000 0.0000 0.0000
# 4 0.0000 0.0000 0.0000 -21.2306 0.0000 0.0000
# 5 0.0000 0.0000 0.0000 0.0000 23.7303 0.0000
# 6 0.0000 0.0000 0.0000 0.0000 0.0000 27.6711
#
#
#
# Elastic Compliance Matrix: (Units=1/GPa)
#
#
# Indices 1 2 3 4 5 6 
#
# 1 0.020391 -0.004770 -0.006823 0.000000 0.000000 0.000000
# 2 -0.004770 0.018257 -0.000204 0.000000 0.000000 0.000000
# 3 -0.006823 -0.000204 0.012749 0.000000 0.000000 0.000000
# 4 0.000000 0.000000 0.000000 -0.047102 0.000000 0.000000
# 5 0.000000 0.000000 0.000000 0.000000 0.042140 0.000000
# 6 0.000000 0.000000 0.000000 0.000000 0.000000 0.036139
#
#
# Mechanical properties :
#
#
# Convention : Reuss Voigt Hill
#
# Bulk Modulus (GPa) = 35.96555 38.49458 37.23007
# Shear Modulus (GPa) = 43.31423 16.63531 29.97477
#
# Velocity S-wave (km/s) = 4.70330 2.91476 3.91260
# Velocity P-wave (km/s) = 6.91829 5.56663 6.27893
#
# Compressibility (1/GPa) = 0.02780438
#
# Stress axis : x y z
#
# Youngs Moduli (GPa) = 49.04005 54.77497 78.43582
#
# Poissons Ratio (x) = 0.26126 0.53514
# Poissons Ratio (y) = 0.23390 0.01601
# Poissons Ratio (z) = 0.33458 0.01118
#
# Static dielectric constant tensor:
#      x y z
#    x 1.690630 0.000000 0.000000 
#    y 0.000000 1.772540 0.000000 
#    z 0.000000 0.000000 1.726820 
# 
# From -- ./inp_files/27379.got.cif
#   From: 2010.05.17/outbox.cif.g08.bks.cpg/sg57_14_cif.got.tgz:27379.got - 2010.06.03 13:58:18.
