data_PCOD9434783
_publ_section_title
;
Structure prediction by ZEFSAII (Michael W. Deem and Ramdas Pophale) SiO2 
 PCOD9434783
Probable space group: P B C M
;
_chemical_formula_sum "Si O2"
_cell_formula_units_Z 48
_cell_length_a 8.641947
_cell_length_b 15.970592
_cell_length_c 18.146884
_cell_angle_alpha 90.000000
_cell_angle_beta 90.000000
_cell_angle_gamma 90.000000
_cell_volume 2504.578664
_symmetry_space_group_name_H-M "P B C M"
_symmetry_group_IT_number 57
_symmetry_cell_setting 'orthorhombic'
loop_
_space_group_symop_operation_xyz
x,y,z
-x,-y,1/2+z
x,1/2-y,-z
-x,1/2+y,1/2-z
-x,-y,-z
x,y,1/2-z
-x,1/2+y,z
x,1/2-y,1/2+z
loop_
_atom_site_type_symbol
_atom_site_label
_atom_site_fract_x
_atom_site_fract_y
_atom_site_fract_z
Si Si1 0.918272 0.083942 0.973144
Si Si2 0.387935 0.750450 0.663389
Si Si3 0.962005 0.312754 0.165431
Si Si4 0.565873 0.597066 0.087981
Si Si5 0.562713 0.087493 0.570163
Si Si6 0.140423 0.305935 0.933507
O O1 0.962944 0.108971 0.889836
O O2 0.733166 0.082976 0.968121
O O3 0.989398 0.153987 0.027445
O O4 0.000000 0.000000 0.000000
O O5 0.427443 0.752020 0.750000
O O6 0.202538 0.735860 0.657606
O O7 0.453931 0.833774 0.624362
O O8 0.451693 0.667771 0.622210
O O9 0.981566 0.335751 0.250000
O O10 0.091810 0.252154 0.133661
O O11 0.537993 0.501029 0.111117
O O12 0.742036 0.625892 0.097589
O O13 0.547747 0.595854 0.999541
O O14 0.212280 0.250000 0.000000
#
# Coordination Sequence:
#
# PCOD9434783 Si02
#       6
#     8   8   8   8   8   8
#     4  10  18  35  58  84 110 147 189 240 288 339
#     4  10  21  38  57  78 114 156 190 229 287 348
#     4   9  20  37  56  79 111 151 191 232 287 347
#     4  11  21  35  58  87 114 148 190 241 286 338
#     4  10  21  36  58  86 114 148 195 238 281 344
#     4  10  19  32  56  84 113 143 187 238 285 341
#
# _framework density 19.164899999999999
#
# number of rings (size 3 to 8) (size 9 to 14) (size 15 to 20)
#    0.000    2.000    1.667    2.500    0.000    4.000 
#    0.000    0.833    0.000    1.000    0.000    0.000 
#    0.000    0.000    0.000    0.000    0.000    0.000 
#
# Total GULP energy -267686.564104 kJ/mol
# GULP energy per Si atom -5576.803419 kJ/mol
# Density = 1.912128 g / cm^3
# Si number density = 19.164900 Si / 1000 Ang^3
#
#
#
# Elastic Constant Matrix: (Units=GPa)
#
#
# Indices 1 2 3 4 5 6 
#
# 1 35.4190 28.2272 22.3845 0.0000 0.0000 0.0000
# 2 28.2272 114.7175 34.7018 0.0000 0.0000 0.0000
# 3 22.3845 34.7018 87.2060 0.0000 0.0000 0.0000
# 4 0.0000 0.0000 0.0000 19.1863 0.0000 0.0000
# 5 0.0000 0.0000 0.0000 0.0000 17.7311 0.0000
# 6 0.0000 0.0000 0.0000 0.0000 0.0000 30.0179
#
#
#
# Elastic Compliance Matrix: (Units=1/GPa)
#
#
# Indices 1 2 3 4 5 6 
#
# 1 0.038500 -0.007371 -0.006949 0.000000 0.000000 0.000000
# 2 -0.007371 0.011321 -0.002613 0.000000 0.000000 0.000000
# 3 -0.006949 -0.002613 0.014291 0.000000 0.000000 0.000000
# 4 0.000000 0.000000 0.000000 0.052120 0.000000 0.000000
# 5 0.000000 0.000000 0.000000 0.000000 0.056398 0.000000
# 6 0.000000 0.000000 0.000000 0.000000 0.000000 0.033313
#
#
# Mechanical properties :
#
#
# Convention : Reuss Voigt Hill
#
# Bulk Modulus (GPa) = 33.06321 45.32996 39.19658
# Shear Modulus (GPa) = 20.00868 23.52233 21.76550
#
# Velocity S-wave (km/s) = 3.23465 3.50718 3.37367
# Velocity P-wave (km/s) = 5.58928 6.33280 5.97262
#
# Compressibility (1/GPa) = 0.03024509
#
# Stress axis : x y z
#
# Youngs Moduli (GPa) = 25.97427 88.32977 69.97599
#
# Poissons Ratio (x) = 0.65109 0.48627
# Poissons Ratio (y) = 0.19146 0.18285
# Poissons Ratio (z) = 0.18050 0.23081
#
# Static dielectric constant tensor:
#      x y z
#    x 1.701500 0.000000 0.000000 
#    y 0.000000 1.703790 0.000000 
#    z 0.000000 0.000000 1.643800 
# 
# From -- ./inp_files/20984.got.cif
#   From: 2010.05.17/outbox.cif.g08.bks.cpg/sg57_11_cif.got.tgz:20984.got - 2010.06.03 13:58:18.
