data_PCOD9434245
_publ_section_title
;
Structure prediction by ZEFSAII (Michael W. Deem and Ramdas Pophale) SiO2 
 PCOD9434245
Probable space group: P B C M
;
_chemical_formula_sum "Si O2"
_cell_formula_units_Z 64
_cell_length_a 18.985920
_cell_length_b 27.175513
_cell_length_c 8.771912
_cell_angle_alpha 90.000000
_cell_angle_beta 90.000000
_cell_angle_gamma 90.000000
_cell_volume 4525.886556
_symmetry_space_group_name_H-M "P B C M"
_symmetry_group_IT_number 57
_symmetry_cell_setting 'orthorhombic'
loop_
_space_group_symop_operation_xyz
x,y,z
-x,-y,1/2+z
x,1/2-y,-z
-x,1/2+y,1/2-z
-x,-y,-z
x,y,1/2-z
-x,1/2+y,z
x,1/2-y,1/2+z
loop_
_atom_site_type_symbol
_atom_site_label
_atom_site_fract_x
_atom_site_fract_y
_atom_site_fract_z
Si Si1 0.332787 0.697007 0.568165
Si Si2 0.543395 0.546026 0.432935
Si Si3 0.670948 0.003854 0.432773
Si Si4 0.091978 0.897073 0.933568
Si Si5 0.826327 0.007961 0.933630
Si Si6 0.040360 0.453013 0.567051
Si Si7 0.168724 0.803309 0.432871
Si Si8 0.411751 0.895484 0.932958
O O1 0.352462 0.750000 0.500000
O O2 0.336258 0.699533 0.750000
O O3 0.250883 0.687346 0.525107
O O4 0.380693 0.652907 0.508424
O O5 0.500000 0.500000 0.500000
O O6 0.546581 0.542323 0.250000
O O7 0.620563 0.539076 0.502284
O O8 0.493131 0.592098 0.471886
O O9 0.671931 0.001429 0.250000
O O10 0.748916 0.001741 0.499434
O O11 0.635094 0.056478 0.475703
O O12 0.098219 0.897403 0.750000
O O13 0.009977 0.907602 0.976297
O O14 0.138032 0.942333 0.000391
O O15 0.121515 0.846597 0.999600
O O16 0.823253 0.011836 0.750000
O O17 0.878565 0.962520 0.976256
O O18 0.038202 0.455630 0.750000
O O19 0.000000 0.500000 0.500000
O O20 0.149856 0.750000 0.500000
O O21 0.163734 0.802514 0.250000
O O22 0.407184 0.890838 0.750000
#
# Coordination Sequence:
#
# PCOD9434245 Si02
#       8
#     8   8   8   8   8   8   8   8
#     4  10  20  31  44  60  81 108 139 174 209 243
#     4   9  17  29  43  60  83 111 140 173 208 246
#     4  10  19  29  42  62  86 113 143 176 211 249
#     4  10  18  29  44  61  83 112 143 176 212 251
#     4  10  18  28  42  61  85 113 144 176 208 249
#     4   8  16  28  41  58  81 109 140 172 208 247
#     4  10  20  32  44  61  83 110 143 178 213 248
#     4   9  18  30  43  59  82 110 140 171 206 245
#
# _framework density 14.140876
#
# number of rings (size 3 to 8) (size 9 to 14) (size 15 to 20)
#    0.000    2.500    0.000    3.750    0.000    7.500 
#    0.000    0.000    0.000    0.000    0.000    0.000 
#    0.000    1.000    0.000    4.750    0.000    4.125 
#
# Total GULP energy -356461.069581 kJ/mol
# GULP energy per Si atom -5569.704212 kJ/mol
# Density = 1.410869 g / cm^3
# Si number density = 14.140876 Si / 1000 Ang^3
#
#
#
# Elastic Constant Matrix: (Units=GPa)
#
#
# Indices 1 2 3 4 5 6 
#
# 1 121.7741 66.5873 41.3523 0.0000 0.0000 0.0000
# 2 66.5873 96.6424 37.2641 0.0000 0.0000 0.0000
# 3 41.3523 37.2641 43.2835 0.0000 0.0000 0.0000
# 4 0.0000 0.0000 0.0000 22.9941 0.0000 0.0000
# 5 0.0000 0.0000 0.0000 0.0000 22.1817 0.0000
# 6 0.0000 0.0000 0.0000 0.0000 0.0000 27.1243
#
#
#
# Elastic Compliance Matrix: (Units=1/GPa)
#
#
# Indices 1 2 3 4 5 6 
#
# 1 0.014838 -0.007121 -0.008045 0.000000 0.000000 0.000000
# 2 -0.007121 0.018907 -0.009474 0.000000 0.000000 0.000000
# 3 -0.008045 -0.009474 0.038946 0.000000 0.000000 0.000000
# 4 0.000000 0.000000 0.000000 0.043489 0.000000 0.000000
# 5 0.000000 0.000000 0.000000 0.000000 0.045082 0.000000
# 6 0.000000 0.000000 0.000000 0.000000 0.000000 0.036867
#
#
# Mechanical properties :
#
#
# Convention : Reuss Voigt Hill
#
# Bulk Modulus (GPa) = 42.71619 61.34525 52.03072
# Shear Modulus (GPa) = 19.59140 22.22645 20.90892
#
# Velocity S-wave (km/s) = 3.72619 3.96888 3.84945
# Velocity P-wave (km/s) = 6.98469 8.02984 7.52543
#
# Compressibility (1/GPa) = 0.02341033
#
# Stress axis : x y z
#
# Youngs Moduli (GPa) = 67.39528 52.88972 25.67661
#
# Poissons Ratio (x) = 0.37665 0.20656
# Poissons Ratio (y) = 0.47995 0.24327
# Poissons Ratio (z) = 0.54218 0.50109
#
# Static dielectric constant tensor:
#      x y z
#    x 1.506980 0.000000 0.000000 
#    y 0.000000 1.447300 0.000000 
#    z 0.000000 0.000000 1.470050 
# 
# From -- ./inp_files/7374.got.cif
#   From: 2010.05.17/outbox.cif.g08.bks.cpg/sg57_4_cif.got.tgz:7374.got - 2010.06.03 13:58:18.
