data_PCOD9434052
_publ_section_title
;
Structure prediction by ZEFSAII (Michael W. Deem and Ramdas Pophale) SiO2 
 PCOD9434052
Probable space group: P B C M
;
_chemical_formula_sum "Si O2"
_cell_formula_units_Z 40
_cell_length_a 27.141751
_cell_length_b 9.221925
_cell_length_c 8.724720
_cell_angle_alpha 90.000000
_cell_angle_beta 90.000000
_cell_angle_gamma 90.000000
_cell_volume 2183.790367
_symmetry_space_group_name_H-M "P B C M"
_symmetry_group_IT_number 57
_symmetry_cell_setting 'orthorhombic'
loop_
_space_group_symop_operation_xyz
x,y,z
-x,-y,1/2+z
x,1/2-y,-z
-x,1/2+y,1/2-z
-x,-y,-z
x,y,1/2-z
-x,1/2+y,z
x,1/2-y,1/2+z
loop_
_atom_site_type_symbol
_atom_site_label
_atom_site_fract_x
_atom_site_fract_y
_atom_site_fract_z
Si Si1 0.454175 0.411060 0.066534
Si Si2 0.644456 0.412347 0.566264
Si Si3 0.954555 0.411933 0.566604
Si Si4 0.253894 0.585537 0.567006
Si Si5 0.846062 0.086105 0.066326
O O1 0.458329 0.405540 0.250000
O O2 0.403239 0.492844 0.028060
O O3 0.454194 0.250000 0.000000
O O4 0.500000 0.500000 0.000000
O O5 0.637801 0.250000 0.500000
O O6 0.649626 0.402757 0.750000
O O7 0.694827 0.476775 0.495742
O O8 0.956478 0.250000 0.500000
O O9 0.957960 0.405344 0.750000
O O10 0.900153 0.476334 0.529020
O O11 0.000000 0.500000 0.500000
O O12 0.254049 0.750000 0.500000
O O13 0.253848 0.590585 0.750000
O O14 0.202955 0.517174 0.506120
O O15 0.840544 0.092365 0.250000
O O16 0.847932 0.250000 0.000000
#
# Coordination Sequence:
#
# PCOD9434052 Si02
#       5
#     8   8   8   8   8
#     4  11  24  40  60  83 110 143 179 219 263 310
#     4  10  20  34  53  79 108 139 172 211 257 307
#     4  10  20  33  51  74 102 136 174 217 265 315
#     4  10  17  26  45  72 101 133 167 209 255 302
#     4   9  16  27  44  68  98 131 167 210 256 304
#
# _framework density 18.316776000000001
#
# number of rings (size 3 to 8) (size 9 to 14) (size 15 to 20)
#    0.000    2.000    0.000    7.200    0.000    7.200 
#    0.000    0.000    0.000    1.200    0.000    5.600 
#    0.000    0.000    0.000    0.000    0.000    0.000 
#
# Total GULP energy -223126.086406 kJ/mol
# GULP energy per Si atom -5578.152160 kJ/mol
# Density = 1.827509 g / cm^3
# Si number density = 18.316776 Si / 1000 Ang^3
#
#
#
# Elastic Constant Matrix: (Units=GPa)
#
#
# Indices 1 2 3 4 5 6 
#
# 1 239.8382 67.0435 93.8635 0.0000 0.0000 0.0000
# 2 67.0435 56.0591 29.7507 0.0000 0.0000 0.0000
# 3 93.8635 29.7507 101.8678 0.0000 0.0000 0.0000
# 4 0.0000 0.0000 0.0000 22.1605 0.0000 0.0000
# 5 0.0000 0.0000 0.0000 0.0000 33.9006 0.0000
# 6 0.0000 0.0000 0.0000 0.0000 0.0000 21.6344
#
#
#
# Elastic Compliance Matrix: (Units=1/GPa)
#
#
# Indices 1 2 3 4 5 6 
#
# 1 0.008320 -0.006960 -0.005633 0.000000 0.000000 0.000000
# 2 -0.006960 0.026933 -0.001452 0.000000 0.000000 0.000000
# 3 -0.005633 -0.001452 0.015431 0.000000 0.000000 0.000000
# 4 0.000000 0.000000 0.000000 0.045125 0.000000 0.000000
# 5 0.000000 0.000000 0.000000 0.000000 0.029498 0.000000
# 6 0.000000 0.000000 0.000000 0.000000 0.000000 0.046223
#
#
# Mechanical properties :
#
#
# Convention : Reuss Voigt Hill
#
# Bulk Modulus (GPa) = 44.26266 86.56451 65.41358
# Shear Modulus (GPa) = 24.13663 29.34625 26.74144
#
# Velocity S-wave (km/s) = 3.63400 4.00703 3.82506
# Velocity P-wave (km/s) = 6.46726 8.29281 7.43627
#
# Compressibility (1/GPa) = 0.02259241
#
# Stress axis : x y z
#
# Youngs Moduli (GPa) = 120.19487 37.12851 64.80268
#
# Poissons Ratio (x) = 0.25843 0.36505
# Poissons Ratio (y) = 0.83661 0.09412
# Poissons Ratio (z) = 0.67709 0.05393
#
# Static dielectric constant tensor:
#      x y z
#    x 1.700260 0.000000 0.000000 
#    y 0.000000 1.601520 0.000000 
#    z 0.000000 0.000000 1.610870 
# 
# From -- ./inp_files/9647.got.cif
#   From: 2010.05.17/outbox.cif.g08.bks.cpg/sg57_5_cif.got.tgz:9647.got - 2010.06.03 13:58:18.
