data_PCOD9434596
_publ_section_title
;
Structure prediction by ZEFSAII (Michael W. Deem and Ramdas Pophale) SiO2 
 PCOD9434596
Probable space group: P B C M
;
_chemical_formula_sum "Si O2"
_cell_formula_units_Z 48
_cell_length_a 14.242128
_cell_length_b 8.344691
_cell_length_c 16.055841
_cell_angle_alpha 90.000000
_cell_angle_beta 90.000000
_cell_angle_gamma 90.000000
_cell_volume 1908.175006
_symmetry_space_group_name_H-M "P B C M"
_symmetry_group_IT_number 57
_symmetry_cell_setting 'orthorhombic'
loop_
_space_group_symop_operation_xyz
x,y,z
-x,-y,1/2+z
x,1/2-y,-z
-x,1/2+y,1/2-z
-x,-y,-z
x,y,1/2-z
-x,1/2+y,z
x,1/2-y,1/2+z
loop_
_atom_site_type_symbol
_atom_site_label
_atom_site_fract_x
_atom_site_fract_y
_atom_site_fract_z
Si Si1 0.435839 0.117270 0.750000
Si Si2 0.098993 0.917026 0.608498
Si Si3 0.896578 0.464739 0.090499
Si Si4 0.361706 0.704846 0.750000
Si Si5 0.700495 0.527991 0.396904
Si Si6 0.761514 0.525309 0.750000
Si Si7 0.499712 0.084403 0.090656
Si Si8 0.647183 0.250000 0.500000
O O1 0.525434 0.237855 0.750000
O O2 0.323993 0.155940 0.750000
O O3 0.461844 0.025013 0.664421
O O4 0.114493 0.723804 0.615691
O O5 0.101925 0.963518 0.510563
O O6 0.172366 0.008506 0.668484
O O7 0.991673 0.965007 0.629161
O O8 0.807474 0.574470 0.115424
O O9 0.327330 0.591943 0.824283
O O10 0.303220 0.866386 0.750000
O O11 0.608655 0.639622 0.400679
O O12 0.702059 0.411023 0.478746
O O13 0.578003 0.216394 0.076170
O O14 0.500000 0.000000 0.000000
#
# Coordination Sequence:
#
# PCOD9434596 Si02
#       8
#     4   8   8   4   8   4   8   4
#     4  10  22  36  56  90 134 154 217 271 311 394
#     4  10  23  38  66  92 126 167 217 276 323 394
#     4  10  21  42  62  92 126 167 221 270 329 390
#     4  10  20  35  56  91 115 165 207 256 312 380
#     4  10  19  33  59  79 118 160 205 251 319 384
#     4  12  22  37  68  95 123 175 218 263 335 394
#     4   9  20  33  54  87 123 161 206 261 314 390
#     4  10  18  32  52  88 118 160 210 254 316 396
#
# _framework density 25.154926
#
# number of rings (size 3 to 8) (size 9 to 14) (size 15 to 20)
#    0.000    2.000    1.667    2.000    4.667    1.333 
#    0.000    3.333    7.333    0.000    0.000    0.000 
#    0.000    0.000    0.000    0.000    0.000    0.000 
#
# Total GULP energy -267930.518704 kJ/mol
# GULP energy per Si atom -5581.885806 kJ/mol
# Density = 2.509767 g / cm^3
# Si number density = 25.154926 Si / 1000 Ang^3
#
#
#
# Elastic Constant Matrix: (Units=GPa)
#
#
# Indices 1 2 3 4 5 6 
#
# 1 257.7553 16.7739 36.6766 0.0000 0.0000 0.0000
# 2 16.7739 31.2570 28.9118 0.0000 0.0000 0.0000
# 3 36.6766 28.9118 103.8193 0.0000 0.0000 0.0000
# 4 0.0000 0.0000 0.0000 24.5326 0.0000 0.0000
# 5 0.0000 0.0000 0.0000 0.0000 36.7939 0.0000
# 6 0.0000 0.0000 0.0000 0.0000 0.0000 44.9441
#
#
#
# Elastic Compliance Matrix: (Units=1/GPa)
#
#
# Indices 1 2 3 4 5 6 
#
# 1 0.004116 -0.001164 -0.001130 0.000000 0.000000 0.000000
# 2 -0.001164 0.043422 -0.011681 0.000000 0.000000 0.000000
# 3 -0.001130 -0.011681 0.013284 0.000000 0.000000 0.000000
# 4 0.000000 0.000000 0.000000 0.040762 0.000000 0.000000
# 5 0.000000 0.000000 0.000000 0.000000 0.027178 0.000000
# 6 0.000000 0.000000 0.000000 0.000000 0.000000 0.022250
#
#
# Mechanical properties :
#
#
# Convention : Reuss Voigt Hill
#
# Bulk Modulus (GPa) = 30.42029 61.95069 46.18549
# Shear Modulus (GPa) = 26.32684 41.95209 34.13946
#
# Velocity S-wave (km/s) = 3.23861 4.08824 3.68797
# Velocity P-wave (km/s) = 5.10923 6.85318 6.04443
#
# Compressibility (1/GPa) = 0.03287280
#
# Stress axis : x y z
#
# Youngs Moduli (GPa) = 242.94393 23.02977 75.27656
#
# Poissons Ratio (x) = 0.02680 0.08507
# Poissons Ratio (y) = 0.28269 0.87932
# Poissons Ratio (z) = 0.27455 0.26902
#
# Static dielectric constant tensor:
#      x y z
#    x 2.045850 0.000000 0.000000 
#    y 0.000000 2.139640 0.000000 
#    z 0.000000 0.000000 2.375820 
# 
# From -- ./inp_files/21880.got.cif
#   From: 2010.05.17/outbox.cif.g08.bks.cpg/sg57_11_cif.got.tgz:21880.got - 2010.06.03 13:58:18.
