data_PCOD9434978
_publ_section_title
;
Structure prediction by ZEFSAII (Michael W. Deem and Ramdas Pophale) SiO2 
 PCOD9434978
Probable space group: P B C M
;
_chemical_formula_sum "Si O2"
_cell_formula_units_Z 64
_cell_length_a 19.975206
_cell_length_b 23.949696
_cell_length_c 7.720491
_cell_angle_alpha 90.000000
_cell_angle_beta 90.000000
_cell_angle_gamma 90.000000
_cell_volume 3693.483753
_symmetry_space_group_name_H-M "P B C M"
_symmetry_group_IT_number 57
_symmetry_cell_setting 'orthorhombic'
loop_
_space_group_symop_operation_xyz
x,y,z
-x,-y,1/2+z
x,1/2-y,-z
-x,1/2+y,1/2-z
-x,-y,-z
x,y,1/2-z
-x,1/2+y,z
x,1/2-y,1/2+z
loop_
_atom_site_type_symbol
_atom_site_label
_atom_site_fract_x
_atom_site_fract_y
_atom_site_fract_z
Si Si1 0.750613 0.504397 0.537493
Si Si2 0.395801 0.521603 0.457328
Si Si3 0.892866 0.685678 0.956189
Si Si4 0.388008 0.185865 0.541935
Si Si5 0.247548 0.365272 0.038476
Si Si6 0.892672 0.472976 0.950857
Si Si7 0.026789 0.420394 0.954257
Si Si8 0.521215 0.586383 0.541533
O O1 0.752474 0.503658 0.750000
O O2 0.680450 0.477770 0.480109
O O3 0.751723 0.569740 0.487633
O O4 0.818257 0.474783 0.473493
O O5 0.392378 0.516176 0.250000
O O6 0.444728 0.572950 0.496246
O O7 0.433855 0.465873 0.523246
O O8 0.891900 0.680111 0.750000
O O9 0.819915 0.665327 0.021743
O O10 0.904686 0.750000 0.000000
O O11 0.948127 0.642233 0.022319
O O12 0.399907 0.250000 0.500000
O O13 0.386211 0.180872 0.750000
O O14 0.315158 0.165213 0.478786
O O15 0.445211 0.143397 0.478466
O O16 0.247566 0.364165 0.250000
O O17 0.885560 0.456798 0.750000
O O18 0.952594 0.434844 0.023809
O O19 0.921442 0.536196 0.960336
O O20 0.027149 0.433963 0.750000
O O21 0.525214 0.585935 0.750000
#
# Coordination Sequence:
#
# PCOD9434978 Si02
#       8
#     8   8   8   8   8   8   8   8
#     4   9  14  26  48  70  89 119 155 182 219 272
#     4   9  16  27  47  67  86 114 151 187 220 268
#     4  11  21  33  49  66  91 127 162 195 229 268
#     4  10  19  31  46  64  88 123 158 190 222 260
#     4   9  16  28  46  65  90 123 158 186 216 261
#     4   9  17  30  49  68  91 123 155 189 229 273
#     4  10  19  30  45  69  95 120 155 194 231 273
#     4   9  17  29  43  62  90 119 146 182 229 268
#
# _framework density 17.327814
#
# number of rings (size 3 to 8) (size 9 to 14) (size 15 to 20)
#    0.000    2.500    2.500    1.125    0.000    1.000 
#    0.000    1.250    0.000    0.000    0.000    0.875 
#    0.000    2.000    0.000    0.000    0.000    0.000 
#
# Total GULP energy -356864.746809 kJ/mol
# GULP energy per Si atom -5576.011669 kJ/mol
# Density = 1.728838 g / cm^3
# Si number density = 17.327814 Si / 1000 Ang^3
#
#
#
# Elastic Constant Matrix: (Units=GPa)
#
#
# Indices 1 2 3 4 5 6 
#
# 1 169.3265 80.0028 2.3117 0.0000 0.0000 0.0000
# 2 80.0028 100.5787 -2.8321 0.0000 0.0000 0.0000
# 3 2.3117 -2.8321 27.3973 0.0000 0.0000 0.0000
# 4 0.0000 0.0000 0.0000 16.4969 0.0000 0.0000
# 5 0.0000 0.0000 0.0000 0.0000 9.9493 0.0000
# 6 0.0000 0.0000 0.0000 0.0000 0.0000 21.1670
#
#
#
# Elastic Compliance Matrix: (Units=1/GPa)
#
#
# Indices 1 2 3 4 5 6 
#
# 1 0.009530 -0.007626 -0.001592 0.000000 0.000000 0.000000
# 2 -0.007626 0.016073 0.002305 0.000000 0.000000 0.000000
# 3 -0.001592 0.002305 0.036872 0.000000 0.000000 0.000000
# 4 0.000000 0.000000 0.000000 0.060617 0.000000 0.000000
# 5 0.000000 0.000000 0.000000 0.000000 0.100509 0.000000
# 6 0.000000 0.000000 0.000000 0.000000 0.000000 0.047243
#
#
# Mechanical properties :
#
#
# Convention : Reuss Voigt Hill
#
# Bulk Modulus (GPa) = 20.55513 50.69638 35.62575
# Shear Modulus (GPa) = 16.61745 24.04400 20.33073
#
# Velocity S-wave (km/s) = 3.10014 3.72909 3.42906
# Velocity P-wave (km/s) = 4.97019 6.91825 6.02349
#
# Compressibility (1/GPa) = 0.04864966
#
# Stress axis : x y z
#
# Youngs Moduli (GPa) = 104.92766 62.21652 27.12049
#
# Poissons Ratio (x) = 0.47443 0.04319
# Poissons Ratio (y) = 0.80013 -0.06251
# Poissons Ratio (z) = 0.16708 -0.14340
#
# Static dielectric constant tensor:
#      x y z
#    x 1.620580 0.000000 0.000000 
#    y 0.000000 1.567860 0.000000 
#    z 0.000000 0.000000 1.651350 
# 
# From -- ./inp_files/8748.got.cif
#   From: 2010.05.17/outbox.cif.g08.bks.cpg/sg57_5_cif.got.tgz:8748.got - 2010.06.03 13:58:18.
