data_PCOD9434204
_publ_section_title
;
Structure prediction by ZEFSAII (Michael W. Deem and Ramdas Pophale) SiO2 
 PCOD9434204
Probable space group: P B C M
;
_chemical_formula_sum "Si O2"
_cell_formula_units_Z 64
_cell_length_a 12.762608
_cell_length_b 8.325796
_cell_length_c 29.706773
_cell_angle_alpha 90.000000
_cell_angle_beta 90.000000
_cell_angle_gamma 90.000000
_cell_volume 3156.608149
_symmetry_space_group_name_H-M "P B C M"
_symmetry_group_IT_number 57
_symmetry_cell_setting 'orthorhombic'
loop_
_space_group_symop_operation_xyz
x,y,z
-x,-y,1/2+z
x,1/2-y,-z
-x,1/2+y,1/2-z
-x,-y,-z
x,y,1/2-z
-x,1/2+y,z
x,1/2-y,1/2+z
loop_
_atom_site_type_symbol
_atom_site_label
_atom_site_fract_x
_atom_site_fract_y
_atom_site_fract_z
Si Si1 0.559198 0.275127 0.801441
Si Si2 0.116118 0.700251 0.700883
Si Si3 0.292314 0.636501 0.869654
Si Si4 0.994077 0.443569 0.839451
Si Si5 0.207112 0.294502 0.628000
Si Si6 0.120319 0.808914 0.926558
Si Si7 0.913701 0.856704 0.044309
Si Si8 0.340478 0.371101 0.299856
O O1 0.589060 0.213800 0.750000
O O2 0.598001 0.187523 0.847437
O O3 0.604188 0.455397 0.803639
O O4 0.433771 0.259985 0.801708
O O5 0.119700 0.628992 0.750000
O O6 0.221654 0.675965 0.674376
O O7 0.024326 0.625056 0.670534
O O8 0.079567 0.882839 0.700428
O O9 0.281569 0.448568 0.880941
O O10 0.230496 0.734588 0.909323
O O11 0.110093 0.371771 0.844961
O O12 0.930143 0.403914 0.884107
O O13 0.160455 0.217821 0.582965
O O14 0.262828 0.165153 0.659581
O O15 0.035180 0.673167 0.940089
O O16 0.117377 0.955908 0.962112
O O17 0.900138 0.750000 0.000000
O O18 0.291214 0.361230 0.250000
#
# Coordination Sequence:
#
# PCOD9434204 Si02
#       8
#     8   8   8   8   8   8   8   8
#     4  10  20  35  53  79 108 141 184 226 267 316
#     4  10  18  27  40  62  91 130 171 206 243 290
#     4  10  20  33  51  72 103 142 176 219 266 317
#     4   9  18  30  43  61  93 130 166 208 249 298
#     4  10  20  35  51  75 105 138 179 218 268 321
#     4  10  19  34  51  74 104 136 176 217 268 323
#     4  11  21  35  56  81 108 141 179 226 273 323
#     4  10  21  35  55  80 110 144 182 226 270 316
#
# _framework density 20.274927000000002
#
# number of rings (size 3 to 8) (size 9 to 14) (size 15 to 20)
#    0.000    2.000    0.000    6.375    0.000    5.000 
#    0.000    2.500    0.000    0.000    0.000    8.750 
#    0.000    0.000    0.000    0.000    0.000    0.000 
#
# Total GULP energy -356713.522022 kJ/mol
# GULP energy per Si atom -5573.648782 kJ/mol
# Density = 2.022878 g / cm^3
# Si number density = 20.274927 Si / 1000 Ang^3
#
#
#
# Elastic Constant Matrix: (Units=GPa)
#
#
# Indices 1 2 3 4 5 6 
#
# 1 29.8132 4.5068 25.3052 0.0000 0.0000 0.0000
# 2 4.5068 51.4385 9.7277 0.0000 0.0000 0.0000
# 3 25.3052 9.7277 81.0831 0.0000 0.0000 0.0000
# 4 0.0000 0.0000 0.0000 22.9648 0.0000 0.0000
# 5 0.0000 0.0000 0.0000 0.0000 24.7781 0.0000
# 6 0.0000 0.0000 0.0000 0.0000 0.0000 29.9956
#
#
#
# Elastic Compliance Matrix: (Units=1/GPa)
#
#
# Indices 1 2 3 4 5 6 
#
# 1 0.045719 -0.001338 -0.014108 0.000000 0.000000 0.000000
# 2 -0.001338 0.019931 -0.001974 0.000000 0.000000 0.000000
# 3 -0.014108 -0.001974 0.016973 0.000000 0.000000 0.000000
# 4 0.000000 0.000000 0.000000 0.043545 0.000000 0.000000
# 5 0.000000 0.000000 0.000000 0.000000 0.040358 0.000000
# 6 0.000000 0.000000 0.000000 0.000000 0.000000 0.033338
#
#
# Mechanical properties :
#
#
# Convention : Reuss Voigt Hill
#
# Bulk Modulus (GPa) = 20.92736 26.82380 23.87558
# Shear Modulus (GPa) = 19.94963 23.73404 21.84184
#
# Velocity S-wave (km/s) = 3.14021 3.42513 3.28576
# Velocity P-wave (km/s) = 4.84686 5.37594 5.11825
#
# Compressibility (1/GPa) = 0.04778434
#
# Stress axis : x y z
#
# Youngs Moduli (GPa) = 21.87268 50.17269 58.91797
#
# Poissons Ratio (x) = 0.06712 0.83121
# Poissons Ratio (y) = 0.02926 0.11629
# Poissons Ratio (z) = 0.30858 0.09903
#
# Static dielectric constant tensor:
#      x y z
#    x 1.732440 0.000000 0.000000 
#    y 0.000000 1.822360 0.000000 
#    z 0.000000 0.000000 1.773540 
# 
# From -- ./inp_files/29764.got.cif
#   From: 2010.05.17/outbox.cif.g08.bks.cpg/sg57_15_cif.got.tgz:29764.got - 2010.06.03 13:58:18.
