data_PCOD9434219
_publ_section_title
;
Structure prediction by ZEFSAII (Michael W. Deem and Ramdas Pophale) SiO2 
 PCOD9434219
Probable space group: P B C M
;
_chemical_formula_sum "Si O2"
_cell_formula_units_Z 64
_cell_length_a 15.163401
_cell_length_b 31.407939
_cell_length_c 8.648401
_cell_angle_alpha 90.000000
_cell_angle_beta 90.000000
_cell_angle_gamma 90.000000
_cell_volume 4118.811126
_symmetry_space_group_name_H-M "P B C M"
_symmetry_group_IT_number 57
_symmetry_cell_setting 'orthorhombic'
loop_
_space_group_symop_operation_xyz
x,y,z
-x,-y,1/2+z
x,1/2-y,-z
-x,1/2+y,1/2-z
-x,-y,-z
x,y,1/2-z
-x,1/2+y,z
x,1/2-y,1/2+z
loop_
_atom_site_type_symbol
_atom_site_label
_atom_site_fract_x
_atom_site_fract_y
_atom_site_fract_z
Si Si1 0.435721 0.961870 0.562570
Si Si2 0.723923 0.996280 0.565570
Si Si3 0.679997 0.590090 0.579187
Si Si4 0.474467 0.373127 0.925739
Si Si5 0.118778 0.379711 0.074590
Si Si6 0.923771 0.529876 0.433818
Si Si7 0.806691 0.796716 0.565223
Si Si8 0.391253 0.204405 0.567283
O O1 0.434093 0.964740 0.750000
O O2 0.338278 0.965402 0.488161
O O3 0.472945 0.914959 0.520947
O O4 0.500000 0.000000 0.500000
O O5 0.712046 0.988950 0.750000
O O6 0.683395 0.959144 0.459992
O O7 0.828535 0.992621 0.534501
O O8 0.640869 0.598515 0.750000
O O9 0.626012 0.610652 0.441396
O O10 0.779058 0.606153 0.581534
O O11 0.498728 0.363551 0.750000
O O12 0.465280 0.330151 0.022924
O O13 0.086369 0.373676 0.250000
O O14 0.074459 0.421733 0.999925
O O15 0.127054 0.334455 0.987669
O O16 0.931968 0.533001 0.250000
O O17 0.000000 0.500000 0.500000
O O18 0.831756 0.750000 0.500000
O O19 0.802463 0.795339 0.750000
O O20 0.706990 0.804904 0.501215
O O21 0.416624 0.250000 0.500000
O O22 0.380388 0.206297 0.750000
#
# Coordination Sequence:
#
# PCOD9434219 Si02
#       8
#     8   8   8   8   8   8   8   8
#     4  11  22  32  46  67  96 130 166 202 243 288
#     4  10  20  33  48  67  95 126 161 203 246 289
#     4  10  18  27  43  63  87 122 161 196 235 281
#     4  11  21  31  44  63  90 123 162 204 241 284
#     4  10  19  31  47  68  94 124 162 201 241 289
#     4  10  21  36  54  75  98 128 166 207 251 299
#     4  11  20  30  45  65  93 126 162 202 243 290
#     4  11  21  33  47  64  88 123 165 208 248 290
#
# _framework density 15.538465
#
# number of rings (size 3 to 8) (size 9 to 14) (size 15 to 20)
#    0.000    1.500    2.500    5.250    0.000    4.000 
#    0.000    0.000    0.000    0.000    0.000    0.000 
#    0.000    1.000    0.000    6.750    0.000    5.000 
#
# Total GULP energy -356354.053568 kJ/mol
# GULP energy per Si atom -5568.032087 kJ/mol
# Density = 1.550310 g / cm^3
# Si number density = 15.538465 Si / 1000 Ang^3
#
#
#
# Elastic Constant Matrix: (Units=GPa)
#
#
# Indices 1 2 3 4 5 6 
#
# 1 42.3987 42.4842 27.5511 0.0000 0.0000 0.0000
# 2 42.4842 132.1847 54.6673 0.0000 0.0000 0.0000
# 3 27.5511 54.6673 98.7488 0.0000 0.0000 0.0000
# 4 0.0000 0.0000 0.0000 25.3941 0.0000 0.0000
# 5 0.0000 0.0000 0.0000 0.0000 18.8431 0.0000
# 6 0.0000 0.0000 0.0000 0.0000 0.0000 35.4667
#
#
#
# Elastic Compliance Matrix: (Units=1/GPa)
#
#
# Indices 1 2 3 4 5 6 
#
# 1 0.036449 -0.009739 -0.004778 0.000000 0.000000 0.000000
# 2 -0.009739 0.012414 -0.004155 0.000000 0.000000 0.000000
# 3 -0.004778 -0.004155 0.013760 0.000000 0.000000 0.000000
# 4 0.000000 0.000000 0.000000 0.039379 0.000000 0.000000
# 5 0.000000 0.000000 0.000000 0.000000 0.053070 0.000000
# 6 0.000000 0.000000 0.000000 0.000000 0.000000 0.028195
#
#
# Mechanical properties :
#
#
# Convention : Reuss Voigt Hill
#
# Bulk Modulus (GPa) = 39.55855 58.08193 48.82024
# Shear Modulus (GPa) = 21.83059 25.84940 23.83999
#
# Velocity S-wave (km/s) = 3.75232 4.08312 3.92121
# Velocity P-wave (km/s) = 6.65484 7.72591 7.21029
#
# Compressibility (1/GPa) = 0.02527898
#
# Stress axis : x y z
#
# Youngs Moduli (GPa) = 27.43586 80.55711 72.67441
#
# Poissons Ratio (x) = 0.78451 0.34723
# Poissons Ratio (y) = 0.26719 0.30197
# Poissons Ratio (z) = 0.13109 0.33472
#
# Static dielectric constant tensor:
#      x y z
#    x 1.509980 0.000000 0.000000 
#    y 0.000000 1.581740 0.000000 
#    z 0.000000 0.000000 1.513900 
# 
# From -- ./inp_files/6039.got.cif
#   From: 2010.05.17/outbox.cif.g08.bks.cpg/sg57_4_cif.got.tgz:6039.got - 2010.06.03 13:58:18.
