data_PCOD9434444
_publ_section_title
;
Structure prediction by ZEFSAII (Michael W. Deem and Ramdas Pophale) SiO2 
 PCOD9434444
Probable space group: P B C M
;
_chemical_formula_sum "Si O2"
_cell_formula_units_Z 64
_cell_length_a 11.221253
_cell_length_b 33.221740
_cell_length_c 7.595111
_cell_angle_alpha 90.000000
_cell_angle_beta 90.000000
_cell_angle_gamma 90.000000
_cell_volume 2831.378009
_symmetry_space_group_name_H-M "P B C M"
_symmetry_group_IT_number 57
_symmetry_cell_setting 'orthorhombic'
loop_
_space_group_symop_operation_xyz
x,y,z
-x,-y,1/2+z
x,1/2-y,-z
-x,1/2+y,1/2-z
-x,-y,-z
x,y,1/2-z
-x,1/2+y,z
x,1/2-y,1/2+z
loop_
_atom_site_type_symbol
_atom_site_label
_atom_site_fract_x
_atom_site_fract_y
_atom_site_fract_z
Si Si1 0.535894 0.679049 0.951498
Si Si2 0.725198 0.182533 0.965955
Si Si3 0.526631 0.411066 0.547482
Si Si4 0.773383 0.091840 0.947779
Si Si5 0.015024 0.705637 0.539929
Si Si6 0.208860 0.154286 0.534114
Si Si7 0.867876 0.012369 0.958988
Si Si8 0.717075 0.565295 0.544297
O O1 0.543877 0.693549 0.750000
O O2 0.408589 0.695501 0.026900
O O3 0.671684 0.679222 0.025270
O O4 0.509874 0.631067 0.957251
O O5 0.717848 0.183739 0.750000
O O6 0.751647 0.136263 0.021057
O O7 0.847523 0.203645 0.025324
O O8 0.557616 0.403309 0.750000
O O9 0.641328 0.427135 0.448774
O O10 0.411557 0.438477 0.541995
O O11 0.819570 0.099178 0.750000
O O12 0.848777 0.057071 0.036223
O O13 0.968082 0.750000 0.500000
O O14 0.023134 0.699857 0.750000
O O15 0.916364 0.673662 0.475558
O O16 0.210443 0.155574 0.750000
O O17 0.222578 0.107309 0.479931
O O18 0.848769 0.016143 0.750000
O O19 0.788331 0.975523 0.022139
O O20 0.000000 0.000000 0.000000
O O21 0.696892 0.571829 0.750000
#
# Coordination Sequence:
#
# PCOD9434444 Si02
#       8
#     8   8   8   8   8   8   8   8
#     4   8  14  30  52  77 102 135 179 218 256 317
#     4   8  15  30  56  77  97 133 179 217 252 308
#     4  10  18  30  52  81 110 135 171 224 277 319
#     4   9  19  36  56  76 101 141 185 219 258 318
#     4  10  20  35  54  78 105 135 172 216 263 318
#     4   8  16  31  56  78  99 136 182 216 254 317
#     4  11  24  38  53  76 109 143 183 230 274 318
#     4  10  20  36  57  78 104 142 184 223 266 320
#
# _framework density 22.603835
#
# number of rings (size 3 to 8) (size 9 to 14) (size 15 to 20)
#    0.000    2.750    0.000    3.375    1.750    1.500 
#    0.000    6.250    0.000    0.000    0.000    0.000 
#    0.000    0.000    0.000    0.000    0.000    0.000 
#
# Total GULP energy -356431.276374 kJ/mol
# GULP energy per Si atom -5569.238693 kJ/mol
# Density = 2.255239 g / cm^3
# Si number density = 22.603835 Si / 1000 Ang^3
#
#
#
# Elastic Constant Matrix: (Units=GPa)
#
#
# Indices 1 2 3 4 5 6 
#
# 1 60.3758 3.0388 -5.9485 0.0000 0.0000 0.0000
# 2 3.0388 51.5992 -1.7442 0.0000 0.0000 0.0000
# 3 -5.9485 -1.7442 65.0911 0.0000 0.0000 0.0000
# 4 0.0000 0.0000 0.0000 12.1689 0.0000 0.0000
# 5 0.0000 0.0000 0.0000 0.0000 7.6729 0.0000
# 6 0.0000 0.0000 0.0000 0.0000 0.0000 -1.8296
#
#
#
# Elastic Compliance Matrix: (Units=1/GPa)
#
#
# Indices 1 2 3 4 5 6 
#
# 1 0.016758 -0.000936 0.001506 0.000000 0.000000 0.000000
# 2 -0.000936 0.019450 0.000436 0.000000 0.000000 0.000000
# 3 0.001506 0.000436 0.015512 0.000000 0.000000 0.000000
# 4 0.000000 0.000000 0.000000 0.082177 0.000000 0.000000
# 5 0.000000 0.000000 0.000000 0.000000 0.130328 0.000000
# 6 0.000000 0.000000 0.000000 0.000000 0.000000 -0.546579
#
#
# Mechanical properties :
#
#
# Convention : Reuss Voigt Hill
#
# Bulk Modulus (GPa) = 18.61054 18.63981 18.62518
# Shear Modulus (GPa) = -18.76493 15.71712 -1.52391
#
# Velocity S-wave (km/s) = -2.88439 2.63977 -0.82198
# Velocity P-wave (km/s) = 1.68573 4.18992 2.71235
#
# Compressibility (1/GPa) = 0.05373298
#
# Stress axis : x y z
#
# Youngs Moduli (GPa) = 59.67134 51.41390 64.46448
#
# Poissons Ratio (x) = 0.04812 -0.09711
# Poissons Ratio (y) = 0.05585 -0.02808
# Poissons Ratio (z) = -0.08989 -0.02240
#
# Static dielectric constant tensor:
#      x y z
#    x 1.887390 0.000000 0.000000 
#    y 0.000000 1.852070 0.000000 
#    z 0.000000 0.000000 1.885080 
# 
# From -- ./inp_files/3757.got.cif
#   From: 2010.05.17/outbox.cif.g08.bks.cpg/sg57_2_cif.got.tgz:3757.got - 2010.06.03 13:58:18.
