data_PCOD9434319
_publ_section_title
;
Structure prediction by ZEFSAII (Michael W. Deem and Ramdas Pophale) SiO2 
 PCOD9434319
Probable space group: P B C M
;
_chemical_formula_sum "Si O2"
_cell_formula_units_Z 64
_cell_length_a 21.238192
_cell_length_b 19.875889
_cell_length_c 9.307736
_cell_angle_alpha 90.000000
_cell_angle_beta 90.000000
_cell_angle_gamma 90.000000
_cell_volume 3929.055487
_symmetry_space_group_name_H-M "P B C M"
_symmetry_group_IT_number 57
_symmetry_cell_setting 'orthorhombic'
loop_
_space_group_symop_operation_xyz
x,y,z
-x,-y,1/2+z
x,1/2-y,-z
-x,1/2+y,1/2-z
-x,-y,-z
x,y,1/2-z
-x,1/2+y,z
x,1/2-y,1/2+z
loop_
_atom_site_type_symbol
_atom_site_label
_atom_site_fract_x
_atom_site_fract_y
_atom_site_fract_z
Si Si1 0.326832 0.453541 0.918283
Si Si2 0.058222 0.576019 0.421256
Si Si3 0.797671 0.559252 0.915739
Si Si4 0.807121 0.104757 0.085421
Si Si5 0.432959 0.680930 0.420776
Si Si6 0.468262 0.062634 0.078875
Si Si7 0.315833 0.884229 0.082398
Si Si8 0.920708 0.565132 0.079985
O O1 0.318123 0.437532 0.750000
O O2 0.395661 0.429412 0.966756
O O3 0.326177 0.535063 0.930435
O O4 0.268312 0.425734 0.007915
O O5 0.061513 0.557094 0.250000
O O6 0.119947 0.621095 0.448210
O O7 0.066439 0.510189 0.519961
O O8 0.987455 0.602606 0.445312
O O9 0.797678 0.579092 0.750000
O O10 0.803960 0.477272 0.920590
O O11 0.858399 0.588375 0.997500
O O12 0.792976 0.124241 0.250000
O O13 0.753616 0.130719 0.979277
O O14 0.447822 0.750000 0.500000
O O15 0.425545 0.690176 0.250000
O O16 0.488576 0.627352 0.445672
O O17 0.368958 0.651758 0.489026
O O18 0.467038 0.048750 0.250000
O O19 0.500000 0.000000 0.000000
O O20 0.321127 0.866286 0.250000
O O21 0.908662 0.562999 0.250000
#
# Coordination Sequence:
#
# PCOD9434319 Si02
#       8
#     8   8   8   8   8   8   8   8
#     4   9  17  29  45  66  89 113 147 191 233 276
#     4   8  14  22  31  46  69 101 142 182 220 264
#     4   9  16  24  34  52  78 109 144 181 223 271
#     4   8  14  24  36  52  77 107 143 184 224 266
#     4  11  23  37  53  72  97 127 157 192 238 288
#     4  10  20  34  53  75  96 121 155 196 241 287
#     4  10  18  29  46  66  89 116 150 191 232 276
#     4   9  14  20  31  46  69 103 141 181 222 264
#
# _framework density 16.288902
#
# number of rings (size 3 to 8) (size 9 to 14) (size 15 to 20)
#    0.000    2.750    1.250    2.250    0.000    5.000 
#    0.000    0.000    0.000    0.000    0.000    0.000 
#    0.000    0.000    0.000    1.125    0.000   16.250 
#
# Total GULP energy -356338.580085 kJ/mol
# GULP energy per Si atom -5567.790314 kJ/mol
# Density = 1.625183 g / cm^3
# Si number density = 16.288902 Si / 1000 Ang^3
#
#
#
# Elastic Constant Matrix: (Units=GPa)
#
#
# Indices 1 2 3 4 5 6 
#
# 1 185.9853 31.5565 88.4746 0.0000 0.0000 0.0000
# 2 31.5565 23.3847 31.7909 0.0000 0.0000 0.0000
# 3 88.4746 31.7909 93.8335 0.0000 0.0000 0.0000
# 4 0.0000 0.0000 0.0000 12.0690 0.0000 0.0000
# 5 0.0000 0.0000 0.0000 0.0000 28.7322 0.0000
# 6 0.0000 0.0000 0.0000 0.0000 0.0000 4.2782
#
#
#
# Elastic Compliance Matrix: (Units=1/GPa)
#
#
# Indices 1 2 3 4 5 6 
#
# 1 0.009769 -0.001225 -0.008796 0.000000 0.000000 0.000000
# 2 -0.001225 0.079431 -0.025757 0.000000 0.000000 0.000000
# 3 -0.008796 -0.025757 0.027677 0.000000 0.000000 0.000000
# 4 0.000000 0.000000 0.000000 0.082857 0.000000 0.000000
# 5 0.000000 0.000000 0.000000 0.000000 0.034804 0.000000
# 6 0.000000 0.000000 0.000000 0.000000 0.000000 0.233742
#
#
# Mechanical properties :
#
#
# Convention : Reuss Voigt Hill
#
# Bulk Modulus (GPa) = 22.06411 67.42750 44.74580
# Shear Modulus (GPa) = 9.00995 19.10798 14.05897
#
# Velocity S-wave (km/s) = 2.35443 3.42872 2.94104
# Velocity P-wave (km/s) = 4.57887 7.56039 6.25002
#
# Compressibility (1/GPa) = 0.04532248
#
# Stress axis : x y z
#
# Youngs Moduli (GPa) = 102.36546 12.58956 36.13068
#
# Poissons Ratio (x) = 0.01542 0.31781
# Poissons Ratio (y) = 0.12535 0.93060
# Poissons Ratio (z) = 0.90042 0.32426
#
# Static dielectric constant tensor:
#      x y z
#    x 1.586100 0.000000 0.000000 
#    y 0.000000 1.512020 0.000000 
#    z 0.000000 0.000000 1.543530 
# 
# From -- ./inp_files/8660.got.cif
#   From: 2010.05.17/outbox.cif.g08.bks.cpg/sg57_5_cif.got.tgz:8660.got - 2010.06.03 13:58:18.
