data_PCOD9434640
_publ_section_title
;
Structure prediction by ZEFSAII (Michael W. Deem and Ramdas Pophale) SiO2 
 PCOD9434640
Probable space group: P B C M
;
_chemical_formula_sum "Si O2"
_cell_formula_units_Z 60
_cell_length_a 7.462437
_cell_length_b 21.359275
_cell_length_c 16.639900
_cell_angle_alpha 90.000000
_cell_angle_beta 90.000000
_cell_angle_gamma 90.000000
_cell_volume 2652.271002
_symmetry_space_group_name_H-M "P B C M"
_symmetry_group_IT_number 57
_symmetry_cell_setting 'orthorhombic'
loop_
_space_group_symop_operation_xyz
x,y,z
-x,-y,1/2+z
x,1/2-y,-z
-x,1/2+y,1/2-z
-x,-y,-z
x,y,1/2-z
-x,1/2+y,z
x,1/2-y,1/2+z
loop_
_atom_site_type_symbol
_atom_site_label
_atom_site_fract_x
_atom_site_fract_y
_atom_site_fract_z
Si Si1 0.537286 0.424512 0.335444
Si Si2 0.326906 0.553935 0.335716
Si Si3 0.189833 0.136958 0.660858
Si Si4 0.670349 0.384680 0.999567
Si Si5 0.049713 0.741449 0.340489
Si Si6 0.939609 0.928104 0.498129
Si Si7 0.295422 0.750000 0.500000
Si Si8 0.080297 0.401862 0.663434
O O1 0.639513 0.424373 0.250000
O O2 0.408187 0.484827 0.334470
O O3 0.404567 0.364991 0.336479
O O4 0.639611 0.422486 0.418768
O O5 0.377363 0.584589 0.250000
O O6 0.393212 0.584659 0.417470
O O7 0.109848 0.560107 0.337910
O O8 0.130581 0.113717 0.750000
O O9 0.099368 0.204401 0.650106
O O10 0.141777 0.093032 0.585760
O O11 0.886228 0.383802 0.992948
O O12 0.598487 0.314649 0.004351
O O13 0.130866 0.750484 0.250000
O O14 0.180911 0.747306 0.416844
O O15 0.967115 0.671797 0.338996
O O16 0.825749 0.918360 0.579533
O O17 0.000000 0.000000 0.500000
O O18 0.167514 0.416059 0.750000
#
# Coordination Sequence:
#
# PCOD9434640 Si02
#       8
#     8   8   8   8   8   8   4   8
#     4  10  22  39  58  82 117 157 196 241 294 352
#     4   9  17  33  57  80 109 151 195 235 283 348
#     4  10  20  35  56  82 111 149 191 234 292 347
#     4  11  22  36  58  85 119 151 200 239 292 350
#     4  10  18  32  57  83 109 144 188 240 289 342
#     4  11  21  33  55  85 114 149 188 244 292 337
#     4  12  20  36  56  86 118 150 188 246 292 354
#     4   9  17  32  54  83 110 143 187 236 291 350
#
# _framework density 22.622122000000001
#
# number of rings (size 3 to 8) (size 9 to 14) (size 15 to 20)
#    0.000    1.867    4.000    2.000    0.000    2.667 
#    0.000    2.000    0.000    0.800    0.000    0.000 
#    0.000    0.000    0.000    0.000    0.000    0.000 
#
# Total GULP energy -334519.517821 kJ/mol
# GULP energy per Si atom -5575.325297 kJ/mol
# Density = 2.257063 g / cm^3
# Si number density = 22.622122 Si / 1000 Ang^3
#
#
#
# Elastic Constant Matrix: (Units=GPa)
#
#
# Indices 1 2 3 4 5 6 
#
# 1 23.8822 -7.2888 15.0566 0.0000 0.0000 0.0000
# 2 -7.2888 70.7750 40.6181 0.0000 0.0000 0.0000
# 3 15.0566 40.6181 247.4439 0.0000 0.0000 0.0000
# 4 0.0000 0.0000 0.0000 3.1961 0.0000 0.0000
# 5 0.0000 0.0000 0.0000 0.0000 24.2053 0.0000
# 6 0.0000 0.0000 0.0000 0.0000 0.0000 9.5397
#
#
#
# Elastic Compliance Matrix: (Units=1/GPa)
#
#
# Indices 1 2 3 4 5 6 
#
# 1 0.046555 0.007088 -0.003996 0.000000 0.000000 0.000000
# 2 0.007088 0.016678 -0.003169 0.000000 0.000000 0.000000
# 3 -0.003996 -0.003169 0.004805 0.000000 0.000000 0.000000
# 4 0.000000 0.000000 0.000000 0.312881 0.000000 0.000000
# 5 0.000000 0.000000 0.000000 0.000000 0.041313 0.000000
# 6 0.000000 0.000000 0.000000 0.000000 0.000000 0.104825
#
#
# Mechanical properties :
#
#
# Convention : Reuss Voigt Hill
#
# Bulk Modulus (GPa) = 14.73127 48.76367 31.74747
# Shear Modulus (GPa) = 9.09356 26.96923 18.03140
#
# Velocity S-wave (km/s) = 2.00711 3.45652 2.82630
# Velocity P-wave (km/s) = 3.44925 6.12638 4.97141
#
# Compressibility (1/GPa) = 0.06788279
#
# Stress axis : x y z
#
# Youngs Moduli (GPa) = 21.48004 59.95947 208.13035
#
# Poissons Ratio (x) = -0.42499 0.83175
# Poissons Ratio (y) = -0.15225 0.65956
# Poissons Ratio (z) = 0.08584 0.19001
#
# Static dielectric constant tensor:
#      x y z
#    x 1.858260 0.000000 0.000000 
#    y 0.000000 1.853510 0.000000 
#    z 0.000000 0.000000 1.958180 
# 
# From -- ./inp_files/16898.got.cif
#   From: 2010.05.17/outbox.cif.g08.bks.cpg/sg57_9_cif.got.tgz:16898.got - 2010.06.03 13:58:18.
