data_PCOD9434773
_publ_section_title
;
Structure prediction by ZEFSAII (Michael W. Deem and Ramdas Pophale) SiO2 
 PCOD9434773
Probable space group: P B C M
;
_chemical_formula_sum "Si O2"
_cell_formula_units_Z 64
_cell_length_a 19.521036
_cell_length_b 10.042369
_cell_length_c 14.695384
_cell_angle_alpha 90.000000
_cell_angle_beta 90.000000
_cell_angle_gamma 90.000000
_cell_volume 2880.845559
_symmetry_space_group_name_H-M "P B C M"
_symmetry_group_IT_number 57
_symmetry_cell_setting 'orthorhombic'
loop_
_space_group_symop_operation_xyz
x,y,z
-x,-y,1/2+z
x,1/2-y,-z
-x,1/2+y,1/2-z
-x,-y,-z
x,y,1/2-z
-x,1/2+y,z
x,1/2-y,1/2+z
loop_
_atom_site_type_symbol
_atom_site_label
_atom_site_fract_x
_atom_site_fract_y
_atom_site_fract_z
Si Si1 0.042950 0.290261 0.643845
Si Si2 0.582326 0.377512 0.938392
Si Si3 0.721418 0.474806 0.591238
Si Si4 0.786316 0.211377 0.646681
Si Si5 0.195477 0.227216 0.890586
Si Si6 0.431267 0.370978 0.929715
Si Si7 0.928838 0.086091 0.861746
Si Si8 0.293650 0.042403 0.119889
O O1 0.025317 0.308804 0.750000
O O2 0.116948 0.221124 0.638203
O O3 0.052543 0.438378 0.604323
O O4 0.984191 0.194386 0.606879
O O5 0.645752 0.427387 0.877447
O O6 0.508422 0.349798 0.892870
O O7 0.602471 0.250000 0.000000
O O8 0.568771 0.494681 0.010803
O O9 0.766651 0.342221 0.591977
O O10 0.761425 0.596718 0.636160
O O11 0.710062 0.526848 0.489167
O O12 0.801062 0.256162 0.750000
O O13 0.852919 0.133127 0.611536
O O14 0.724371 0.105415 0.651285
O O15 0.234228 0.356282 0.851835
O O16 0.194988 0.250000 0.000000
O O17 0.367877 0.393647 0.861872
O O18 0.416863 0.250000 0.000000
O O19 0.928799 0.080436 0.750000
#
# Coordination Sequence:
#
# PCOD9434773 Si02
#       8
#     8   8   8   8   8   8   8   8
#     4  10  20  38  59  77 101 136 179 226 267 311
#     4   9  16  28  47  77 109 135 176 218 263 305
#     4  10  20  33  53  80 112 145 174 219 272 320
#     4  11  22  36  54  80 107 138 183 223 264 323
#     4  10  21  35  53  80 113 140 174 215 272 331
#     4   9  16  27  50  80 106 135 174 225 259 304
#     4   9  20  36  57  79 100 132 178 225 265 309
#     4  10  18  35  55  77 109 143 177 219 273 319
#
# _framework density 22.215699000000001
#
# number of rings (size 3 to 8) (size 9 to 14) (size 15 to 20)
#    0.000    2.250    1.250    3.750    1.750    0.500 
#    0.000    1.875    0.000    0.750    0.000    1.750 
#    0.000    0.000    0.000    0.000    0.000    0.000 
#
# Total GULP energy -357047.407466 kJ/mol
# GULP energy per Si atom -5578.865742 kJ/mol
# Density = 2.216514 g / cm^3
# Si number density = 22.215699 Si / 1000 Ang^3
#
#
#
# Elastic Constant Matrix: (Units=GPa)
#
#
# Indices 1 2 3 4 5 6 
#
# 1 153.9225 54.3842 1.7100 0.0000 0.0000 0.0000
# 2 54.3842 139.8760 -4.1772 0.0000 0.0000 0.0000
# 3 1.7100 -4.1772 30.6297 0.0000 0.0000 0.0000
# 4 0.0000 0.0000 0.0000 -6.4221 0.0000 0.0000
# 5 0.0000 0.0000 0.0000 0.0000 78.7248 0.0000
# 6 0.0000 0.0000 0.0000 0.0000 0.0000 40.8111
#
#
#
# Elastic Compliance Matrix: (Units=1/GPa)
#
#
# Indices 1 2 3 4 5 6 
#
# 1 0.007552 -0.002961 -0.000825 0.000000 0.000000 0.000000
# 2 -0.002961 0.008339 0.001303 0.000000 0.000000 0.000000
# 3 -0.000825 0.001303 0.032872 0.000000 0.000000 0.000000
# 4 0.000000 0.000000 0.000000 -0.155711 0.000000 0.000000
# 5 0.000000 0.000000 0.000000 0.000000 0.012702 0.000000
# 6 0.000000 0.000000 0.000000 0.000000 0.000000 0.024503
#
#
# Mechanical properties :
#
#
# Convention : Reuss Voigt Hill
#
# Bulk Modulus (GPa) = 22.83328 47.58467 35.20898
# Shear Modulus (GPa) = -99.64825 40.79018 -29.42903
#
# Velocity S-wave (km/s) = -6.70464 4.28962 -3.64358
# Velocity P-wave (km/s) = 7.04528 6.78235 1.34828
#
# Compressibility (1/GPa) = 0.04379572
#
# Stress axis : x y z
#
# Youngs Moduli (GPa) = 132.41336 119.91403 30.42121
#
# Poissons Ratio (x) = 0.35506 0.02511
# Poissons Ratio (y) = 0.39207 -0.03963
# Poissons Ratio (z) = 0.10930 -0.15620
#
# Static dielectric constant tensor:
#      x y z
#    x 1.890090 0.000000 0.000000 
#    y 0.000000 1.784160 0.000000 
#    z 0.000000 0.000000 1.871980 
# 
# From -- ./inp_files/25602.got.cif
#   From: 2010.05.17/outbox.cif.g08.bks.cpg/sg57_13_cif.got.tgz:25602.got - 2010.06.03 13:58:18.
