data_PCOD9434948
_publ_section_title
;
Structure prediction by ZEFSAII (Michael W. Deem and Ramdas Pophale) SiO2 
 PCOD9434948
Probable space group: P B C M
;
_chemical_formula_sum "Si O2"
_cell_formula_units_Z 64
_cell_length_a 15.497907
_cell_length_b 30.929785
_cell_length_c 7.611075
_cell_angle_alpha 90.000000
_cell_angle_beta 90.000000
_cell_angle_gamma 90.000000
_cell_volume 3648.345446
_symmetry_space_group_name_H-M "P B C M"
_symmetry_group_IT_number 57
_symmetry_cell_setting 'orthorhombic'
loop_
_space_group_symop_operation_xyz
x,y,z
-x,-y,1/2+z
x,1/2-y,-z
-x,1/2+y,1/2-z
-x,-y,-z
x,y,1/2-z
-x,1/2+y,z
x,1/2-y,1/2+z
loop_
_atom_site_type_symbol
_atom_site_label
_atom_site_fract_x
_atom_site_fract_y
_atom_site_fract_z
Si Si1 0.373101 0.029438 0.541002
Si Si2 0.709506 0.115231 0.464645
Si Si3 0.550890 0.062031 0.461784
Si Si4 0.129388 0.944669 0.535483
Si Si5 0.037597 0.391373 0.959904
Si Si6 0.992349 0.297810 0.539193
Si Si7 0.820727 0.960674 0.038453
Si Si8 0.205620 0.702514 0.039589
O O1 0.363975 0.023995 0.750000
O O2 0.450669 0.062939 0.511126
O O3 0.278155 0.040727 0.473361
O O4 0.408384 0.983388 0.471941
O O5 0.708738 0.115631 0.250000
O O6 0.615682 0.099267 0.522565
O O7 0.783511 0.080771 0.514442
O O8 0.739069 0.162302 0.526255
O O9 0.553560 0.061121 0.250000
O O10 0.127047 0.944915 0.750000
O O11 0.045628 0.918303 0.473256
O O12 0.135410 0.994407 0.476585
O O13 0.026489 0.389019 0.750000
O O14 0.037651 0.341785 0.024990
O O15 0.122375 0.419324 0.993317
O O16 0.028178 0.250000 0.500000
O O17 0.989288 0.300025 0.750000
O O18 0.893113 0.299396 0.472548
O O19 0.818444 0.963042 0.250000
O O20 0.200450 0.698097 0.250000
O O21 0.240759 0.750000 0.000000
#
# Coordination Sequence:
#
# PCOD9434948 Si02
#       8
#     8   8   8   8   8   8   8   8
#     4   9  17  29  43  62  88 115 143 180 223 258
#     4   9  14  25  46  66  85 117 154 178 207 261
#     4   9  16  27  46  66  83 110 149 184 212 253
#     4   9  15  27  44  62  88 122 155 180 207 254
#     4  10  19  30  45  65  89 119 152 185 220 256
#     4   9  17  29  45  64  86 114 146 182 222 260
#     4  10  19  30  45  63  88 123 156 184 217 260
#     4   9  16  27  44  64  87 115 146 179 216 260
#
# _framework density 17.542197999999999
#
# number of rings (size 3 to 8) (size 9 to 14) (size 15 to 20)
#    0.000    2.750    2.500    0.375    0.000    1.000 
#    0.000    0.625    0.000    1.500    0.000    0.875 
#    0.000    2.000    0.000    0.000    0.000    0.000 
#
# Total GULP energy -356736.982026 kJ/mol
# GULP energy per Si atom -5574.015344 kJ/mol
# Density = 1.750227 g / cm^3
# Si number density = 17.542198 Si / 1000 Ang^3
#
#
#
# Elastic Constant Matrix: (Units=GPa)
#
#
# Indices 1 2 3 4 5 6 
#
# 1 101.1761 72.6679 2.2258 0.0000 0.0000 0.0000
# 2 72.6679 159.7275 4.3177 0.0000 0.0000 0.0000
# 3 2.2258 4.3177 34.1780 0.0000 0.0000 0.0000
# 4 0.0000 0.0000 0.0000 13.8179 0.0000 0.0000
# 5 0.0000 0.0000 0.0000 0.0000 13.2010 0.0000
# 6 0.0000 0.0000 0.0000 0.0000 0.0000 21.5235
#
#
#
# Elastic Compliance Matrix: (Units=1/GPa)
#
#
# Indices 1 2 3 4 5 6 
#
# 1 0.014681 -0.006676 -0.000113 0.000000 0.000000 0.000000
# 2 -0.006676 0.009318 -0.000742 0.000000 0.000000 0.000000
# 3 -0.000113 -0.000742 0.029360 0.000000 0.000000 0.000000
# 4 0.000000 0.000000 0.000000 0.072370 0.000000 0.000000
# 5 0.000000 0.000000 0.000000 0.000000 0.075752 0.000000
# 6 0.000000 0.000000 0.000000 0.000000 0.000000 0.046461
#
#
# Mechanical properties :
#
#
# Convention : Reuss Voigt Hill
#
# Bulk Modulus (GPa) = 26.11200 50.38936 38.25068
# Shear Modulus (GPa) = 18.13105 24.09982 21.11543
#
# Velocity S-wave (km/s) = 3.21840 3.71053 3.47319
# Velocity P-wave (km/s) = 5.35989 6.86618 6.15925
#
# Compressibility (1/GPa) = 0.03829657
#
# Stress axis : x y z
#
# Youngs Moduli (GPa) = 68.11393 107.31847 34.06025
#
# Poissons Ratio (x) = 0.71648 0.00384
# Poissons Ratio (y) = 0.45474 0.02528
# Poissons Ratio (z) = 0.00768 0.07967
#
# Static dielectric constant tensor:
#      x y z
#    x 1.591220 0.000000 0.000000 
#    y 0.000000 1.609950 0.000000 
#    z 0.000000 0.000000 1.670690 
# 
# From -- ./inp_files/6069.got.cif
#   From: 2010.05.17/outbox.cif.g08.bks.cpg/sg57_4_cif.got.tgz:6069.got - 2010.06.03 13:58:18.
