data_PCOD9434419
_publ_section_title
;
Structure prediction by ZEFSAII (Michael W. Deem and Ramdas Pophale) SiO2 
 PCOD9434419
Probable space group: P B C M
;
_chemical_formula_sum "Si O2"
_cell_formula_units_Z 64
_cell_length_a 7.547941
_cell_length_b 21.385617
_cell_length_c 19.999273
_cell_angle_alpha 90.000000
_cell_angle_beta 90.000000
_cell_angle_gamma 90.000000
_cell_volume 3228.230157
_symmetry_space_group_name_H-M "P B C M"
_symmetry_group_IT_number 57
_symmetry_cell_setting 'orthorhombic'
loop_
_space_group_symop_operation_xyz
x,y,z
-x,-y,1/2+z
x,1/2-y,-z
-x,1/2+y,1/2-z
-x,-y,-z
x,y,1/2-z
-x,1/2+y,z
x,1/2-y,1/2+z
loop_
_atom_site_type_symbol
_atom_site_label
_atom_site_fract_x
_atom_site_fract_y
_atom_site_fract_z
Si Si1 0.039045 0.313310 0.033099
Si Si2 0.466270 0.006127 0.324927
Si Si3 0.463070 0.637870 0.675233
Si Si4 0.539045 0.813310 0.466901
Si Si5 0.537475 0.563145 0.459475
Si Si6 0.037475 0.436855 0.540525
Si Si7 0.966270 0.506127 0.175073
Si Si8 0.036930 0.637870 0.824767
O O1 0.250000 0.313288 0.021870
O O2 0.013593 0.319844 0.112579
O O3 0.967654 0.250000 0.000000
O O4 0.966846 0.375875 0.997329
O O5 0.521505 0.023560 0.250000
O O6 0.527925 0.050748 0.384237
O O7 0.250000 0.005882 0.325704
O O8 0.521967 0.934031 0.337344
O O9 0.524523 0.656101 0.750000
O O10 0.513593 0.680156 0.612579
O O11 0.250000 0.636527 0.677154
O O12 0.467653 0.750000 0.500000
O O13 0.466846 0.875875 0.502671
O O14 0.500000 0.500000 0.500000
O O15 0.750000 0.569326 0.456048
O O16 0.972075 0.449252 0.615763
O O17 0.000000 0.500000 0.500000
O O18 0.021505 0.523560 0.250000
O O19 0.021967 0.434031 0.162656
O O20 0.975477 0.656101 0.750000
#
# Coordination Sequence:
#
# PCOD9434419 Si02
#       8
#     8   8   8   8   8   8   8   8
#     4  10  21  34  47  72 108 138 164 198 246 303
#     4   8  14  26  46  71  94 117 156 207 247 281
#     4   9  17  31  52  75  96 124 167 211 248 292
#     4  10  21  34  47  72 108 138 164 198 246 303
#     4  10  18  30  50  72  96 126 163 204 244 288
#     4  10  18  30  50  72  96 126 163 204 244 288
#     4   8  14  26  46  71  94 117 156 207 247 281
#     4   9  17  31  52  75  96 124 167 211 248 292
#
# _framework density 19.825104
#
# number of rings (size 3 to 8) (size 9 to 14) (size 15 to 20)
#    0.000    2.750    2.500    1.500    0.000    1.000 
#    0.000    1.250    0.000    5.250    0.000    0.000 
#    0.000    0.000    0.000    0.000    0.000    0.000 
#
# Total GULP energy -356924.571580 kJ/mol
# GULP energy per Si atom -5576.946431 kJ/mol
# Density = 1.977998 g / cm^3
# Si number density = 19.825104 Si / 1000 Ang^3
#
#
#
# Elastic Constant Matrix: (Units=GPa)
#
#
# Indices 1 2 3 4 5 6 
#
# 1 47.2294 7.4669 -0.2192 0.0000 0.0000 0.0000
# 2 7.4669 130.9911 99.0877 0.0000 0.0000 0.0000
# 3 -0.2192 99.0877 189.6830 0.0000 0.0000 0.0000
# 4 0.0000 0.0000 0.0000 31.8532 0.0000 0.0000
# 5 0.0000 0.0000 0.0000 0.0000 16.8779 0.0000
# 6 0.0000 0.0000 0.0000 0.0000 0.0000 6.0116
#
#
#
# Elastic Compliance Matrix: (Units=1/GPa)
#
#
# Indices 1 2 3 4 5 6 
#
# 1 0.021504 -0.002058 0.001100 0.000000 0.000000 0.000000
# 2 -0.002058 0.012819 -0.006699 0.000000 0.000000 0.000000
# 3 0.001100 -0.006699 0.008772 0.000000 0.000000 0.000000
# 4 0.000000 0.000000 0.000000 0.031394 0.000000 0.000000
# 5 0.000000 0.000000 0.000000 0.000000 0.059249 0.000000
# 6 0.000000 0.000000 0.000000 0.000000 0.000000 0.166345
#
#
# Mechanical properties :
#
#
# Convention : Reuss Voigt Hill
#
# Bulk Modulus (GPa) = 35.99500 64.50826 50.25163
# Shear Modulus (GPa) = 15.40093 28.38643 21.89368
#
# Velocity S-wave (km/s) = 2.79021 3.78807 3.32677
# Velocity P-wave (km/s) = 5.34566 7.19319 6.33711
#
# Compressibility (1/GPa) = 0.02778164
#
# Stress axis : x y z
#
# Youngs Moduli (GPa) = 46.50366 78.01213 113.99291
#
# Poissons Ratio (x) = 0.16052 -0.12536
# Poissons Ratio (y) = 0.09569 0.76359
# Poissons Ratio (z) = -0.05114 0.52257
#
# Static dielectric constant tensor:
#      x y z
#    x 1.750160 0.000000 0.000000 
#    y 0.000000 1.678160 0.000000 
#    z 0.000000 0.000000 1.720540 
# 
# From -- ./inp_files/24687.got.cif
#   From: 2010.05.17/outbox.cif.g08.bks.cpg/sg57_13_cif.got.tgz:24687.got - 2010.06.03 13:58:18.
