data_PCOD9434613
_publ_section_title
;
Structure prediction by ZEFSAII (Michael W. Deem and Ramdas Pophale) SiO2 
 PCOD9434613
Probable space group: P B C M
;
_chemical_formula_sum "Si O2"
_cell_formula_units_Z 56
_cell_length_a 15.794118
_cell_length_b 21.687891
_cell_length_c 8.135282
_cell_angle_alpha 90.000000
_cell_angle_beta 90.000000
_cell_angle_gamma 90.000000
_cell_volume 2786.668523
_symmetry_space_group_name_H-M "P B C M"
_symmetry_group_IT_number 57
_symmetry_cell_setting 'orthorhombic'
loop_
_space_group_symop_operation_xyz
x,y,z
-x,-y,1/2+z
x,1/2-y,-z
-x,1/2+y,1/2-z
-x,-y,-z
x,y,1/2-z
-x,1/2+y,z
x,1/2-y,1/2+z
loop_
_atom_site_type_symbol
_atom_site_label
_atom_site_fract_x
_atom_site_fract_y
_atom_site_fract_z
Si Si1 0.701841 0.876596 0.448099
Si Si2 0.056343 0.818136 0.052262
Si Si3 0.134915 0.184893 0.946730
Si Si4 0.083311 0.540970 0.446808
Si Si5 0.445930 0.939727 0.550529
Si Si6 0.727012 0.011532 0.049988
Si Si7 0.536348 0.817355 0.943051
O O1 0.698241 0.871558 0.250000
O O2 0.798009 0.864736 0.501650
O O3 0.634868 0.829434 0.519091
O O4 0.685395 0.946348 0.497254
O O5 0.058337 0.818462 0.250000
O O6 0.959398 0.818602 0.986550
O O7 0.091728 0.750000 0.000000
O O8 0.085649 0.886108 0.994990
O O9 0.128123 0.181623 0.750000
O O10 0.171854 0.250000 0.000000
O O11 0.082284 0.536926 0.250000
O O12 0.175805 0.517031 0.507463
O O13 0.000000 0.500000 0.500000
O O14 0.446972 0.939521 0.750000
O O15 0.346823 0.941540 0.499249
O O16 0.488546 0.877030 0.485456
O O17 0.500000 0.000000 0.500000
O O18 0.732257 0.012850 0.250000
O O19 0.523821 0.819109 0.750000
O O20 0.509574 0.750000 0.000000
#
# Coordination Sequence:
#
# PCOD9434613 Si02
#       7
#     8   8   8   8   8   8   8
#     4  10  18  32  54  78 108 146 183 226 284 346
#     4  10  20  37  58  81 112 153 200 247 301 357
#     4   9  18  30  47  72 103 142 185 226 277 344
#     4  11  22  38  60  88 121 157 199 248 302 358
#     4  10  20  38  62  85 111 147 192 237 286 343
#     4   9  19  36  59  83 111 151 191 234 294 354
#     4  11  23  36  54  83 115 149 188 234 285 341
#
# _framework density 20.095679000000001
#
# number of rings (size 3 to 8) (size 9 to 14) (size 15 to 20)
#    0.000    2.000    1.429    2.571    0.000    5.143 
#    0.000    5.000    0.000    1.714    0.000    0.000 
#    0.000    0.000    0.000    0.000    0.000    0.000 
#
# Total GULP energy -311820.168023 kJ/mol
# GULP energy per Si atom -5568.217286 kJ/mol
# Density = 2.004994 g / cm^3
# Si number density = 20.095679 Si / 1000 Ang^3
#
#
#
# Elastic Constant Matrix: (Units=GPa)
#
#
# Indices 1 2 3 4 5 6 
#
# 1 93.9908 48.5493 9.6000 0.0000 0.0000 0.0000
# 2 48.5493 136.6056 15.5951 0.0000 0.0000 0.0000
# 3 9.6000 15.5951 27.2177 0.0000 0.0000 0.0000
# 4 0.0000 0.0000 0.0000 28.1205 0.0000 0.0000
# 5 0.0000 0.0000 0.0000 0.0000 12.3276 0.0000
# 6 0.0000 0.0000 0.0000 0.0000 0.0000 36.4223
#
#
#
# Elastic Compliance Matrix: (Units=1/GPa)
#
#
# Indices 1 2 3 4 5 6 
#
# 1 0.013142 -0.004431 -0.002096 0.000000 0.000000 0.000000
# 2 -0.004431 0.009327 -0.003781 0.000000 0.000000 0.000000
# 3 -0.002096 -0.003781 0.039647 0.000000 0.000000 0.000000
# 4 0.000000 0.000000 0.000000 0.035561 0.000000 0.000000
# 5 0.000000 0.000000 0.000000 0.000000 0.081119 0.000000
# 6 0.000000 0.000000 0.000000 0.000000 0.000000 0.027456
#
#
# Mechanical properties :
#
#
# Convention : Reuss Voigt Hill
#
# Bulk Modulus (GPa) = 24.09742 45.03367 34.56554
# Shear Modulus (GPa) = 20.77251 27.64538 24.20894
#
# Velocity S-wave (km/s) = 3.21858 3.71305 3.47462
# Velocity P-wave (km/s) = 5.08229 6.39066 5.77366
#
# Compressibility (1/GPa) = 0.04149822
#
# Stress axis : x y z
#
# Youngs Moduli (GPa) = 76.08921 107.21635 25.22280
#
# Poissons Ratio (x) = 0.47513 0.05288
# Poissons Ratio (y) = 0.33719 0.09537
# Poissons Ratio (z) = 0.15951 0.40539
#
# Static dielectric constant tensor:
#      x y z
#    x 1.729780 0.000000 0.000000 
#    y 0.000000 1.795540 0.000000 
#    z 0.000000 0.000000 1.707230 
# 
# From -- ./inp_files/5098.got.cif
#   From: 2010.05.17/outbox.cif.g08.bks.cpg/sg57_3_cif.got.tgz:5098.got - 2010.06.03 13:58:18.
