data_PCOD9434090
_publ_section_title
;
Structure prediction by ZEFSAII (Michael W. Deem and Ramdas Pophale) SiO2 
 PCOD9434090
Probable space group: P B C M
;
_chemical_formula_sum "Si O2"
_cell_formula_units_Z 40
_cell_length_a 5.173948
_cell_length_b 23.131819
_cell_length_c 13.986544
_cell_angle_alpha 90.000000
_cell_angle_beta 90.000000
_cell_angle_gamma 90.000000
_cell_volume 1673.949149
_symmetry_space_group_name_H-M "P B C M"
_symmetry_group_IT_number 57
_symmetry_cell_setting 'orthorhombic'
loop_
_space_group_symop_operation_xyz
x,y,z
-x,-y,1/2+z
x,1/2-y,-z
-x,1/2+y,1/2-z
-x,-y,-z
x,y,1/2-z
-x,1/2+y,z
x,1/2-y,1/2+z
loop_
_atom_site_type_symbol
_atom_site_label
_atom_site_fract_x
_atom_site_fract_y
_atom_site_fract_z
Si Si1 0.871606 0.759555 0.114662
Si Si2 0.301412 0.427395 0.464035
Si Si3 0.630280 0.173610 0.905769
Si Si4 0.632894 0.035138 0.356879
Si Si5 0.089764 0.647002 0.416883
O O1 0.597923 0.787257 0.135900
O O2 0.104828 0.803115 0.139067
O O3 0.940510 0.694520 0.144153
O O4 0.869363 0.750000 0.000000
O O5 0.521081 0.391935 0.405075
O O6 0.416792 0.453239 0.562446
O O7 0.211435 0.479995 0.397922
O O8 0.089372 0.382150 0.500845
O O9 0.682584 0.178406 0.021517
O O10 0.537260 0.024558 0.250000
O O11 0.798876 0.093530 0.359386
#
# Coordination Sequence:
#
# PCOD9434090 Si02
#       5
#     8   8   8   8   8
#     4  10  17  28  55  92 124 154 202 252 319 381
#     4  10  20  38  62  93 126 167 220 267 319 398
#     4  10  18  31  56  96 122 157 206 257 312 383
#     4  10  23  40  60  90 128 172 220 274 328 379
#     4  10  20  32  61  90 128 155 216 262 318 391
#
# _framework density 23.895588
#
# number of rings (size 3 to 8) (size 9 to 14) (size 15 to 20)
#    0.000    2.000    4.000    2.400    2.800    0.800 
#    0.000    0.000    0.000    2.400    0.000    0.000 
#    0.000    0.000    0.000    0.000    0.000    0.000 
#
# Total GULP energy -223126.093077 kJ/mol
# GULP energy per Si atom -5578.152327 kJ/mol
# Density = 2.384120 g / cm^3
# Si number density = 23.895588 Si / 1000 Ang^3
#
#
#
# Elastic Constant Matrix: (Units=GPa)
#
#
# Indices 1 2 3 4 5 6 
#
# 1 116.4251 39.7233 23.7933 0.0000 0.0000 0.0000
# 2 39.7233 128.4777 66.7123 0.0000 0.0000 0.0000
# 3 23.7933 66.7123 100.9418 0.0000 0.0000 0.0000
# 4 0.0000 0.0000 0.0000 -42.6085 0.0000 0.0000
# 5 0.0000 0.0000 0.0000 0.0000 -11.9139 0.0000
# 6 0.0000 0.0000 0.0000 0.0000 0.0000 42.8453
#
#
#
# Elastic Compliance Matrix: (Units=1/GPa)
#
#
# Indices 1 2 3 4 5 6 
#
# 1 0.009616 -0.002735 -0.000459 0.000000 0.000000 0.000000
# 2 -0.002735 0.012628 -0.007701 0.000000 0.000000 0.000000
# 3 -0.000459 -0.007701 0.015105 0.000000 0.000000 0.000000
# 4 0.000000 0.000000 0.000000 -0.023469 0.000000 0.000000
# 5 0.000000 0.000000 0.000000 0.000000 -0.083936 0.000000
# 6 0.000000 0.000000 0.000000 0.000000 0.000000 0.023340
#
#
# Mechanical properties :
#
#
# Convention : Reuss Voigt Hill
#
# Bulk Modulus (GPa) = 64.27404 67.36696 65.82050
# Shear Modulus (GPa) = -253.28626 12.03895 -120.62366
#
# Velocity S-wave (km/s) = -10.30666 2.24702 -7.11260
# Velocity P-wave (km/s) = 10.70887 5.91486 6.31247
#
# Compressibility (1/GPa) = 0.01555838
#
# Stress axis : x y z
#
# Youngs Moduli (GPa) = 103.99198 79.19058 66.20505
#
# Poissons Ratio (x) = 0.21656 0.03041
# Poissons Ratio (y) = 0.28438 0.50985
# Poissons Ratio (z) = 0.04777 0.60985
#
# Static dielectric constant tensor:
#      x y z
#    x 1.998040 0.000000 0.000000 
#    y 0.000000 2.003610 0.000000 
#    z 0.000000 0.000000 1.869930 
# 
# From -- ./inp_files/14967.got.cif
#   From: 2010.05.17/outbox.cif.g08.bks.cpg/sg57_8_cif.got.tgz:14967.got - 2010.06.03 13:58:18.
