data_PCOD9434762
_publ_section_title
;
Structure prediction by ZEFSAII (Michael W. Deem and Ramdas Pophale) SiO2 
 PCOD9434762
Probable space group: P B C M
;
_chemical_formula_sum "Si O2"
_cell_formula_units_Z 48
_cell_length_a 7.327568
_cell_length_b 26.332200
_cell_length_c 11.304303
_cell_angle_alpha 90.000000
_cell_angle_beta 90.000000
_cell_angle_gamma 90.000000
_cell_volume 2181.176411
_symmetry_space_group_name_H-M "P B C M"
_symmetry_group_IT_number 57
_symmetry_cell_setting 'orthorhombic'
loop_
_space_group_symop_operation_xyz
x,y,z
-x,-y,1/2+z
x,1/2-y,-z
-x,1/2+y,1/2-z
-x,-y,-z
x,y,1/2-z
-x,1/2+y,z
x,1/2-y,1/2+z
loop_
_atom_site_type_symbol
_atom_site_label
_atom_site_fract_x
_atom_site_fract_y
_atom_site_fract_z
Si Si1 0.762300 0.981058 0.250000
Si Si2 0.369459 0.809695 0.495562
Si Si3 0.286464 0.014052 0.491415
Si Si4 0.654894 0.026213 0.750000
Si Si5 0.095236 0.364584 0.250000
Si Si6 0.334903 0.377862 0.884112
Si Si7 0.344046 0.641234 0.750000
Si Si8 0.933850 0.690534 0.995381
O O1 0.812629 0.998909 0.384644
O O2 0.547383 0.997833 0.250000
O O3 0.818490 0.921004 0.250000
O O4 0.415351 0.750000 0.500000
O O5 0.484675 0.846424 0.580101
O O6 0.407386 0.829332 0.364372
O O7 0.151511 0.815259 0.511557
O O8 0.289867 0.074143 0.466748
O O9 0.500000 0.000000 0.500000
O O10 0.233701 0.986414 0.368780
O O11 0.591574 0.084155 0.750000
O O12 0.133623 0.333594 0.370799
O O13 0.874472 0.365969 0.250000
O O14 0.347366 0.396199 0.750000
O O15 0.171060 0.338651 0.902256
O O16 0.892779 0.750000 0.000000
#
# Coordination Sequence:
#
# PCOD9434762 Si02
#       8
#     4   8   8   4   4   8   4   8
#     4  10  18  34  62  83 113 160 203 259 312 373
#     4  10  23  42  65  93 128 167 211 263 316 383
#     4  10  20  36  61  87 120 163 212 263 319 379
#     4  10  20  38  60  85 125 165 211 261 327 380
#     4  10  20  38  63  87 118 161 213 255 315 385
#     4  12  24  39  63  96 126 164 213 260 322 384
#     4  10  22  40  65  89 120 170 209 259 322 382
#     4  10  23  41  62  92 128 166 207 260 322 385
#
# _framework density 22.006473
#
# number of rings (size 3 to 8) (size 9 to 14) (size 15 to 20)
#    0.000    1.667    2.500    2.500    2.333    0.667 
#    0.000    0.833    7.333    0.000    0.000    0.000 
#    0.000    0.000    0.000    0.000    0.000    0.000 
#
# Total GULP energy -267888.132247 kJ/mol
# GULP energy per Si atom -5581.002755 kJ/mol
# Density = 2.195639 g / cm^3
# Si number density = 22.006473 Si / 1000 Ang^3
#
#
#
# Elastic Constant Matrix: (Units=GPa)
#
#
# Indices 1 2 3 4 5 6 
#
# 1 56.0965 -17.7963 5.0338 0.0000 0.0000 0.0000
# 2 -17.7963 46.9773 11.5310 0.0000 0.0000 0.0000
# 3 5.0338 11.5310 155.7642 0.0000 0.0000 0.0000
# 4 0.0000 0.0000 0.0000 37.4051 0.0000 0.0000
# 5 0.0000 0.0000 0.0000 0.0000 82.3462 0.0000
# 6 0.0000 0.0000 0.0000 0.0000 0.0000 14.5868
#
#
#
# Elastic Compliance Matrix: (Units=1/GPa)
#
#
# Indices 1 2 3 4 5 6 
#
# 1 0.020502 0.008076 -0.001260 0.000000 0.000000 0.000000
# 2 0.008076 0.024862 -0.002101 0.000000 0.000000 0.000000
# 3 -0.001260 -0.002101 0.006616 0.000000 0.000000 0.000000
# 4 0.000000 0.000000 0.000000 0.026734 0.000000 0.000000
# 5 0.000000 0.000000 0.000000 0.000000 0.012144 0.000000
# 6 0.000000 0.000000 0.000000 0.000000 0.000000 0.068555
#
#
# Mechanical properties :
#
#
# Convention : Reuss Voigt Hill
#
# Bulk Modulus (GPa) = 16.28454 28.48611 22.38533
# Shear Modulus (GPa) = 29.33340 44.20561 36.76950
#
# Velocity S-wave (km/s) = 3.65491 4.48678 4.09204
# Velocity P-wave (km/s) = 5.02266 6.30984 5.70268
#
# Compressibility (1/GPa) = 0.06140793
#
# Stress axis : x y z
#
# Youngs Moduli (GPa) = 48.77683 40.22193 151.14280
#
# Poissons Ratio (x) = -0.32483 0.19050
# Poissons Ratio (y) = -0.39392 0.31762
# Poissons Ratio (z) = 0.06148 0.08453
#
# Static dielectric constant tensor:
#      x y z
#    x 1.814060 0.000000 0.000000 
#    y 0.000000 1.760070 0.000000 
#    z 0.000000 0.000000 1.838300 
# 
# From -- ./inp_files/12040.got.cif
#   From: 2010.05.17/outbox.cif.g08.bks.cpg/sg57_7_cif.got.tgz:12040.got - 2010.06.03 13:58:18.
