data_PCOD9434961
_publ_section_title
;
Structure prediction by ZEFSAII (Michael W. Deem and Ramdas Pophale) SiO2 
 PCOD9434961
Probable space group: P B C M
;
_chemical_formula_sum "Si O2"
_cell_formula_units_Z 64
_cell_length_a 16.234683
_cell_length_b 29.726508
_cell_length_c 7.803700
_cell_angle_alpha 90.000000
_cell_angle_beta 90.000000
_cell_angle_gamma 90.000000
_cell_volume 3766.069007
_symmetry_space_group_name_H-M "P B C M"
_symmetry_group_IT_number 57
_symmetry_cell_setting 'orthorhombic'
loop_
_space_group_symop_operation_xyz
x,y,z
-x,-y,1/2+z
x,1/2-y,-z
-x,1/2+y,1/2-z
-x,-y,-z
x,y,1/2-z
-x,1/2+y,z
x,1/2-y,1/2+z
loop_
_atom_site_type_symbol
_atom_site_label
_atom_site_fract_x
_atom_site_fract_y
_atom_site_fract_z
Si Si1 0.600606 0.951526 0.454370
Si Si2 0.996720 0.697107 0.044018
Si Si3 0.333732 0.643189 0.453495
Si Si4 0.496470 0.697615 0.954921
Si Si5 0.655552 0.642791 0.544892
Si Si6 0.408779 0.948709 0.958459
Si Si7 0.182504 0.197345 0.454315
Si Si8 0.823413 0.302799 0.957223
O O1 0.613538 0.953523 0.250000
O O2 0.649325 0.908273 0.522708
O O3 0.503711 0.942758 0.486676
O O4 0.618732 0.001799 0.520352
O O5 0.996751 0.691822 0.250000
O O6 0.907400 0.681071 0.979072
O O7 0.086140 0.680936 0.980985
O O8 0.996739 0.750000 0.000000
O O9 0.320740 0.638138 0.250000
O O10 0.413798 0.674274 0.478111
O O11 0.355885 0.593590 0.521245
O O12 0.252812 0.667917 0.523882
O O13 0.494725 0.693670 0.750000
O O14 0.577876 0.671842 0.020912
O O15 0.499667 0.750000 0.000000
O O16 0.645351 0.640243 0.750000
O O17 0.740779 0.667886 0.512460
O O18 0.408065 0.948652 0.750000
O O19 0.193821 0.250000 0.500000
O O20 0.179903 0.195100 0.250000
O O21 0.823705 0.305324 0.750000
O O22 0.812922 0.250000 0.000000
#
# Coordination Sequence:
#
# PCOD9434961 Si02
#       8
#     8   8   8   8   8   8   8   8
#     4   9  17  31  47  64  86 113 145 182 223 260
#     4   8  15  28  44  62  84 111 141 178 218 256
#     4  10  19  30  45  67  90 116 147 180 216 257
#     4  11  22  33  43  58  86 122 153 179 210 252
#     4  10  20  32  45  63  87 117 149 181 218 258
#     4   9  17  29  47  67  87 111 144 184 221 258
#     4  10  19  30  46  66  88 114 146 181 219 260
#     4   9  17  29  44  63  89 116 145 177 213 256
#
# _framework density 16.993846999999999
#
# number of rings (size 3 to 8) (size 9 to 14) (size 15 to 20)
#    0.000    2.500    1.250    1.500    0.000    4.500 
#    0.000    0.000    0.000    0.000    0.000    0.875 
#    0.000    0.000    0.000    0.000    0.000    0.000 
#
# Total GULP energy -356611.986197 kJ/mol
# GULP energy per Si atom -5572.062284 kJ/mol
# Density = 1.695517 g / cm^3
# Si number density = 16.993847 Si / 1000 Ang^3
#
#
#
# Elastic Constant Matrix: (Units=GPa)
#
#
# Indices 1 2 3 4 5 6 
#
# 1 145.8834 77.1187 -8.6628 0.0000 0.0000 0.0000
# 2 77.1187 128.2219 -2.6640 0.0000 0.0000 0.0000
# 3 -8.6628 -2.6640 15.9081 0.0000 0.0000 0.0000
# 4 0.0000 0.0000 0.0000 0.4347 0.0000 0.0000
# 5 0.0000 0.0000 0.0000 0.0000 -57.9577 0.0000
# 6 0.0000 0.0000 0.0000 0.0000 0.0000 9.6852
#
#
#
# Elastic Compliance Matrix: (Units=1/GPa)
#
#
# Indices 1 2 3 4 5 6 
#
# 1 0.010378 -0.006146 0.004622 0.000000 0.000000 0.000000
# 2 -0.006146 0.011466 -0.001427 0.000000 0.000000 0.000000
# 3 0.004622 -0.001427 0.065139 0.000000 0.000000 0.000000
# 4 0.000000 0.000000 0.000000 2.300508 0.000000 0.000000
# 5 0.000000 0.000000 0.000000 0.000000 -0.017254 0.000000
# 6 0.000000 0.000000 0.000000 0.000000 0.000000 0.103250
#
#
# Mechanical properties :
#
#
# Convention : Reuss Voigt Hill
#
# Bulk Modulus (GPa) = 12.33312 46.84411 29.58861
# Shear Modulus (GPa) = 1.99488 5.38055 3.68771
#
# Velocity S-wave (km/s) = 1.08463 1.78130 1.47470
# Velocity P-wave (km/s) = 2.97351 5.64410 4.51097
#
# Compressibility (1/GPa) = 0.08108251
#
# Stress axis : x y z
#
# Youngs Moduli (GPa) = 96.35593 87.21613 15.35175
#
# Poissons Ratio (x) = 0.53602 -0.07096
# Poissons Ratio (y) = 0.59219 0.02190
# Poissons Ratio (z) = -0.44538 0.12443
#
# Static dielectric constant tensor:
#      x y z
#    x 1.599310 0.000000 0.000000 
#    y 0.000000 1.584850 0.000000 
#    z 0.000000 0.000000 1.604160 
# 
# From -- ./inp_files/6014.got.cif
#   From: 2010.05.17/outbox.cif.g08.bks.cpg/sg57_4_cif.got.tgz:6014.got - 2010.06.03 13:58:18.
