data_PCOD9434276
_publ_section_title
;
Structure prediction by ZEFSAII (Michael W. Deem and Ramdas Pophale) SiO2 
 PCOD9434276
Probable space group: P B C M
;
_chemical_formula_sum "Si O2"
_cell_formula_units_Z 64
_cell_length_a 19.784494
_cell_length_b 22.435344
_cell_length_c 8.761507
_cell_angle_alpha 90.000000
_cell_angle_beta 90.000000
_cell_angle_gamma 90.000000
_cell_volume 3888.987011
_symmetry_space_group_name_H-M "P B C M"
_symmetry_group_IT_number 57
_symmetry_cell_setting 'orthorhombic'
loop_
_space_group_symop_operation_xyz
x,y,z
-x,-y,1/2+z
x,1/2-y,-z
-x,1/2+y,1/2-z
-x,-y,-z
x,y,1/2-z
-x,1/2+y,z
x,1/2-y,1/2+z
loop_
_atom_site_type_symbol
_atom_site_label
_atom_site_fract_x
_atom_site_fract_y
_atom_site_fract_z
Si Si1 0.597412 0.107533 0.433113
Si Si2 0.162487 0.619775 0.931963
Si Si3 0.028207 0.685042 0.933673
Si Si4 0.177921 0.006942 0.931827
Si Si5 0.327093 0.008355 0.066990
Si Si6 0.284954 0.686622 0.431210
Si Si7 0.463121 0.441525 0.566367
Si Si8 0.038199 0.441222 0.065986
O O1 0.601488 0.097174 0.250000
O O2 0.638801 0.166840 0.466583
O O3 0.518373 0.108266 0.476432
O O4 0.638580 0.053492 0.511374
O O5 0.162311 0.613216 0.750000
O O6 0.105842 0.668343 0.973384
O O7 0.149962 0.555997 0.006587
O O8 0.234526 0.640343 0.992026
O O9 0.022442 0.688810 0.750000
O O10 0.988991 0.624190 0.982652
O O11 0.009599 0.750000 0.000000
O O12 0.184777 0.003693 0.750000
O O13 0.118055 0.053016 0.969709
O O14 0.252486 0.017290 0.000005
O O15 0.321389 0.007142 0.250000
O O16 0.384701 0.056851 0.019207
O O17 0.269345 0.750000 0.500000
O O18 0.274953 0.686016 0.250000
O O19 0.500000 0.500000 0.500000
O O20 0.462071 0.445719 0.750000
O O21 0.029643 0.444217 0.250000
O O22 0.000000 0.500000 0.000000
#
# Coordination Sequence:
#
# PCOD9434276 Si02
#       8
#     8   8   8   8   8   8   8   8
#     4   9  17  30  46  64  91 125 162 200 244 290
#     4  11  21  34  52  72 100 133 171 213 249 297
#     4  10  22  38  55  77 102 132 171 214 258 305
#     4  11  21  32  50  74 103 137 168 203 255 308
#     4  10  18  28  46  70  97 125 158 198 242 292
#     4  11  22  33  46  66  96 133 172 209 247 295
#     4   8  15  27  43  65  90 119 152 190 233 280
#     4  10  21  37  55  77 104 135 171 212 258 310
#
# _framework density 16.456727000000001
#
# number of rings (size 3 to 8) (size 9 to 14) (size 15 to 20)
#    0.000    2.000    2.500    1.875    0.000    4.000 
#    0.000    0.000    0.000    0.000    0.000    0.875 
#    0.000    6.000    0.000    0.000    0.000    0.000 
#
# Total GULP energy -356391.277392 kJ/mol
# GULP energy per Si atom -5568.613709 kJ/mol
# Density = 1.641927 g / cm^3
# Si number density = 16.456727 Si / 1000 Ang^3
#
#
#
# Elastic Constant Matrix: (Units=GPa)
#
#
# Indices 1 2 3 4 5 6 
#
# 1 100.9707 44.0315 30.7062 0.0000 0.0000 0.0000
# 2 44.0315 72.7703 14.6881 0.0000 0.0000 0.0000
# 3 30.7062 14.6881 20.3547 0.0000 0.0000 0.0000
# 4 0.0000 0.0000 0.0000 18.7127 0.0000 0.0000
# 5 0.0000 0.0000 0.0000 0.0000 17.3684 0.0000
# 6 0.0000 0.0000 0.0000 0.0000 0.0000 21.8970
#
#
#
# Elastic Compliance Matrix: (Units=1/GPa)
#
#
# Indices 1 2 3 4 5 6 
#
# 1 0.021298 -0.007493 -0.026722 0.000000 0.000000 0.000000
# 2 -0.007493 0.018721 -0.002205 0.000000 0.000000 0.000000
# 3 -0.026722 -0.002205 0.091032 0.000000 0.000000 0.000000
# 4 0.000000 0.000000 0.000000 0.053440 0.000000 0.000000
# 5 0.000000 0.000000 0.000000 0.000000 0.057576 0.000000
# 6 0.000000 0.000000 0.000000 0.000000 0.000000 0.045668
#
#
# Mechanical properties :
#
#
# Convention : Reuss Voigt Hill
#
# Bulk Modulus (GPa) = 17.17922 41.43859 29.30891
# Shear Modulus (GPa) = 13.15862 18.57359 15.86611
#
# Velocity S-wave (km/s) = 2.83077 3.36316 3.10838
# Velocity P-wave (km/s) = 4.59848 6.34950 5.54356
#
# Compressibility (1/GPa) = 0.05820984
#
# Stress axis : x y z
#
# Youngs Moduli (GPa) = 46.95274 53.41605 10.98517
#
# Poissons Ratio (x) = 0.40026 0.29355
# Poissons Ratio (y) = 0.35183 0.02422
# Poissons Ratio (z) = 1.25468 0.11779
#
# Static dielectric constant tensor:
#      x y z
#    x 1.599020 0.000000 0.000000 
#    y 0.000000 1.566680 0.000000 
#    z 0.000000 0.000000 1.550090 
# 
# From -- ./inp_files/8793.got.cif
#   From: 2010.05.17/outbox.cif.g08.bks.cpg/sg57_5_cif.got.tgz:8793.got - 2010.06.03 13:58:18.
