data_PCOD9434454
_publ_section_title
;
Structure prediction by ZEFSAII (Michael W. Deem and Ramdas Pophale) SiO2 
 PCOD9434454
Probable space group: P B C M
;
_chemical_formula_sum "Si O2"
_cell_formula_units_Z 56
_cell_length_a 15.423920
_cell_length_b 9.523535
_cell_length_c 14.843993
_cell_angle_alpha 90.000000
_cell_angle_beta 90.000000
_cell_angle_gamma 90.000000
_cell_volume 2180.437723
_symmetry_space_group_name_H-M "P B C M"
_symmetry_group_IT_number 57
_symmetry_cell_setting 'orthorhombic'
loop_
_space_group_symop_operation_xyz
x,y,z
-x,-y,1/2+z
x,1/2-y,-z
-x,1/2+y,1/2-z
-x,-y,-z
x,y,1/2-z
-x,1/2+y,z
x,1/2-y,1/2+z
loop_
_atom_site_type_symbol
_atom_site_label
_atom_site_fract_x
_atom_site_fract_y
_atom_site_fract_z
Si Si1 0.392643 0.778375 0.394879
Si Si2 0.795874 0.375459 0.357833
Si Si3 0.452540 0.405510 0.889434
Si Si4 0.795972 0.972378 0.353783
Si Si5 0.055526 0.824294 0.639556
Si Si6 0.355379 0.151354 0.567231
Si Si7 0.861029 0.843106 0.856646
O O1 0.406189 0.750000 0.500000
O O2 0.288954 0.789295 0.384308
O O3 0.454080 0.652566 0.357811
O O4 0.425972 0.935624 0.363148
O O5 0.791582 0.371693 0.250000
O O6 0.889487 0.313351 0.384382
O O7 0.798932 0.534440 0.392324
O O8 0.570031 0.598646 0.001765
O O9 0.392577 0.267800 0.863593
O O10 0.786075 0.016357 0.250000
O O11 0.702586 0.973900 0.398900
O O12 0.821373 0.809894 0.357908
O O13 0.877840 0.055715 0.390560
O O14 0.050268 0.827235 0.750000
O O15 0.958397 0.838876 0.604817
O O16 0.300577 0.250000 0.500000
O O17 0.871602 0.876935 0.750000
#
# Coordination Sequence:
#
# PCOD9434454 Si02
#       7
#     8   8   8   8   8   8   8
#     4  12  22  38  62  81 110 146 200 225 278 337
#     4  10  22  36  56  89 118 141 183 240 281 318
#     4   9  22  37  59  80 100 148 190 227 263 342
#     4  10  18  30  55  83 105 141 187 232 280 324
#     4   9  18  32  53  81 112 148 184 224 275 334
#     4   8  19  34  55  75 113 135 189 226 275 328
#     4   9  17  33  54  79 114 148 183 222 274 341
#
# _framework density 25.682915000000001
#
# number of rings (size 3 to 8) (size 9 to 14) (size 15 to 20)
#    0.857    1.429    1.429    2.143    2.000    3.429 
#    0.000    1.429    0.000    5.143    0.000    0.000 
#    0.000    0.000    0.000    0.000    0.000    0.000 
#
# Total GULP energy -312220.350952 kJ/mol
# GULP energy per Si atom -5575.363410 kJ/mol
# Density = 2.562446 g / cm^3
# Si number density = 25.682915 Si / 1000 Ang^3
#
#
#
# Elastic Constant Matrix: (Units=GPa)
#
#
# Indices 1 2 3 4 5 6 
#
# 1 128.4849 31.1944 24.5557 0.0000 0.0000 0.0000
# 2 31.1944 129.6798 10.1653 0.0000 0.0000 0.0000
# 3 24.5557 10.1653 45.6435 0.0000 0.0000 0.0000
# 4 0.0000 0.0000 0.0000 12.9856 0.0000 0.0000
# 5 0.0000 0.0000 0.0000 0.0000 20.4091 0.0000
# 6 0.0000 0.0000 0.0000 0.0000 0.0000 24.3428
#
#
#
# Elastic Compliance Matrix: (Units=1/GPa)
#
#
# Indices 1 2 3 4 5 6 
#
# 1 0.009084 -0.001834 -0.004479 0.000000 0.000000 0.000000
# 2 -0.001834 0.008219 -0.000844 0.000000 0.000000 0.000000
# 3 -0.004479 -0.000844 0.024506 0.000000 0.000000 0.000000
# 4 0.000000 0.000000 0.000000 0.077008 0.000000 0.000000
# 5 0.000000 0.000000 0.000000 0.000000 0.048998 0.000000
# 6 0.000000 0.000000 0.000000 0.000000 0.000000 0.041080
#
#
# Mechanical properties :
#
#
# Convention : Reuss Voigt Hill
#
# Bulk Modulus (GPa) = 36.36868 48.40434 42.38651
# Shear Modulus (GPa) = 21.51706 27.40701 24.46204
#
# Velocity S-wave (km/s) = 2.89761 3.27024 3.08955
# Velocity P-wave (km/s) = 5.03848 5.75735 5.40987
#
# Compressibility (1/GPa) = 0.02749619
#
# Stress axis : x y z
#
# Youngs Moduli (GPa) = 110.08012 121.67475 40.80575
#
# Poissons Ratio (x) = 0.22317 0.18276
# Poissons Ratio (y) = 0.20190 0.03442
# Poissons Ratio (z) = 0.49302 0.10265
#
# Static dielectric constant tensor:
#      x y z
#    x 2.049470 0.000000 0.000000 
#    y 0.000000 2.122950 0.000000 
#    z 0.000000 0.000000 2.060410 
# 
# From -- ./inp_files/25395.got.cif
#   From: 2010.05.17/outbox.cif.g08.bks.cpg/sg57_13_cif.got.tgz:25395.got - 2010.06.03 13:58:18.
