data_PCOD9434528
_publ_section_title
;
Structure prediction by ZEFSAII (Michael W. Deem and Ramdas Pophale) SiO2 
 PCOD9434528
Probable space group: P B C M
;
_chemical_formula_sum "Si O2"
_cell_formula_units_Z 64
_cell_length_a 15.400554
_cell_length_b 20.877522
_cell_length_c 8.890044
_cell_angle_alpha 90.000000
_cell_angle_beta 90.000000
_cell_angle_gamma 90.000000
_cell_volume 2858.374997
_symmetry_space_group_name_H-M "P B C M"
_symmetry_group_IT_number 57
_symmetry_cell_setting 'orthorhombic'
loop_
_space_group_symop_operation_xyz
x,y,z
-x,-y,1/2+z
x,1/2-y,-z
-x,1/2+y,1/2-z
-x,-y,-z
x,y,1/2-z
-x,1/2+y,z
x,1/2-y,1/2+z
loop_
_atom_site_type_symbol
_atom_site_label
_atom_site_fract_x
_atom_site_fract_y
_atom_site_fract_z
Si Si1 0.893724 0.353015 0.927578
Si Si2 0.260949 0.317980 0.428305
Si Si3 0.082943 0.131360 0.429056
Si Si4 0.542946 0.184970 0.073972
Si Si5 0.869978 0.505803 0.576567
Si Si6 0.579111 0.915406 0.428082
Si Si7 0.692636 0.008412 0.920585
Si Si8 0.716364 0.161424 0.920095
O O1 0.881806 0.338377 0.750000
O O2 0.888751 0.430699 0.942216
O O3 0.991689 0.336367 0.975596
O O4 0.814251 0.326607 0.024786
O O5 0.283896 0.250000 0.500000
O O6 0.251631 0.311321 0.250000
O O7 0.168681 0.340288 0.495330
O O8 0.338008 0.368517 0.456149
O O9 0.089582 0.136966 0.250000
O O10 0.080113 0.056098 0.473027
O O11 0.525416 0.183713 0.250000
O O12 0.507061 0.250000 0.000000
O O13 0.501269 0.123797 0.993371
O O14 0.645343 0.184604 0.038413
O O15 0.884301 0.523204 0.750000
O O16 0.769262 0.513440 0.531466
O O17 0.569464 0.926080 0.250000
O O18 0.603738 0.980077 0.515423
O O19 0.707215 0.984578 0.750000
O O20 0.700770 0.084750 0.916007
O O21 0.701247 0.185525 0.750000
#
# Coordination Sequence:
#
# PCOD9434528 Si02
#       8
#     8   8   8   8   8   8   8   8
#     4   9  20  36  56  85 120 159 201 248 301 352
#     4  11  24  40  59  84 117 159 202 251 304 360
#     4  11  21  34  55  83 118 158 202 248 295 355
#     4  12  26  45  69  93 120 156 201 253 304 362
#     4  10  18  31  52  82 121 160 200 244 293 352
#     4  11  23  40  64  93 125 158 199 248 301 365
#     4  10  20  35  59  91 127 164 201 243 301 363
#     4  10  22  41  64  92 125 161 203 253 305 362
#
# _framework density 22.390345
#
# number of rings (size 3 to 8) (size 9 to 14) (size 15 to 20)
#    0.000    1.500    1.250    4.125    0.000    6.000 
#    0.000    0.625    0.000    3.000    0.000    0.000 
#    0.000    0.000    0.000    0.000    0.000    0.000 
#
# Total GULP energy -358048.655205 kJ/mol
# GULP energy per Si atom -5594.510238 kJ/mol
# Density = 2.233938 g / cm^3
# Si number density = 22.390345 Si / 1000 Ang^3
#
#
#
# Elastic Constant Matrix: (Units=GPa)
#
#
# Indices 1 2 3 4 5 6 
#
# 1 97.1520 -2.1073 25.1811 0.0000 0.0000 0.0000
# 2 -2.1073 48.3159 17.1265 0.0000 0.0000 0.0000
# 3 25.1811 17.1265 64.2702 0.0000 0.0000 0.0000
# 4 0.0000 0.0000 0.0000 28.8891 0.0000 0.0000
# 5 0.0000 0.0000 0.0000 0.0000 31.5542 0.0000
# 6 0.0000 0.0000 0.0000 0.0000 0.0000 3.6829
#
#
#
# Elastic Compliance Matrix: (Units=1/GPa)
#
#
# Indices 1 2 3 4 5 6 
#
# 1 0.011695 0.002357 -0.005210 0.000000 0.000000 0.000000
# 2 0.002357 0.023331 -0.007141 0.000000 0.000000 0.000000
# 3 -0.005210 -0.007141 0.019503 0.000000 0.000000 0.000000
# 4 0.000000 0.000000 0.000000 0.034615 0.000000 0.000000
# 5 0.000000 0.000000 0.000000 0.000000 0.031692 0.000000
# 6 0.000000 0.000000 0.000000 0.000000 0.000000 0.271526
#
#
# Mechanical properties :
#
#
# Convention : Reuss Voigt Hill
#
# Bulk Modulus (GPa) = 28.95060 32.23763 30.59412
# Shear Modulus (GPa) = 11.79627 24.12775 17.96201
#
# Velocity S-wave (km/s) = 2.29780 3.28624 2.83542
# Velocity P-wave (km/s) = 4.47190 5.36921 4.94097
#
# Compressibility (1/GPa) = 0.03454160
#
# Stress axis : x y z
#
# Youngs Moduli (GPa) = 85.50896 42.86137 51.27312
#
# Poissons Ratio (x) = -0.10102 0.26713
# Poissons Ratio (y) = -0.20153 0.36612
# Poissons Ratio (z) = 0.44550 0.30605
#
# Static dielectric constant tensor:
#      x y z
#    x 1.850860 0.000000 0.000000 
#    y 0.000000 1.866130 0.000000 
#    z 0.000000 0.000000 1.744740 
# 
# From -- ./inp_files/5582.got.cif
#   From: 2010.05.17/outbox.cif.g08.bks.cpg/sg57_3_cif.got.tgz:5582.got - 2010.06.03 13:58:18.
