data_PCOD9434777
_publ_section_title
;
Structure prediction by ZEFSAII (Michael W. Deem and Ramdas Pophale) SiO2 
 PCOD9434777
Probable space group: P B C M
;
_chemical_formula_sum "Si O2"
_cell_formula_units_Z 56
_cell_length_a 7.993072
_cell_length_b 15.444209
_cell_length_c 20.170249
_cell_angle_alpha 90.000000
_cell_angle_beta 90.000000
_cell_angle_gamma 90.000000
_cell_volume 2489.950163
_symmetry_space_group_name_H-M "P B C M"
_symmetry_group_IT_number 57
_symmetry_cell_setting 'orthorhombic'
loop_
_space_group_symop_operation_xyz
x,y,z
-x,-y,1/2+z
x,1/2-y,-z
-x,1/2+y,1/2-z
-x,-y,-z
x,y,1/2-z
-x,1/2+y,z
x,1/2-y,1/2+z
loop_
_atom_site_type_symbol
_atom_site_label
_atom_site_fract_x
_atom_site_fract_y
_atom_site_fract_z
Si Si1 0.033279 0.711380 0.562987
Si Si2 0.609827 0.643322 0.177849
Si Si3 0.275158 0.582398 0.491568
Si Si4 0.272707 0.759000 0.176111
Si Si5 0.423344 0.946499 0.135759
Si Si6 0.215876 0.071684 0.916452
Si Si7 0.613024 0.663146 0.462043
O O1 0.929137 0.750000 0.500000
O O2 0.167497 0.660634 0.518156
O O3 0.138179 0.761562 0.618724
O O4 0.928241 0.637831 0.601919
O O5 0.683796 0.665030 0.250000
O O6 0.430763 0.693422 0.175298
O O7 0.603895 0.538443 0.171758
O O8 0.695777 0.675833 0.109729
O O9 0.347752 0.544477 0.561183
O O10 0.167188 0.523580 0.441554
O O11 0.438451 0.612576 0.452127
O O12 0.199715 0.755095 0.250000
O O13 0.341774 0.857660 0.163738
O O14 0.623356 0.931292 0.130611
O O15 0.285148 0.108262 0.985833
O O16 0.563186 0.750000 0.500000
#
# Coordination Sequence:
#
# PCOD9434777 Si02
#       7
#     8   8   8   8   8   8   8
#     4  11  23  36  58  87 115 162 203 241 298 356
#     4  11  20  34  60  90 120 156 200 248 300 362
#     4  10  18  35  56  83 118 151 191 246 293 349
#     4  10  23  41  60  86 121 161 203 245 300 368
#     4  10  19  37  63  91 119 153 197 253 306 355
#     4  11  20  34  56  89 121 147 192 252 301 346
#     4  11  19  34  59  87 119 151 196 252 300 348
#
# _framework density 22.490411000000002
#
# number of rings (size 3 to 8) (size 9 to 14) (size 15 to 20)
#    0.000    1.429    2.857    6.000    0.000    0.000 
#    0.000    1.429    0.000    3.429    0.000    0.000 
#    0.000    0.000    0.000    0.000    0.000    0.000 
#
# Total GULP energy -312216.941439 kJ/mol
# GULP energy per Si atom -5575.302526 kJ/mol
# Density = 2.243922 g / cm^3
# Si number density = 22.490411 Si / 1000 Ang^3
#
#
#
# Elastic Constant Matrix: (Units=GPa)
#
#
# Indices 1 2 3 4 5 6 
#
# 1 17.5482 -5.9869 -19.3327 0.0000 0.0000 0.0000
# 2 -5.9869 78.6338 2.8277 0.0000 0.0000 0.0000
# 3 -19.3327 2.8277 111.6402 0.0000 0.0000 0.0000
# 4 0.0000 0.0000 0.0000 19.5625 0.0000 0.0000
# 5 0.0000 0.0000 0.0000 0.0000 17.3092 0.0000
# 6 0.0000 0.0000 0.0000 0.0000 0.0000 21.7842
#
#
#
# Elastic Compliance Matrix: (Units=1/GPa)
#
#
# Indices 1 2 3 4 5 6 
#
# 1 0.072381 0.005065 0.012406 0.000000 0.000000 0.000000
# 2 0.005065 0.013083 0.000546 0.000000 0.000000 0.000000
# 3 0.012406 0.000546 0.011092 0.000000 0.000000 0.000000
# 4 0.000000 0.000000 0.000000 0.051118 0.000000 0.000000
# 5 0.000000 0.000000 0.000000 0.000000 0.057773 0.000000
# 6 0.000000 0.000000 0.000000 0.000000 0.000000 0.045905
#
#
# Mechanical properties :
#
#
# Convention : Reuss Voigt Hill
#
# Bulk Modulus (GPa) = 7.54209 18.09316 12.81762
# Shear Modulus (GPa) = 19.26664 27.08544 23.17604
#
# Velocity S-wave (km/s) = 2.93005 3.47408 3.21360
# Velocity P-wave (km/s) = 3.84808 4.91474 4.41375
#
# Compressibility (1/GPa) = 0.13258924
#
# Stress axis : x y z
#
# Youngs Moduli (GPa) = 13.81570 76.43415 90.15609
#
# Poissons Ratio (x) = -0.38712 -1.11848
# Poissons Ratio (y) = -0.06997 -0.04920
# Poissons Ratio (z) = -0.17140 -0.04171
#
# Static dielectric constant tensor:
#      x y z
#    x 1.867300 0.000000 0.000000 
#    y 0.000000 2.185540 0.000000 
#    z 0.000000 0.000000 1.879450 
# 
# From -- ./inp_files/24507.got.cif
#   From: 2010.05.17/outbox.cif.g08.bks.cpg/sg57_13_cif.got.tgz:24507.got - 2010.06.03 13:58:18.
