data_PCOD9434049
_publ_section_title
;
Structure prediction by ZEFSAII (Michael W. Deem and Ramdas Pophale) SiO2 
 PCOD9434049
Probable space group: P B C M
;
_chemical_formula_sum "Si O2"
_cell_formula_units_Z 48
_cell_length_a 12.182494
_cell_length_b 27.130178
_cell_length_c 7.484902
_cell_angle_alpha 90.000000
_cell_angle_beta 90.000000
_cell_angle_gamma 90.000000
_cell_volume 2473.859142
_symmetry_space_group_name_H-M "P B C M"
_symmetry_group_IT_number 57
_symmetry_cell_setting 'orthorhombic'
loop_
_space_group_symop_operation_xyz
x,y,z
-x,-y,1/2+z
x,1/2-y,-z
-x,1/2+y,1/2-z
-x,-y,-z
x,y,1/2-z
-x,1/2+y,z
x,1/2-y,1/2+z
loop_
_atom_site_type_symbol
_atom_site_label
_atom_site_fract_x
_atom_site_fract_y
_atom_site_fract_z
Si Si1 0.133820 0.041916 0.041887
Si Si2 0.799447 0.435950 0.030013
Si Si3 0.661409 0.607156 0.966529
Si Si4 0.180852 0.192731 0.964089
Si Si5 0.450319 0.554059 0.536118
Si Si6 0.017501 0.631000 0.951925
O O1 0.103136 0.041952 0.250000
O O2 0.138963 0.986244 0.974084
O O3 0.256676 0.063644 0.025051
O O4 0.056785 0.081326 0.946243
O O5 0.800897 0.436290 0.250000
O O6 0.673564 0.438836 0.969684
O O7 0.868557 0.388501 0.968889
O O8 0.659905 0.607356 0.750000
O O9 0.719860 0.657632 0.027445
O O10 0.539672 0.593813 0.029179
O O11 0.176249 0.186116 0.750000
O O12 0.065043 0.170933 0.035486
O O13 0.195480 0.250000 0.000000
O O14 0.500000 0.500000 0.500000
O O15 0.443727 0.558843 0.750000
O O16 0.041809 0.647569 0.750000
#
# Coordination Sequence:
#
# PCOD9434049 Si02
#       6
#     8   8   8   8   8   8
#     4  10  17  26  43  68  95 122 155 189 222 261
#     4   9  17  28  44  66  94 126 156 184 217 267
#     4   9  18  31  47  68  95 125 156 188 227 276
#     4   9  18  32  50  69  86 113 152 196 243 281
#     4  10  18  30  47  68  96 129 160 187 219 267
#     4   9  18  32  46  64  92 122 153 186 230 282
#
# _framework density 19.402882000000002
#
# number of rings (size 3 to 8) (size 9 to 14) (size 15 to 20)
#    0.000    2.667    1.667    2.000    0.000    2.667 
#    0.000    1.667    0.000    1.000    0.000    0.000 
#    0.000    0.000    0.000    0.000    0.000    0.667 
#
# Total GULP energy -267649.890685 kJ/mol
# GULP energy per Si atom -5576.039389 kJ/mol
# Density = 1.935872 g / cm^3
# Si number density = 19.402882 Si / 1000 Ang^3
#
#
#
# Elastic Constant Matrix: (Units=GPa)
#
#
# Indices 1 2 3 4 5 6 
#
# 1 100.0286 37.1810 1.1477 0.0000 0.0000 0.0000
# 2 37.1810 108.1010 -0.5708 0.0000 0.0000 0.0000
# 3 1.1477 -0.5708 59.8146 0.0000 0.0000 0.0000
# 4 0.0000 0.0000 0.0000 14.7416 0.0000 0.0000
# 5 0.0000 0.0000 0.0000 0.0000 9.9521 0.0000
# 6 0.0000 0.0000 0.0000 0.0000 0.0000 18.6455
#
#
#
# Elastic Compliance Matrix: (Units=1/GPa)
#
#
# Indices 1 2 3 4 5 6 
#
# 1 0.011467 -0.003945 -0.000258 0.000000 0.000000 0.000000
# 2 -0.003945 0.010609 0.000177 0.000000 0.000000 0.000000
# 3 -0.000258 0.000177 0.016725 0.000000 0.000000 0.000000
# 4 0.000000 0.000000 0.000000 0.067835 0.000000 0.000000
# 5 0.000000 0.000000 0.000000 0.000000 0.100482 0.000000
# 6 0.000000 0.000000 0.000000 0.000000 0.000000 0.053632
#
#
# Mechanical properties :
#
#
# Convention : Reuss Voigt Hill
#
# Bulk Modulus (GPa) = 32.52235 38.16221 35.34228
# Shear Modulus (GPa) = 17.91790 24.01358 20.96574
#
# Velocity S-wave (km/s) = 3.04216 3.52181 3.29074
# Velocity P-wave (km/s) = 5.39793 6.02068 5.71779
#
# Compressibility (1/GPa) = 0.03074809
#
# Stress axis : x y z
#
# Youngs Moduli (GPa) = 87.21009 94.26402 59.79086
#
# Poissons Ratio (x) = 0.37190 0.01541
# Poissons Ratio (y) = 0.34407 -0.01058
# Poissons Ratio (z) = 0.02247 -0.01668
#
# Static dielectric constant tensor:
#      x y z
#    x 1.727160 0.000000 0.000000 
#    y 0.000000 1.654640 0.000000 
#    z 0.000000 0.000000 1.729910 
# 
# From -- ./inp_files/3268.got.cif
#   From: 2010.05.17/outbox.cif.g08.bks.cpg/sg57_2_cif.got.tgz:3268.got - 2010.06.03 13:58:18.
