data_PCOD9434857
_publ_section_title
;
Structure prediction by ZEFSAII (Michael W. Deem and Ramdas Pophale) SiO2 
 PCOD9434857
Probable space group: P B C M
;
_chemical_formula_sum "Si O2"
_cell_formula_units_Z 56
_cell_length_a 12.726619
_cell_length_b 14.637918
_cell_length_c 14.302968
_cell_angle_alpha 90.000000
_cell_angle_beta 90.000000
_cell_angle_gamma 90.000000
_cell_volume 2664.517149
_symmetry_space_group_name_H-M "P B C M"
_symmetry_group_IT_number 57
_symmetry_cell_setting 'orthorhombic'
loop_
_space_group_symop_operation_xyz
x,y,z
-x,-y,1/2+z
x,1/2-y,-z
-x,1/2+y,1/2-z
-x,-y,-z
x,y,1/2-z
-x,1/2+y,z
x,1/2-y,1/2+z
loop_
_atom_site_type_symbol
_atom_site_label
_atom_site_fract_x
_atom_site_fract_y
_atom_site_fract_z
Si Si1 0.636599 0.968384 0.856145
Si Si2 0.071594 0.128015 0.573111
Si Si3 0.693214 0.650413 0.974099
Si Si4 0.872987 0.262522 0.353483
Si Si5 0.386433 0.526003 0.140301
Si Si6 0.731816 0.382910 0.024630
Si Si7 0.073712 0.931192 0.584270
O O1 0.670392 0.957092 0.750000
O O2 0.693350 0.899680 0.926163
O O3 0.511090 0.957706 0.862315
O O4 0.664364 0.067212 0.896645
O O5 0.189625 0.163890 0.567106
O O6 0.984091 0.195878 0.612628
O O7 0.030449 0.100510 0.469531
O O8 0.067457 0.031029 0.627453
O O9 0.645870 0.750000 0.000000
O O10 0.638767 0.574341 0.905660
O O11 0.849997 0.295310 0.250000
O O12 0.781445 0.295756 0.422659
O O13 0.886869 0.153780 0.356176
O O14 0.352701 0.529625 0.250000
O O15 0.334185 0.601909 0.071454
O O16 0.837462 0.438154 0.996798
#
# Coordination Sequence:
#
# PCOD9434857 Si02
#       7
#     8   8   8   8   8   8   8
#     4  10  21  40  64  91 124 163 207 262 325 384
#     4  10  20  39  62  84 124 171 205 255 312 372
#     4  11  21  38  65  92 126 163 209 258 316 377
#     4  11  24  38  59  96 132 167 213 265 314 376
#     4  10  22  40  64  92 126 166 214 262 321 383
#     4  10  18  39  63  86 120 164 205 257 312 367
#     4  10  20  38  62  84 123 165 209 250 313 374
#
# _framework density 21.016943000000001
#
# number of rings (size 3 to 8) (size 9 to 14) (size 15 to 20)
#    0.000    1.714    2.857    4.714    0.000    2.286 
#    0.000    7.857    0.000    4.286    0.000    0.000 
#    0.000    0.000    0.000    0.000    0.000    0.000 
#
# Total GULP energy -311961.691269 kJ/mol
# GULP energy per Si atom -5570.744487 kJ/mol
# Density = 2.096911 g / cm^3
# Si number density = 21.016943 Si / 1000 Ang^3
#
#
#
# Elastic Constant Matrix: (Units=GPa)
#
#
# Indices 1 2 3 4 5 6 
#
# 1 52.4275 11.9775 25.8828 0.0000 0.0000 0.0000
# 2 11.9775 106.0639 42.4396 0.0000 0.0000 0.0000
# 3 25.8828 42.4396 152.2939 0.0000 0.0000 0.0000
# 4 0.0000 0.0000 0.0000 8.7717 0.0000 0.0000
# 5 0.0000 0.0000 0.0000 0.0000 -0.7371 0.0000
# 6 0.0000 0.0000 0.0000 0.0000 0.0000 8.2112
#
#
#
# Elastic Compliance Matrix: (Units=1/GPa)
#
#
# Indices 1 2 3 4 5 6 
#
# 1 0.020926 -0.001058 -0.003262 0.000000 0.000000 0.000000
# 2 -0.001058 0.010665 -0.002792 0.000000 0.000000 0.000000
# 3 -0.003262 -0.002792 0.007899 0.000000 0.000000 0.000000
# 4 0.000000 0.000000 0.000000 0.114002 0.000000 0.000000
# 5 0.000000 0.000000 0.000000 0.000000 -1.356756 0.000000
# 6 0.000000 0.000000 0.000000 0.000000 0.000000 0.121785
#
#
# Mechanical properties :
#
#
# Convention : Reuss Voigt Hill
#
# Bulk Modulus (GPa) = 39.57899 52.37614 45.97756
# Shear Modulus (GPa) = -4.72218 18.61488 6.94635
#
# Velocity S-wave (km/s) = -1.50057 2.97931 1.81997
# Velocity P-wave (km/s) = 3.98378 6.06713 5.13228
#
# Compressibility (1/GPa) = 0.02526593
#
# Stress axis : x y z
#
# Youngs Moduli (GPa) = 47.78776 93.76464 126.60372
#
# Poissons Ratio (x) = 0.09921 0.41293
# Poissons Ratio (y) = 0.05056 0.35350
# Poissons Ratio (z) = 0.15586 0.26181
#
# Static dielectric constant tensor:
#      x y z
#    x 1.755720 0.000000 0.000000 
#    y 0.000000 1.860650 0.000000 
#    z 0.000000 0.000000 1.778960 
# 
# From -- ./inp_files/17692.got.cif
#   From: 2010.05.17/outbox.cif.g08.bks.cpg/sg57_9_cif.got.tgz:17692.got - 2010.06.03 13:58:18.
