data_PCOD9434407
_publ_section_title
;
Structure prediction by ZEFSAII (Michael W. Deem and Ramdas Pophale) SiO2 
 PCOD9434407
Probable space group: P B C M
;
_chemical_formula_sum "Si O2"
_cell_formula_units_Z 48
_cell_length_a 14.476295
_cell_length_b 7.999658
_cell_length_c 16.130248
_cell_angle_alpha 90.000000
_cell_angle_beta 90.000000
_cell_angle_gamma 90.000000
_cell_volume 1867.969969
_symmetry_space_group_name_H-M "P B C M"
_symmetry_group_IT_number 57
_symmetry_cell_setting 'orthorhombic'
loop_
_space_group_symop_operation_xyz
x,y,z
-x,-y,1/2+z
x,1/2-y,-z
-x,1/2+y,1/2-z
-x,-y,-z
x,y,1/2-z
-x,1/2+y,z
x,1/2-y,1/2+z
loop_
_atom_site_type_symbol
_atom_site_label
_atom_site_fract_x
_atom_site_fract_y
_atom_site_fract_z
Si Si1 0.972447 0.477279 0.848794
Si Si2 0.699254 0.373271 0.849756
Si Si3 0.521425 0.537148 0.905450
Si Si4 0.634346 0.847658 0.655415
Si Si5 0.188307 0.300834 0.094515
Si Si6 0.144340 0.650606 0.648905
O O1 0.980357 0.461515 0.750000
O O2 0.907727 0.638785 0.865676
O O3 0.915714 0.315584 0.875393
O O4 0.075897 0.505955 0.883201
O O5 0.711495 0.390040 0.750000
O O6 0.593192 0.398913 0.871139
O O7 0.750445 0.530215 0.892964
O O8 0.753588 0.206747 0.877463
O O9 0.424933 0.514959 0.857181
O O10 0.577061 0.709370 0.895783
O O11 0.500000 0.500000 0.000000
O O12 0.627027 0.794192 0.750000
O O13 0.743044 0.837891 0.634554
O O14 0.176916 0.250000 0.000000
O O15 0.147429 0.635837 0.750000
#
# Coordination Sequence:
#
# PCOD9434407 Si02
#       6
#     8   8   8   8   8   8
#     4   9  16  30  49  72  96 126 164 205 247 298
#     4   9  17  33  52  71  97 137 175 205 251 321
#     4  11  21  35  55  80 108 138 174 221 271 319
#     4  11  21  36  56  79 104 139 181 221 261 316
#     4  10  18  30  49  73 100 133 169 210 257 307
#     4   8  15  28  51  73  94 125 167 208 246 295
#
# _framework density 25.696344
#
# number of rings (size 3 to 8) (size 9 to 14) (size 15 to 20)
#    0.000    2.333    0.000    7.500    0.000    0.000 
#    0.000    5.000    0.000    6.000    0.000    0.000 
#    0.000    0.000    0.000    0.000    0.000    0.000 
#
# Total GULP energy -268311.563727 kJ/mol
# GULP energy per Si atom -5589.824244 kJ/mol
# Density = 2.563786 g / cm^3
# Si number density = 25.696344 Si / 1000 Ang^3
#
#
#
# Elastic Constant Matrix: (Units=GPa)
#
#
# Indices 1 2 3 4 5 6 
#
# 1 163.6180 5.5402 -7.2143 0.0000 0.0000 0.0000
# 2 5.5402 75.1635 2.5160 0.0000 0.0000 0.0000
# 3 -7.2143 2.5160 72.8683 0.0000 0.0000 0.0000
# 4 0.0000 0.0000 0.0000 11.3106 0.0000 0.0000
# 5 0.0000 0.0000 0.0000 0.0000 10.5326 0.0000
# 6 0.0000 0.0000 0.0000 0.0000 0.0000 53.3808
#
#
#
# Elastic Compliance Matrix: (Units=1/GPa)
#
#
# Indices 1 2 3 4 5 6 
#
# 1 0.006155 -0.000475 0.000626 0.000000 0.000000 0.000000
# 2 -0.000475 0.013356 -0.000508 0.000000 0.000000 0.000000
# 3 0.000626 -0.000508 0.013803 0.000000 0.000000 0.000000
# 4 0.000000 0.000000 0.000000 0.088413 0.000000 0.000000
# 5 0.000000 0.000000 0.000000 0.000000 0.094944 0.000000
# 6 0.000000 0.000000 0.000000 0.000000 0.000000 0.018733
#
#
# Mechanical properties :
#
#
# Convention : Reuss Voigt Hill
#
# Bulk Modulus (GPa) = 30.67424 34.81486 32.74455
# Shear Modulus (GPa) = 20.24414 35.76532 28.00473
#
# Velocity S-wave (km/s) = 2.80986 3.73479 3.30484
# Velocity P-wave (km/s) = 4.74238 5.67241 5.22812
#
# Compressibility (1/GPa) = 0.03260065
#
# Stress axis : x y z
#
# Youngs Moduli (GPa) = 162.45736 74.87091 72.44862
#
# Poissons Ratio (x) = 0.03554 -0.04534
# Poissons Ratio (y) = 0.07711 0.03682
# Poissons Ratio (z) = -0.10167 0.03805
#
# Static dielectric constant tensor:
#      x y z
#    x 2.047230 0.000000 0.000000 
#    y 0.000000 2.139110 0.000000 
#    z 0.000000 0.000000 1.899900 
# 
# From -- ./inp_files/18385.got.cif
#   From: 2010.05.17/outbox.cif.g08.bks.cpg/sg57_10_cif.got.tgz:18385.got - 2010.06.03 13:58:18.
