data_PCOD9434420
_publ_section_title
;
Structure prediction by ZEFSAII (Michael W. Deem and Ramdas Pophale) SiO2 
 PCOD9434420
Probable space group: P B C M
;
_chemical_formula_sum "Si O2"
_cell_formula_units_Z 56
_cell_length_a 14.792945
_cell_length_b 26.829310
_cell_length_c 9.057705
_cell_angle_alpha 90.000000
_cell_angle_beta 90.000000
_cell_angle_gamma 90.000000
_cell_volume 3594.862785
_symmetry_space_group_name_H-M "P B C M"
_symmetry_group_IT_number 57
_symmetry_cell_setting 'orthorhombic'
loop_
_space_group_symop_operation_xyz
x,y,z
-x,-y,1/2+z
x,1/2-y,-z
-x,1/2+y,1/2-z
-x,-y,-z
x,y,1/2-z
-x,1/2+y,z
x,1/2-y,1/2+z
loop_
_atom_site_type_symbol
_atom_site_label
_atom_site_fract_x
_atom_site_fract_y
_atom_site_fract_z
Si Si1 0.120442 0.303627 0.073043
Si Si2 0.566441 0.567636 0.427079
Si Si3 0.028884 0.613385 0.924538
Si Si4 0.194058 0.569347 0.423631
Si Si5 0.742193 0.624023 0.074243
Si Si6 0.618917 0.454136 0.073702
Si Si7 0.865434 0.543778 0.923263
O O1 0.125918 0.300141 0.250000
O O2 0.035754 0.340030 0.036734
O O3 0.109407 0.250000 0.000000
O O4 0.209864 0.330762 0.010078
O O5 0.552537 0.567921 0.250000
O O6 0.639144 0.610148 0.464540
O O7 0.471199 0.571075 0.508940
O O8 0.608668 0.513165 0.464835
O O9 0.048091 0.615670 0.750000
O O10 0.965622 0.564811 0.950850
O O11 0.121427 0.607915 0.012293
O O12 0.207436 0.576945 0.250000
O O13 0.290134 0.567837 0.504692
O O14 0.150647 0.514321 0.445328
O O15 0.748295 0.631474 0.250000
O O16 0.799738 0.575519 0.026801
O O17 0.621313 0.450238 0.250000
O O18 0.845267 0.555528 0.750000
#
# Coordination Sequence:
#
# PCOD9434420 Si02
#       7
#     8   8   8   8   8   8   8
#     4  10  21  37  55  76  99 124 157 200 248 297
#     4   9  18  31  45  67  95 128 167 203 240 281
#     4   9  19  33  47  66  94 125 160 199 241 289
#     4  11  20  29  44  67  96 131 168 204 239 281
#     4  10  18  30  50  73  98 128 162 201 245 293
#     4  10  19  30  45  65  94 133 170 204 239 277
#     4   9  18  30  43  64  95 130 165 201 236 279
#
# _framework density 15.577785
#
# number of rings (size 3 to 8) (size 9 to 14) (size 15 to 20)
#    0.000    2.286    1.429    3.000    0.000    5.143 
#    0.000    0.000    0.000    0.000    0.000    1.000 
#    0.000    2.286    0.000    0.000    0.000    0.000 
#
# Total GULP energy -312263.967322 kJ/mol
# GULP energy per Si atom -5576.142274 kJ/mol
# Density = 1.554233 g / cm^3
# Si number density = 15.577785 Si / 1000 Ang^3
#
#
#
# Elastic Constant Matrix: (Units=GPa)
#
#
# Indices 1 2 3 4 5 6 
#
# 1 140.6444 51.9940 69.1784 0.0000 0.0000 0.0000
# 2 51.9940 60.6711 41.4059 0.0000 0.0000 0.0000
# 3 69.1784 41.4059 56.4378 0.0000 0.0000 0.0000
# 4 0.0000 0.0000 0.0000 21.0183 0.0000 0.0000
# 5 0.0000 0.0000 0.0000 0.0000 30.8707 0.0000
# 6 0.0000 0.0000 0.0000 0.0000 0.0000 11.2255
#
#
#
# Elastic Compliance Matrix: (Units=1/GPa)
#
#
# Indices 1 2 3 4 5 6 
#
# 1 0.017922 -0.000734 -0.021429 0.000000 0.000000 0.000000
# 2 -0.000734 0.033041 -0.023341 0.000000 0.000000 0.000000
# 3 -0.021429 -0.023341 0.061109 0.000000 0.000000 0.000000
# 4 0.000000 0.000000 0.000000 0.047578 0.000000 0.000000
# 5 0.000000 0.000000 0.000000 0.000000 0.032393 0.000000
# 6 0.000000 0.000000 0.000000 0.000000 0.000000 0.089083
#
#
# Mechanical properties :
#
#
# Convention : Reuss Voigt Hill
#
# Bulk Modulus (GPa) = 47.47420 64.76777 56.12098
# Shear Modulus (GPa) = 13.18728 18.96790 16.07759
#
# Velocity S-wave (km/s) = 2.91270 3.49323 3.21609
# Velocity P-wave (km/s) = 6.46943 7.61167 7.06367
#
# Compressibility (1/GPa) = 0.02106407
#
# Stress axis : x y z
#
# Youngs Moduli (GPa) = 55.79850 30.26583 16.36424
#
# Poissons Ratio (x) = 0.02222 0.35067
# Poissons Ratio (y) = 0.04096 0.38195
# Poissons Ratio (z) = 1.19569 0.70642
#
# Static dielectric constant tensor:
#      x y z
#    x 1.517620 0.000000 0.000000 
#    y 0.000000 1.503600 0.000000 
#    z 0.000000 0.000000 1.517530 
# 
# From -- ./inp_files/5899.got.cif
#   From: 2010.05.17/outbox.cif.g08.bks.cpg/sg57_3_cif.got.tgz:5899.got - 2010.06.03 13:58:18.
