data_PCOD9434354
_publ_section_title
;
Structure prediction by ZEFSAII (Michael W. Deem and Ramdas Pophale) SiO2 
 PCOD9434354
Probable space group: P B C M
;
_chemical_formula_sum "Si O2"
_cell_formula_units_Z 64
_cell_length_a 15.639985
_cell_length_b 21.866596
_cell_length_c 7.876180
_cell_angle_alpha 90.000000
_cell_angle_beta 90.000000
_cell_angle_gamma 90.000000
_cell_volume 2693.600265
_symmetry_space_group_name_H-M "P B C M"
_symmetry_group_IT_number 57
_symmetry_cell_setting 'orthorhombic'
loop_
_space_group_symop_operation_xyz
x,y,z
-x,-y,1/2+z
x,1/2-y,-z
-x,1/2+y,1/2-z
-x,-y,-z
x,y,1/2-z
-x,1/2+y,z
x,1/2-y,1/2+z
loop_
_atom_site_type_symbol
_atom_site_label
_atom_site_fract_x
_atom_site_fract_y
_atom_site_fract_z
Si Si1 0.907858 0.911433 0.949203
Si Si2 0.827313 0.473503 0.446178
Si Si3 0.580593 0.866273 0.546786
Si Si4 0.968403 0.315512 0.060011
Si Si5 0.396012 0.865313 0.543161
Si Si6 0.212564 0.839934 0.944660
Si Si7 0.646226 0.504710 0.546118
Si Si8 0.237430 0.180769 0.454829
O O1 0.890232 0.920221 0.750000
O O2 0.897879 0.979970 0.018805
O O3 0.834624 0.866053 0.019147
O O4 0.995208 0.874052 0.963132
O O5 0.844796 0.455116 0.250000
O O6 0.806463 0.412728 0.549520
O O7 0.738354 0.511109 0.456860
O O8 0.580044 0.858197 0.750000
O O9 0.488553 0.843016 0.482665
O O10 0.588833 0.938548 0.509690
O O11 0.667428 0.835667 0.480032
O O12 0.996142 0.325110 0.250000
O O13 0.002062 0.250000 0.000000
O O14 0.866307 0.313193 0.046519
O O15 0.393468 0.862387 0.750000
O O16 0.308649 0.832672 0.485313
O O17 0.387766 0.937379 0.498745
O O18 0.208140 0.818802 0.750000
O O19 0.656389 0.506442 0.750000
O O20 0.216230 0.250000 0.500000
O O21 0.238398 0.175822 0.250000
#
# Coordination Sequence:
#
# PCOD9434354 Si02
#       8
#     8   8   8   8   8   8   8   8
#     4  10  21  39  61  88 117 150 192 239 290 350
#     4  10  19  35  59  88 122 158 193 232 288 354
#     4  10  18  33  53  76 109 151 193 234 284 342
#     4  12  26  44  66  90 113 150 195 243 296 347
#     4   8  17  32  54  81 112 149 189 232 285 338
#     4  10  21  40  62  89 122 154 193 245 295 348
#     4  10  18  29  48  81 117 151 191 234 282 338
#     4  10  21  36  54  78 110 151 192 235 288 342
#
# _framework density 23.760020999999998
#
# number of rings (size 3 to 8) (size 9 to 14) (size 15 to 20)
#    0.000    2.000    1.250    3.750    0.000    3.500 
#    0.000    3.750    0.000    1.500    0.000    0.000 
#    0.000    0.000    0.000    0.000    0.000    0.000 
#
# Total GULP energy -357585.384602 kJ/mol
# GULP energy per Si atom -5587.271634 kJ/mol
# Density = 2.370594 g / cm^3
# Si number density = 23.760021 Si / 1000 Ang^3
#
#
#
# Elastic Constant Matrix: (Units=GPa)
#
#
# Indices 1 2 3 4 5 6 
#
# 1 122.9234 11.2535 -0.0348 0.0000 0.0000 0.0000
# 2 11.2535 41.9626 -3.5905 0.0000 0.0000 0.0000
# 3 -0.0348 -3.5905 35.4581 0.0000 0.0000 0.0000
# 4 0.0000 0.0000 0.0000 17.5061 0.0000 0.0000
# 5 0.0000 0.0000 0.0000 0.0000 -15.9385 0.0000
# 6 0.0000 0.0000 0.0000 0.0000 0.0000 11.1537
#
#
#
# Elastic Compliance Matrix: (Units=1/GPa)
#
#
# Indices 1 2 3 4 5 6 
#
# 1 0.008342 -0.002256 -0.000220 0.000000 0.000000 0.000000
# 2 -0.002256 0.024649 0.002494 0.000000 0.000000 0.000000
# 3 -0.000220 0.002494 0.028455 0.000000 0.000000 0.000000
# 4 0.000000 0.000000 0.000000 0.057123 0.000000 0.000000
# 5 0.000000 0.000000 0.000000 0.000000 -0.062741 0.000000
# 6 0.000000 0.000000 0.000000 0.000000 0.000000 0.089656
#
#
# Mechanical properties :
#
#
# Convention : Reuss Voigt Hill
#
# Bulk Modulus (GPa) = 16.26530 23.95562 20.11046
# Shear Modulus (GPa) = 30.13105 15.39199 22.76152
#
# Velocity S-wave (km/s) = 3.56496 2.54797 3.09848
# Velocity P-wave (km/s) = 4.87912 4.33133 4.61336
#
# Compressibility (1/GPa) = 0.06148058
#
# Stress axis : x y z
#
# Youngs Moduli (GPa) = 119.88097 40.56944 35.14368
#
# Poissons Ratio (x) = 0.09152 0.00774
# Poissons Ratio (y) = 0.27044 -0.08764
# Poissons Ratio (z) = 0.02640 -0.10117
#
# Static dielectric constant tensor:
#      x y z
#    x 1.966030 0.000000 0.000000 
#    y 0.000000 1.859580 0.000000 
#    z 0.000000 0.000000 1.821610 
# 
# From -- ./inp_files/5751.got.cif
#   From: 2010.05.17/outbox.cif.g08.bks.cpg/sg57_3_cif.got.tgz:5751.got - 2010.06.03 13:58:18.
