data_PCOD9434220
_publ_section_title
;
Structure prediction by ZEFSAII (Michael W. Deem and Ramdas Pophale) SiO2 
 PCOD9434220
Probable space group: P B C M
;
_chemical_formula_sum "Si O2"
_cell_formula_units_Z 64
_cell_length_a 15.320478
_cell_length_b 31.356940
_cell_length_c 8.604027
_cell_angle_alpha 90.000000
_cell_angle_beta 90.000000
_cell_angle_gamma 90.000000
_cell_volume 4133.403045
_symmetry_space_group_name_H-M "P B C M"
_symmetry_group_IT_number 57
_symmetry_cell_setting 'orthorhombic'
loop_
_space_group_symop_operation_xyz
x,y,z
-x,-y,1/2+z
x,1/2-y,-z
-x,1/2+y,1/2-z
-x,-y,-z
x,y,1/2-z
-x,1/2+y,z
x,1/2-y,1/2+z
loop_
_atom_site_type_symbol
_atom_site_label
_atom_site_fract_x
_atom_site_fract_y
_atom_site_fract_z
Si Si1 0.792921 0.588263 0.078660
Si Si2 0.224249 0.499175 0.063876
Si Si3 0.016360 0.125284 0.073914
Si Si4 0.579910 0.972796 0.436730
Si Si5 0.628543 0.620312 0.929243
Si Si6 0.061755 0.538987 0.564011
Si Si7 0.897308 0.796624 0.064820
Si Si8 0.700642 0.703425 0.064864
O O1 0.750102 0.591172 0.250000
O O2 0.882333 0.612457 0.086018
O O3 0.813713 0.540374 0.032687
O O4 0.728579 0.604661 0.946581
O O5 0.216134 0.493908 0.250000
O O6 0.327592 0.496031 0.025341
O O7 0.159389 0.535887 0.008102
O O8 0.981367 0.129305 0.250000
O O9 0.027934 0.170227 0.987657
O O10 0.973762 0.085455 0.985667
O O11 0.575767 0.970955 0.250000
O O12 0.580384 0.922816 0.489959
O O13 0.500000 0.000000 0.500000
O O14 0.604776 0.626992 0.750000
O O15 0.634168 0.665719 0.015106
O O16 0.063466 0.535237 0.750000
O O17 0.000000 0.500000 0.500000
O O18 0.890211 0.796497 0.250000
O O19 0.919135 0.750000 0.000000
O O20 0.798870 0.805515 0.999279
O O21 0.706394 0.704868 0.250000
O O22 0.675505 0.750000 0.000000
#
# Coordination Sequence:
#
# PCOD9434220 Si02
#       8
#     8   8   8   8   8   8   8   8
#     4  10  18  27  43  64  87 121 161 196 234 279
#     4  10  20  34  49  67  95 127 160 202 246 288
#     4  11  21  32  46  65  91 123 164 203 240 285
#     4   9  20  35  53  74  97 127 164 204 248 294
#     4  10  19  31  46  66  93 124 159 199 241 284
#     4  12  23  33  47  69  96 130 166 202 244 289
#     4  11  21  33  48  65  90 125 165 209 247 287
#     4  11  20  30  44  65  91 124 161 199 241 288
#
# _framework density 15.483610000000001
#
# number of rings (size 3 to 8) (size 9 to 14) (size 15 to 20)
#    0.000    1.500    2.500    6.375    0.000    4.000 
#    0.000    0.000    0.000    0.000    0.000    0.000 
#    0.000    1.000    0.000    6.750    0.000    5.000 
#
# Total GULP energy -356303.210637 kJ/mol
# GULP energy per Si atom -5567.237666 kJ/mol
# Density = 1.544837 g / cm^3
# Si number density = 15.483610 Si / 1000 Ang^3
#
#
#
# Elastic Constant Matrix: (Units=GPa)
#
#
# Indices 1 2 3 4 5 6 
#
# 1 48.3206 45.1883 26.2353 0.0000 0.0000 0.0000
# 2 45.1883 124.1474 38.9819 0.0000 0.0000 0.0000
# 3 26.2353 38.9819 98.3883 0.0000 0.0000 0.0000
# 4 0.0000 0.0000 0.0000 23.5418 0.0000 0.0000
# 5 0.0000 0.0000 0.0000 0.0000 19.0352 0.0000
# 6 0.0000 0.0000 0.0000 0.0000 0.0000 27.3192
#
#
#
# Elastic Compliance Matrix: (Units=1/GPa)
#
#
# Indices 1 2 3 4 5 6 
#
# 1 0.033126 -0.010603 -0.004632 0.000000 0.000000 0.000000
# 2 -0.010603 0.012593 -0.002162 0.000000 0.000000 0.000000
# 3 -0.004632 -0.002162 0.012256 0.000000 0.000000 0.000000
# 4 0.000000 0.000000 0.000000 0.042478 0.000000 0.000000
# 5 0.000000 0.000000 0.000000 0.000000 0.052534 0.000000
# 6 0.000000 0.000000 0.000000 0.000000 0.000000 0.036604
#
#
# Mechanical properties :
#
#
# Convention : Reuss Voigt Hill
#
# Bulk Modulus (GPa) = 43.14040 54.62969 48.88504
# Shear Modulus (GPa) = 21.54135 24.67597 23.10866
#
# Velocity S-wave (km/s) = 3.73397 3.99643 3.86743
# Velocity P-wave (km/s) = 6.82001 7.52689 7.18215
#
# Compressibility (1/GPa) = 0.02318013
#
# Stress axis : x y z
#
# Youngs Moduli (GPa) = 30.18807 79.40778 81.59522
#
# Poissons Ratio (x) = 0.84196 0.37795
# Poissons Ratio (y) = 0.32008 0.17643
# Poissons Ratio (z) = 0.13983 0.17170
#
# Static dielectric constant tensor:
#      x y z
#    x 1.505860 0.000000 0.000000 
#    y 0.000000 1.583570 0.000000 
#    z 0.000000 0.000000 1.467480 
# 
# From -- ./inp_files/6054.got.cif
#   From: 2010.05.17/outbox.cif.g08.bks.cpg/sg57_4_cif.got.tgz:6054.got - 2010.06.03 13:58:18.
