data_PCOD9434167
_publ_section_title
;
Structure prediction by ZEFSAII (Michael W. Deem and Ramdas Pophale) SiO2 
 PCOD9434167
Probable space group: P B C M
;
_chemical_formula_sum "Si O2"
_cell_formula_units_Z 40
_cell_length_a 14.794164
_cell_length_b 6.998384
_cell_length_c 15.522531
_cell_angle_alpha 90.000000
_cell_angle_beta 90.000000
_cell_angle_gamma 90.000000
_cell_volume 1607.128982
_symmetry_space_group_name_H-M "P B C M"
_symmetry_group_IT_number 57
_symmetry_cell_setting 'orthorhombic'
loop_
_space_group_symop_operation_xyz
x,y,z
-x,-y,1/2+z
x,1/2-y,-z
-x,1/2+y,1/2-z
-x,-y,-z
x,y,1/2-z
-x,1/2+y,z
x,1/2-y,1/2+z
loop_
_atom_site_type_symbol
_atom_site_label
_atom_site_fract_x
_atom_site_fract_y
_atom_site_fract_z
Si Si1 0.927555 0.091645 0.062060
Si Si2 0.848310 0.426924 0.250000
Si Si3 0.425169 0.864325 0.250000
Si Si4 0.633241 0.575823 0.750000
Si Si5 0.736848 0.513995 0.917108
Si Si6 0.293234 0.558084 0.892179
Si Si7 0.969472 0.346117 0.750000
O O1 0.844973 0.956463 0.088654
O O2 0.976046 0.180493 0.145376
O O3 0.883684 0.250000 0.000000
O O4 0.000000 0.000000 0.000000
O O5 0.793704 0.492476 0.332818
O O6 0.956128 0.475001 0.250000
O O7 0.859123 0.195791 0.250000
O O8 0.383774 0.652445 0.250000
O O9 0.382715 0.965268 0.165922
O O10 0.531938 0.845351 0.250000
O O11 0.686930 0.618152 0.838295
O O12 0.716431 0.287279 0.904809
O O13 0.707229 0.544764 0.016171
#
# Coordination Sequence:
#
# PCOD9434167 Si02
#       7
#     8   4   4   4   8   8   4
#     4  12  23  37  60  88 123 160 210 251 292 355
#     4  11  20  35  56  85 113 155 198 249 292 349
#     4   9  20  35  60  87 107 143 184 243 297 358
#     4  10  21  36  63  85 113 143 197 243 302 353
#     4  10  17  34  58  82 110 152 193 239 278 355
#     4   9  17  34  58  80 109 149 197 228 286 361
#     4  12  21  34  55  83 117 155 201 253 297 346
#
# _framework density 24.889104
#
# number of rings (size 3 to 8) (size 9 to 14) (size 15 to 20)
#    0.000    1.600    4.000    3.600    0.000    0.800 
#    0.000    0.000   22.000    0.000    0.000    0.000 
#    0.000    0.000    0.000    0.000    0.000    0.000 
#
# Total GULP energy -222990.886328 kJ/mol
# GULP energy per Si atom -5574.772158 kJ/mol
# Density = 2.483246 g / cm^3
# Si number density = 24.889104 Si / 1000 Ang^3
#
#
#
# Elastic Constant Matrix: (Units=GPa)
#
#
# Indices 1 2 3 4 5 6 
#
# 1 177.5586 22.0525 100.2517 0.0000 0.0000 0.0000
# 2 22.0525 54.6613 35.6916 0.0000 0.0000 0.0000
# 3 100.2517 35.6916 262.5748 0.0000 0.0000 0.0000
# 4 0.0000 0.0000 0.0000 22.8317 0.0000 0.0000
# 5 0.0000 0.0000 0.0000 0.0000 37.3738 0.0000
# 6 0.0000 0.0000 0.0000 0.0000 0.0000 34.9307
#
#
#
# Elastic Compliance Matrix: (Units=1/GPa)
#
#
# Indices 1 2 3 4 5 6 
#
# 1 0.007254 -0.001227 -0.002603 0.000000 0.000000 0.000000
# 2 -0.001227 0.020284 -0.002289 0.000000 0.000000 0.000000
# 3 -0.002603 -0.002289 0.005113 0.000000 0.000000 0.000000
# 4 0.000000 0.000000 0.000000 0.043799 0.000000 0.000000
# 5 0.000000 0.000000 0.000000 0.000000 0.026757 0.000000
# 6 0.000000 0.000000 0.000000 0.000000 0.000000 0.028628
#
#
# Mechanical properties :
#
#
# Convention : Reuss Voigt Hill
#
# Bulk Modulus (GPa) = 48.98561 90.08737 69.53649
# Shear Modulus (GPa) = 33.13970 41.48048 37.31009
#
# Velocity S-wave (km/s) = 3.65292 4.08684 3.87596
# Velocity P-wave (km/s) = 6.12504 7.65139 6.93036
#
# Compressibility (1/GPa) = 0.02041416
#
# Stress axis : x y z
#
# Youngs Moduli (GPa) = 137.85710 49.30007 195.56904
#
# Poissons Ratio (x) = 0.06049 0.50902
# Poissons Ratio (y) = 0.16915 0.44760
# Poissons Ratio (z) = 0.35881 0.11283
#
# Static dielectric constant tensor:
#      x y z
#    x 1.910740 0.000000 0.000000 
#    y 0.000000 2.327780 0.000000 
#    z 0.000000 0.000000 1.971580 
# 
# From -- ./inp_files/18308.got.cif
#   From: 2010.05.17/outbox.cif.g08.bks.cpg/sg57_10_cif.got.tgz:18308.got - 2010.06.03 13:58:18.
