data_PCOD9434878
_publ_section_title
;
Structure prediction by ZEFSAII (Michael W. Deem and Ramdas Pophale) SiO2 
 PCOD9434878
Probable space group: P B C M
;
_chemical_formula_sum "Si O2"
_cell_formula_units_Z 64
_cell_length_a 15.502618
_cell_length_b 30.939845
_cell_length_c 9.366869
_cell_angle_alpha 90.000000
_cell_angle_beta 90.000000
_cell_angle_gamma 90.000000
_cell_volume 4492.805584
_symmetry_space_group_name_H-M "P B C M"
_symmetry_group_IT_number 57
_symmetry_cell_setting 'orthorhombic'
loop_
_space_group_symop_operation_xyz
x,y,z
-x,-y,1/2+z
x,1/2-y,-z
-x,1/2+y,1/2-z
-x,-y,-z
x,y,1/2-z
-x,1/2+y,z
x,1/2-y,1/2+z
loop_
_atom_site_type_symbol
_atom_site_label
_atom_site_fract_x
_atom_site_fract_y
_atom_site_fract_z
Si Si1 0.586189 0.551501 0.413464
Si Si2 0.892953 0.878638 0.080973
Si Si3 0.111390 0.292350 0.914078
Si Si4 0.098615 0.792435 0.914379
Si Si5 0.758945 0.954883 0.079613
Si Si6 0.905030 0.379200 0.420058
Si Si7 0.771574 0.045396 0.578585
Si Si8 0.579114 0.053594 0.587296
O O1 0.596713 0.565653 0.250000
O O2 0.669611 0.561135 0.509087
O O3 0.579948 0.498980 0.411848
O O4 0.497523 0.567678 0.483812
O O5 0.887525 0.868550 0.250000
O O6 0.833665 0.919983 0.052688
O O7 0.993822 0.887635 0.049073
O O8 0.864503 0.836809 0.991956
O O9 0.139631 0.291284 0.750000
O O10 0.006391 0.291437 0.914700
O O11 0.140539 0.250000 0.000000
O O12 0.126713 0.791664 0.750000
O O13 0.127752 0.750000 0.000000
O O14 0.122653 0.836684 0.993764
O O15 0.748420 0.960292 0.250000
O O16 0.780756 0.000736 0.006522
O O17 0.897728 0.370796 0.250000
O O18 0.846120 0.420386 0.453830
O O19 0.771675 0.036497 0.750000
O O20 0.676881 0.065030 0.545221
O O21 0.562522 0.067734 0.750000
#
# Coordination Sequence:
#
# PCOD9434878 Si02
#       8
#     8   8   8   8   8   8   8   8
#     4   9  16  26  41  59  77 100 131 168 210 251
#     4   9  18  30  42  58  82 112 144 174 204 239
#     4   9  16  26  42  61  80 103 132 169 211 250
#     4   9  16  26  41  61  81 103 133 169 210 250
#     4  10  19  29  41  58  82 112 143 175 207 239
#     4   9  17  30  44  58  81 112 143 174 205 239
#     4   9  18  30  43  59  81 111 143 173 206 243
#     4   8  14  25  40  58  78 100 129 166 208 250
#
# _framework density 14.244997
#
# number of rings (size 3 to 8) (size 9 to 14) (size 15 to 20)
#    0.000    3.000    0.000    2.250    0.000    8.000 
#    0.000    0.000    0.000    0.000    0.000    0.000 
#    0.000    1.000    0.000    4.750    0.000    4.625 
#
# Total GULP energy -356316.869719 kJ/mol
# GULP energy per Si atom -5567.451089 kJ/mol
# Density = 1.421257 g / cm^3
# Si number density = 14.244997 Si / 1000 Ang^3
#
#
#
# Elastic Constant Matrix: (Units=GPa)
#
#
# Indices 1 2 3 4 5 6 
#
# 1 71.6743 52.2814 55.3653 0.0000 0.0000 0.0000
# 2 52.2814 85.7640 67.0343 0.0000 0.0000 0.0000
# 3 55.3653 67.0343 90.2557 0.0000 0.0000 0.0000
# 4 0.0000 0.0000 0.0000 23.3583 0.0000 0.0000
# 5 0.0000 0.0000 0.0000 0.0000 17.8665 0.0000
# 6 0.0000 0.0000 0.0000 0.0000 0.0000 -0.4631
#
#
#
# Elastic Compliance Matrix: (Units=1/GPa)
#
#
# Indices 1 2 3 4 5 6 
#
# 1 0.029198 -0.009058 -0.011183 0.000000 0.000000 0.000000
# 2 -0.009058 0.030606 -0.017175 0.000000 0.000000 0.000000
# 3 -0.011183 -0.017175 0.030696 0.000000 0.000000 0.000000
# 4 0.000000 0.000000 0.000000 0.042811 0.000000 0.000000
# 5 0.000000 0.000000 0.000000 0.000000 0.055971 0.000000
# 6 0.000000 0.000000 0.000000 0.000000 0.000000 -2.159147
#
#
# Mechanical properties :
#
#
# Convention : Reuss Voigt Hill
#
# Bulk Modulus (GPa) = 63.82806 66.33954 65.08380
# Shear Modulus (GPa) = -2.64577 13.01986 5.18705
#
# Velocity S-wave (km/s) = -1.36432 3.02652 1.91029
# Velocity P-wave (km/s) = 6.51328 7.67363 7.11714
#
# Compressibility (1/GPa) = 0.01566709
#
# Stress axis : x y z
#
# Youngs Moduli (GPa) = 34.24933 32.67361 32.57752
#
# Poissons Ratio (x) = 0.29595 0.36433
# Poissons Ratio (y) = 0.31022 0.55952
# Poissons Ratio (z) = 0.38302 0.56117
#
# Static dielectric constant tensor:
#      x y z
#    x 1.465700 0.000000 0.000000 
#    y 0.000000 1.441810 0.000000 
#    z 0.000000 0.000000 1.482450 
# 
# From -- ./inp_files/6065.got.cif
#   From: 2010.05.17/outbox.cif.g08.bks.cpg/sg57_4_cif.got.tgz:6065.got - 2010.06.03 13:58:18.
