data_PCOD9434726
_publ_section_title
;
Structure prediction by ZEFSAII (Michael W. Deem and Ramdas Pophale) SiO2 
 PCOD9434726
Probable space group: P B C M
;
_chemical_formula_sum "Si O2"
_cell_formula_units_Z 52
_cell_length_a 13.503837
_cell_length_b 8.324567
_cell_length_c 22.355738
_cell_angle_alpha 90.000000
_cell_angle_beta 90.000000
_cell_angle_gamma 90.000000
_cell_volume 2513.088897
_symmetry_space_group_name_H-M "P B C M"
_symmetry_group_IT_number 57
_symmetry_cell_setting 'orthorhombic'
loop_
_space_group_symop_operation_xyz
x,y,z
-x,-y,1/2+z
x,1/2-y,-z
-x,1/2+y,1/2-z
-x,-y,-z
x,y,1/2-z
-x,1/2+y,z
x,1/2-y,1/2+z
loop_
_atom_site_type_symbol
_atom_site_label
_atom_site_fract_x
_atom_site_fract_y
_atom_site_fract_z
Si Si1 0.448597 0.540412 0.418076
Si Si2 0.354638 0.298551 0.935338
Si Si3 0.300813 0.750000 0.500000
Si Si4 0.042378 0.826094 0.179307
Si Si5 0.335648 0.832710 0.678804
Si Si6 0.226703 0.555539 0.611333
Si Si7 0.853070 0.519405 0.680679
O O1 0.559338 0.566417 0.441263
O O2 0.414891 0.357366 0.415089
O O3 0.371862 0.640502 0.458856
O O4 0.436776 0.617004 0.352341
O O5 0.270730 0.377523 0.894964
O O6 0.313185 0.250000 0.000000
O O7 0.237277 0.641266 0.546095
O O8 0.047186 0.874487 0.250000
O O9 0.929686 0.848493 0.157540
O O10 0.118460 0.928148 0.139507
O O11 0.082367 0.644745 0.177351
O O12 0.338019 0.832565 0.750000
O O13 0.296626 0.662455 0.654792
O O14 0.253041 0.963861 0.656260
O O15 0.834030 0.559868 0.750000
#
# Coordination Sequence:
#
# PCOD9434726 Si02
#       7
#     8   8   4   8   8   8   8
#     4  11  21  35  58  81 107 140 183 223 276 315
#     4  12  22  37  56  84 107 137 187 234 265 320
#     4  10  18  34  54  78 102 144 180 230 260 316
#     4   9  17  32  54  82 108 138 178 222 268 323
#     4   9  19  37  56  81 113 146 180 219 270 332
#     4  10  20  33  56  81 109 142 183 224 277 310
#     4   8  15  29  52  77 105 139 177 216 258 312
#
# _framework density 20.691666000000001
#
# number of rings (size 3 to 8) (size 9 to 14) (size 15 to 20)
#    0.000    2.154    2.308    3.692    0.000    1.231 
#    0.000    6.923    0.000    8.308    8.000    0.000 
#    0.000    0.000    0.000    0.000    0.000    0.000 
#
# Total GULP energy -290067.977985 kJ/mol
# GULP energy per Si atom -5578.230346 kJ/mol
# Density = 2.064457 g / cm^3
# Si number density = 20.691666 Si / 1000 Ang^3
#
#
#
# Elastic Constant Matrix: (Units=GPa)
#
#
# Indices 1 2 3 4 5 6 
#
# 1 44.2250 5.9371 14.1240 0.0000 0.0000 0.0000
# 2 5.9371 51.2890 9.3703 0.0000 0.0000 0.0000
# 3 14.1240 9.3703 78.7448 0.0000 0.0000 0.0000
# 4 0.0000 0.0000 0.0000 21.2145 0.0000 0.0000
# 5 0.0000 0.0000 0.0000 0.0000 30.8056 0.0000
# 6 0.0000 0.0000 0.0000 0.0000 0.0000 34.7577
#
#
#
# Elastic Compliance Matrix: (Units=1/GPa)
#
#
# Indices 1 2 3 4 5 6 
#
# 1 0.024195 -0.002053 -0.004095 0.000000 0.000000 0.000000
# 2 -0.002053 0.020105 -0.002024 0.000000 0.000000 0.000000
# 3 -0.004095 -0.002024 0.013675 0.000000 0.000000 0.000000
# 4 0.000000 0.000000 0.000000 0.047138 0.000000 0.000000
# 5 0.000000 0.000000 0.000000 0.000000 0.032462 0.000000
# 6 0.000000 0.000000 0.000000 0.000000 0.000000 0.028771
#
#
# Mechanical properties :
#
#
# Convention : Reuss Voigt Hill
#
# Bulk Modulus (GPa) = 24.02109 25.90239 24.96174
# Shear Modulus (GPa) = 25.43677 27.01070 26.22374
#
# Velocity S-wave (km/s) = 3.50998 3.61694 3.56386
# Velocity P-wave (km/s) = 5.29725 5.47617 5.38745
#
# Compressibility (1/GPa) = 0.04163009
#
# Stress axis : x y z
#
# Youngs Moduli (GPa) = 41.33060 49.73939 73.12765
#
# Poissons Ratio (x) = 0.10209 0.29949
# Poissons Ratio (y) = 0.08483 0.14803
# Poissons Ratio (z) = 0.16927 0.10068
#
# Static dielectric constant tensor:
#      x y z
#    x 1.735130 0.000000 0.000000 
#    y 0.000000 1.798530 0.000000 
#    z 0.000000 0.000000 1.744790 
# 
# From -- ./inp_files/25317.got.cif
#   From: 2010.05.17/outbox.cif.g08.bks.cpg/sg57_13_cif.got.tgz:25317.got - 2010.06.03 13:58:18.
