data_PCOD9434706
_publ_section_title
;
Structure prediction by ZEFSAII (Michael W. Deem and Ramdas Pophale) SiO2 
 PCOD9434706
Probable space group: P B C M
;
_chemical_formula_sum "Si O2"
_cell_formula_units_Z 64
_cell_length_a 11.779153
_cell_length_b 12.236029
_cell_length_c 22.368969
_cell_angle_alpha 90.000000
_cell_angle_beta 90.000000
_cell_angle_gamma 90.000000
_cell_volume 3224.040793
_symmetry_space_group_name_H-M "P B C M"
_symmetry_group_IT_number 57
_symmetry_cell_setting 'orthorhombic'
loop_
_space_group_symop_operation_xyz
x,y,z
-x,-y,1/2+z
x,1/2-y,-z
-x,1/2+y,1/2-z
-x,-y,-z
x,y,1/2-z
-x,1/2+y,z
x,1/2-y,1/2+z
loop_
_atom_site_type_symbol
_atom_site_label
_atom_site_fract_x
_atom_site_fract_y
_atom_site_fract_z
Si Si1 0.912596 0.217709 0.321169
Si Si2 0.825606 0.727363 0.819152
Si Si3 0.335506 0.106455 0.387235
Si Si4 0.563983 0.154601 0.182173
Si Si5 0.219277 0.986080 0.862283
Si Si6 0.549538 0.347037 0.037614
Si Si7 0.660953 0.956011 0.474140
Si Si8 0.301279 0.646681 0.644248
O O1 0.895737 0.203810 0.250000
O O2 0.824213 0.310832 0.342296
O O3 0.041734 0.251316 0.331834
O O4 0.878499 0.103295 0.351654
O O5 0.802925 0.757008 0.750000
O O6 0.750589 0.804478 0.861331
O O7 0.799824 0.599412 0.828143
O O8 0.460189 0.141198 0.363875
O O9 0.322583 0.095899 0.459623
O O10 0.313598 0.984511 0.359128
O O11 0.529113 0.125697 0.250000
O O12 0.613438 0.278796 0.183342
O O13 0.667668 0.076960 0.160987
O O14 0.234319 0.020190 0.931620
O O15 0.601130 0.431537 0.991219
O O16 0.652430 0.316134 0.079618
O O17 0.503395 0.250000 0.000000
O O18 0.436133 0.396915 0.066069
#
# Coordination Sequence:
#
# PCOD9434706 Si02
#       8
#     8   8   8   8   8   8   8   8
#     4  10  23  44  68  91 120 165 219 271 323 373
#     4  11  26  43  66  93 123 169 216 266 321 379
#     4  11  25  41  62  96 135 169 214 258 320 387
#     4  11  23  38  61  97 134 168 207 261 326 381
#     4  11  22  42  68  93 126 165 210 267 318 384
#     4  10  18  33  60  89 126 162 203 247 303 375
#     4  10  22  37  60  94 125 168 206 253 314 380
#     4  10  21  38  62  90 123 163 210 261 313 377
#
# _framework density 19.850864999999999
#
# number of rings (size 3 to 8) (size 9 to 14) (size 15 to 20)
#    0.000    1.500    0.000    7.125    7.000    2.000 
#    0.000    0.625    8.250    0.000    0.000    0.000 
#    0.000    0.000    0.000    0.000    0.000    0.000 
#
# Total GULP energy -356954.759411 kJ/mol
# GULP energy per Si atom -5577.418116 kJ/mol
# Density = 1.980568 g / cm^3
# Si number density = 19.850865 Si / 1000 Ang^3
#
#
#
# Elastic Constant Matrix: (Units=GPa)
#
#
# Indices 1 2 3 4 5 6 
#
# 1 96.2123 37.5695 41.1470 0.0000 0.0000 0.0000
# 2 37.5695 62.7158 14.8446 0.0000 0.0000 0.0000
# 3 41.1470 14.8446 96.4733 0.0000 0.0000 0.0000
# 4 0.0000 0.0000 0.0000 24.7517 0.0000 0.0000
# 5 0.0000 0.0000 0.0000 0.0000 28.6247 0.0000
# 6 0.0000 0.0000 0.0000 0.0000 0.0000 23.0792
#
#
#
# Elastic Compliance Matrix: (Units=1/GPa)
#
#
# Indices 1 2 3 4 5 6 
#
# 1 0.015996 -0.008269 -0.005550 0.000000 0.000000 0.000000
# 2 -0.008269 0.020822 0.000323 0.000000 0.000000 0.000000
# 3 -0.005550 0.000323 0.012683 0.000000 0.000000 0.000000
# 4 0.000000 0.000000 0.000000 0.040401 0.000000 0.000000
# 5 0.000000 0.000000 0.000000 0.000000 0.034935 0.000000
# 6 0.000000 0.000000 0.000000 0.000000 0.000000 0.043329
#
#
# Mechanical properties :
#
#
# Convention : Reuss Voigt Hill
#
# Bulk Modulus (GPa) = 44.42692 49.16929 46.79810
# Shear Modulus (GPa) = 24.67166 26.08045 25.37606
#
# Velocity S-wave (km/s) = 3.52923 3.62860 3.57926
# Velocity P-wave (km/s) = 6.24790 6.50990 6.38024
#
# Compressibility (1/GPa) = 0.02250887
#
# Stress axis : x y z
#
# Youngs Moduli (GPa) = 62.51508 48.02648 78.84490
#
# Poissons Ratio (x) = 0.39712 0.43761
# Poissons Ratio (y) = 0.51692 -0.02545
# Poissons Ratio (z) = 0.34697 -0.01550
#
# Static dielectric constant tensor:
#      x y z
#    x 1.680170 0.000000 0.000000 
#    y 0.000000 1.730060 0.000000 
#    z 0.000000 0.000000 1.867330 
# 
# From -- ./inp_files/27260.got.cif
#   From: 2010.05.17/outbox.cif.g08.bks.cpg/sg57_14_cif.got.tgz:27260.got - 2010.06.03 13:58:18.
