data_PCOD9434069
_publ_section_title
;
Structure prediction by ZEFSAII (Michael W. Deem and Ramdas Pophale) SiO2 
 PCOD9434069
Probable space group: P B C M
;
_chemical_formula_sum "Si O2"
_cell_formula_units_Z 48
_cell_length_a 32.464528
_cell_length_b 9.168896
_cell_length_c 8.590255
_cell_angle_alpha 90.000000
_cell_angle_beta 90.000000
_cell_angle_gamma 90.000000
_cell_volume 2557.008641
_symmetry_space_group_name_H-M "P B C M"
_symmetry_group_IT_number 57
_symmetry_cell_setting 'orthorhombic'
loop_
_space_group_symop_operation_xyz
x,y,z
-x,-y,1/2+z
x,1/2-y,-z
-x,1/2+y,1/2-z
-x,-y,-z
x,y,1/2-z
-x,1/2+y,z
x,1/2-y,1/2+z
loop_
_atom_site_type_symbol
_atom_site_label
_atom_site_fract_x
_atom_site_fract_y
_atom_site_fract_z
Si Si1 0.624996 0.916643 0.564375
Si Si2 0.881604 0.413631 0.937662
Si Si3 0.709611 0.583797 0.936832
Si Si4 0.039542 0.413963 0.936354
Si Si5 0.539302 0.585021 0.563909
Si Si6 0.199855 0.414644 0.062534
O O1 0.625596 0.750000 0.500000
O O2 0.623454 0.912945 0.750000
O O3 0.668197 0.984501 0.507891
O O4 0.582648 0.980633 0.497087
O O5 0.883568 0.413689 0.750000
O O6 0.919370 0.506845 0.003756
O O7 0.838432 0.487134 0.987511
O O8 0.884333 0.250000 0.000000
O O9 0.705693 0.586064 0.750000
O O10 0.754793 0.524307 0.980966
O O11 0.710986 0.750000 0.000000
O O12 0.961188 0.586912 0.250000
O O13 0.038634 0.250000 0.000000
O O14 0.000000 0.500000 0.000000
O O15 0.536996 0.750000 0.500000
O O16 0.500000 0.500000 0.500000
O O17 0.539541 0.586980 0.750000
O O18 0.199244 0.406129 0.250000
O O19 0.195437 0.250000 0.000000
#
# Coordination Sequence:
#
# PCOD9434069 Si02
#       6
#     8   8   8   8   8   8
#     4  10  17  27  44  70 100 133 171 216 265 319
#     4  11  23  40  59  84 115 152 192 233 277 328
#     4   9  15  26  44  70 100 132 168 214 266 319
#     4  12  25  43  65  91 120 153 189 232 279 330
#     4  11  21  35  53  76 104 138 176 220 269 324
#     4   9  19  33  53  79 109 140 177 221 271 324
#
# _framework density 18.771934000000002
#
# number of rings (size 3 to 8) (size 9 to 14) (size 15 to 20)
#    0.000    1.667    0.000    8.500    0.000    3.333 
#    0.000    0.000    0.000    1.000    0.000    4.667 
#    0.000    0.000    0.000    0.000    0.000    0.000 
#
# Total GULP energy -267970.379208 kJ/mol
# GULP energy per Si atom -5582.716233 kJ/mol
# Density = 1.872921 g / cm^3
# Si number density = 18.771934 Si / 1000 Ang^3
#
#
#
# Elastic Constant Matrix: (Units=GPa)
#
#
# Indices 1 2 3 4 5 6 
#
# 1 234.8149 77.2719 80.7255 0.0000 0.0000 0.0000
# 2 77.2719 82.9737 35.9267 0.0000 0.0000 0.0000
# 3 80.7255 35.9267 145.6160 0.0000 0.0000 0.0000
# 4 0.0000 0.0000 0.0000 23.5197 0.0000 0.0000
# 5 0.0000 0.0000 0.0000 0.0000 26.8809 0.0000
# 6 0.0000 0.0000 0.0000 0.0000 0.0000 26.0257
#
#
#
# Elastic Compliance Matrix: (Units=1/GPa)
#
#
# Indices 1 2 3 4 5 6 
#
# 1 0.006865 -0.005313 -0.002495 0.000000 0.000000 0.000000
# 2 -0.005313 0.017605 -0.001398 0.000000 0.000000 0.000000
# 3 -0.002495 -0.001398 0.008595 0.000000 0.000000 0.000000
# 4 0.000000 0.000000 0.000000 0.042518 0.000000 0.000000
# 5 0.000000 0.000000 0.000000 0.000000 0.037201 0.000000
# 6 0.000000 0.000000 0.000000 0.000000 0.000000 0.038424
#
#
# Mechanical properties :
#
#
# Convention : Reuss Voigt Hill
#
# Bulk Modulus (GPa) = 68.24329 94.58362 81.41346
# Shear Modulus (GPa) = 28.65270 33.25061 30.95166
#
# Velocity S-wave (km/s) = 3.91110 4.21324 4.06498
# Velocity P-wave (km/s) = 7.53846 8.61183 8.09296
#
# Compressibility (1/GPa) = 0.01465346
#
# Stress axis : x y z
#
# Youngs Moduli (GPa) = 145.67463 56.80183 116.34084
#
# Poissons Ratio (x) = 0.30177 0.29025
# Poissons Ratio (y) = 0.77392 0.16269
# Poissons Ratio (z) = 0.36343 0.07943
#
# Static dielectric constant tensor:
#      x y z
#    x 1.708160 0.000000 0.000000 
#    y 0.000000 1.614630 0.000000 
#    z 0.000000 0.000000 1.630110 
# 
# From -- ./inp_files/10085.got.cif
#   From: 2010.05.17/outbox.cif.g08.bks.cpg/sg57_6_cif.got.tgz:10085.got - 2010.06.03 13:58:18.
