data_PCOD9434072
_publ_section_title
;
Structure prediction by ZEFSAII (Michael W. Deem and Ramdas Pophale) SiO2 
 PCOD9434072
Probable space group: P B C M
;
_chemical_formula_sum "Si O2"
_cell_formula_units_Z 48
_cell_length_a 15.728559
_cell_length_b 21.785867
_cell_length_c 8.713018
_cell_angle_alpha 90.000000
_cell_angle_beta 90.000000
_cell_angle_gamma 90.000000
_cell_volume 2985.605314
_symmetry_space_group_name_H-M "P B C M"
_symmetry_group_IT_number 57
_symmetry_cell_setting 'orthorhombic'
loop_
_space_group_symop_operation_xyz
x,y,z
-x,-y,1/2+z
x,1/2-y,-z
-x,1/2+y,1/2-z
-x,-y,-z
x,y,1/2-z
-x,1/2+y,z
x,1/2-y,1/2+z
loop_
_atom_site_type_symbol
_atom_site_label
_atom_site_fract_x
_atom_site_fract_y
_atom_site_fract_z
Si Si1 0.520483 0.932857 0.934309
Si Si2 0.297558 0.038959 0.434669
Si Si3 0.943641 0.089971 0.433159
Si Si4 0.661330 0.096830 0.065032
Si Si5 0.807228 0.181920 0.567103
Si Si6 0.117018 0.048616 0.933227
O O1 0.519334 0.936168 0.750000
O O2 0.618437 0.921470 0.978477
O O3 0.438138 0.892902 0.978047
O O4 0.500000 0.000000 0.000000
O O5 0.292585 0.034996 0.250000
O O6 0.209461 0.063590 0.500965
O O7 0.312190 0.970340 0.501619
O O8 0.941500 0.097650 0.250000
O O9 0.887762 0.141989 0.512139
O O10 0.040075 0.086469 0.492543
O O11 0.902449 0.023234 0.469393
O O12 0.669391 0.095906 0.250000
O O13 0.724239 0.146858 0.996505
O O14 0.811598 0.250000 0.500000
O O15 0.804389 0.183748 0.750000
O O16 0.115428 0.055244 0.750000
#
# Coordination Sequence:
#
# PCOD9434072 Si02
#       6
#     8   8   8   8   8   8
#     4   8  16  27  42  65  95 128 160 193 233 282
#     4  10  17  27  45  71 100 132 164 196 241 294
#     4  10  20  34  50  70  98 129 165 206 250 297
#     4  10  18  31  47  67  97 130 164 203 243 287
#     4  12  24  37  53  72  97 130 169 208 249 296
#     4  10  19  30  48  72 101 133 164 201 250 301
#
# _framework density 16.077141999999998
#
# number of rings (size 3 to 8) (size 9 to 14) (size 15 to 20)
#    0.000    2.000    1.667    3.500    0.000    2.667 
#    0.000    0.000    0.000    0.000    0.000    1.167 
#    0.000    2.667    0.000    0.000    0.000    0.000 
#
# Total GULP energy -267609.966521 kJ/mol
# GULP energy per Si atom -5575.207636 kJ/mol
# Density = 1.604055 g / cm^3
# Si number density = 16.077142 Si / 1000 Ang^3
#
#
#
# Elastic Constant Matrix: (Units=GPa)
#
#
# Indices 1 2 3 4 5 6 
#
# 1 181.2312 50.7617 53.1451 0.0000 0.0000 0.0000
# 2 50.7617 64.1044 33.7900 0.0000 0.0000 0.0000
# 3 53.1451 33.7900 66.0139 0.0000 0.0000 0.0000
# 4 0.0000 0.0000 0.0000 18.8071 0.0000 0.0000
# 5 0.0000 0.0000 0.0000 0.0000 26.8983 0.0000
# 6 0.0000 0.0000 0.0000 0.0000 0.0000 12.0840
#
#
#
# Elastic Compliance Matrix: (Units=1/GPa)
#
#
# Indices 1 2 3 4 5 6 
#
# 1 0.007900 -0.003976 -0.004325 0.000000 0.000000 0.000000
# 2 -0.003976 0.023365 -0.008759 0.000000 0.000000 0.000000
# 3 -0.004325 -0.008759 0.023113 0.000000 0.000000 0.000000
# 4 0.000000 0.000000 0.000000 0.053171 0.000000 0.000000
# 5 0.000000 0.000000 0.000000 0.000000 0.037177 0.000000
# 6 0.000000 0.000000 0.000000 0.000000 0.000000 0.082754
#
#
# Mechanical properties :
#
#
# Convention : Reuss Voigt Hill
#
# Bulk Modulus (GPa) = 49.36042 65.19370 57.27706
# Shear Modulus (GPa) = 18.63233 23.13473 20.88353
#
# Velocity S-wave (km/s) = 3.40800 3.79751 3.60802
# Velocity P-wave (km/s) = 6.80109 7.73736 7.28428
#
# Compressibility (1/GPa) = 0.02025915
#
# Stress axis : x y z
#
# Youngs Moduli (GPa) = 126.58919 42.79975 43.26557
#
# Poissons Ratio (x) = 0.17016 0.18710
# Poissons Ratio (y) = 0.50330 0.37895
# Poissons Ratio (z) = 0.54744 0.37487
#
# Static dielectric constant tensor:
#      x y z
#    x 1.585350 0.000000 0.000000 
#    y 0.000000 1.492590 0.000000 
#    z 0.000000 0.000000 1.524420 
# 
# From -- ./inp_files/4864.got.cif
#   From: 2010.05.17/outbox.cif.g08.bks.cpg/sg57_3_cif.got.tgz:4864.got - 2010.06.03 13:58:18.
