data_PCOD9434485
_publ_section_title
;
Structure prediction by ZEFSAII (Michael W. Deem and Ramdas Pophale) SiO2 
 PCOD9434485
Probable space group: P B C M
;
_chemical_formula_sum "Si O2"
_cell_formula_units_Z 48
_cell_length_a 14.613052
_cell_length_b 21.769019
_cell_length_c 8.498184
_cell_angle_alpha 90.000000
_cell_angle_beta 90.000000
_cell_angle_gamma 90.000000
_cell_volume 2703.372665
_symmetry_space_group_name_H-M "P B C M"
_symmetry_group_IT_number 57
_symmetry_cell_setting 'orthorhombic'
loop_
_space_group_symop_operation_xyz
x,y,z
-x,-y,1/2+z
x,1/2-y,-z
-x,1/2+y,1/2-z
-x,-y,-z
x,y,1/2-z
-x,1/2+y,z
x,1/2-y,1/2+z
loop_
_atom_site_type_symbol
_atom_site_label
_atom_site_fract_x
_atom_site_fract_y
_atom_site_fract_z
Si Si1 0.970618 0.432386 0.559370
Si Si2 0.777604 0.039602 0.066956
Si Si3 0.844438 0.898512 0.069150
Si Si4 0.571074 0.447960 0.938948
Si Si5 0.499138 0.818005 0.064559
Si Si6 0.699460 0.687364 0.068129
O O1 0.972784 0.431375 0.750000
O O2 0.865581 0.422516 0.504421
O O3 0.000000 0.500000 0.500000
O O4 0.051438 0.391271 0.488843
O O5 0.768062 0.058067 0.250000
O O6 0.675360 0.042226 0.999526
O O7 0.813133 0.969597 0.064579
O O8 0.835237 0.877777 0.250000
O O9 0.774117 0.864047 0.958057
O O10 0.570446 0.453735 0.750000
O O11 0.500000 0.500000 0.000000
O O12 0.544096 0.378445 0.985640
O O13 0.481808 0.819544 0.250000
O O14 0.472458 0.750000 0.000000
O O15 0.607434 0.824307 0.029758
O O16 0.673522 0.693893 0.250000
O O17 0.739863 0.750000 0.000000
#
# Coordination Sequence:
#
# PCOD9434485 Si02
#       6
#     8   8   8   8   8   8
#     4   9  16  29  47  70  97 131 168 205 250 305
#     4   8  17  31  49  71 101 135 169 208 254 301
#     4  10  18  31  50  75 104 134 165 206 255 308
#     4  11  21  35  54  80 110 143 180 225 272 316
#     4  11  22  38  56  77 105 141 180 221 266 322
#     4  11  21  34  52  75 100 132 169 209 254 308
#
# _framework density 17.755597999999999
#
# number of rings (size 3 to 8) (size 9 to 14) (size 15 to 20)
#    0.000    2.000    0.000    7.500    0.000    1.333 
#    0.000    9.167    0.000    1.000    0.000    4.667 
#    0.000    0.000    0.000    0.000    0.000    0.000 
#
# Total GULP energy -267361.757436 kJ/mol
# GULP energy per Si atom -5570.036613 kJ/mol
# Density = 1.771519 g / cm^3
# Si number density = 17.755598 Si / 1000 Ang^3
#
#
#
# Elastic Constant Matrix: (Units=GPa)
#
#
# Indices 1 2 3 4 5 6 
#
# 1 114.8391 41.1407 15.1627 0.0000 0.0000 0.0000
# 2 41.1407 50.3566 10.2363 0.0000 0.0000 0.0000
# 3 15.1627 10.2363 62.7510 0.0000 0.0000 0.0000
# 4 0.0000 0.0000 0.0000 23.5183 0.0000 0.0000
# 5 0.0000 0.0000 0.0000 0.0000 24.5675 0.0000
# 6 0.0000 0.0000 0.0000 0.0000 0.0000 6.4538
#
#
#
# Elastic Compliance Matrix: (Units=1/GPa)
#
#
# Indices 1 2 3 4 5 6 
#
# 1 0.012428 -0.009870 -0.001393 0.000000 0.000000 0.000000
# 2 -0.009870 0.028378 -0.002244 0.000000 0.000000 0.000000
# 3 -0.001393 -0.002244 0.016639 0.000000 0.000000 0.000000
# 4 0.000000 0.000000 0.000000 0.042520 0.000000 0.000000
# 5 0.000000 0.000000 0.000000 0.000000 0.040704 0.000000
# 6 0.000000 0.000000 0.000000 0.000000 0.000000 0.154948
#
#
# Mechanical properties :
#
#
# Convention : Reuss Voigt Hill
#
# Bulk Modulus (GPa) = 32.86219 40.11402 36.48810
# Shear Modulus (GPa) = 15.02516 21.66838 18.34677
#
# Velocity S-wave (km/s) = 2.91214 3.49717 3.21798
# Velocity P-wave (km/s) = 5.46404 6.24086 5.86532
#
# Compressibility (1/GPa) = 0.03043011
#
# Stress axis : x y z
#
# Youngs Moduli (GPa) = 80.46550 35.23811 60.10098
#
# Poissons Ratio (x) = 0.34780 0.08371
# Poissons Ratio (y) = 0.79421 0.13489
# Poissons Ratio (z) = 0.11208 0.07909
#
# Static dielectric constant tensor:
#      x y z
#    x 1.645590 0.000000 0.000000 
#    y 0.000000 1.563740 0.000000 
#    z 0.000000 0.000000 1.622780 
# 
# From -- ./inp_files/4933.got.cif
#   From: 2010.05.17/outbox.cif.g08.bks.cpg/sg57_3_cif.got.tgz:4933.got - 2010.06.03 13:58:18.
