data_PCOD9434577
_publ_section_title
;
Structure prediction by ZEFSAII (Michael W. Deem and Ramdas Pophale) SiO2 
 PCOD9434577
Probable space group: P B C M
;
_chemical_formula_sum "Si O2"
_cell_formula_units_Z 64
_cell_length_a 21.197956
_cell_length_b 9.951769
_cell_length_c 13.686476
_cell_angle_alpha 90.000000
_cell_angle_beta 90.000000
_cell_angle_gamma 90.000000
_cell_volume 2887.260126
_symmetry_space_group_name_H-M "P B C M"
_symmetry_group_IT_number 57
_symmetry_cell_setting 'orthorhombic'
loop_
_space_group_symop_operation_xyz
x,y,z
-x,-y,1/2+z
x,1/2-y,-z
-x,1/2+y,1/2-z
-x,-y,-z
x,y,1/2-z
-x,1/2+y,z
x,1/2-y,1/2+z
loop_
_atom_site_type_symbol
_atom_site_label
_atom_site_fract_x
_atom_site_fract_y
_atom_site_fract_z
Si Si1 0.690599 0.854508 0.090091
Si Si2 0.421161 0.616175 0.564225
Si Si3 0.168344 0.185050 0.639216
Si Si4 0.930835 0.481194 0.631295
Si Si5 0.285921 0.602590 0.956863
Si Si6 0.955908 0.176080 0.630744
Si Si7 0.159594 0.016093 0.368080
Si Si8 0.444783 0.367667 0.080013
O O1 0.755982 0.822391 0.142168
O O2 0.620893 0.846160 0.137070
O O3 0.688256 0.750000 0.000000
O O4 0.700234 0.002721 0.046722
O O5 0.415785 0.750000 0.500000
O O6 0.350959 0.598303 0.606596
O O7 0.485605 0.622950 0.627085
O O8 0.433371 0.498896 0.485848
O O9 0.143889 0.193928 0.750000
O O10 0.136414 0.047102 0.602341
O O11 0.151985 0.330435 0.594617
O O12 0.932765 0.469000 0.750000
O O13 0.947522 0.330384 0.597073
O O14 0.981632 0.594241 0.601613
O O15 0.225994 0.544218 0.901641
O O16 0.273980 0.750000 0.000000
O O17 0.957598 0.180258 0.750000
O O18 0.896686 0.082992 0.603311
O O19 0.159711 0.021793 0.250000
O O20 0.449914 0.250000 0.000000
#
# Coordination Sequence:
#
# PCOD9434577 Si02
#       8
#     8   8   8   8   8   8   8   8
#     4  10  18  32  50  73 101 133 168 205 251 296
#     4   8  14  26  42  67  95 122 161 206 246 284
#     4  10  20  33  51  75 103 133 167 208 251 297
#     4   9  17  30  50  75  99 128 166 207 246 288
#     4  10  20  32  50  74 103 135 167 207 252 302
#     4   9  17  30  50  74  99 128 166 208 246 289
#     4  10  20  34  51  74 103 134 167 205 250 300
#     4   8  14  24  44  67  92 123 161 207 245 284
#
# _framework density 22.166342
#
# number of rings (size 3 to 8) (size 9 to 14) (size 15 to 20)
#    0.000    2.750    1.250    0.750    1.750    3.000 
#    0.000    0.000    0.000    2.250    0.000    0.000 
#    0.000    0.000    0.000    0.000    0.000    0.000 
#
# Total GULP energy -356740.825763 kJ/mol
# GULP energy per Si atom -5574.075403 kJ/mol
# Density = 2.211589 g / cm^3
# Si number density = 22.166342 Si / 1000 Ang^3
#
#
#
# Elastic Constant Matrix: (Units=GPa)
#
#
# Indices 1 2 3 4 5 6 
#
# 1 160.4670 31.7530 2.2139 0.0000 0.0000 0.0000
# 2 31.7530 171.3226 15.7674 0.0000 0.0000 0.0000
# 3 2.2139 15.7674 46.1158 0.0000 0.0000 0.0000
# 4 0.0000 0.0000 0.0000 18.3000 0.0000 0.0000
# 5 0.0000 0.0000 0.0000 0.0000 21.1673 0.0000
# 6 0.0000 0.0000 0.0000 0.0000 0.0000 33.4476
#
#
#
# Elastic Compliance Matrix: (Units=1/GPa)
#
#
# Indices 1 2 3 4 5 6 
#
# 1 0.006470 -0.001209 0.000103 0.000000 0.000000 0.000000
# 2 -0.001209 0.006252 -0.002080 0.000000 0.000000 0.000000
# 3 0.000103 -0.002080 0.022391 0.000000 0.000000 0.000000
# 4 0.000000 0.000000 0.000000 0.054645 0.000000 0.000000
# 5 0.000000 0.000000 0.000000 0.000000 0.047243 0.000000
# 6 0.000000 0.000000 0.000000 0.000000 0.000000 0.029898
#
#
# Mechanical properties :
#
#
# Convention : Reuss Voigt Hill
#
# Bulk Modulus (GPa) = 34.79309 53.04155 43.91732
# Shear Modulus (GPa) = 27.34495 36.46106 31.90301
#
# Velocity S-wave (km/s) = 3.51611 4.06012 3.79787
# Velocity P-wave (km/s) = 5.67578 6.77940 6.25199
#
# Compressibility (1/GPa) = 0.02874134
#
# Stress axis : x y z
#
# Youngs Moduli (GPa) = 154.57065 159.94033 44.66143
#
# Poissons Ratio (x) = 0.19329 -0.00458
# Poissons Ratio (y) = 0.18680 0.09288
# Poissons Ratio (z) = -0.01586 0.33263
#
# Static dielectric constant tensor:
#      x y z
#    x 1.897850 0.000000 0.000000 
#    y 0.000000 1.988570 0.000000 
#    z 0.000000 0.000000 1.831830 
# 
# From -- ./inp_files/25609.got.cif
#   From: 2010.05.17/outbox.cif.g08.bks.cpg/sg57_13_cif.got.tgz:25609.got - 2010.06.03 13:58:18.
