data_PCOD9434284
_publ_section_title
;
Structure prediction by ZEFSAII (Michael W. Deem and Ramdas Pophale) SiO2 
 PCOD9434284
Probable space group: P B C M
;
_chemical_formula_sum "Si O2"
_cell_formula_units_Z 48
_cell_length_a 12.245074
_cell_length_b 26.373517
_cell_length_c 8.880586
_cell_angle_alpha 90.000000
_cell_angle_beta 90.000000
_cell_angle_gamma 90.000000
_cell_volume 2867.946772
_symmetry_space_group_name_H-M "P B C M"
_symmetry_group_IT_number 57
_symmetry_cell_setting 'orthorhombic'
loop_
_space_group_symop_operation_xyz
x,y,z
-x,-y,1/2+z
x,1/2-y,-z
-x,1/2+y,1/2-z
-x,-y,-z
x,y,1/2-z
-x,1/2+y,z
x,1/2-y,1/2+z
loop_
_atom_site_type_symbol
_atom_site_label
_atom_site_fract_x
_atom_site_fract_y
_atom_site_fract_z
Si Si1 0.659733 0.610984 0.570637
Si Si2 0.989723 0.388631 0.068168
Si Si3 0.233937 0.926596 0.425115
Si Si4 0.838589 0.541483 0.075156
Si Si5 0.831653 0.694615 0.930751
Si Si6 0.535144 0.054247 0.428592
O O1 0.643314 0.611282 0.750000
O O2 0.744381 0.566750 0.525349
O O3 0.723857 0.662231 0.525625
O O4 0.548638 0.596788 0.487799
O O5 0.996987 0.395554 0.250000
O O6 0.861738 0.387707 0.029161
O O7 0.062659 0.339617 0.028147
O O8 0.049621 0.435399 0.986972
O O9 0.264044 0.917637 0.250000
O O10 0.343224 0.930640 0.521144
O O11 0.175623 0.981499 0.432341
O O12 0.823845 0.556500 0.250000
O O13 0.830949 0.698289 0.750000
O O14 0.834203 0.750000 0.000000
O O15 0.527314 0.049252 0.250000
O O16 0.500000 0.000000 0.500000
#
# Coordination Sequence:
#
# PCOD9434284 Si02
#       6
#     8   8   8   8   8   8
#     4  10  20  35  53  75 105 139 176 218 262 309
#     4   9  19  34  50  72 104 138 172 212 260 311
#     4  10  20  33  49  71 104 143 179 211 252 306
#     4  10  18  28  47  74 103 137 174 211 252 301
#     4   9  19  35  57  81 103 131 167 215 271 315
#     4  12  23  34  51  75 106 144 182 217 256 308
#
# _framework density 16.736713000000002
#
# number of rings (size 3 to 8) (size 9 to 14) (size 15 to 20)
#    0.000    2.000    1.667    4.000    0.000    4.667 
#    0.000    0.000    0.000    1.000    0.000    2.333 
#    0.000    0.000    0.000    0.000    0.000    0.000 
#
# Total GULP energy -267724.979846 kJ/mol
# GULP energy per Si atom -5577.603747 kJ/mol
# Density = 1.669862 g / cm^3
# Si number density = 16.736713 Si / 1000 Ang^3
#
#
#
# Elastic Constant Matrix: (Units=GPa)
#
#
# Indices 1 2 3 4 5 6 
#
# 1 137.1114 54.1894 59.3129 0.0000 0.0000 0.0000
# 2 54.1894 82.9020 35.6426 0.0000 0.0000 0.0000
# 3 59.3129 35.6426 71.8796 0.0000 0.0000 0.0000
# 4 0.0000 0.0000 0.0000 23.9584 0.0000 0.0000
# 5 0.0000 0.0000 0.0000 0.0000 25.4036 0.0000
# 6 0.0000 0.0000 0.0000 0.0000 0.0000 9.4376
#
#
#
# Elastic Compliance Matrix: (Units=1/GPa)
#
#
# Indices 1 2 3 4 5 6 
#
# 1 0.012698 -0.004823 -0.008086 0.000000 0.000000 0.000000
# 2 -0.004823 0.017163 -0.004530 0.000000 0.000000 0.000000
# 3 -0.008086 -0.004530 0.022831 0.000000 0.000000 0.000000
# 4 0.000000 0.000000 0.000000 0.041739 0.000000 0.000000
# 5 0.000000 0.000000 0.000000 0.000000 0.039364 0.000000
# 6 0.000000 0.000000 0.000000 0.000000 0.000000 0.105959
#
#
# Mechanical properties :
#
#
# Convention : Reuss Voigt Hill
#
# Bulk Modulus (GPa) = 56.14177 65.57586 60.85882
# Shear Modulus (GPa) = 17.82081 21.27646 19.54864
#
# Velocity S-wave (km/s) = 3.26663 3.56932 3.42132
# Velocity P-wave (km/s) = 6.91699 7.50018 7.21448
#
# Compressibility (1/GPa) = 0.01781205
#
# Stress axis : x y z
#
# Youngs Moduli (GPa) = 78.75564 58.26462 43.80034
#
# Poissons Ratio (x) = 0.28103 0.35416
# Poissons Ratio (y) = 0.37987 0.19844
# Poissons Ratio (z) = 0.63681 0.26396
#
# Static dielectric constant tensor:
#      x y z
#    x 1.593320 0.000000 0.000000 
#    y 0.000000 1.550740 0.000000 
#    z 0.000000 0.000000 1.570120 
# 
# From -- ./inp_files/3162.got.cif
#   From: 2010.05.17/outbox.cif.g08.bks.cpg/sg57_2_cif.got.tgz:3162.got - 2010.06.03 13:58:18.
