data_PCOD9434894
_publ_section_title
;
Structure prediction by ZEFSAII (Michael W. Deem and Ramdas Pophale) SiO2 
 PCOD9434894
Probable space group: P B C M
;
_chemical_formula_sum "Si O2"
_cell_formula_units_Z 48
_cell_length_a 11.729114
_cell_length_b 27.592391
_cell_length_c 8.728107
_cell_angle_alpha 90.000000
_cell_angle_beta 90.000000
_cell_angle_gamma 90.000000
_cell_volume 2824.714796
_symmetry_space_group_name_H-M "P B C M"
_symmetry_group_IT_number 57
_symmetry_cell_setting 'orthorhombic'
loop_
_space_group_symop_operation_xyz
x,y,z
-x,-y,1/2+z
x,1/2-y,-z
-x,1/2+y,1/2-z
-x,-y,-z
x,y,1/2-z
-x,1/2+y,z
x,1/2-y,1/2+z
loop_
_atom_site_type_symbol
_atom_site_label
_atom_site_fract_x
_atom_site_fract_y
_atom_site_fract_z
Si Si1 0.141082 0.047983 0.932655
Si Si2 0.875952 0.055761 0.934854
Si Si3 0.688646 0.126111 0.570400
Si Si4 0.317180 0.120507 0.077076
Si Si5 0.468301 0.950262 0.576499
Si Si6 0.497887 0.803789 0.565616
O O1 0.147350 0.044263 0.750000
O O2 0.009133 0.056746 0.978296
O O3 0.218094 0.092935 0.986811
O O4 0.173634 0.995121 0.001034
O O5 0.867472 0.053482 0.750000
O O6 0.810951 0.105125 0.983123
O O7 0.693908 0.137983 0.750000
O O8 0.613046 0.078719 0.537092
O O9 0.617252 0.168055 0.486153
O O10 0.277299 0.132014 0.250000
O O11 0.417388 0.081000 0.088310
O O12 0.388291 0.166611 0.013113
O O13 0.420875 0.954761 0.750000
O O14 0.500000 0.000000 0.500000
O O15 0.498139 0.750000 0.500000
O O16 0.500405 0.804055 0.750000
#
# Coordination Sequence:
#
# PCOD9434894 Si02
#       6
#     8   8   8   8   8   8
#     4  10  19  30  48  73 100 134 173 205 234 278
#     4   9  19  33  47  69 103 138 168 201 240 281
#     4  10  19  32  50  70  96 129 163 200 244 292
#     4   9  19  33  47  67  97 128 157 196 244 291
#     4  10  19  29  42  65  97 128 160 198 241 290
#     4  10  21  37  56  77  99 123 157 202 253 303
#
# _framework density 16.992867
#
# number of rings (size 3 to 8) (size 9 to 14) (size 15 to 20)
#    0.000    2.333    0.000    4.000    0.000   10.000 
#    0.000    0.000    0.000    1.000    0.000    2.333 
#    0.000    0.000    0.000    0.000    0.000    0.000 
#
# Total GULP energy -267302.552416 kJ/mol
# GULP energy per Si atom -5568.803175 kJ/mol
# Density = 1.695419 g / cm^3
# Si number density = 16.992867 Si / 1000 Ang^3
#
#
#
# Elastic Constant Matrix: (Units=GPa)
#
#
# Indices 1 2 3 4 5 6 
#
# 1 73.5425 45.4003 19.3921 0.0000 0.0000 0.0000
# 2 45.4003 123.2344 23.5244 0.0000 0.0000 0.0000
# 3 19.3921 23.5244 30.5668 0.0000 0.0000 0.0000
# 4 0.0000 0.0000 0.0000 22.0285 0.0000 0.0000
# 5 0.0000 0.0000 0.0000 0.0000 23.1587 0.0000
# 6 0.0000 0.0000 0.0000 0.0000 0.0000 23.7720
#
#
#
# Elastic Compliance Matrix: (Units=1/GPa)
#
#
# Indices 1 2 3 4 5 6 
#
# 1 0.019082 -0.005532 -0.007849 0.000000 0.000000 0.000000
# 2 -0.005532 0.011116 -0.005045 0.000000 0.000000 0.000000
# 3 -0.007849 -0.005045 0.041578 0.000000 0.000000 0.000000
# 4 0.000000 0.000000 0.000000 0.045396 0.000000 0.000000
# 5 0.000000 0.000000 0.000000 0.000000 0.043180 0.000000
# 6 0.000000 0.000000 0.000000 0.000000 0.000000 0.042066
#
#
# Mechanical properties :
#
#
# Convention : Reuss Voigt Hill
#
# Bulk Modulus (GPa) = 28.63380 44.88636 36.76008
# Shear Modulus (GPa) = 19.92744 23.06030 21.49387
#
# Velocity S-wave (km/s) = 3.42818 3.68782 3.56037
# Velocity P-wave (km/s) = 5.70587 6.67874 6.21138
#
# Compressibility (1/GPa) = 0.03492376
#
# Stress axis : x y z
#
# Youngs Moduli (GPa) = 52.40516 89.96357 24.05144
#
# Poissons Ratio (x) = 0.49765 0.18878
# Poissons Ratio (y) = 0.28989 0.12135
# Poissons Ratio (z) = 0.41132 0.45389
#
# Static dielectric constant tensor:
#      x y z
#    x 1.600550 0.000000 0.000000 
#    y 0.000000 1.527500 0.000000 
#    z 0.000000 0.000000 1.593440 
# 
# From -- ./inp_files/3275.got.cif
#   From: 2010.05.17/outbox.cif.g08.bks.cpg/sg57_2_cif.got.tgz:3275.got - 2010.06.03 13:58:18.
