data_PCOD9434543
_publ_section_title
;
Structure prediction by ZEFSAII (Michael W. Deem and Ramdas Pophale) SiO2 
 PCOD9434543
Probable space group: P B C M
;
_chemical_formula_sum "Si O2"
_cell_formula_units_Z 32
_cell_length_a 19.864246
_cell_length_b 8.952335
_cell_length_c 8.336522
_cell_angle_alpha 90.000000
_cell_angle_beta 90.000000
_cell_angle_gamma 90.000000
_cell_volume 1482.495251
_symmetry_space_group_name_H-M "P B C M"
_symmetry_group_IT_number 57
_symmetry_cell_setting 'orthorhombic'
loop_
_space_group_symop_operation_xyz
x,y,z
-x,-y,1/2+z
x,1/2-y,-z
-x,1/2+y,1/2-z
-x,-y,-z
x,y,1/2-z
-x,1/2+y,z
x,1/2-y,1/2+z
loop_
_atom_site_type_symbol
_atom_site_label
_atom_site_fract_x
_atom_site_fract_y
_atom_site_fract_z
Si Si1 0.573350 0.295320 0.250000
Si Si2 0.784573 0.422905 0.556199
Si Si3 0.933486 0.080886 0.059197
Si Si4 0.352199 0.038275 0.072581
Si Si5 0.574799 0.564988 0.750000
O O1 0.613110 0.376653 0.394928
O O2 0.498219 0.360818 0.250000
O O3 0.571187 0.117374 0.250000
O O4 0.779820 0.250000 0.500000
O O5 0.776346 0.427898 0.750000
O O6 0.859541 0.478634 0.510301
O O7 0.725396 0.513623 0.471845
O O8 0.933921 0.079118 0.250000
O O9 0.936315 0.250000 0.000000
O O10 0.000000 0.000000 0.000000
O O11 0.359424 0.109994 0.250000
O O12 0.388162 0.102996 0.916511
#
# Coordination Sequence:
#
# PCOD9434543 Si02
#       5
#     4   8   8   8   4
#     4  10  24  34  60  78 111 144 186 224 289 328
#     4  10  18  31  53  82 114 143 185 237 280 324
#     4  10  21  36  58  87 119 155 192 237 289 343
#     4  10  22  33  56  82 111 146 185 233 285 327
#     4  12  20  42  52  84 111 144 182 238 273 344
#
# _framework density 21.585229999999999
#
# number of rings (size 3 to 8) (size 9 to 14) (size 15 to 20)
#    0.750    1.000    1.250    4.500    0.000    3.000 
#    0.000    0.000    0.000    3.000    0.000    0.000 
#    0.000    0.000    0.000    0.000    0.000    0.000 
#
# Total GULP energy -178677.664531 kJ/mol
# GULP energy per Si atom -5583.677017 kJ/mol
# Density = 2.153610 g / cm^3
# Si number density = 21.585230 Si / 1000 Ang^3
#
#
#
# Elastic Constant Matrix: (Units=GPa)
#
#
# Indices 1 2 3 4 5 6 
#
# 1 209.0434 42.1600 80.2267 0.0000 0.0000 0.0000
# 2 42.1600 66.3479 43.8738 0.0000 0.0000 0.0000
# 3 80.2267 43.8738 148.4236 0.0000 0.0000 0.0000
# 4 0.0000 0.0000 0.0000 34.5554 0.0000 0.0000
# 5 0.0000 0.0000 0.0000 0.0000 41.3181 0.0000
# 6 0.0000 0.0000 0.0000 0.0000 0.0000 -852.3647
#
#
#
# Elastic Compliance Matrix: (Units=1/GPa)
#
#
# Indices 1 2 3 4 5 6 
#
# 1 0.006277 -0.002169 -0.002752 0.000000 0.000000 0.000000
# 2 -0.002169 0.019484 -0.004587 0.000000 0.000000 0.000000
# 3 -0.002752 -0.004587 0.009581 0.000000 0.000000 0.000000
# 4 0.000000 0.000000 0.000000 0.028939 0.000000 0.000000
# 5 0.000000 0.000000 0.000000 0.000000 0.024202 0.000000
# 6 0.000000 0.000000 0.000000 0.000000 0.000000 -0.001173
#
#
# Mechanical properties :
#
#
# Convention : Reuss Voigt Hill
#
# Bulk Modulus (GPa) = 61.25201 84.03732 72.64466
# Shear Modulus (GPa) = 44.73574 -138.12795 -46.69610
#
# Velocity S-wave (km/s) = 4.55743 -8.00817 -4.65621
# Velocity P-wave (km/s) = 7.49213 6.81839 2.19562
#
# Compressibility (1/GPa) = 0.01632600
#
# Stress axis : x y z
#
# Youngs Moduli (GPa) = 159.30510 51.32535 104.37568
#
# Poissons Ratio (x) = 0.11133 0.28722
# Poissons Ratio (y) = 0.34555 0.47876
# Poissons Ratio (z) = 0.43838 0.23542
#
# Static dielectric constant tensor:
#      x y z
#    x 1.780770 0.000000 0.000000 
#    y 0.000000 1.762380 0.000000 
#    z 0.000000 0.000000 1.810930 
# 
# From -- ./inp_files/7567.got.cif
#   From: 2010.05.17/outbox.cif.g08.bks.cpg/sg57_4_cif.got.tgz:7567.got - 2010.06.03 13:58:18.
