data_PCOD9434250
_publ_section_title
;
Structure prediction by ZEFSAII (Michael W. Deem and Ramdas Pophale) SiO2 
 PCOD9434250
Probable space group: P B C M
;
_chemical_formula_sum "Si O2"
_cell_formula_units_Z 64
_cell_length_a 17.313076
_cell_length_b 19.930899
_cell_length_c 9.732292
_cell_angle_alpha 90.000000
_cell_angle_beta 90.000000
_cell_angle_gamma 90.000000
_cell_volume 3358.274985
_symmetry_space_group_name_H-M "P B C M"
_symmetry_group_IT_number 57
_symmetry_cell_setting 'orthorhombic'
loop_
_space_group_symop_operation_xyz
x,y,z
-x,-y,1/2+z
x,1/2-y,-z
-x,1/2+y,1/2-z
-x,-y,-z
x,y,1/2-z
-x,1/2+y,z
x,1/2-y,1/2+z
loop_
_atom_site_type_symbol
_atom_site_label
_atom_site_fract_x
_atom_site_fract_y
_atom_site_fract_z
Si Si1 0.758537 0.064081 0.007529
Si Si2 0.314278 0.697180 0.397085
Si Si3 0.519334 0.360888 0.585510
Si Si4 0.934270 0.586347 0.093599
Si Si5 0.600217 0.477017 0.408229
Si Si6 0.926887 0.423266 0.096600
Si Si7 0.384043 0.386608 0.084907
Si Si8 0.209859 0.088248 0.905446
O O1 0.724733 0.124382 0.097486
O O2 0.774231 0.992374 0.080431
O O3 0.688323 0.049357 0.904001
O O4 0.838262 0.088313 0.942543
O O5 0.279796 0.750000 0.500000
O O6 0.304933 0.728575 0.250000
O O7 0.405666 0.686251 0.420946
O O8 0.503992 0.371807 0.750000
O O9 0.550959 0.425807 0.500904
O O10 0.444034 0.339421 0.497715
O O11 0.934511 0.610223 0.250000
O O12 0.933997 0.504687 0.096814
O O13 0.856629 0.606072 0.012960
O O14 0.011378 0.604824 0.010893
O O15 0.572662 0.484067 0.250000
O O16 0.604895 0.544666 0.497595
O O17 0.944227 0.399580 0.250000
O O18 0.400727 0.391887 0.250000
O O19 0.291971 0.374813 0.073166
O O20 0.183248 0.100504 0.750000
#
# Coordination Sequence:
#
# PCOD9434250 Si02
#       8
#     8   8   8   8   8   8   8   8
#     4   9  18  30  47  67  88 118 158 194 230 271
#     4  10  22  37  52  68  88 116 151 194 240 280
#     4  10  20  33  46  62  85 113 145 182 225 271
#     4   9  17  26  38  60  90 122 153 182 215 254
#     4  10  18  28  43  63  88 117 148 184 223 266
#     4   9  16  26  41  61  86 118 155 188 217 255
#     4  10  19  29  43  64  88 117 150 183 221 266
#     4   9  17  29  45  64  91 123 153 186 223 266
#
# _framework density 19.057403999999998
#
# number of rings (size 3 to 8) (size 9 to 14) (size 15 to 20)
#    0.000    2.500    0.000    2.625    0.000   13.000 
#    0.000    0.000    0.000    0.000    0.000    0.000 
#    0.000    1.000    0.000    4.250    0.000    4.125 
#
# Total GULP energy -356270.649118 kJ/mol
# GULP energy per Si atom -5566.728892 kJ/mol
# Density = 1.901403 g / cm^3
# Si number density = 19.057404 Si / 1000 Ang^3
#
#
#
# Elastic Constant Matrix: (Units=GPa)
#
#
# Indices 1 2 3 4 5 6 
#
# 1 138.6472 4.4143 74.0638 0.0000 0.0000 0.0000
# 2 4.4143 9.5742 7.5435 0.0000 0.0000 0.0000
# 3 74.0638 7.5435 154.7593 0.0000 0.0000 0.0000
# 4 0.0000 0.0000 0.0000 6.2793 0.0000 0.0000
# 5 0.0000 0.0000 0.0000 0.0000 18.0336 0.0000
# 6 0.0000 0.0000 0.0000 0.0000 0.0000 -5.3610
#
#
#
# Elastic Compliance Matrix: (Units=1/GPa)
#
#
# Indices 1 2 3 4 5 6 
#
# 1 0.009696 -0.000847 -0.004599 0.000000 0.000000 0.000000
# 2 -0.000847 0.108693 -0.004893 0.000000 0.000000 0.000000
# 3 -0.004599 -0.004893 0.008901 0.000000 0.000000 0.000000
# 4 0.000000 0.000000 0.000000 0.159254 0.000000 0.000000
# 5 0.000000 0.000000 0.000000 0.000000 0.055452 0.000000
# 6 0.000000 0.000000 0.000000 0.000000 0.000000 -0.186533
#
#
# Mechanical properties :
#
#
# Convention : Reuss Voigt Hill
#
# Bulk Modulus (GPa) = 9.37977 52.78042 31.08010
# Shear Modulus (GPa) = 23.62069 18.25431 20.93750
#
# Velocity S-wave (km/s) = 3.52440 3.09829 3.31819
# Velocity P-wave (km/s) = 4.63621 6.36827 5.56997
#
# Compressibility (1/GPa) = 0.10661237
#
# Stress axis : x y z
#
# Youngs Moduli (GPa) = 103.13195 9.20027 112.34498
#
# Poissons Ratio (x) = 0.00779 0.51669
# Poissons Ratio (y) = 0.08735 0.54967
# Poissons Ratio (z) = 0.47432 0.04501
#
# Static dielectric constant tensor:
#      x y z
#    x 1.702730 0.000000 0.000000 
#    y 0.000000 1.633890 0.000000 
#    z 0.000000 0.000000 1.669870 
# 
# From -- ./inp_files/7348.got.cif
#   From: 2010.05.17/outbox.cif.g08.bks.cpg/sg57_4_cif.got.tgz:7348.got - 2010.06.03 13:58:18.
