data_PCOD9434107
_publ_section_title
;
Structure prediction by ZEFSAII (Michael W. Deem and Ramdas Pophale) SiO2 
 PCOD9434107
Probable space group: P B C M
;
_chemical_formula_sum "Si O2"
_cell_formula_units_Z 36
_cell_length_a 9.101003
_cell_length_b 5.588658
_cell_length_c 26.481561
_cell_angle_alpha 90.000000
_cell_angle_beta 90.000000
_cell_angle_gamma 90.000000
_cell_volume 1346.915569
_symmetry_space_group_name_H-M "P B C M"
_symmetry_group_IT_number 57
_symmetry_cell_setting 'orthorhombic'
loop_
_space_group_symop_operation_xyz
x,y,z
-x,-y,1/2+z
x,1/2-y,-z
-x,1/2+y,1/2-z
-x,-y,-z
x,y,1/2-z
-x,1/2+y,z
x,1/2-y,1/2+z
loop_
_atom_site_type_symbol
_atom_site_label
_atom_site_fract_x
_atom_site_fract_y
_atom_site_fract_z
Si Si1 0.682586 0.961820 0.307665
Si Si2 0.859630 0.250000 0.000000
Si Si3 0.948144 0.754744 0.400959
Si Si4 0.357243 0.539764 0.845666
Si Si5 0.654815 0.641933 0.048254
O O1 0.726345 0.998474 0.250000
O O2 0.728844 0.695826 0.325856
O O3 0.718611 0.202579 0.339079
O O4 0.505385 0.944080 0.312849
O O5 0.961192 0.295774 0.952407
O O6 0.755503 0.040692 0.982139
O O7 0.780329 0.792862 0.421255
O O8 0.980823 0.492015 0.376229
O O9 0.414208 0.494765 0.903544
O O10 0.567549 0.750000 0.000000
#
# Coordination Sequence:
#
# PCOD9434107 Si02
#       5
#     8   4   8   8   8
#     4  10  20  42  60  74 100 128 168 235 284 309
#     4  10  18  32  48  66 108 160 176 200 244 280
#     4  10  17  30  47  67  96 151 180 201 239 278
#     4  10  21  32  58  83  99 132 179 214 257 325
#     4  11  20  31  48  76 116 145 175 212 239 294
#
# _framework density 26.727734000000002
#
# number of rings (size 3 to 8) (size 9 to 14) (size 15 to 20)
#    0.000    1.778    3.333    4.667    3.111    0.000 
#    0.000    4.444    0.000    0.000    0.000    0.000 
#    0.000  120.889    0.000    0.000    0.000    0.000 
#
# Total GULP energy -200824.313208 kJ/mol
# GULP energy per Si atom -5578.453145 kJ/mol
# Density = 2.666690 g / cm^3
# Si number density = 26.727734 Si / 1000 Ang^3
#
#
#
# Elastic Constant Matrix: (Units=GPa)
#
#
# Indices 1 2 3 4 5 6 
#
# 1 51.7351 29.2471 10.3118 0.0000 0.0000 0.0000
# 2 29.2471 236.1589 50.9808 0.0000 0.0000 0.0000
# 3 10.3118 50.9808 124.2771 0.0000 0.0000 0.0000
# 4 0.0000 0.0000 0.0000 39.0857 0.0000 0.0000
# 5 0.0000 0.0000 0.0000 0.0000 30.2888 0.0000
# 6 0.0000 0.0000 0.0000 0.0000 0.0000 37.1104
#
#
#
# Elastic Compliance Matrix: (Units=1/GPa)
#
#
# Indices 1 2 3 4 5 6 
#
# 1 0.020846 -0.002423 -0.000736 0.000000 0.000000 0.000000
# 2 -0.002423 0.004927 -0.001820 0.000000 0.000000 0.000000
# 3 -0.000736 -0.001820 0.008854 0.000000 0.000000 0.000000
# 4 0.000000 0.000000 0.000000 0.025585 0.000000 0.000000
# 5 0.000000 0.000000 0.000000 0.000000 0.033016 0.000000
# 6 0.000000 0.000000 0.000000 0.000000 0.000000 0.026947
#
#
# Mechanical properties :
#
#
# Convention : Reuss Voigt Hill
#
# Bulk Modulus (GPa) = 40.53577 65.91673 53.22625
# Shear Modulus (GPa) = 36.13888 42.73906 39.43897
#
# Velocity S-wave (km/s) = 3.68110 4.00315 3.84550
# Velocity P-wave (km/s) = 5.76770 6.78843 6.29878
#
# Compressibility (1/GPa) = 0.02466957
#
# Stress axis : x y z
#
# Youngs Moduli (GPa) = 47.97189 202.94493 112.93940
#
# Poissons Ratio (x) = 0.49169 0.08310
# Poissons Ratio (y) = 0.11623 0.20558
# Poissons Ratio (z) = 0.03530 0.36942
#
# Static dielectric constant tensor:
#      x y z
#    x 2.206210 0.000000 0.000000 
#    y 0.000000 2.364000 0.000000 
#    z 0.000000 0.000000 2.137410 
# 
# From -- ./inp_files/25221.got.cif
#   From: 2010.05.17/outbox.cif.g08.bks.cpg/sg57_13_cif.got.tgz:25221.got - 2010.06.03 13:58:18.
