data_PCOD9434287
_publ_section_title
;
Structure prediction by ZEFSAII (Michael W. Deem and Ramdas Pophale) SiO2 
 PCOD9434287
Probable space group: P B C M
;
_chemical_formula_sum "Si O2"
_cell_formula_units_Z 64
_cell_length_a 22.299777
_cell_length_b 18.390890
_cell_length_c 8.785413
_cell_angle_alpha 90.000000
_cell_angle_beta 90.000000
_cell_angle_gamma 90.000000
_cell_volume 3603.009849
_symmetry_space_group_name_H-M "P B C M"
_symmetry_group_IT_number 57
_symmetry_cell_setting 'orthorhombic'
loop_
_space_group_symop_operation_xyz
x,y,z
-x,-y,1/2+z
x,1/2-y,-z
-x,1/2+y,1/2-z
-x,-y,-z
x,y,1/2-z
-x,1/2+y,z
x,1/2-y,1/2+z
loop_
_atom_site_type_symbol
_atom_site_label
_atom_site_fract_x
_atom_site_fract_y
_atom_site_fract_z
Si Si1 0.994025 0.581048 0.432017
Si Si2 0.623666 0.673255 0.431997
Si Si3 0.745220 0.596665 0.432771
Si Si4 0.240060 0.830068 0.069143
Si Si5 0.129594 0.083527 0.569157
Si Si6 0.682157 0.455291 0.567811
Si Si7 0.873032 0.408918 0.568879
Si Si8 0.563878 0.978066 0.933495
O O1 0.988327 0.576295 0.250000
O O2 0.933147 0.612426 0.502209
O O3 0.000000 0.500000 0.500000
O O4 0.058832 0.616027 0.465619
O O5 0.605545 0.750000 0.500000
O O6 0.621876 0.677975 0.250000
O O7 0.692168 0.652508 0.475298
O O8 0.582656 0.604560 0.476645
O O9 0.745775 0.589042 0.250000
O O10 0.810897 0.615630 0.493168
O O11 0.724575 0.520295 0.506123
O O12 0.247028 0.828462 0.250000
O O13 0.242358 0.750000 0.000000
O O14 0.290631 0.880830 0.994296
O O15 0.176686 0.866741 0.024790
O O16 0.130879 0.093434 0.750000
O O17 0.130937 0.995893 0.539392
O O18 0.681830 0.456455 0.750000
O O19 0.616528 0.471941 0.501547
O O20 0.862104 0.398998 0.750000
O O21 0.564290 0.982938 0.750000
O O22 0.500000 0.000000 0.000000
#
# Coordination Sequence:
#
# PCOD9434287 Si02
#       8
#     8   8   8   8   8   8   8   8
#     4   9  17  28  44  67  99 133 170 219 274 330
#     4   9  20  36  56  84 117 148 184 225 268 324
#     4  10  19  32  52  79 109 143 182 226 275 326
#     4  12  24  37  55  77 106 145 187 235 287 340
#     4  10  18  28  47  75 105 136 176 224 277 334
#     4  11  21  36  57  82 112 144 182 227 274 327
#     4   9  18  32  48  70 101 135 178 228 278 335
#     4  10  21  39  62  91 120 151 191 229 271 322
#
# _framework density 17.762927999999999
#
# number of rings (size 3 to 8) (size 9 to 14) (size 15 to 20)
#    0.000    2.000    1.250    5.250    0.000    5.500 
#    0.000    0.625    0.000    2.250    0.000    3.500 
#    0.000    0.000    0.000    0.000    0.000    0.000 
#
# Total GULP energy -357178.424918 kJ/mol
# GULP energy per Si atom -5580.912889 kJ/mol
# Density = 1.772250 g / cm^3
# Si number density = 17.762928 Si / 1000 Ang^3
#
#
#
# Elastic Constant Matrix: (Units=GPa)
#
#
# Indices 1 2 3 4 5 6 
#
# 1 158.0592 46.4276 62.3114 0.0000 0.0000 0.0000
# 2 46.4276 74.5018 42.7706 0.0000 0.0000 0.0000
# 3 62.3114 42.7706 94.2254 0.0000 0.0000 0.0000
# 4 0.0000 0.0000 0.0000 23.2515 0.0000 0.0000
# 5 0.0000 0.0000 0.0000 0.0000 35.6726 0.0000
# 6 0.0000 0.0000 0.0000 0.0000 0.0000 12.0105
#
#
#
# Elastic Compliance Matrix: (Units=1/GPa)
#
#
# Indices 1 2 3 4 5 6 
#
# 1 0.009019 -0.002970 -0.004616 0.000000 0.000000 0.000000
# 2 -0.002970 0.019131 -0.006720 0.000000 0.000000 0.000000
# 3 -0.004616 -0.006720 0.016716 0.000000 0.000000 0.000000
# 4 0.000000 0.000000 0.000000 0.043008 0.000000 0.000000
# 5 0.000000 0.000000 0.000000 0.000000 0.028033 0.000000
# 6 0.000000 0.000000 0.000000 0.000000 0.000000 0.083260
#
#
# Mechanical properties :
#
#
# Convention : Reuss Voigt Hill
#
# Bulk Modulus (GPa) = 61.52437 69.97840 65.75139
# Shear Modulus (GPa) = 21.44112 25.87204 23.65658
#
# Velocity S-wave (km/s) = 3.47806 3.82058 3.65334
# Velocity P-wave (km/s) = 7.13027 7.67748 7.40893
#
# Compressibility (1/GPa) = 0.01625372
#
# Stress axis : x y z
#
# Youngs Moduli (GPa) = 110.87695 52.27044 59.82457
#
# Poissons Ratio (x) = 0.15527 0.27615
# Poissons Ratio (y) = 0.32936 0.40200
# Poissons Ratio (z) = 0.51180 0.35124
#
# Static dielectric constant tensor:
#      x y z
#    x 2.115940 0.000000 0.000000 
#    y 0.000000 1.617210 0.000000 
#    z 0.000000 0.000000 1.586640 
# 
# From -- ./inp_files/8469.got.cif
#   From: 2010.05.17/outbox.cif.g08.bks.cpg/sg57_5_cif.got.tgz:8469.got - 2010.06.03 13:58:18.
