data_PCOD9434705
_publ_section_title
;
Structure prediction by ZEFSAII (Michael W. Deem and Ramdas Pophale) SiO2 
 PCOD9434705
Probable space group: P B C M
;
_chemical_formula_sum "Si O2"
_cell_formula_units_Z 64
_cell_length_a 9.567941
_cell_length_b 18.258521
_cell_length_c 14.470582
_cell_angle_alpha 90.000000
_cell_angle_beta 90.000000
_cell_angle_gamma 90.000000
_cell_volume 2527.959329
_symmetry_space_group_name_H-M "P B C M"
_symmetry_group_IT_number 57
_symmetry_cell_setting 'orthorhombic'
loop_
_space_group_symop_operation_xyz
x,y,z
-x,-y,1/2+z
x,1/2-y,-z
-x,1/2+y,1/2-z
-x,-y,-z
x,y,1/2-z
-x,1/2+y,z
x,1/2-y,1/2+z
loop_
_atom_site_type_symbol
_atom_site_label
_atom_site_fract_x
_atom_site_fract_y
_atom_site_fract_z
Si Si1 0.614612 0.596740 0.651581
Si Si2 0.253161 0.941200 0.886705
Si Si3 0.578940 0.295039 0.647395
Si Si4 0.981983 0.617914 0.059479
Si Si5 0.674598 0.467551 0.403619
Si Si6 0.862752 0.252697 0.358203
Si Si7 0.667989 0.866351 0.949541
Si Si8 0.029639 0.918040 0.352736
O O1 0.643161 0.632229 0.750000
O O2 0.691097 0.517978 0.648407
O O3 0.450578 0.577713 0.640902
O O4 0.664493 0.637964 0.560389
O O5 0.335946 0.872067 0.847817
O O6 0.084821 0.933910 0.880043
O O7 0.289440 0.937668 0.995139
O O8 0.537245 0.273401 0.750000
O O9 0.699577 0.240400 0.614146
O O10 0.442176 0.309505 0.589231
O O11 0.065514 0.694076 0.074183
O O12 0.825168 0.637357 0.087659
O O13 0.966983 0.579712 0.957949
O O14 0.623544 0.550967 0.419571
O O15 0.823550 0.462174 0.353945
O O16 0.867556 0.226638 0.250000
O O17 0.930970 0.331632 0.356207
O O18 0.964355 0.929263 0.250000
#
# Coordination Sequence:
#
# PCOD9434705 Si02
#       8
#     8   8   8   8   8   8   8   8
#     4  11  20  33  55  83 124 163 193 236 296 356
#     4   9  17  33  54  80 111 156 198 236 277 349
#     4  10  18  33  60  87 113 150 198 253 298 336
#     4  10  22  37  60  86 122 156 199 244 299 351
#     4  10  19  34  57  88 121 152 188 245 299 349
#     4   9  20  40  65  88 109 151 211 255 292 347
#     4  11  22  37  56  93 128 154 193 244 303 364
#     4  10  21  38  63  87 116 156 205 247 288 355
#
# _framework density 25.316863000000001
#
# number of rings (size 3 to 8) (size 9 to 14) (size 15 to 20)
#    0.000    2.000    2.500    1.875    0.000    6.500 
#    0.000    0.000    5.500    0.000    0.000    0.000 
#    0.000    0.000    0.000    0.000    0.000    0.000 
#
# Total GULP energy -357888.572234 kJ/mol
# GULP energy per Si atom -5592.008941 kJ/mol
# Density = 2.525924 g / cm^3
# Si number density = 25.316863 Si / 1000 Ang^3
#
#
#
# Elastic Constant Matrix: (Units=GPa)
#
#
# Indices 1 2 3 4 5 6 
#
# 1 153.5862 -0.5747 18.0687 0.0000 0.0000 0.0000
# 2 -0.5747 62.1067 9.6137 0.0000 0.0000 0.0000
# 3 18.0687 9.6137 108.4577 0.0000 0.0000 0.0000
# 4 0.0000 0.0000 0.0000 -25.1081 0.0000 0.0000
# 5 0.0000 0.0000 0.0000 0.0000 7.9806 0.0000
# 6 0.0000 0.0000 0.0000 0.0000 0.0000 5.6424
#
#
#
# Elastic Compliance Matrix: (Units=1/GPa)
#
#
# Indices 1 2 3 4 5 6 
#
# 1 0.006645 0.000236 -0.001128 0.000000 0.000000 0.000000
# 2 0.000236 0.016334 -0.001487 0.000000 0.000000 0.000000
# 3 -0.001128 -0.001487 0.009540 0.000000 0.000000 0.000000
# 4 0.000000 0.000000 0.000000 -0.039828 0.000000 0.000000
# 5 0.000000 0.000000 0.000000 0.000000 0.125304 0.000000
# 6 0.000000 0.000000 0.000000 0.000000 0.000000 0.177231
#
#
# Mechanical properties :
#
#
# Convention : Reuss Voigt Hill
#
# Bulk Modulus (GPa) = 36.02271 42.04066 39.03169
# Shear Modulus (GPa) = 16.16885 17.50584 16.83734
#
# Velocity S-wave (km/s) = 2.52991 2.63243 2.58168
# Velocity P-wave (km/s) = 4.77426 5.08738 4.93331
#
# Compressibility (1/GPa) = 0.02776026
#
# Stress axis : x y z
#
# Youngs Moduli (GPa) = 150.49872 61.22307 104.82282
#
# Poissons Ratio (x) = -0.01445 0.11823
# Poissons Ratio (y) = -0.03553 0.15589
# Poissons Ratio (z) = 0.16975 0.09105
#
# Static dielectric constant tensor:
#      x y z
#    x 2.024280 0.000000 0.000000 
#    y 0.000000 2.059540 0.000000 
#    z 0.000000 0.000000 2.006370 
# 
# From -- ./inp_files/16926.got.cif
#   From: 2010.05.17/outbox.cif.g08.bks.cpg/sg57_9_cif.got.tgz:16926.got - 2010.06.03 13:58:18.
