data_PCOD9434058
_publ_section_title
;
Structure prediction by ZEFSAII (Michael W. Deem and Ramdas Pophale) SiO2 
 PCOD9434058
Probable space group: P B C M
;
_chemical_formula_sum "Si O2"
_cell_formula_units_Z 56
_cell_length_a 14.071876
_cell_length_b 29.513169
_cell_length_c 7.785199
_cell_angle_alpha 90.000000
_cell_angle_beta 90.000000
_cell_angle_gamma 90.000000
_cell_volume 3233.237166
_symmetry_space_group_name_H-M "P B C M"
_symmetry_group_IT_number 57
_symmetry_cell_setting 'orthorhombic'
loop_
_space_group_symop_operation_xyz
x,y,z
-x,-y,1/2+z
x,1/2-y,-z
-x,1/2+y,1/2-z
-x,-y,-z
x,y,1/2-z
-x,1/2+y,z
x,1/2-y,1/2+z
loop_
_atom_site_type_symbol
_atom_site_label
_atom_site_fract_x
_atom_site_fract_y
_atom_site_fract_z
Si Si1 0.478216 0.800964 0.957413
Si Si2 0.738216 0.199951 0.047458
Si Si3 0.601357 0.442797 0.041836
Si Si4 0.293768 0.466747 0.539766
Si Si5 0.417110 0.111434 0.449776
Si Si6 0.104354 0.983249 0.043479
Si Si7 0.795620 0.394811 0.044709
O O1 0.474996 0.805337 0.750000
O O2 0.369527 0.805909 0.025431
O O3 0.545922 0.841012 0.024728
O O4 0.509416 0.750000 0.000000
O O5 0.728105 0.198924 0.250000
O O6 0.772665 0.250000 0.000000
O O7 0.803567 0.157725 0.998874
O O8 0.592509 0.441136 0.250000
O O9 0.631332 0.493665 0.992056
O O10 0.691388 0.412009 0.988264
O O11 0.507448 0.422192 0.961179
O O12 0.293394 0.465811 0.750000
O O13 0.330517 0.418175 0.476472
O O14 0.189974 0.483844 0.483488
O O15 0.394410 0.119945 0.250000
O O16 0.111010 0.982590 0.250000
O O17 0.129718 0.932357 0.980667
O O18 0.000000 0.000000 0.000000
O O19 0.795778 0.397901 0.250000
#
# Coordination Sequence:
#
# PCOD9434058 Si02
#       7
#     8   8   8   8   8   8   8
#     4   9  18  28  39  58  84 117 153 184 213 246
#     4  10  18  28  42  63  90 120 155 187 218 258
#     4   9  16  26  40  60  87 119 146 171 210 256
#     4   8  16  29  44  62  87 115 143 175 217 267
#     4  10  17  27  42  61  86 116 149 181 210 249
#     4   9  18  33  50  68  89 116 148 186 233 278
#     4   9  17  29  44  63  90 121 150 181 224 271
#
# _framework density 17.320101999999999
#
# number of rings (size 3 to 8) (size 9 to 14) (size 15 to 20)
#    0.000    2.857    1.429    2.571    0.000    1.714 
#    0.000    2.857    0.000    0.000    0.000    1.000 
#    0.000    4.571    0.000    0.000    0.000    0.000 
#
# Total GULP energy -311971.755040 kJ/mol
# GULP energy per Si atom -5570.924197 kJ/mol
# Density = 1.728068 g / cm^3
# Si number density = 17.320102 Si / 1000 Ang^3
#
#
#
# Elastic Constant Matrix: (Units=GPa)
#
#
# Indices 1 2 3 4 5 6 
#
# 1 72.2501 74.3714 1.6590 0.0000 0.0000 0.0000
# 2 74.3714 154.3167 2.9417 0.0000 0.0000 0.0000
# 3 1.6590 2.9417 22.0223 0.0000 0.0000 0.0000
# 4 0.0000 0.0000 0.0000 12.7384 0.0000 0.0000
# 5 0.0000 0.0000 0.0000 0.0000 10.8682 0.0000
# 6 0.0000 0.0000 0.0000 0.0000 0.0000 36.8996
#
#
#
# Elastic Compliance Matrix: (Units=1/GPa)
#
#
# Indices 1 2 3 4 5 6 
#
# 1 0.027469 -0.013233 -0.000302 0.000000 0.000000 0.000000
# 2 -0.013233 0.012871 -0.000722 0.000000 0.000000 0.000000
# 3 -0.000302 -0.000722 0.045528 0.000000 0.000000 0.000000
# 4 0.000000 0.000000 0.000000 0.078503 0.000000 0.000000
# 5 0.000000 0.000000 0.000000 0.000000 0.092012 0.000000
# 6 0.000000 0.000000 0.000000 0.000000 0.000000 0.027101
#
#
# Mechanical properties :
#
#
# Convention : Reuss Voigt Hill
#
# Bulk Modulus (GPa) = 17.43548 45.17038 31.30293
# Shear Modulus (GPa) = 15.10050 23.40902 19.25476
#
# Velocity S-wave (km/s) = 2.95591 3.68033 3.33783
# Velocity P-wave (km/s) = 4.66244 6.64802 5.74171
#
# Compressibility (1/GPa) = 0.05735431
#
# Stress axis : x y z
#
# Youngs Moduli (GPa) = 36.40484 77.69237 21.96462
#
# Poissons Ratio (x) = 1.02807 0.00663
# Poissons Ratio (y) = 0.48173 0.01587
# Poissons Ratio (z) = 0.01098 0.05613
#
# Static dielectric constant tensor:
#      x y z
#    x 1.576140 0.000000 0.000000 
#    y 0.000000 1.617080 0.000000 
#    z 0.000000 0.000000 1.627050 
# 
# From -- ./inp_files/5878.got.cif
#   From: 2010.05.17/outbox.cif.g08.bks.cpg/sg57_3_cif.got.tgz:5878.got - 2010.06.03 13:58:18.
