data_PCOD9434184
_publ_section_title
;
Structure prediction by ZEFSAII (Michael W. Deem and Ramdas Pophale) SiO2 
 PCOD9434184
Probable space group: P B C M
;
_chemical_formula_sum "Si O2"
_cell_formula_units_Z 40
_cell_length_a 7.567616
_cell_length_b 18.752410
_cell_length_c 14.479652
_cell_angle_alpha 90.000000
_cell_angle_beta 90.000000
_cell_angle_gamma 90.000000
_cell_volume 2054.822445
_symmetry_space_group_name_H-M "P B C M"
_symmetry_group_IT_number 57
_symmetry_cell_setting 'orthorhombic'
loop_
_space_group_symop_operation_xyz
x,y,z
-x,-y,1/2+z
x,1/2-y,-z
-x,1/2+y,1/2-z
-x,-y,-z
x,y,1/2-z
-x,1/2+y,z
x,1/2-y,1/2+z
loop_
_atom_site_type_symbol
_atom_site_label
_atom_site_fract_x
_atom_site_fract_y
_atom_site_fract_z
Si Si1 0.491769 0.389460 0.033819
Si Si2 0.127927 0.169814 0.982930
Si Si3 0.162367 0.605295 0.853992
Si Si4 0.976045 0.539551 0.097845
Si Si5 0.618407 0.467547 0.643408
O O1 0.335683 0.332934 0.038506
O O2 0.677449 0.371336 0.080645
O O3 0.420075 0.457120 0.093038
O O4 0.529719 0.412358 0.928130
O O5 0.016048 0.135918 0.899045
O O6 0.068335 0.250000 0.000000
O O7 0.096979 0.116893 0.070450
O O8 0.187006 0.630197 0.750000
O O9 0.148131 0.518512 0.853095
O O10 0.169666 0.544249 0.141635
O O11 0.000000 0.500000 0.000000
O O12 0.559227 0.466102 0.750000
#
# Coordination Sequence:
#
# PCOD9434184 Si02
#       5
#     8   8   8   8   8
#     4  11  21  38  62  93 126 160 206 260 320 371
#     4  11  24  42  63  86 129 176 205 253 317 379
#     4  11  22  40  69  97 122 162 215 262 314 371
#     4  10  17  38  63  90 120 161 205 261 311 360
#     4  11  20  35  64  95 125 156 205 267 319 371
#
# _framework density 19.466401999999999
#
# number of rings (size 3 to 8) (size 9 to 14) (size 15 to 20)
#    0.000    1.200    8.000    2.400    0.000    1.600 
#    0.000    4.000    0.000    0.000    0.000    0.000 
#    0.000    0.000    0.000    0.000    0.000    0.000 
#
# Total GULP energy -223128.228680 kJ/mol
# GULP energy per Si atom -5578.205717 kJ/mol
# Density = 1.942210 g / cm^3
# Si number density = 19.466402 Si / 1000 Ang^3
#
#
#
# Elastic Constant Matrix: (Units=GPa)
#
#
# Indices 1 2 3 4 5 6 
#
# 1 94.7588 12.2445 26.7170 0.0000 0.0000 0.0000
# 2 12.2445 81.0885 20.2696 0.0000 0.0000 0.0000
# 3 26.7170 20.2696 143.7833 0.0000 0.0000 0.0000
# 4 0.0000 0.0000 0.0000 6.7212 0.0000 0.0000
# 5 0.0000 0.0000 0.0000 0.0000 6.3999 0.0000
# 6 0.0000 0.0000 0.0000 0.0000 0.0000 16.3042
#
#
#
# Elastic Compliance Matrix: (Units=1/GPa)
#
#
# Indices 1 2 3 4 5 6 
#
# 1 0.011252 -0.001219 -0.001919 0.000000 0.000000 0.000000
# 2 -0.001219 0.012915 -0.001594 0.000000 0.000000 0.000000
# 3 -0.001919 -0.001594 0.007536 0.000000 0.000000 0.000000
# 4 0.000000 0.000000 0.000000 0.148783 0.000000 0.000000
# 5 0.000000 0.000000 0.000000 0.000000 0.156252 0.000000
# 6 0.000000 0.000000 0.000000 0.000000 0.000000 0.061334
#
#
# Mechanical properties :
#
#
# Convention : Reuss Voigt Hill
#
# Bulk Modulus (GPa) = 44.96782 48.67698 46.82240
# Shear Modulus (GPa) = 12.04968 23.24503 17.64736
#
# Velocity S-wave (km/s) = 2.49067 3.45934 3.01417
# Velocity P-wave (km/s) = 5.60550 6.40437 6.01820
#
# Compressibility (1/GPa) = 0.02223813
#
# Stress axis : x y z
#
# Youngs Moduli (GPa) = 88.87558 77.43059 132.69328
#
# Poissons Ratio (x) = 0.09442 0.25462
# Poissons Ratio (y) = 0.10837 0.21152
# Poissons Ratio (z) = 0.17054 0.12343
#
# Static dielectric constant tensor:
#      x y z
#    x 1.729640 0.000000 0.000000 
#    y 0.000000 1.701290 0.000000 
#    z 0.000000 0.000000 1.698400 
# 
# From -- ./inp_files/16127.got.cif
#   From: 2010.05.17/outbox.cif.g08.bks.cpg/sg57_9_cif.got.tgz:16127.got - 2010.06.03 13:58:18.
