data_PCOD9434822
_publ_section_title
;
Structure prediction by ZEFSAII (Michael W. Deem and Ramdas Pophale) SiO2 
 PCOD9434822
Probable space group: P B C M
;
_chemical_formula_sum "Si O2"
_cell_formula_units_Z 44
_cell_length_a 9.063737
_cell_length_b 15.472781
_cell_length_c 16.174729
_cell_angle_alpha 90.000000
_cell_angle_beta 90.000000
_cell_angle_gamma 90.000000
_cell_volume 2268.363690
_symmetry_space_group_name_H-M "P B C M"
_symmetry_group_IT_number 57
_symmetry_cell_setting 'orthorhombic'
loop_
_space_group_symop_operation_xyz
x,y,z
-x,-y,1/2+z
x,1/2-y,-z
-x,1/2+y,1/2-z
-x,-y,-z
x,y,1/2-z
-x,1/2+y,z
x,1/2-y,1/2+z
loop_
_atom_site_type_symbol
_atom_site_label
_atom_site_fract_x
_atom_site_fract_y
_atom_site_fract_z
Si Si1 0.269580 0.336349 0.920443
Si Si2 0.535457 0.250000 0.500000
Si Si3 0.210215 0.704381 0.881745
Si Si4 0.262175 0.649107 0.250000
Si Si5 0.111979 0.347899 0.417035
Si Si6 0.606511 0.899777 0.750000
Si Si7 0.236706 0.557164 0.750000
Si Si8 0.097470 0.034300 0.750000
O O1 0.204001 0.240560 0.904183
O O2 0.300116 0.377227 0.831970
O O3 0.429968 0.320832 0.959822
O O4 0.171719 0.380862 0.993150
O O5 0.645443 0.291250 0.435795
O O6 0.208552 0.792585 0.827765
O O7 0.231663 0.621393 0.825760
O O8 0.055895 0.684703 0.925773
O O9 0.441856 0.639830 0.250000
O O10 0.192413 0.553511 0.250000
O O11 0.124206 0.408965 0.334997
O O12 0.614032 0.002996 0.750000
O O13 0.076993 0.510168 0.750000
#
# Coordination Sequence:
#
# PCOD9434822 Si02
#       8
#     8   4   8   4   8   4   4   4
#     4  10  22  37  64  96 123 170 211 257 318 373
#     4  10  18  36  62  88 124 156 212 252 306 390
#     4  10  20  42  63  91 121 168 208 263 311 383
#     4  11  24  38  64  94 127 170 209 254 329 374
#     4   9  20  40  65  93 122 164 215 257 316 371
#     4  12  23  42  56  94 133 166 206 265 313 381
#     4   9  24  40  62  84 127 164 213 252 321 370
#     4  10  21  42  60  94 125 166 214 267 311 373
#
# _framework density 19.397244000000001
#
# number of rings (size 3 to 8) (size 9 to 14) (size 15 to 20)
#    0.000    2.182    1.818    2.182    2.545    2.909 
#    3.273    3.636    0.000    0.000    0.000    0.000 
#    0.000    0.000    0.000    0.000    0.000    0.000 
#
# Total GULP energy -244956.918737 kJ/mol
# GULP energy per Si atom -5567.202699 kJ/mol
# Density = 1.935309 g / cm^3
# Si number density = 19.397244 Si / 1000 Ang^3
#
#
#
# Elastic Constant Matrix: (Units=GPa)
#
#
# Indices 1 2 3 4 5 6 
#
# 1 125.0253 26.9258 66.9275 0.0000 0.0000 0.0000
# 2 26.9258 56.5907 30.6481 0.0000 0.0000 0.0000
# 3 66.9275 30.6481 142.9896 0.0000 0.0000 0.0000
# 4 0.0000 0.0000 0.0000 -40.3766 0.0000 0.0000
# 5 0.0000 0.0000 0.0000 0.0000 59.2079 0.0000
# 6 0.0000 0.0000 0.0000 0.0000 0.0000 25.7417
#
#
#
# Elastic Compliance Matrix: (Units=1/GPa)
#
#
# Indices 1 2 3 4 5 6 
#
# 1 0.011045 -0.002778 -0.004574 0.000000 0.000000 0.000000
# 2 -0.002778 0.020690 -0.003134 0.000000 0.000000 0.000000
# 3 -0.004574 -0.003134 0.009806 0.000000 0.000000 0.000000
# 4 0.000000 0.000000 0.000000 -0.024767 0.000000 0.000000
# 5 0.000000 0.000000 0.000000 0.000000 0.016890 0.000000
# 6 0.000000 0.000000 0.000000 0.000000 0.000000 0.038847
#
#
# Mechanical properties :
#
#
# Convention : Reuss Voigt Hill
#
# Bulk Modulus (GPa) = 48.61877 63.73425 56.17651
# Shear Modulus (GPa) = 49.82964 22.25489 36.04226
#
# Velocity S-wave (km/s) = 5.07393 3.39089 4.31526
# Velocity P-wave (km/s) = 7.71010 6.94691 7.33843
#
# Compressibility (1/GPa) = 0.02056819
#
# Stress axis : x y z
#
# Youngs Moduli (GPa) = 90.53517 48.33252 101.97363
#
# Poissons Ratio (x) = 0.13427 0.46648
# Poissons Ratio (y) = 0.25150 0.31963
# Poissons Ratio (z) = 0.41415 0.15149
#
# Static dielectric constant tensor:
#      x y z
#    x 1.675390 0.000000 0.000000 
#    y 0.000000 1.646070 0.000000 
#    z 0.000000 0.000000 1.728390 
# 
# From -- ./inp_files/20887.got.cif
#   From: 2010.05.17/outbox.cif.g08.bks.cpg/sg57_11_cif.got.tgz:20887.got - 2010.06.03 13:58:18.
