data_PCOD9434667
_publ_section_title
;
Structure prediction by ZEFSAII (Michael W. Deem and Ramdas Pophale) SiO2 
 PCOD9434667
Probable space group: P B C M
;
_chemical_formula_sum "Si O2"
_cell_formula_units_Z 48
_cell_length_a 28.916621
_cell_length_b 8.447785
_cell_length_c 10.195326
_cell_angle_alpha 90.000000
_cell_angle_beta 90.000000
_cell_angle_gamma 90.000000
_cell_volume 2490.528480
_symmetry_space_group_name_H-M "P B C M"
_symmetry_group_IT_number 57
_symmetry_cell_setting 'orthorhombic'
loop_
_space_group_symop_operation_xyz
x,y,z
-x,-y,1/2+z
x,1/2-y,-z
-x,1/2+y,1/2-z
-x,-y,-z
x,y,1/2-z
-x,1/2+y,z
x,1/2-y,1/2+z
loop_
_atom_site_type_symbol
_atom_site_label
_atom_site_fract_x
_atom_site_fract_y
_atom_site_fract_z
Si Si1 0.227686 0.943262 0.991051
Si Si2 0.720059 0.462109 0.250000
Si Si3 0.552315 0.559131 0.003232
Si Si4 0.710535 0.418979 0.750000
Si Si5 0.392130 0.456585 0.250000
Si Si6 0.614070 0.925714 0.750000
Si Si7 0.036006 0.096909 0.592014
Si Si8 0.870215 0.396814 0.598385
O O1 0.262944 0.983422 0.876058
O O2 0.175439 0.987147 0.953634
O O3 0.226148 0.750000 0.000000
O O4 0.249732 0.006989 0.123766
O O5 0.715314 0.271072 0.250000
O O6 0.667689 0.525193 0.250000
O O7 0.584489 0.515856 0.125970
O O8 0.550638 0.750000 0.000000
O O9 0.500000 0.500000 0.000000
O O10 0.578710 0.497887 0.876262
O O11 0.657669 0.466062 0.750000
O O12 0.386622 0.265834 0.250000
O O13 0.043331 0.250000 0.500000
O O14 0.022474 0.123014 0.750000
O O15 0.083929 0.001250 0.598004
O O16 0.000000 0.000000 0.500000
O O17 0.877578 0.250000 0.500000
O O18 0.860928 0.345354 0.750000
#
# Coordination Sequence:
#
# PCOD9434667 Si02
#       8
#     8   4   8   4   4   4   8   8
#     4   9  18  33  53  81 110 141 186 232 281 326
#     4  10  20  33  53  80 106 141 182 232 266 328
#     4  10  21  36  54  75 103 134 172 217 267 327
#     4  10  18  33  55  76 106 139 182 224 266 326
#     4  10  21  35  53  76 102 141 169 214 275 326
#     4  10  21  37  51  76 108 135 175 218 273 332
#     4  11  24  43  64  93 127 165 209 260 312 370
#     4  10  21  37  61  89 121 159 202 248 303 359
#
# _framework density 19.273018
#
# number of rings (size 3 to 8) (size 9 to 14) (size 15 to 20)
#    0.000    2.000    0.833    2.500    3.500    4.000 
#    0.000    1.667    0.000    0.000    0.000    0.000 
#    0.000    0.000    0.000    0.000    0.000    0.000 
#
# Total GULP energy -267677.955603 kJ/mol
# GULP energy per Si atom -5576.624075 kJ/mol
# Density = 1.922915 g / cm^3
# Si number density = 19.273018 Si / 1000 Ang^3
#
#
#
# Elastic Constant Matrix: (Units=GPa)
#
#
# Indices 1 2 3 4 5 6 
#
# 1 169.3770 23.1302 94.3331 0.0000 0.0000 0.0000
# 2 23.1302 19.7450 34.0934 0.0000 0.0000 0.0000
# 3 94.3331 34.0934 214.0772 0.0000 0.0000 0.0000
# 4 0.0000 0.0000 0.0000 -5.7625 0.0000 0.0000
# 5 0.0000 0.0000 0.0000 0.0000 41.3420 0.0000
# 6 0.0000 0.0000 0.0000 0.0000 0.0000 29.1161
#
#
#
# Elastic Compliance Matrix: (Units=1/GPa)
#
#
# Indices 1 2 3 4 5 6 
#
# 1 0.008116 -0.004596 -0.002844 0.000000 0.000000 0.000000
# 2 -0.004596 0.072458 -0.009514 0.000000 0.000000 0.000000
# 3 -0.002844 -0.009514 0.007440 0.000000 0.000000 0.000000
# 4 0.000000 0.000000 0.000000 -0.173537 0.000000 0.000000
# 5 0.000000 0.000000 0.000000 0.000000 0.024188 0.000000
# 6 0.000000 0.000000 0.000000 0.000000 0.000000 0.034345
#
#
# Mechanical properties :
#
#
# Convention : Reuss Voigt Hill
#
# Bulk Modulus (GPa) = 18.48277 78.47919 48.48098
# Shear Modulus (GPa) = 200.36631 29.71529 115.04080
#
# Velocity S-wave (km/s) = 10.20724 3.93085 7.73432
# Velocity P-wave (km/s) = 12.18720 7.83647 10.24544
#
# Compressibility (1/GPa) = 0.05410444
#
# Stress axis : x y z
#
# Youngs Moduli (GPa) = 123.21811 13.80109 134.41330
#
# Poissons Ratio (x) = 0.06343 0.38230
# Poissons Ratio (y) = 0.56631 1.27884
# Poissons Ratio (z) = 0.35046 0.13131
#
# Static dielectric constant tensor:
#      x y z
#    x 1.656140 0.000000 0.000000 
#    y 0.000000 1.685980 0.000000 
#    z 0.000000 0.000000 1.381770 
# 
# From -- ./inp_files/10229.got.cif
#   From: 2010.05.17/outbox.cif.g08.bks.cpg/sg57_6_cif.got.tgz:10229.got - 2010.06.03 13:58:18.
