data_PCOD9434574
_publ_section_title
;
Structure prediction by ZEFSAII (Michael W. Deem and Ramdas Pophale) SiO2 
 PCOD9434574
Probable space group: P B C M
;
_chemical_formula_sum "Si O2"
_cell_formula_units_Z 56
_cell_length_a 9.080839
_cell_length_b 15.344166
_cell_length_c 22.692257
_cell_angle_alpha 90.000000
_cell_angle_beta 90.000000
_cell_angle_gamma 90.000000
_cell_volume 3161.891460
_symmetry_space_group_name_H-M "P B C M"
_symmetry_group_IT_number 57
_symmetry_cell_setting 'orthorhombic'
loop_
_space_group_symop_operation_xyz
x,y,z
-x,-y,1/2+z
x,1/2-y,-z
-x,1/2+y,1/2-z
-x,-y,-z
x,y,1/2-z
-x,1/2+y,z
x,1/2-y,1/2+z
loop_
_atom_site_type_symbol
_atom_site_label
_atom_site_fract_x
_atom_site_fract_y
_atom_site_fract_z
Si Si1 0.516515 0.883487 0.097918
Si Si2 0.608805 0.032666 0.181785
Si Si3 0.114991 0.548439 0.099072
Si Si4 0.852248 0.868648 0.051617
Si Si5 0.325572 0.848471 0.987435
Si Si6 0.131704 0.323445 0.585770
Si Si7 0.535165 0.687976 0.121992
O O1 0.679121 0.880375 0.067952
O O2 0.502414 0.790121 0.129656
O O3 0.517975 0.962867 0.143031
O O4 0.394504 0.888346 0.046667
O O5 0.613685 0.009770 0.250000
O O6 0.770103 0.035570 0.152126
O O7 0.535815 0.126440 0.170566
O O8 0.066316 0.453822 0.075888
O O9 0.205182 0.593279 0.045121
O O10 0.986609 0.614587 0.115984
O O11 0.907619 0.778954 0.080948
O O12 0.860245 0.857037 0.981697
O O13 0.458034 0.836988 0.940311
O O14 0.270056 0.750000 0.000000
O O15 0.291749 0.327279 0.614946
#
# Coordination Sequence:
#
# PCOD9434574 Si02
#       7
#     8   8   8   8   8   8   8
#     4   9  17  33  55  78 103 138 167 213 259 311
#     4  10  22  37  53  73  99 137 185 222 251 296
#     4  10  21  32  51  77 105 140 164 210 265 305
#     4   9  18  30  50  75 111 135 162 197 254 323
#     4   9  17  30  50  80 112 134 164 200 263 322
#     4  10  18  32  49  77 109 134 161 204 254 322
#     4   9  18  33  54  77 105 136 167 212 258 311
#
# _framework density 17.710919000000001
#
# number of rings (size 3 to 8) (size 9 to 14) (size 15 to 20)
#    0.000    2.571    1.429    0.429    4.000    2.286 
#    0.000    0.714    0.000    3.429    0.000    0.000 
#    0.000    0.000    0.000    0.000    0.000    0.000 
#
# Total GULP energy -312445.649086 kJ/mol
# GULP energy per Si atom -5579.386591 kJ/mol
# Density = 1.767061 g / cm^3
# Si number density = 17.710919 Si / 1000 Ang^3
#
#
#
# Elastic Constant Matrix: (Units=GPa)
#
#
# Indices 1 2 3 4 5 6 
#
# 1 29.1875 16.0222 -3.7804 0.0000 0.0000 0.0000
# 2 16.0222 68.8269 18.1342 0.0000 0.0000 0.0000
# 3 -3.7804 18.1342 58.5430 0.0000 0.0000 0.0000
# 4 0.0000 0.0000 0.0000 13.0545 0.0000 0.0000
# 5 0.0000 0.0000 0.0000 0.0000 7.8211 0.0000
# 6 0.0000 0.0000 0.0000 0.0000 0.0000 27.6353
#
#
#
# Elastic Compliance Matrix: (Units=1/GPa)
#
#
# Indices 1 2 3 4 5 6 
#
# 1 0.041209 -0.011209 0.006133 0.000000 0.000000 0.000000
# 2 -0.011209 0.018869 -0.006569 0.000000 0.000000 0.000000
# 3 0.006133 -0.006569 0.019512 0.000000 0.000000 0.000000
# 4 0.000000 0.000000 0.000000 0.076602 0.000000 0.000000
# 5 0.000000 0.000000 0.000000 0.000000 0.127858 0.000000
# 6 0.000000 0.000000 0.000000 0.000000 0.000000 0.036186
#
#
# Mechanical properties :
#
#
# Convention : Reuss Voigt Hill
#
# Bulk Modulus (GPa) = 17.76166 24.14550 20.95358
# Shear Modulus (GPa) = 13.80103 18.11428 15.95765
#
# Velocity S-wave (km/s) = 2.79451 3.20155 3.00493
# Velocity P-wave (km/s) = 4.52359 5.22774 4.88836
#
# Compressibility (1/GPa) = 0.05630103
#
# Stress axis : x y z
#
# Youngs Moduli (GPa) = 24.26675 52.99641 51.24996
#
# Poissons Ratio (x) = 0.59403 -0.31432
# Poissons Ratio (y) = 0.27200 0.33665
# Poissons Ratio (z) = -0.14883 0.34812
#
# Static dielectric constant tensor:
#      x y z
#    x 1.614020 0.000000 0.000000 
#    y 0.000000 1.642580 0.000000 
#    z 0.000000 0.000000 1.564430 
# 
# From -- ./inp_files/24400.got.cif
#   From: 2010.05.17/outbox.cif.g08.bks.cpg/sg57_13_cif.got.tgz:24400.got - 2010.06.03 13:58:18.
