data_PCOD9434921
_publ_section_title
;
Structure prediction by ZEFSAII (Michael W. Deem and Ramdas Pophale) SiO2 
 PCOD9434921
Probable space group: P B C M
;
_chemical_formula_sum "Si O2"
_cell_formula_units_Z 64
_cell_length_a 20.002461
_cell_length_b 22.463846
_cell_length_c 7.500355
_cell_angle_alpha 90.000000
_cell_angle_beta 90.000000
_cell_angle_gamma 90.000000
_cell_volume 3370.151039
_symmetry_space_group_name_H-M "P B C M"
_symmetry_group_IT_number 57
_symmetry_cell_setting 'orthorhombic'
loop_
_space_group_symop_operation_xyz
x,y,z
-x,-y,1/2+z
x,1/2-y,-z
-x,1/2+y,1/2-z
-x,-y,-z
x,y,1/2-z
-x,1/2+y,z
x,1/2-y,1/2+z
loop_
_atom_site_type_symbol
_atom_site_label
_atom_site_fract_x
_atom_site_fract_y
_atom_site_fract_z
Si Si1 0.028282 0.318446 0.463281
Si Si2 0.460043 0.561235 0.536598
Si Si3 0.838648 0.877974 0.033522
Si Si4 0.413504 0.120962 0.540592
Si Si5 0.708497 0.683772 0.536993
Si Si6 0.820614 0.488819 0.457302
Si Si7 0.043603 0.560125 0.965005
Si Si8 0.331339 0.000155 0.033146
O O1 0.008087 0.250000 0.500000
O O2 0.027979 0.323076 0.250000
O O3 0.104174 0.332225 0.524425
O O4 0.987037 0.376688 0.528386
O O5 0.500000 0.500000 0.500000
O O6 0.455869 0.568482 0.750000
O O7 0.512827 0.609354 0.463899
O O8 0.384345 0.550759 0.474251
O O9 0.838231 0.878987 0.250000
O O10 0.765751 0.859347 0.967335
O O11 0.850248 0.944650 0.970315
O O12 0.423854 0.132577 0.750000
O O13 0.365083 0.170932 0.463200
O O14 0.366889 0.061654 0.525670
O O15 0.730402 0.750000 0.500000
O O16 0.705576 0.675229 0.750000
O O17 0.812635 0.472433 0.250000
O O18 0.880441 0.448850 0.533384
O O19 0.744731 0.491264 0.531419
O O20 0.046545 0.563509 0.750000
O O21 0.000000 0.500000 0.000000
O O22 0.330331 0.002058 0.250000
#
# Coordination Sequence:
#
# PCOD9434921 Si02
#       8
#     8   8   8   8   8   8   8   8
#     4  10  21  35  51  70  93 122 159 199 237 280
#     4   8  14  24  39  59  83 109 137 170 208 252
#     4  10  19  32  47  65  91 123 156 189 227 274
#     4   9  16  27  42  59  82 114 148 181 217 259
#     4  10  20  30  41  59  85 118 156 191 223 263
#     4  10  19  29  46  71  96 123 152 185 230 281
#     4  10  20  34  51  72  97 124 156 195 238 286
#     4   9  16  26  41  64  90 113 140 175 217 265
#
# _framework density 18.990247
#
# number of rings (size 3 to 8) (size 9 to 14) (size 15 to 20)
#    0.000    2.500    2.500    0.375    0.000    2.000 
#    0.000    0.000    0.000    0.000    0.000    0.875 
#    0.000    0.000    0.000    0.000    0.000    0.000 
#
# Total GULP energy -356328.691258 kJ/mol
# GULP energy per Si atom -5567.635801 kJ/mol
# Density = 1.894702 g / cm^3
# Si number density = 18.990247 Si / 1000 Ang^3
#
#
#
# Elastic Constant Matrix: (Units=GPa)
#
#
# Indices 1 2 3 4 5 6 
#
# 1 102.9008 38.6595 -3.8413 0.0000 0.0000 0.0000
# 2 38.6595 72.4121 -5.2794 0.0000 0.0000 0.0000
# 3 -3.8413 -5.2794 53.0399 0.0000 0.0000 0.0000
# 4 0.0000 0.0000 0.0000 12.4700 0.0000 0.0000
# 5 0.0000 0.0000 0.0000 0.0000 0.3329 0.0000
# 6 0.0000 0.0000 0.0000 0.0000 0.0000 25.0323
#
#
#
# Elastic Compliance Matrix: (Units=1/GPa)
#
#
# Indices 1 2 3 4 5 6 
#
# 1 0.012159 -0.006474 0.000236 0.000000 0.000000 0.000000
# 2 -0.006474 0.017358 0.001259 0.000000 0.000000 0.000000
# 3 0.000236 0.001259 0.018996 0.000000 0.000000 0.000000
# 4 0.000000 0.000000 0.000000 0.080193 0.000000 0.000000
# 5 0.000000 0.000000 0.000000 0.000000 3.004353 0.000000
# 6 0.000000 0.000000 0.000000 0.000000 0.000000 0.039948
#
#
# Mechanical properties :
#
#
# Convention : Reuss Voigt Hill
#
# Bulk Modulus (GPa) = 25.93703 31.93671 28.93687
# Shear Modulus (GPa) = 1.56454 20.82129 11.19292
#
# Velocity S-wave (km/s) = 0.90866 3.31482 2.43040
# Velocity P-wave (km/s) = 3.84560 5.61290 4.81109
#
# Compressibility (1/GPa) = 0.03855491
#
# Stress axis : x y z
#
# Youngs Moduli (GPa) = 82.24135 57.60961 52.64232
#
# Poissons Ratio (x) = 0.37299 -0.01243
# Poissons Ratio (y) = 0.53247 -0.06627
# Poissons Ratio (z) = -0.01942 -0.07252
#
# Static dielectric constant tensor:
#      x y z
#    x 1.737710 0.000000 0.000000 
#    y 0.000000 1.673820 0.000000 
#    z 0.000000 0.000000 1.999870 
# 
# From -- ./inp_files/8687.got.cif
#   From: 2010.05.17/outbox.cif.g08.bks.cpg/sg57_5_cif.got.tgz:8687.got - 2010.06.03 13:58:18.
