data_PCOD9434808
_publ_section_title
;
Structure prediction by ZEFSAII (Michael W. Deem and Ramdas Pophale) SiO2 
 PCOD9434808
Probable space group: P B C M
;
_chemical_formula_sum "Si O2"
_cell_formula_units_Z 32
_cell_length_a 19.258551
_cell_length_b 8.988093
_cell_length_c 9.272252
_cell_angle_alpha 90.000000
_cell_angle_beta 90.000000
_cell_angle_gamma 90.000000
_cell_volume 1605.005008
_symmetry_space_group_name_H-M "P B C M"
_symmetry_group_IT_number 57
_symmetry_cell_setting 'orthorhombic'
loop_
_space_group_symop_operation_xyz
x,y,z
-x,-y,1/2+z
x,1/2-y,-z
-x,1/2+y,1/2-z
-x,-y,-z
x,y,1/2-z
-x,1/2+y,z
x,1/2-y,1/2+z
loop_
_atom_site_type_symbol
_atom_site_label
_atom_site_fract_x
_atom_site_fract_y
_atom_site_fract_z
Si Si1 0.094066 0.999925 0.250000
Si Si2 0.051394 0.649198 0.250000
Si Si3 0.436787 0.089256 0.426272
Si Si4 0.163408 0.926443 0.972603
Si Si5 0.681758 0.091141 0.082223
O O1 0.065453 0.827364 0.250000
O O2 0.143642 0.014933 0.386091
O O3 0.028754 0.108335 0.250000
O O4 0.093202 0.573482 0.119750
O O5 0.439846 0.250000 0.500000
O O6 0.440318 0.091750 0.250000
O O7 0.500000 0.000000 0.500000
O O8 0.366834 0.012845 0.485860
O O9 0.238705 0.968102 0.913838
O O10 0.171846 0.750000 0.000000
O O11 0.658397 0.105074 0.250000
O O12 0.680116 0.250000 0.000000
#
# Coordination Sequence:
#
# PCOD9434808 Si02
#       5
#     4   4   8   8   8
#     4  10  20  32  56  76 113 146 203 248 313 366
#     4  10  18  36  50  82 107 154 193 256 303 372
#     4  12  26  46  70  98 134 170 209 253 306 364
#     4   9  19  33  56  81 113 152 203 251 304 368
#     4  11  22  39  65  95 126 164 214 262 315 373
#
# _framework density 19.937632000000001
#
# number of rings (size 3 to 8) (size 9 to 14) (size 15 to 20)
#    0.000    1.500    1.250    4.500    7.000    0.000 
#    0.000    2.500    0.000    0.000    0.000    0.000 
#    0.000    0.000    0.000    0.000    0.000    0.000 
#
# Total GULP energy -178362.717387 kJ/mol
# GULP energy per Si atom -5573.834918 kJ/mol
# Density = 1.989225 g / cm^3
# Si number density = 19.937632 Si / 1000 Ang^3
#
#
#
# Elastic Constant Matrix: (Units=GPa)
#
#
# Indices 1 2 3 4 5 6 
#
# 1 110.8499 42.2928 42.3708 0.0000 0.0000 0.0000
# 2 42.2928 73.3156 36.2934 0.0000 0.0000 0.0000
# 3 42.3708 36.2934 173.5433 0.0000 0.0000 0.0000
# 4 0.0000 0.0000 0.0000 21.9874 0.0000 0.0000
# 5 0.0000 0.0000 0.0000 0.0000 106.2755 0.0000
# 6 0.0000 0.0000 0.0000 0.0000 0.0000 14.0648
#
#
#
# Elastic Compliance Matrix: (Units=1/GPa)
#
#
# Indices 1 2 3 4 5 6 
#
# 1 0.011976 -0.006092 -0.001650 0.000000 0.000000 0.000000
# 2 -0.006092 0.018313 -0.002343 0.000000 0.000000 0.000000
# 3 -0.001650 -0.002343 0.006655 0.000000 0.000000 0.000000
# 4 0.000000 0.000000 0.000000 0.045481 0.000000 0.000000
# 5 0.000000 0.000000 0.000000 0.000000 0.009410 0.000000
# 6 0.000000 0.000000 0.000000 0.000000 0.000000 0.071099
#
#
# Mechanical properties :
#
#
# Convention : Reuss Voigt Hill
#
# Bulk Modulus (GPa) = 59.60959 66.62477 63.11718
# Shear Modulus (GPa) = 26.49783 44.24899 35.37341
#
# Velocity S-wave (km/s) = 3.64955 4.71613 4.21670
# Velocity P-wave (km/s) = 6.90810 7.94638 7.44536
#
# Compressibility (1/GPa) = 0.01677582
#
# Stress axis : x y z
#
# Youngs Moduli (GPa) = 83.49980 54.60491 150.26261
#
# Poissons Ratio (x) = 0.33264 0.24793
# Poissons Ratio (y) = 0.50866 0.35201
# Poissons Ratio (z) = 0.13778 0.12792
#
# Static dielectric constant tensor:
#      x y z
#    x 1.696090 0.000000 0.000000 
#    y 0.000000 1.704880 0.000000 
#    z 0.000000 0.000000 1.716490 
# 
# From -- ./inp_files/7555.got.cif
#   From: 2010.05.17/outbox.cif.g08.bks.cpg/sg57_4_cif.got.tgz:7555.got - 2010.06.03 13:58:18.
