data_PCOD9434261
_publ_section_title
;
Structure prediction by ZEFSAII (Michael W. Deem and Ramdas Pophale) SiO2 
 PCOD9434261
Probable space group: P B C M
;
_chemical_formula_sum "Si O2"
_cell_formula_units_Z 64
_cell_length_a 14.243138
_cell_length_b 29.899285
_cell_length_c 9.453421
_cell_angle_alpha 90.000000
_cell_angle_beta 90.000000
_cell_angle_gamma 90.000000
_cell_volume 4025.830486
_symmetry_space_group_name_H-M "P B C M"
_symmetry_group_IT_number 57
_symmetry_cell_setting 'orthorhombic'
loop_
_space_group_symop_operation_xyz
x,y,z
-x,-y,1/2+z
x,1/2-y,-z
-x,1/2+y,1/2-z
-x,-y,-z
x,y,1/2-z
-x,1/2+y,z
x,1/2-y,1/2+z
loop_
_atom_site_type_symbol
_atom_site_label
_atom_site_fract_x
_atom_site_fract_y
_atom_site_fract_z
Si Si1 0.867919 0.120281 0.581597
Si Si2 0.719337 0.428950 0.917795
Si Si3 0.678650 0.597416 0.087860
Si Si4 0.494112 0.952700 0.919556
Si Si5 0.999557 0.795916 0.079132
Si Si6 0.825699 0.853469 0.088317
Si Si7 0.811584 0.509693 0.412382
Si Si8 0.958630 0.941973 0.088727
O O1 0.849713 0.120368 0.750000
O O2 0.774824 0.111296 0.492673
O O3 0.923739 0.165677 0.546529
O O4 0.940395 0.079150 0.553669
O O5 0.736343 0.429111 0.750000
O O6 0.607782 0.430956 0.941956
O O7 0.762061 0.473246 0.990043
O O8 0.667645 0.612003 0.250000
O O9 0.578258 0.580016 0.033786
O O10 0.744989 0.553392 0.087232
O O11 0.734184 0.634760 0.000968
O O12 0.506014 0.960531 0.750000
O O13 0.500000 0.000000 0.000000
O O14 0.998714 0.790769 0.250000
O O15 0.897131 0.815316 0.036251
O O16 0.019190 0.750000 0.000000
O O17 0.799839 0.843672 0.250000
O O18 0.890337 0.898278 0.090359
O O19 0.819901 0.494384 0.250000
O O20 0.910797 0.524851 0.477844
O O21 0.958692 0.959673 0.250000
#
# Coordination Sequence:
#
# PCOD9434261 Si02
#       8
#     8   8   8   8   8   8   8   8
#     4   9  19  35  50  66  94 127 157 193 236 283
#     4  11  22  32  45  65  91 125 165 206 242 279
#     4   9  17  29  45  66  92 122 159 200 241 281
#     4  10  20  33  47  66  92 124 166 211 249 283
#     4   9  18  33  54  79 103 126 151 184 230 287
#     4   8  15  28  46  70  97 122 150 185 229 281
#     4  10  18  28  44  64  88 122 161 201 241 279
#     4   8  15  29  46  62  86 121 158 194 231 274
#
# _framework density 15.897341000000001
#
# number of rings (size 3 to 8) (size 9 to 14) (size 15 to 20)
#    0.000    2.750    1.250    2.250    0.000    3.500 
#    0.000    2.500    0.000    0.000    0.000    0.875 
#    0.000    0.000    0.000    0.000    0.000    0.000 
#
# Total GULP energy -356778.264787 kJ/mol
# GULP energy per Si atom -5574.660387 kJ/mol
# Density = 1.586116 g / cm^3
# Si number density = 15.897341 Si / 1000 Ang^3
#
#
#
# Elastic Constant Matrix: (Units=GPa)
#
#
# Indices 1 2 3 4 5 6 
#
# 1 113.7530 37.3185 56.5885 0.0000 0.0000 0.0000
# 2 37.3185 68.4385 36.4209 0.0000 0.0000 0.0000
# 3 56.5885 36.4209 58.0280 0.0000 0.0000 0.0000
# 4 0.0000 0.0000 0.0000 24.5910 0.0000 0.0000
# 5 0.0000 0.0000 0.0000 0.0000 24.5343 0.0000
# 6 0.0000 0.0000 0.0000 0.0000 0.0000 17.5019
#
#
#
# Elastic Compliance Matrix: (Units=1/GPa)
#
#
# Indices 1 2 3 4 5 6 
#
# 1 0.017095 -0.000676 -0.016247 0.000000 0.000000 0.000000
# 2 -0.000676 0.021967 -0.013128 0.000000 0.000000 0.000000
# 3 -0.016247 -0.013128 0.041317 0.000000 0.000000 0.000000
# 4 0.000000 0.000000 0.000000 0.040665 0.000000 0.000000
# 5 0.000000 0.000000 0.000000 0.000000 0.040759 0.000000
# 6 0.000000 0.000000 0.000000 0.000000 0.000000 0.057137
#
#
# Mechanical properties :
#
#
# Convention : Reuss Voigt Hill
#
# Bulk Modulus (GPa) = 49.31754 55.65280 52.48517
# Shear Modulus (GPa) = 17.49475 20.65154 19.07315
#
# Velocity S-wave (km/s) = 3.32095 3.60815 3.46753
# Velocity P-wave (km/s) = 6.76719 7.24168 7.00845
#
# Compressibility (1/GPa) = 0.02027676
#
# Stress axis : x y z
#
# Youngs Moduli (GPa) = 58.49704 45.52380 24.20319
#
# Poissons Ratio (x) = 0.03075 0.39323
# Poissons Ratio (y) = 0.03952 0.31775
# Poissons Ratio (z) = 0.95039 0.59765
#
# Static dielectric constant tensor:
#      x y z
#    x 1.550280 0.000000 0.000000 
#    y 0.000000 1.524950 0.000000 
#    z 0.000000 0.000000 1.534500 
# 
# From -- ./inp_files/6079.got.cif
#   From: 2010.05.17/outbox.cif.g08.bks.cpg/sg57_4_cif.got.tgz:6079.got - 2010.06.03 13:58:18.
