data_PCOD9434301
_publ_section_title
;
Structure prediction by ZEFSAII (Michael W. Deem and Ramdas Pophale) SiO2 
 PCOD9434301
Probable space group: P B C M
;
_chemical_formula_sum "Si O2"
_cell_formula_units_Z 56
_cell_length_a 18.275298
_cell_length_b 21.724950
_cell_length_c 9.144687
_cell_angle_alpha 90.000000
_cell_angle_beta 90.000000
_cell_angle_gamma 90.000000
_cell_volume 3630.714488
_symmetry_space_group_name_H-M "P B C M"
_symmetry_group_IT_number 57
_symmetry_cell_setting 'orthorhombic'
loop_
_space_group_symop_operation_xyz
x,y,z
-x,-y,1/2+z
x,1/2-y,-z
-x,1/2+y,1/2-z
-x,-y,-z
x,y,1/2-z
-x,1/2+y,z
x,1/2-y,1/2+z
loop_
_atom_site_type_symbol
_atom_site_label
_atom_site_fract_x
_atom_site_fract_y
_atom_site_fract_z
Si Si1 0.559066 0.583407 0.918498
Si Si2 0.894669 0.460197 0.425877
Si Si3 0.949886 0.584401 0.924824
Si Si4 0.586175 0.435225 0.582002
Si Si5 0.706712 0.603155 0.422476
Si Si6 0.267641 0.543608 0.922538
Si Si7 0.168724 0.316207 0.425396
O O1 0.561762 0.603433 0.750000
O O2 0.571808 0.509232 0.919750
O O3 0.480004 0.593884 0.990200
O O4 0.625505 0.610872 0.012127
O O5 0.892050 0.467584 0.250000
O O6 0.913038 0.526213 0.495928
O O7 0.814081 0.438410 0.471281
O O8 0.963947 0.417128 0.462299
O O9 0.943950 0.574756 0.750000
O O10 0.905120 0.645569 0.960472
O O11 0.584113 0.415197 0.750000
O O12 0.665659 0.427004 0.510831
O O13 0.708749 0.617364 0.250000
O O14 0.726844 0.530736 0.439188
O O15 0.764410 0.643952 0.510346
O O16 0.276798 0.556698 0.750000
O O17 0.167882 0.250000 0.500000
O O18 0.175190 0.311114 0.250000
#
# Coordination Sequence:
#
# PCOD9434301 Si02
#       7
#     8   8   8   8   8   8   8
#     4   9  16  26  39  56  81 113 146 178 211 253
#     4   9  16  28  45  65  88 115 145 181 224 274
#     4   9  18  30  45  64  86 112 147 186 226 270
#     4   9  16  24  36  56  83 114 146 177 209 248
#     4  10  18  29  44  62  84 113 148 183 221 265
#     4   9  16  25  40  61  87 116 144 175 217 269
#     4  11  22  34  47  64  87 117 153 192 230 268
#
# _framework density 15.423961
#
# number of rings (size 3 to 8) (size 9 to 14) (size 15 to 20)
#    0.000    2.571    1.429    1.714    0.000    5.143 
#    0.000    0.000    0.000    0.000    0.000    0.000 
#    0.000    1.143    0.000    8.000    0.000    4.143 
#
# Total GULP energy -311997.092620 kJ/mol
# GULP energy per Si atom -5571.376654 kJ/mol
# Density = 1.538886 g / cm^3
# Si number density = 15.423961 Si / 1000 Ang^3
#
#
#
# Elastic Constant Matrix: (Units=GPa)
#
#
# Indices 1 2 3 4 5 6 
#
# 1 151.9615 23.6839 56.1347 0.0000 0.0000 0.0000
# 2 23.6839 31.4666 24.0678 0.0000 0.0000 0.0000
# 3 56.1347 24.0678 70.5831 0.0000 0.0000 0.0000
# 4 0.0000 0.0000 0.0000 13.9893 0.0000 0.0000
# 5 0.0000 0.0000 0.0000 0.0000 25.3307 0.0000
# 6 0.0000 0.0000 0.0000 0.0000 0.0000 7.5076
#
#
#
# Elastic Compliance Matrix: (Units=1/GPa)
#
#
# Indices 1 2 3 4 5 6 
#
# 1 0.009396 -0.001835 -0.006847 0.000000 0.000000 0.000000
# 2 -0.001835 0.043351 -0.013323 0.000000 0.000000 0.000000
# 3 -0.006847 -0.013323 0.024156 0.000000 0.000000 0.000000
# 4 0.000000 0.000000 0.000000 0.071483 0.000000 0.000000
# 5 0.000000 0.000000 0.000000 0.000000 0.039478 0.000000
# 6 0.000000 0.000000 0.000000 0.000000 0.000000 0.133198
#
#
# Mechanical properties :
#
#
# Convention : Reuss Voigt Hill
#
# Bulk Modulus (GPa) = 30.40099 51.30933 40.85516
# Shear Modulus (GPa) = 13.29665 19.37386 16.33525
#
# Velocity S-wave (km/s) = 2.93930 3.54798 3.25789
# Velocity P-wave (km/s) = 5.59217 7.07972 6.37945
#
# Compressibility (1/GPa) = 0.03289367
#
# Stress axis : x y z
#
# Youngs Moduli (GPa) = 106.43046 23.06750 41.39804
#
# Poissons Ratio (x) = 0.04233 0.28344
# Poissons Ratio (y) = 0.19531 0.55153
# Poissons Ratio (z) = 0.72870 0.30732
#
# Static dielectric constant tensor:
#      x y z
#    x 1.535540 0.000000 0.000000 
#    y 0.000000 1.472750 0.000000 
#    z 0.000000 0.000000 1.514020 
# 
# From -- ./inp_files/7060.got.cif
#   From: 2010.05.17/outbox.cif.g08.bks.cpg/sg57_4_cif.got.tgz:7060.got - 2010.06.03 13:58:18.
