data_PCOD9434270
_publ_section_title
;
Structure prediction by ZEFSAII (Michael W. Deem and Ramdas Pophale) SiO2 
 PCOD9434270
Probable space group: P B C M
;
_chemical_formula_sum "Si O2"
_cell_formula_units_Z 56
_cell_length_a 18.090024
_cell_length_b 21.795011
_cell_length_c 9.464911
_cell_angle_alpha 90.000000
_cell_angle_beta 90.000000
_cell_angle_gamma 90.000000
_cell_volume 3731.751965
_symmetry_space_group_name_H-M "P B C M"
_symmetry_group_IT_number 57
_symmetry_cell_setting 'orthorhombic'
loop_
_space_group_symop_operation_xyz
x,y,z
-x,-y,1/2+z
x,1/2-y,-z
-x,1/2+y,1/2-z
-x,-y,-z
x,y,1/2-z
-x,1/2+y,z
x,1/2-y,1/2+z
loop_
_atom_site_type_symbol
_atom_site_label
_atom_site_fract_x
_atom_site_fract_y
_atom_site_fract_z
Si Si1 0.784091 0.890991 0.919004
Si Si2 0.534840 0.912696 0.414776
Si Si3 0.337810 0.186393 0.918586
Si Si4 0.603059 0.452215 0.916986
Si Si5 0.086504 0.562331 0.586587
Si Si6 0.751331 0.035779 0.581295
Si Si7 0.052355 0.415796 0.913055
O O1 0.777125 0.878665 0.750000
O O2 0.870635 0.885103 0.959161
O O3 0.761499 0.962355 0.939832
O O4 0.731495 0.848631 0.011442
O O5 0.511893 0.912584 0.250000
O O6 0.590810 0.857077 0.439381
O O7 0.463329 0.913703 0.513727
O O8 0.579070 0.976461 0.438526
O O9 0.327469 0.194758 0.750000
O O10 0.347671 0.250000 0.000000
O O11 0.609054 0.441485 0.750000
O O12 0.680342 0.442506 0.995761
O O13 0.083493 0.580783 0.750000
O O14 0.171260 0.567231 0.536738
O O15 0.069142 0.489109 0.581865
O O16 0.021607 0.594931 0.501026
O O17 0.742149 0.044948 0.750000
O O18 0.039718 0.399908 0.750000
#
# Coordination Sequence:
#
# PCOD9434270 Si02
#       7
#     8   8   8   8   8   8   8
#     4   9  17  29  44  61  84 116 151 184 222 263
#     4   9  19  33  45  62  87 114 146 183 227 273
#     4  11  22  35  49  66  88 115 151 190 228 270
#     4  10  18  28  45  67  88 113 149 186 222 271
#     4   8  14  23  35  55  82 114 146 173 207 250
#     4   9  16  26  41  61  89 120 148 180 220 265
#     4   8  14  24  37  55  80 111 145 178 210 247
#
# _framework density 15.006356
#
# number of rings (size 3 to 8) (size 9 to 14) (size 15 to 20)
#    0.000    2.857    1.429    2.571    0.000    2.857 
#    0.000    2.857    0.000    0.000    0.000    0.000 
#    0.000    1.143    0.000    6.286    0.000    5.000 
#
# Total GULP energy -311827.479391 kJ/mol
# GULP energy per Si atom -5568.347846 kJ/mol
# Density = 1.497220 g / cm^3
# Si number density = 15.006356 Si / 1000 Ang^3
#
#
#
# Elastic Constant Matrix: (Units=GPa)
#
#
# Indices 1 2 3 4 5 6 
#
# 1 157.3580 33.9000 88.5938 0.0000 0.0000 0.0000
# 2 33.9000 39.4625 32.9931 0.0000 0.0000 0.0000
# 3 88.5938 32.9931 75.0165 0.0000 0.0000 0.0000
# 4 0.0000 0.0000 0.0000 14.6158 0.0000 0.0000
# 5 0.0000 0.0000 0.0000 0.0000 33.1914 0.0000
# 6 0.0000 0.0000 0.0000 0.0000 0.0000 8.7992
#
#
#
# Elastic Compliance Matrix: (Units=1/GPa)
#
#
# Indices 1 2 3 4 5 6 
#
# 1 0.019342 0.003926 -0.024569 0.000000 0.000000 0.000000
# 2 0.003926 0.040874 -0.022614 0.000000 0.000000 0.000000
# 3 -0.024569 -0.022614 0.052292 0.000000 0.000000 0.000000
# 4 0.000000 0.000000 0.000000 0.068419 0.000000 0.000000
# 5 0.000000 0.000000 0.000000 0.000000 0.030128 0.000000
# 6 0.000000 0.000000 0.000000 0.000000 0.000000 0.113647
#
#
# Mechanical properties :
#
#
# Convention : Reuss Voigt Hill
#
# Bulk Modulus (GPa) = 38.46937 64.75675 51.61306
# Shear Modulus (GPa) = 11.90815 19.07795 15.49305
#
# Velocity S-wave (km/s) = 2.82004 3.56943 3.21663
# Velocity P-wave (km/s) = 6.02450 7.76108 6.94726
#
# Compressibility (1/GPa) = 0.02599470
#
# Stress axis : x y z
#
# Youngs Moduli (GPa) = 51.70153 24.46522 19.12335
#
# Poissons Ratio (x) = -0.09605 0.46984
# Poissons Ratio (y) = -0.20298 0.43245
# Poissons Ratio (z) = 1.27026 0.55325
#
# Static dielectric constant tensor:
#      x y z
#    x 1.507510 0.000000 0.000000 
#    y 0.000000 1.469330 0.000000 
#    z 0.000000 0.000000 1.499050 
# 
# From -- ./inp_files/7009.got.cif
#   From: 2010.05.17/outbox.cif.g08.bks.cpg/sg57_4_cif.got.tgz:7009.got - 2010.06.03 13:58:18.
