data_PCOD9434945
_publ_section_title
;
Structure prediction by ZEFSAII (Michael W. Deem and Ramdas Pophale) SiO2 
 PCOD9434945
Probable space group: P B C M
;
_chemical_formula_sum "Si O2"
_cell_formula_units_Z 56
_cell_length_a 14.140737
_cell_length_b 24.998528
_cell_length_c 7.868715
_cell_angle_alpha 90.000000
_cell_angle_beta 90.000000
_cell_angle_gamma 90.000000
_cell_volume 2781.571945
_symmetry_space_group_name_H-M "P B C M"
_symmetry_group_IT_number 57
_symmetry_cell_setting 'orthorhombic'
loop_
_space_group_symop_operation_xyz
x,y,z
-x,-y,1/2+z
x,1/2-y,-z
-x,1/2+y,1/2-z
-x,-y,-z
x,y,1/2-z
-x,1/2+y,z
x,1/2-y,1/2+z
loop_
_atom_site_type_symbol
_atom_site_label
_atom_site_fract_x
_atom_site_fract_y
_atom_site_fract_z
Si Si1 0.239016 0.021850 0.950751
Si Si2 0.643678 0.619531 0.951060
Si Si3 0.822194 0.688673 0.452235
Si Si4 0.155437 0.583877 0.047016
Si Si5 0.259591 0.690501 0.952463
Si Si6 0.057211 0.410644 0.956029
Si Si7 0.524755 0.309990 0.455192
O O1 0.259794 0.017629 0.750000
O O2 0.315299 0.063831 0.024264
O O3 0.225085 0.962307 0.021925
O O4 0.136867 0.050001 0.972315
O O5 0.628620 0.611309 0.750000
O O6 0.548212 0.645702 0.021692
O O7 0.727506 0.662917 0.970185
O O8 0.835934 0.750000 0.500000
O O9 0.811475 0.685184 0.250000
O O10 0.908055 0.649256 0.501334
O O11 0.149854 0.575929 0.250000
O O12 0.048359 0.578141 0.981430
O O13 0.194891 0.642722 0.016331
O O14 0.262821 0.687219 0.750000
O O15 0.367597 0.684175 0.018412
O O16 0.226668 0.750000 0.000000
O O17 0.059145 0.415091 0.750000
O O18 0.492037 0.250000 0.500000
O O19 0.526459 0.313316 0.250000
#
# Coordination Sequence:
#
# PCOD9434945 Si02
#       7
#     8   8   8   8   8   8   8
#     4   9  18  32  52  76 102 131 165 203 244 291
#     4   9  17  31  50  73 100 130 161 197 242 293
#     4  10  19  30  44  67  98 129 160 199 244 292
#     4  10  20  35  53  74 100 132 167 204 246 292
#     4  10  21  37  55  75  98 127 163 206 249 292
#     4   9  19  33  49  70  99 132 168 208 246 287
#     4   9  18  32  51  73  98 127 162 201 244 293
#
# _framework density 20.132501999999999
#
# number of rings (size 3 to 8) (size 9 to 14) (size 15 to 20)
#    0.000    2.571    0.000    1.714    0.000    4.571 
#    0.000    2.143    0.000    0.000    0.000    0.000 
#    0.000    0.000    0.000    0.000    0.000    0.000 
#
# Total GULP energy -312367.348247 kJ/mol
# GULP energy per Si atom -5577.988362 kJ/mol
# Density = 2.008668 g / cm^3
# Si number density = 20.132502 Si / 1000 Ang^3
#
#
#
# Elastic Constant Matrix: (Units=GPa)
#
#
# Indices 1 2 3 4 5 6 
#
# 1 22.2420 -3.6405 -7.3322 0.0000 0.0000 0.0000
# 2 -3.6405 76.3274 -13.5043 0.0000 0.0000 0.0000
# 3 -7.3322 -13.5043 16.7303 0.0000 0.0000 0.0000
# 4 0.0000 0.0000 0.0000 11.5668 0.0000 0.0000
# 5 0.0000 0.0000 0.0000 0.0000 15.9736 0.0000
# 6 0.0000 0.0000 0.0000 0.0000 0.0000 24.7550
#
#
#
# Elastic Compliance Matrix: (Units=1/GPa)
#
#
# Indices 1 2 3 4 5 6 
#
# 1 0.056715 0.008286 0.031544 0.000000 0.000000 0.000000
# 2 0.008286 0.016495 0.016945 0.000000 0.000000 0.000000
# 3 0.031544 0.016945 0.087274 0.000000 0.000000 0.000000
# 4 0.000000 0.000000 0.000000 0.086454 0.000000 0.000000
# 5 0.000000 0.000000 0.000000 0.000000 0.062603 0.000000
# 6 0.000000 0.000000 0.000000 0.000000 0.000000 0.040396
#
#
# Mechanical properties :
#
#
# Convention : Reuss Voigt Hill
#
# Bulk Modulus (GPa) = 3.64919 7.37177 5.51048
# Shear Modulus (GPa) = 15.25642 19.77752 17.51697
#
# Velocity S-wave (km/s) = 2.75580 3.13768 2.95292
# Velocity P-wave (km/s) = 3.45579 4.09832 3.79069
#
# Compressibility (1/GPa) = 0.27403308
#
# Stress axis : x y z
#
# Youngs Moduli (GPa) = 17.63214 60.62544 11.45820
#
# Poissons Ratio (x) = -0.50234 -0.36143
# Poissons Ratio (y) = -0.14610 -0.19416
# Poissons Ratio (z) = -0.55618 -1.02732
#
# Static dielectric constant tensor:
#      x y z
#    x 1.714290 0.000000 0.000000 
#    y 0.000000 1.935600 0.000000 
#    z 0.000000 0.000000 1.720670 
# 
# From -- ./inp_files/5274.got.cif
#   From: 2010.05.17/outbox.cif.g08.bks.cpg/sg57_3_cif.got.tgz:5274.got - 2010.06.03 13:58:18.
