data_PCOD9434757
_publ_section_title
;
Structure prediction by ZEFSAII (Michael W. Deem and Ramdas Pophale) SiO2 
 PCOD9434757
Probable space group: P B C M
;
_chemical_formula_sum "Si O2"
_cell_formula_units_Z 64
_cell_length_a 7.398567
_cell_length_b 15.625610
_cell_length_c 24.033837
_cell_angle_alpha 90.000000
_cell_angle_beta 90.000000
_cell_angle_gamma 90.000000
_cell_volume 2778.482738
_symmetry_space_group_name_H-M "P B C M"
_symmetry_group_IT_number 57
_symmetry_cell_setting 'orthorhombic'
loop_
_space_group_symop_operation_xyz
x,y,z
-x,-y,1/2+z
x,1/2-y,-z
-x,1/2+y,1/2-z
-x,-y,-z
x,y,1/2-z
-x,1/2+y,z
x,1/2-y,1/2+z
loop_
_atom_site_type_symbol
_atom_site_label
_atom_site_fract_x
_atom_site_fract_y
_atom_site_fract_z
Si Si1 0.515731 0.581498 0.367376
Si Si2 0.998201 0.428956 0.117931
Si Si3 0.438674 0.100021 0.609513
Si Si4 0.890018 0.392311 0.620201
Si Si5 0.021364 0.773679 0.311687
Si Si6 0.606781 0.650570 0.489537
Si Si7 0.958033 0.350282 0.499397
Si Si8 0.400687 0.250496 0.189006
O O1 0.544907 0.480177 0.364953
O O2 0.303876 0.591254 0.353709
O O3 0.548267 0.614054 0.430411
O O4 0.606800 0.651433 0.328308
O O5 0.219138 0.415285 0.114130
O O6 0.976487 0.528704 0.131671
O O7 0.920804 0.364353 0.163432
O O8 0.923041 0.399010 0.058096
O O9 0.471577 0.103529 0.543544
O O10 0.482616 0.188805 0.640988
O O11 0.947896 0.300930 0.643470
O O12 0.870350 0.391743 0.553507
O O13 0.092223 0.753977 0.250000
O O14 0.805655 0.779514 0.307055
O O15 0.559691 0.750000 0.500000
O O16 0.825249 0.646024 0.491222
O O17 0.907391 0.250000 0.500000
O O18 0.484614 0.261539 0.250000
#
# Coordination Sequence:
#
# PCOD9434757 Si02
#       8
#     8   8   8   8   8   8   8   8
#     4  11  22  35  56  87 119 142 174 228 287 332
#     4   9  19  36  57  83 111 147 185 222 273 331
#     4   9  19  36  57  83 111 147 185 222 273 331
#     4  11  22  35  56  87 119 142 174 228 287 332
#     4  10  21  40  62  79 103 147 197 231 264 324
#     4  10  18  34  60  82 110 149 189 223 262 328
#     4  10  18  34  60  82 110 149 189 223 262 328
#     4  10  21  40  62  79 103 147 197 231 264 324
#
# _framework density 23.034154000000001
#
# number of rings (size 3 to 8) (size 9 to 14) (size 15 to 20)
#    0.000    2.000    2.500    1.500    0.000    2.000 
#    0.000    6.250    0.000    0.000    0.000    0.000 
#    0.000    0.000    0.000    0.000    0.000    0.000 
#
# Total GULP energy -357615.562236 kJ/mol
# GULP energy per Si atom -5587.743160 kJ/mol
# Density = 2.298173 g / cm^3
# Si number density = 23.034154 Si / 1000 Ang^3
#
#
#
# Elastic Constant Matrix: (Units=GPa)
#
#
# Indices 1 2 3 4 5 6 
#
# 1 42.3372 -14.4928 -13.0974 0.0000 0.0000 0.0000
# 2 -14.4928 95.0970 7.4687 0.0000 0.0000 0.0000
# 3 -13.0974 7.4687 89.9233 0.0000 0.0000 0.0000
# 4 0.0000 0.0000 0.0000 4.6024 0.0000 0.0000
# 5 0.0000 0.0000 0.0000 0.0000 -18.2663 0.0000
# 6 0.0000 0.0000 0.0000 0.0000 0.0000 14.1437
#
#
#
# Elastic Compliance Matrix: (Units=1/GPa)
#
#
# Indices 1 2 3 4 5 6 
#
# 1 0.025955 0.003683 0.003475 0.000000 0.000000 0.000000
# 2 0.003683 0.011107 -0.000386 0.000000 0.000000 0.000000
# 3 0.003475 -0.000386 0.011659 0.000000 0.000000 0.000000
# 4 0.000000 0.000000 0.000000 0.217276 0.000000 0.000000
# 5 0.000000 0.000000 0.000000 0.000000 -0.054746 0.000000
# 6 0.000000 0.000000 0.000000 0.000000 0.000000 0.070703
#
#
# Mechanical properties :
#
#
# Convention : Reuss Voigt Hill
#
# Bulk Modulus (GPa) = 16.06076 20.79052 18.42564
# Shear Modulus (GPa) = 17.29106 16.59455 16.94281
#
# Velocity S-wave (km/s) = 2.74281 2.68700 2.71505
# Velocity P-wave (km/s) = 4.12534 4.32113 4.22437
#
# Compressibility (1/GPa) = 0.06226355
#
# Stress axis : x y z
#
# Youngs Moduli (GPa) = 38.52761 90.03210 85.77266
#
# Poissons Ratio (x) = -0.33156 -0.29802
# Poissons Ratio (y) = -0.14189 0.03312
# Poissons Ratio (z) = -0.13387 0.03476
#
# Static dielectric constant tensor:
#      x y z
#    x 1.896300 0.000000 0.000000 
#    y 0.000000 1.871200 0.000000 
#    z 0.000000 0.000000 1.842570 
# 
# From -- ./inp_files/26866.got.cif
#   From: 2010.05.17/outbox.cif.g08.bks.cpg/sg57_14_cif.got.tgz:26866.got - 2010.06.03 13:58:18.
