data_PCOD9434975
_publ_section_title
;
Structure prediction by ZEFSAII (Michael W. Deem and Ramdas Pophale) SiO2 
 PCOD9434975
Probable space group: P B C M
;
_chemical_formula_sum "Si O2"
_cell_formula_units_Z 48
_cell_length_a 11.702661
_cell_length_b 27.411910
_cell_length_c 8.747379
_cell_angle_alpha 90.000000
_cell_angle_beta 90.000000
_cell_angle_gamma 90.000000
_cell_volume 2806.091742
_symmetry_space_group_name_H-M "P B C M"
_symmetry_group_IT_number 57
_symmetry_cell_setting 'orthorhombic'
loop_
_space_group_symop_operation_xyz
x,y,z
-x,-y,1/2+z
x,1/2-y,-z
-x,1/2+y,1/2-z
-x,-y,-z
x,y,1/2-z
-x,1/2+y,z
x,1/2-y,1/2+z
loop_
_atom_site_type_symbol
_atom_site_label
_atom_site_fract_x
_atom_site_fract_y
_atom_site_fract_z
Si Si1 0.635721 0.950378 0.067221
Si Si2 0.993449 0.195800 0.065354
Si Si3 0.616725 0.061075 0.067219
Si Si4 0.821159 0.880194 0.922173
Si Si5 0.962817 0.049075 0.422307
Si Si6 0.804112 0.125009 0.929005
O O1 0.624838 0.949466 0.250000
O O2 0.666939 0.006885 0.024519
O O3 0.513143 0.940128 0.991502
O O4 0.724838 0.908970 0.015248
O O5 0.992880 0.195063 0.250000
O O6 0.109739 0.167030 0.015715
O O7 0.993509 0.250000 0.000000
O O8 0.879562 0.167358 0.008390
O O9 0.619826 0.064531 0.250000
O O10 0.683732 0.107335 0.998033
O O11 0.778203 0.869470 0.750000
O O12 0.924959 0.918183 0.909035
O O13 0.914178 0.043280 0.250000
O O14 0.878941 0.077277 0.534129
O O15 0.000000 0.000000 0.500000
O O16 0.794724 0.135014 0.750000
#
# Coordination Sequence:
#
# PCOD9434975 Si02
#       6
#     8   8   8   8   8   8
#     4  10  20  32  50  76 105 140 180 215 251 302
#     4  10  21  38  58  80 104 132 170 215 267 319
#     4  10  20  34  51  73 106 144 179 215 254 301
#     4   9  19  33  49  71 101 134 167 207 255 307
#     4  10  19  30  45  69 101 135 170 208 253 305
#     4  11  21  33  51  75 103 135 172 213 259 310
#
# _framework density 17.105643000000001
#
# number of rings (size 3 to 8) (size 9 to 14) (size 15 to 20)
#    0.000    2.000    0.000    5.500    0.000    8.667 
#    0.000    0.000    0.000    1.000    0.000    4.667 
#    0.000    0.000    0.000    0.000    0.000    0.000 
#
# Total GULP energy -267474.774539 kJ/mol
# GULP energy per Si atom -5572.391136 kJ/mol
# Density = 1.706671 g / cm^3
# Si number density = 17.105643 Si / 1000 Ang^3
#
#
#
# Elastic Constant Matrix: (Units=GPa)
#
#
# Indices 1 2 3 4 5 6 
#
# 1 79.4442 45.0158 34.5653 0.0000 0.0000 0.0000
# 2 45.0158 111.5884 34.0929 0.0000 0.0000 0.0000
# 3 34.5653 34.0929 79.6993 0.0000 0.0000 0.0000
# 4 0.0000 0.0000 0.0000 25.3605 0.0000 0.0000
# 5 0.0000 0.0000 0.0000 0.0000 29.6861 0.0000
# 6 0.0000 0.0000 0.0000 0.0000 0.0000 24.8509
#
#
#
# Elastic Compliance Matrix: (Units=1/GPa)
#
#
# Indices 1 2 3 4 5 6 
#
# 1 0.018171 -0.005663 -0.005458 0.000000 0.000000 0.000000
# 2 -0.005663 0.012073 -0.002709 0.000000 0.000000 0.000000
# 3 -0.005458 -0.002709 0.016073 0.000000 0.000000 0.000000
# 4 0.000000 0.000000 0.000000 0.039431 0.000000 0.000000
# 5 0.000000 0.000000 0.000000 0.000000 0.033686 0.000000
# 6 0.000000 0.000000 0.000000 0.000000 0.000000 0.040240
#
#
# Mechanical properties :
#
#
# Convention : Reuss Voigt Hill
#
# Bulk Modulus (GPa) = 53.59638 55.34221 54.46929
# Shear Modulus (GPa) = 25.83262 26.45004 26.14133
#
# Velocity S-wave (km/s) = 3.89032 3.93654 3.91350
# Velocity P-wave (km/s) = 7.18193 7.28596 7.23413
#
# Compressibility (1/GPa) = 0.01865798
#
# Stress axis : x y z
#
# Youngs Moduli (GPa) = 55.03276 82.82620 62.21555
#
# Poissons Ratio (x) = 0.46902 0.33960
# Poissons Ratio (y) = 0.31163 0.16853
# Poissons Ratio (z) = 0.30039 0.22436
#
# Static dielectric constant tensor:
#      x y z
#    x 1.585340 0.000000 0.000000 
#    y 0.000000 1.601560 0.000000 
#    z 0.000000 0.000000 1.624900 
# 
# From -- ./inp_files/3273.got.cif
#   From: 2010.05.17/outbox.cif.g08.bks.cpg/sg57_2_cif.got.tgz:3273.got - 2010.06.03 13:58:18.
