data_PCOD9434102
_publ_section_title
;
Structure prediction by ZEFSAII (Michael W. Deem and Ramdas Pophale) SiO2 
 PCOD9434102
Probable space group: P B C M
;
_chemical_formula_sum "Si O2"
_cell_formula_units_Z 48
_cell_length_a 15.747447
_cell_length_b 7.624567
_cell_length_c 18.229661
_cell_angle_alpha 90.000000
_cell_angle_beta 90.000000
_cell_angle_gamma 90.000000
_cell_volume 2188.789179
_symmetry_space_group_name_H-M "P B C M"
_symmetry_group_IT_number 57
_symmetry_cell_setting 'orthorhombic'
loop_
_space_group_symop_operation_xyz
x,y,z
-x,-y,1/2+z
x,1/2-y,-z
-x,1/2+y,1/2-z
-x,-y,-z
x,y,1/2-z
-x,1/2+y,z
x,1/2-y,1/2+z
loop_
_atom_site_type_symbol
_atom_site_label
_atom_site_fract_x
_atom_site_fract_y
_atom_site_fract_z
Si Si1 0.263365 0.404335 0.163825
Si Si2 0.136630 0.787594 0.666714
Si Si3 0.091491 0.555692 0.472839
Si Si4 0.380832 0.554675 0.837400
Si Si5 0.794851 0.940943 0.595635
Si Si6 0.434437 0.957877 0.836422
O O1 0.267202 0.360416 0.250000
O O2 0.223905 0.599619 0.160345
O O3 0.359457 0.417837 0.133487
O O4 0.205855 0.255966 0.126811
O O5 0.108083 0.789127 0.750000
O O6 0.081416 0.909458 0.613480
O O7 0.151195 0.588354 0.640366
O O8 0.112957 0.750000 0.500000
O O9 0.165913 0.448634 0.513845
O O10 0.000000 0.500000 0.500000
O O11 0.363081 0.513632 0.750000
O O12 0.301849 0.501801 0.888129
O O13 0.469329 0.468374 0.863062
O O14 0.400988 0.760664 0.841158
O O15 0.441581 0.005235 0.750000
#
# Coordination Sequence:
#
# PCOD9434102 Si02
#       6
#     8   8   8   8   8   8
#     4  10  19  32  57  91 124 166 212 253 302 359
#     4  10  21  41  64  91 122 157 205 261 304 370
#     4  10  25  45  68  93 122 165 201 255 329 398
#     4  10  17  29  50  83 128 171 213 261 303 361
#     4  11  21  36  61  89 126 163 207 260 312 375
#     4   9  17  28  48  84 131 174 215 258 303 357
#
# _framework density 21.929932999999998
#
# number of rings (size 3 to 8) (size 9 to 14) (size 15 to 20)
#    0.000    2.000    1.667    2.500    2.333    2.667 
#    0.000    5.000    0.000    1.000    4.333    0.000 
#    0.000    0.000    0.000    0.000    0.000    0.000 
#
# Total GULP energy -267486.891324 kJ/mol
# GULP energy per Si atom -5572.643569 kJ/mol
# Density = 2.188002 g / cm^3
# Si number density = 21.929933 Si / 1000 Ang^3
#
#
#
# Elastic Constant Matrix: (Units=GPa)
#
#
# Indices 1 2 3 4 5 6 
#
# 1 60.4520 6.4525 32.4187 0.0000 0.0000 0.0000
# 2 6.4525 87.1814 20.0096 0.0000 0.0000 0.0000
# 3 32.4187 20.0096 90.9076 0.0000 0.0000 0.0000
# 4 0.0000 0.0000 0.0000 23.3247 0.0000 0.0000
# 5 0.0000 0.0000 0.0000 0.0000 23.4047 0.0000
# 6 0.0000 0.0000 0.0000 0.0000 0.0000 31.2215
#
#
#
# Elastic Compliance Matrix: (Units=1/GPa)
#
#
# Indices 1 2 3 4 5 6 
#
# 1 0.020456 0.000169 -0.007332 0.000000 0.000000 0.000000
# 2 0.000169 0.012082 -0.002720 0.000000 0.000000 0.000000
# 3 -0.007332 -0.002720 0.014213 0.000000 0.000000 0.000000
# 4 0.000000 0.000000 0.000000 0.042873 0.000000 0.000000
# 5 0.000000 0.000000 0.000000 0.000000 0.042726 0.000000
# 6 0.000000 0.000000 0.000000 0.000000 0.000000 0.032029
#
#
# Mechanical properties :
#
#
# Convention : Reuss Voigt Hill
#
# Bulk Modulus (GPa) = 37.05630 39.58919 38.32275
# Shear Modulus (GPa) = 25.88784 27.56753 26.72768
#
# Velocity S-wave (km/s) = 3.43954 3.54937 3.49489
# Velocity P-wave (km/s) = 5.71911 5.90670 5.81366
#
# Compressibility (1/GPa) = 0.02698596
#
# Stress axis : x y z
#
# Youngs Moduli (GPa) = 48.88547 82.76754 70.35584
#
# Poissons Ratio (x) = -0.01397 0.51585
# Poissons Ratio (y) = -0.00825 0.19134
# Poissons Ratio (z) = 0.35843 0.22509
#
# Static dielectric constant tensor:
#      x y z
#    x 1.842610 0.000000 0.000000 
#    y 0.000000 1.831540 0.000000 
#    z 0.000000 0.000000 1.867940 
# 
# From -- ./inp_files/18945.got.cif
#   From: 2010.05.17/outbox.cif.g08.bks.cpg/sg57_10_cif.got.tgz:18945.got - 2010.06.03 13:58:18.
