data_PCOD9434719
_publ_section_title
;
Structure prediction by ZEFSAII (Michael W. Deem and Ramdas Pophale) SiO2 
 PCOD9434719
Probable space group: P B C M
;
_chemical_formula_sum "Si O2"
_cell_formula_units_Z 40
_cell_length_a 21.576493
_cell_length_b 9.122335
_cell_length_c 10.563526
_cell_angle_alpha 90.000000
_cell_angle_beta 90.000000
_cell_angle_gamma 90.000000
_cell_volume 2079.197667
_symmetry_space_group_name_H-M "P B C M"
_symmetry_group_IT_number 57
_symmetry_cell_setting 'orthorhombic'
loop_
_space_group_symop_operation_xyz
x,y,z
-x,-y,1/2+z
x,1/2-y,-z
-x,1/2+y,1/2-z
-x,-y,-z
x,y,1/2-z
-x,1/2+y,z
x,1/2-y,1/2+z
loop_
_atom_site_type_symbol
_atom_site_label
_atom_site_fract_x
_atom_site_fract_y
_atom_site_fract_z
Si Si1 0.362121 0.072782 0.984718
Si Si2 0.967576 0.138315 0.884690
Si Si3 0.900195 0.578590 0.968595
Si Si4 0.767674 0.618330 0.896685
Si Si5 0.579341 0.958336 0.750000
Si Si6 0.552977 0.893154 0.250000
O O1 0.293746 0.029439 0.936201
O O2 0.412267 0.046280 0.874857
O O3 0.360281 0.250000 0.000000
O O4 0.382176 0.013926 0.121432
O O5 0.960212 0.212402 0.750000
O O6 0.035899 0.065437 0.890449
O O7 0.962646 0.250000 0.000000
O O8 0.915693 0.015744 0.907742
O O9 0.834380 0.539673 0.908240
O O10 0.897588 0.750000 0.000000
O O11 0.760071 0.668425 0.750000
O O12 0.770005 0.750000 0.000000
O O13 0.560551 0.784433 0.750000
O O14 0.517549 0.055138 0.750000
#
# Coordination Sequence:
#
# PCOD9434719 Si02
#       6
#     8   8   8   8   4   4
#     4   9  18  31  49  76 107 136 169 211 261 312
#     4  10  21  37  56  80 112 149 187 229 282 338
#     4   9  20  34  54  82 111 141 183 233 278 326
#     4  10  19  31  51  79 110 140 175 223 274 319
#     4  10  20  32  54  76 106 133 172 210 258 307
#     4  10  18  34  52  78 102 137 168 212 254 311
#
# _framework density 19.238188999999998
#
# number of rings (size 3 to 8) (size 9 to 14) (size 15 to 20)
#    0.000    2.400    1.000    1.200    4.200   11.200 
#    0.000    0.000    0.000    2.400    0.000    0.000 
#    0.000    0.000    0.000    0.000    0.000    0.000 
#
# Total GULP energy -222712.731951 kJ/mol
# GULP energy per Si atom -5567.818299 kJ/mol
# Density = 1.919440 g / cm^3
# Si number density = 19.238189 Si / 1000 Ang^3
#
#
#
# Elastic Constant Matrix: (Units=GPa)
#
#
# Indices 1 2 3 4 5 6 
#
# 1 137.4607 20.2308 63.4539 0.0000 0.0000 0.0000
# 2 20.2308 26.0366 22.6605 0.0000 0.0000 0.0000
# 3 63.4539 22.6605 179.9045 0.0000 0.0000 0.0000
# 4 0.0000 0.0000 0.0000 16.1427 0.0000 0.0000
# 5 0.0000 0.0000 0.0000 0.0000 2.6885 0.0000
# 6 0.0000 0.0000 0.0000 0.0000 0.0000 28.6784
#
#
#
# Elastic Compliance Matrix: (Units=1/GPa)
#
#
# Indices 1 2 3 4 5 6 
#
# 1 0.009206 -0.004860 -0.002635 0.000000 0.000000 0.000000
# 2 -0.004860 0.045702 -0.004042 0.000000 0.000000 0.000000
# 3 -0.002635 -0.004042 0.006997 0.000000 0.000000 0.000000
# 4 0.000000 0.000000 0.000000 0.061947 0.000000 0.000000
# 5 0.000000 0.000000 0.000000 0.000000 0.371951 0.000000
# 6 0.000000 0.000000 0.000000 0.000000 0.000000 0.034869
#
#
# Mechanical properties :
#
#
# Convention : Reuss Voigt Hill
#
# Bulk Modulus (GPa) = 25.75298 61.78801 43.77049
# Shear Modulus (GPa) = 8.82314 25.30572 17.06443
#
# Velocity S-wave (km/s) = 2.14388 3.63076 2.98150
# Velocity P-wave (km/s) = 4.42083 7.05434 5.88674
#
# Compressibility (1/GPa) = 0.03883046
#
# Stress axis : x y z
#
# Youngs Moduli (GPa) = 108.61928 21.88089 142.91709
#
# Poissons Ratio (x) = 0.10635 0.37659
# Poissons Ratio (y) = 0.52791 0.57772
# Poissons Ratio (z) = 0.28621 0.08845
#
# Static dielectric constant tensor:
#      x y z
#    x 1.713290 0.000000 0.000000 
#    y 0.000000 1.687190 0.000000 
#    z 0.000000 0.000000 1.713230 
# 
# From -- ./inp_files/14299.got.cif
#   From: 2010.05.17/outbox.cif.g08.bks.cpg/sg57_8_cif.got.tgz:14299.got - 2010.06.03 13:58:18.
