data_PCOD9434152
_publ_section_title
;
Structure prediction by ZEFSAII (Michael W. Deem and Ramdas Pophale) SiO2 
 PCOD9434152
Probable space group: P B C M
;
_chemical_formula_sum "Si O2"
_cell_formula_units_Z 44
_cell_length_a 9.812983
_cell_length_b 8.107519
_cell_length_c 21.662301
_cell_angle_alpha 90.000000
_cell_angle_beta 90.000000
_cell_angle_gamma 90.000000
_cell_volume 1723.429838
_symmetry_space_group_name_H-M "P B C M"
_symmetry_group_IT_number 57
_symmetry_cell_setting 'orthorhombic'
loop_
_space_group_symop_operation_xyz
x,y,z
-x,-y,1/2+z
x,1/2-y,-z
-x,1/2+y,1/2-z
-x,-y,-z
x,y,1/2-z
-x,1/2+y,z
x,1/2-y,1/2+z
loop_
_atom_site_type_symbol
_atom_site_label
_atom_site_fract_x
_atom_site_fract_y
_atom_site_fract_z
Si Si1 0.475460 0.448739 0.384468
Si Si2 0.797236 0.141427 0.114750
Si Si3 0.679472 0.844679 0.936546
Si Si4 0.165479 0.260029 0.250000
Si Si5 0.058088 0.287551 0.385792
Si Si6 0.728888 0.361610 0.750000
Si Si7 0.563470 0.549054 0.250000
O O1 0.355995 0.582958 0.400871
O O2 0.397577 0.275645 0.388044
O O3 0.601562 0.482929 0.430329
O O4 0.536463 0.466132 0.316358
O O5 0.905589 0.270278 0.088151
O O6 0.881730 0.970746 0.108770
O O7 0.785077 0.200006 0.185740
O O8 0.837424 0.833696 0.920855
O O9 0.656091 0.750000 0.000000
O O10 0.078335 0.245154 0.312710
O O11 0.236910 0.441316 0.250000
O O12 0.287956 0.129195 0.250000
O O13 0.568541 0.332615 0.750000
#
# Coordination Sequence:
#
# PCOD9434152 Si02
#       7
#     8   8   8   4   8   4   4
#     4  10  22  38  62  87 118 152 193 248 300 355
#     4   9  19  35  53  81 114 148 188 233 292 350
#     4  11  23  41  60  85 117 159 203 248 293 345
#     4  10  17  33  55  80 117 151 185 234 297 353
#     4  10  20  36  58  82 115 152 191 238 291 350
#     4   8  17  31  49  76 118 149 176 235 288 354
#     4  10  18  32  58  88 115 144 189 237 303 355
#
# _framework density 25.530486
#
# number of rings (size 3 to 8) (size 9 to 14) (size 15 to 20)
#    0.000    2.182    1.818    2.182    0.000    1.455 
#    0.000    4.545    0.000    0.000    0.000    0.000 
#    0.000    0.000    0.000    0.000    0.000    0.000 
#
# Total GULP energy -245807.335157 kJ/mol
# GULP energy per Si atom -5586.530344 kJ/mol
# Density = 2.547238 g / cm^3
# Si number density = 25.530486 Si / 1000 Ang^3
#
#
#
# Elastic Constant Matrix: (Units=GPa)
#
#
# Indices 1 2 3 4 5 6 
#
# 1 116.1801 30.0294 -5.0962 0.0000 0.0000 0.0000
# 2 30.0294 49.8275 -0.0384 0.0000 0.0000 0.0000
# 3 -5.0962 -0.0384 35.3119 0.0000 0.0000 0.0000
# 4 0.0000 0.0000 0.0000 6.2403 0.0000 0.0000
# 5 0.0000 0.0000 0.0000 0.0000 -0.6642 0.0000
# 6 0.0000 0.0000 0.0000 0.0000 0.0000 41.6249
#
#
#
# Elastic Compliance Matrix: (Units=1/GPa)
#
#
# Indices 1 2 3 4 5 6 
#
# 1 0.010272 -0.006189 0.001476 0.000000 0.000000 0.000000
# 2 -0.006189 0.023799 -0.000867 0.000000 0.000000 0.000000
# 3 0.001476 -0.000867 0.028531 0.000000 0.000000 0.000000
# 4 0.000000 0.000000 0.000000 0.160249 0.000000 0.000000
# 5 0.000000 0.000000 0.000000 0.000000 -1.505601 0.000000
# 6 0.000000 0.000000 0.000000 0.000000 0.000000 0.024024
#
#
# Mechanical properties :
#
#
# Convention : Reuss Voigt Hill
#
# Bulk Modulus (GPa) = 19.44030 27.90103 23.67067
# Shear Modulus (GPa) = -4.06366 21.20184 8.56909
#
# Velocity S-wave (km/s) = -1.26299 2.88488 1.83404
# Velocity P-wave (km/s) = 2.34611 4.69563 3.71168
#
# Compressibility (1/GPa) = 0.05143952
#
# Stress axis : x y z
#
# Youngs Moduli (GPa) = 97.35354 42.01911 35.04948
#
# Poissons Ratio (x) = 0.26007 -0.05172
# Poissons Ratio (y) = 0.60256 0.03040
# Poissons Ratio (z) = -0.14366 0.03645
#
# Static dielectric constant tensor:
#      x y z
#    x 1.981650 0.000000 0.000000 
#    y 0.000000 2.133480 0.000000 
#    z 0.000000 0.000000 2.068820 
# 
# From -- ./inp_files/26646.got.cif
#   From: 2010.05.17/outbox.cif.g08.bks.cpg/sg57_14_cif.got.tgz:26646.got - 2010.06.03 13:58:18.
