data_PCOD9434362
_publ_section_title
;
Structure prediction by ZEFSAII (Michael W. Deem and Ramdas Pophale) SiO2 
 PCOD9434362
Probable space group: P B C M
;
_chemical_formula_sum "Si O2"
_cell_formula_units_Z 64
_cell_length_a 8.393211
_cell_length_b 20.303905
_cell_length_c 21.911847
_cell_angle_alpha 90.000000
_cell_angle_beta 90.000000
_cell_angle_gamma 90.000000
_cell_volume 3734.106503
_symmetry_space_group_name_H-M "P B C M"
_symmetry_group_IT_number 57
_symmetry_cell_setting 'orthorhombic'
loop_
_space_group_symop_operation_xyz
x,y,z
-x,-y,1/2+z
x,1/2-y,-z
-x,1/2+y,1/2-z
-x,-y,-z
x,y,1/2-z
-x,1/2+y,z
x,1/2-y,1/2+z
loop_
_atom_site_type_symbol
_atom_site_label
_atom_site_fract_x
_atom_site_fract_y
_atom_site_fract_z
Si Si1 0.280068 0.097880 0.630199
Si Si2 0.526313 0.025691 0.317651
Si Si3 0.070231 0.995493 0.566592
Si Si4 0.580503 0.128084 0.946065
Si Si5 0.785764 0.460285 0.139886
Si Si6 0.018234 0.832194 0.319708
Si Si7 0.663003 0.385286 0.579693
Si Si8 0.827464 0.245633 0.569408
O O1 0.166507 0.061885 0.581498
O O2 0.421121 0.133015 0.593509
O O3 0.163090 0.143058 0.669700
O O4 0.362529 0.037841 0.667106
O O5 0.562563 0.048863 0.250000
O O6 0.562354 0.083179 0.365721
O O7 0.345826 0.999346 0.322358
O O8 0.927512 0.994175 0.615395
O O9 0.190357 0.935337 0.570729
O O10 0.000000 0.000000 0.500000
O O11 0.685987 0.069136 0.917333
O O12 0.686720 0.192715 0.939057
O O13 0.559462 0.115548 0.017673
O O14 0.867808 0.396931 0.171894
O O15 0.038048 0.807656 0.250000
O O16 0.064813 0.782685 0.375149
O O17 0.744442 0.314256 0.587433
O O18 0.901022 0.250000 0.500000
#
# Coordination Sequence:
#
# PCOD9434362 Si02
#       8
#     8   8   8   8   8   8   8   8
#     4   9  20  31  53  81 105 133 174 224 269 310
#     4  10  20  33  50  76 110 143 174 215 265 323
#     4  10  18  29  51  82 107 129 163 215 272 328
#     4   9  17  34  53  75 103 133 176 223 264 309
#     4   9  18  31  52  80 105 132 170 216 270 313
#     4  10  19  35  57  80 106 142 182 222 263 320
#     4  10  20  33  53  75 106 141 176 218 266 327
#     4   9  20  37  54  75 105 142 184 224 269 313
#
# _framework density 17.139306999999999
#
# number of rings (size 3 to 8) (size 9 to 14) (size 15 to 20)
#    0.000    2.500    1.250    0.750    3.500    2.000 
#    0.000    4.375    0.000    1.500    0.000    0.000 
#    0.000    0.000    0.000    0.000    0.000    0.000 
#
# Total GULP energy -356509.081755 kJ/mol
# GULP energy per Si atom -5570.454402 kJ/mol
# Density = 1.710030 g / cm^3
# Si number density = 17.139307 Si / 1000 Ang^3
#
#
#
# Elastic Constant Matrix: (Units=GPa)
#
#
# Indices 1 2 3 4 5 6 
#
# 1 63.5716 1.1257 28.0775 0.0000 0.0000 0.0000
# 2 1.1257 48.9309 31.0328 0.0000 0.0000 0.0000
# 3 28.0775 31.0328 124.0320 0.0000 0.0000 0.0000
# 4 0.0000 0.0000 0.0000 13.2125 0.0000 0.0000
# 5 0.0000 0.0000 0.0000 0.0000 11.7455 0.0000
# 6 0.0000 0.0000 0.0000 0.0000 0.0000 13.1167
#
#
#
# Elastic Compliance Matrix: (Units=1/GPa)
#
#
# Indices 1 2 3 4 5 6 
#
# 1 0.017740 0.002542 -0.004652 0.000000 0.000000 0.000000
# 2 0.002542 0.024656 -0.006744 0.000000 0.000000 0.000000
# 3 -0.004652 -0.006744 0.010803 0.000000 0.000000 0.000000
# 4 0.000000 0.000000 0.000000 0.075686 0.000000 0.000000
# 5 0.000000 0.000000 0.000000 0.000000 0.085139 0.000000
# 6 0.000000 0.000000 0.000000 0.000000 0.000000 0.076238
#
#
# Mechanical properties :
#
#
# Convention : Reuss Voigt Hill
#
# Bulk Modulus (GPa) = 28.17655 39.66740 33.92197
# Shear Modulus (GPa) = 15.63476 19.36818 17.50147
#
# Velocity S-wave (km/s) = 3.02357 3.36526 3.19898
# Velocity P-wave (km/s) = 5.35394 6.18824 5.78615
#
# Compressibility (1/GPa) = 0.03549051
#
# Stress axis : x y z
#
# Youngs Moduli (GPa) = 56.37028 40.55821 92.56735
#
# Poissons Ratio (x) = -0.10311 0.43061
# Poissons Ratio (y) = -0.14330 0.62431
# Poissons Ratio (z) = 0.26223 0.27354
#
# Static dielectric constant tensor:
#      x y z
#    x 1.584840 0.000000 0.000000 
#    y 0.000000 1.573530 0.000000 
#    z 0.000000 0.000000 1.610140 
# 
# From -- ./inp_files/24682.got.cif
#   From: 2010.05.17/outbox.cif.g08.bks.cpg/sg57_13_cif.got.tgz:24682.got - 2010.06.03 13:58:18.
