data_PCOD9434999
_publ_section_title
;
Structure prediction by ZEFSAII (Michael W. Deem and Ramdas Pophale) SiO2 
 PCOD9434999
Probable space group: P B C M
;
_chemical_formula_sum "Si O2"
_cell_formula_units_Z 48
_cell_length_a 16.916243
_cell_length_b 18.593524
_cell_length_c 8.801579
_cell_angle_alpha 90.000000
_cell_angle_beta 90.000000
_cell_angle_gamma 90.000000
_cell_volume 2768.383265
_symmetry_space_group_name_H-M "P B C M"
_symmetry_group_IT_number 57
_symmetry_cell_setting 'orthorhombic'
loop_
_space_group_symop_operation_xyz
x,y,z
-x,-y,1/2+z
x,1/2-y,-z
-x,1/2+y,1/2-z
-x,-y,-z
x,y,1/2-z
-x,1/2+y,z
x,1/2-y,1/2+z
loop_
_atom_site_type_symbol
_atom_site_label
_atom_site_fract_x
_atom_site_fract_y
_atom_site_fract_z
Si Si1 0.082870 0.524403 0.431636
Si Si2 0.837288 0.173894 0.068453
Si Si3 0.235159 0.044186 0.431818
Si Si4 0.649291 0.670530 0.067328
Si Si5 0.683843 0.105847 0.568389
Si Si6 0.483220 0.670100 0.932733
O O1 0.078575 0.523756 0.250000
O O2 0.109555 0.605235 0.479660
O O3 0.152861 0.471960 0.486728
O O4 0.000000 0.500000 0.500000
O O5 0.838369 0.177975 0.250000
O O6 0.862762 0.250000 0.000000
O O7 0.748479 0.155661 0.013121
O O8 0.221889 0.045264 0.250000
O O9 0.280353 0.116675 0.475304
O O10 0.291778 0.976049 0.465191
O O11 0.644374 0.674284 0.250000
O O12 0.661149 0.750000 0.000000
O O13 0.565491 0.642881 0.002525
O O14 0.691778 0.116954 0.750000
O O15 0.594264 0.124529 0.526590
O O16 0.489969 0.673816 0.750000
O O17 0.471936 0.750000 0.000000
#
# Coordination Sequence:
#
# PCOD9434999 Si02
#       6
#     8   8   8   8   8   8
#     4  10  21  37  58  82 106 133 166 205 251 303
#     4  10  20  33  52  79 107 136 169 204 247 299
#     4   9  19  36  55  75 100 131 167 207 255 307
#     4  10  20  34  52  72  98 134 174 215 256 298
#     4   9  18  32  50  73 102 135 169 208 254 301
#     4  10  19  30  46  69  99 135 173 211 251 295
#
# _framework density 17.338640000000002
#
# number of rings (size 3 to 8) (size 9 to 14) (size 15 to 20)
#    0.000    2.333    0.000    3.500    0.000    6.667 
#    0.000    0.833    0.000    0.000    0.000    0.000 
#    0.000    0.000    0.000    0.000    0.000    0.000 
#
# Total GULP energy -267827.561899 kJ/mol
# GULP energy per Si atom -5579.740873 kJ/mol
# Density = 1.729918 g / cm^3
# Si number density = 17.338640 Si / 1000 Ang^3
#
#
#
# Elastic Constant Matrix: (Units=GPa)
#
#
# Indices 1 2 3 4 5 6 
#
# 1 160.0299 86.1739 54.9630 0.0000 0.0000 0.0000
# 2 86.1739 88.5657 41.0631 0.0000 0.0000 0.0000
# 3 54.9630 41.0631 46.6988 0.0000 0.0000 0.0000
# 4 0.0000 0.0000 0.0000 24.3228 0.0000 0.0000
# 5 0.0000 0.0000 0.0000 0.0000 31.7672 0.0000
# 6 0.0000 0.0000 0.0000 0.0000 0.0000 18.4422
#
#
#
# Elastic Compliance Matrix: (Units=1/GPa)
#
#
# Indices 1 2 3 4 5 6 
#
# 1 0.014697 -0.010603 -0.007975 0.000000 0.000000 0.000000
# 2 -0.010603 0.026712 -0.011009 0.000000 0.000000 0.000000
# 3 -0.007975 -0.011009 0.040481 0.000000 0.000000 0.000000
# 4 0.000000 0.000000 0.000000 0.041114 0.000000 0.000000
# 5 0.000000 0.000000 0.000000 0.000000 0.031479 0.000000
# 6 0.000000 0.000000 0.000000 0.000000 0.000000 0.054223
#
#
# Mechanical properties :
#
#
# Convention : Reuss Voigt Hill
#
# Bulk Modulus (GPa) = 44.02181 73.29939 58.66060
# Shear Modulus (GPa) = 18.15200 22.44607 20.29904
#
# Velocity S-wave (km/s) = 3.23911 3.60192 3.42532
# Velocity P-wave (km/s) = 6.27962 7.72433 7.03914
#
# Compressibility (1/GPa) = 0.02271601
#
# Stress axis : x y z
#
# Youngs Moduli (GPa) = 68.03919 37.43656 24.70320
#
# Poissons Ratio (x) = 0.39694 0.19701
# Poissons Ratio (y) = 0.72141 0.27196
# Poissons Ratio (z) = 0.54262 0.41214
#
# Static dielectric constant tensor:
#      x y z
#    x 1.567500 0.000000 0.000000 
#    y 0.000000 1.587500 0.000000 
#    z 0.000000 0.000000 1.582440 
# 
# From -- ./inp_files/4882.got.cif
#   From: 2010.05.17/outbox.cif.g08.bks.cpg/sg57_3_cif.got.tgz:4882.got - 2010.06.03 13:58:18.
