data_PCOD9434992
_publ_section_title
;
Structure prediction by ZEFSAII (Michael W. Deem and Ramdas Pophale) SiO2 
 PCOD9434992
Probable space group: P B C M
;
_chemical_formula_sum "Si O2"
_cell_formula_units_Z 48
_cell_length_a 12.258248
_cell_length_b 26.577325
_cell_length_c 8.954413
_cell_angle_alpha 90.000000
_cell_angle_beta 90.000000
_cell_angle_gamma 90.000000
_cell_volume 2917.271115
_symmetry_space_group_name_H-M "P B C M"
_symmetry_group_IT_number 57
_symmetry_cell_setting 'orthorhombic'
loop_
_space_group_symop_operation_xyz
x,y,z
-x,-y,1/2+z
x,1/2-y,-z
-x,1/2+y,1/2-z
-x,-y,-z
x,y,1/2-z
-x,1/2+y,z
x,1/2-y,1/2+z
loop_
_atom_site_type_symbol
_atom_site_label
_atom_site_fract_x
_atom_site_fract_y
_atom_site_fract_z
Si Si1 0.539114 0.447014 0.069597
Si Si2 0.214225 0.573897 0.927706
Si Si3 0.823926 0.695045 0.070303
Si Si4 0.837405 0.539877 0.072933
Si Si5 0.670673 0.613773 0.927290
Si Si6 0.017744 0.878691 0.572827
O O1 0.541056 0.453521 0.250000
O O2 0.660478 0.430952 0.020537
O O3 0.451630 0.403447 0.034369
O O4 0.500000 0.500000 0.000000
O O5 0.216080 0.581464 0.750000
O O6 0.162062 0.518990 0.957612
O O7 0.134970 0.615216 0.998227
O O8 0.821204 0.697005 0.250000
O O9 0.935930 0.665998 0.024911
O O10 0.820044 0.750000 0.000000
O O11 0.723721 0.660849 0.012376
O O12 0.811675 0.546778 0.250000
O O13 0.947547 0.570587 0.043510
O O14 0.744988 0.566494 0.975517
O O15 0.678005 0.622198 0.750000
O O16 0.032219 0.874401 0.750000
#
# Coordination Sequence:
#
# PCOD9434992 Si02
#       6
#     8   8   8   8   8   8
#     4  10  20  32  48  72 104 142 180 213 247 294
#     4  10  19  30  46  69 102 141 175 207 246 292
#     4  10  21  38  59  80 101 126 161 212 266 313
#     4   9  17  30  46  67 101 138 171 210 249 291
#     4  10  19  31  50  77 104 134 174 214 252 300
#     4   9  19  32  47  72 101 129 165 207 253 305
#
# _framework density 16.453734000000001
#
# number of rings (size 3 to 8) (size 9 to 14) (size 15 to 20)
#    0.000    2.333    1.667    2.500    0.000    5.333 
#    0.000    0.000    0.000    1.000    0.000    2.333 
#    0.000    0.000    0.000    0.000    0.000    0.000 
#
# Total GULP energy -267541.052991 kJ/mol
# GULP energy per Si atom -5573.771937 kJ/mol
# Density = 1.641628 g / cm^3
# Si number density = 16.453734 Si / 1000 Ang^3
#
#
#
# Elastic Constant Matrix: (Units=GPa)
#
#
# Indices 1 2 3 4 5 6 
#
# 1 110.8553 63.7197 42.0327 0.0000 0.0000 0.0000
# 2 63.7197 94.3652 42.1438 0.0000 0.0000 0.0000
# 3 42.0327 42.1438 25.9065 0.0000 0.0000 0.0000
# 4 0.0000 0.0000 0.0000 20.8400 0.0000 0.0000
# 5 0.0000 0.0000 0.0000 0.0000 25.2645 0.0000
# 6 0.0000 0.0000 0.0000 0.0000 0.0000 10.8336
#
#
#
# Elastic Compliance Matrix: (Units=1/GPa)
#
#
# Indices 1 2 3 4 5 6 
#
# 1 0.023913 0.004316 -0.045819 0.000000 0.000000 0.000000
# 2 0.004316 0.039528 -0.071304 0.000000 0.000000 0.000000
# 3 -0.045819 -0.071304 0.228936 0.000000 0.000000 0.000000
# 4 0.000000 0.000000 0.000000 0.047985 0.000000 0.000000
# 5 0.000000 0.000000 0.000000 0.000000 0.039581 0.000000
# 6 0.000000 0.000000 0.000000 0.000000 0.000000 0.092306
#
#
# Mechanical properties :
#
#
# Convention : Reuss Voigt Hill
#
# Bulk Modulus (GPa) = 14.97874 58.54659 36.76266
# Shear Modulus (GPa) = 6.94332 16.93635 11.93983
#
# Velocity S-wave (km/s) = 2.05647 3.21180 2.69673
# Velocity P-wave (km/s) = 3.84214 7.02951 5.66463
#
# Compressibility (1/GPa) = 0.06676131
#
# Stress axis : x y z
#
# Youngs Moduli (GPa) = 41.81777 25.29878 4.36804
#
# Poissons Ratio (x) = -0.10918 0.20014
# Poissons Ratio (y) = -0.18047 0.31146
# Poissons Ratio (z) = 1.91606 1.80391
#
# Static dielectric constant tensor:
#      x y z
#    x 1.574120 0.000000 0.000000 
#    y 0.000000 1.533440 0.000000 
#    z 0.000000 0.000000 1.556470 
# 
# From -- ./inp_files/3175.got.cif
#   From: 2010.05.17/outbox.cif.g08.bks.cpg/sg57_2_cif.got.tgz:3175.got - 2010.06.03 13:58:18.
