data_PCOD9434916
_publ_section_title
;
Structure prediction by ZEFSAII (Michael W. Deem and Ramdas Pophale) SiO2 
 PCOD9434916
Probable space group: P B C M
;
_chemical_formula_sum "Si O2"
_cell_formula_units_Z 48
_cell_length_a 15.925620
_cell_length_b 21.997309
_cell_length_c 8.432027
_cell_angle_alpha 90.000000
_cell_angle_beta 90.000000
_cell_angle_gamma 90.000000
_cell_volume 2953.914311
_symmetry_space_group_name_H-M "P B C M"
_symmetry_group_IT_number 57
_symmetry_cell_setting 'orthorhombic'
loop_
_space_group_symop_operation_xyz
x,y,z
-x,-y,1/2+z
x,1/2-y,-z
-x,1/2+y,1/2-z
-x,-y,-z
x,y,1/2-z
-x,1/2+y,z
x,1/2-y,1/2+z
loop_
_atom_site_type_symbol
_atom_site_label
_atom_site_fract_x
_atom_site_fract_y
_atom_site_fract_z
Si Si1 0.303520 0.957006 0.556909
Si Si2 0.940656 0.587472 0.440238
Si Si3 0.656131 0.595989 0.559054
Si Si4 0.807282 0.681487 0.560163
Si Si5 0.482708 0.568554 0.059959
Si Si6 0.881294 0.043726 0.441814
O O1 0.303298 0.956730 0.750000
O O2 0.386480 0.919684 0.507729
O O3 0.211335 0.936510 0.503684
O O4 0.316702 0.027681 0.508130
O O5 0.937916 0.588043 0.250000
O O6 0.888453 0.643868 0.504892
O O7 0.898604 0.524938 0.500818
O O8 0.038314 0.583370 0.491932
O O9 0.656358 0.595594 0.750000
O O10 0.724852 0.644358 0.503040
O O11 0.560883 0.607042 0.503471
O O12 0.807594 0.750000 0.500000
O O13 0.805511 0.681434 0.750000
O O14 0.485438 0.569206 0.250000
O O15 0.500000 0.500000 0.000000
O O16 0.881010 0.042549 0.250000
#
# Coordination Sequence:
#
# PCOD9434916 Si02
#       6
#     8   8   8   8   8   8
#     4   8  13  25  43  64  90 123 151 175 224 274
#     4  10  19  29  45  70  94 121 159 196 235 281
#     4   9  17  30  45  61  88 123 152 186 231 275
#     4  11  22  36  51  66  91 124 160 199 240 285
#     4   9  16  25  40  63  91 120 151 182 217 266
#     4   9  16  29  47  66  95 129 156 187 232 284
#
# _framework density 16.249625999999999
#
# number of rings (size 3 to 8) (size 9 to 14) (size 15 to 20)
#    0.000    2.667    1.667    2.500    0.000    2.000 
#    0.000    0.833    0.000    0.000    0.000    1.167 
#    0.000    2.667    0.000    0.000    0.000    0.000 
#
# Total GULP energy -267257.159476 kJ/mol
# GULP energy per Si atom -5567.857489 kJ/mol
# Density = 1.621264 g / cm^3
# Si number density = 16.249626 Si / 1000 Ang^3
#
#
#
# Elastic Constant Matrix: (Units=GPa)
#
#
# Indices 1 2 3 4 5 6 
#
# 1 189.2470 56.1167 20.3125 0.0000 0.0000 0.0000
# 2 56.1167 64.3011 11.4821 0.0000 0.0000 0.0000
# 3 20.3125 11.4821 13.9488 0.0000 0.0000 0.0000
# 4 0.0000 0.0000 0.0000 17.7591 0.0000 0.0000
# 5 0.0000 0.0000 0.0000 0.0000 22.6633 0.0000
# 6 0.0000 0.0000 0.0000 0.0000 0.0000 10.8810
#
#
#
# Elastic Compliance Matrix: (Units=1/GPa)
#
#
# Indices 1 2 3 4 5 6 
#
# 1 0.007612 -0.005467 -0.006584 0.000000 0.000000 0.000000
# 2 -0.005467 0.022159 -0.010278 0.000000 0.000000 0.000000
# 3 -0.006584 -0.010278 0.089739 0.000000 0.000000 0.000000
# 4 0.000000 0.000000 0.000000 0.056309 0.000000 0.000000
# 5 0.000000 0.000000 0.000000 0.000000 0.044124 0.000000
# 6 0.000000 0.000000 0.000000 0.000000 0.000000 0.091903
#
#
# Mechanical properties :
#
#
# Convention : Reuss Voigt Hill
#
# Bulk Modulus (GPa) = 13.36001 49.25773 31.30887
# Shear Modulus (GPa) = 13.10764 22.23306 17.67035
#
# Velocity S-wave (km/s) = 2.84323 3.70296 3.30120
# Velocity P-wave (km/s) = 4.36098 6.97578 5.81720
#
# Compressibility (1/GPa) = 0.07485026
#
# Stress axis : x y z
#
# Youngs Moduli (GPa) = 131.37070 45.12898 11.14337
#
# Poissons Ratio (x) = 0.24674 0.07337
# Poissons Ratio (y) = 0.71826 0.11453
# Poissons Ratio (z) = 0.86498 0.46385
#
# Static dielectric constant tensor:
#      x y z
#    x 1.614170 0.000000 0.000000 
#    y 0.000000 1.487630 0.000000 
#    z 0.000000 0.000000 1.557450 
# 
# From -- ./inp_files/4910.got.cif
#   From: 2010.05.17/outbox.cif.g08.bks.cpg/sg57_3_cif.got.tgz:4910.got - 2010.06.03 13:58:18.
