data_PCOD9434998
_publ_section_title
;
Structure prediction by ZEFSAII (Michael W. Deem and Ramdas Pophale) SiO2 
 PCOD9434998
Probable space group: P B C M
;
_chemical_formula_sum "Si O2"
_cell_formula_units_Z 48
_cell_length_a 16.845933
_cell_length_b 18.959045
_cell_length_c 8.570276
_cell_angle_alpha 90.000000
_cell_angle_beta 90.000000
_cell_angle_gamma 90.000000
_cell_volume 2737.198761
_symmetry_space_group_name_H-M "P B C M"
_symmetry_group_IT_number 57
_symmetry_cell_setting 'orthorhombic'
loop_
_space_group_symop_operation_xyz
x,y,z
-x,-y,1/2+z
x,1/2-y,-z
-x,1/2+y,1/2-z
-x,-y,-z
x,y,1/2-z
-x,1/2+y,z
x,1/2-y,1/2+z
loop_
_atom_site_type_symbol
_atom_site_label
_atom_site_fract_x
_atom_site_fract_y
_atom_site_fract_z
Si Si1 0.757949 0.457935 0.939209
Si Si2 0.918171 0.531483 0.937927
Si Si3 0.476681 0.170822 0.437023
Si Si4 0.656530 0.171513 0.438364
Si Si5 0.319416 0.395681 0.063186
Si Si6 0.160780 0.172534 0.436129
O O1 0.759363 0.454396 0.750000
O O2 0.846140 0.479753 0.988928
O O3 0.720239 0.385315 0.996195
O O4 0.702547 0.524240 0.980518
O O5 0.919147 0.534212 0.750000
O O6 0.894780 0.609374 0.999212
O O7 0.000000 0.500000 0.000000
O O8 0.465743 0.250000 0.500000
O O9 0.471139 0.170883 0.250000
O O10 0.566470 0.149298 0.481663
O O11 0.406290 0.124732 0.506547
O O12 0.670425 0.250000 0.500000
O O13 0.659157 0.173696 0.250000
O O14 0.314110 0.388886 0.250000
O O15 0.250395 0.346960 0.990391
O O16 0.139938 0.250000 0.500000
O O17 0.157260 0.172777 0.250000
#
# Coordination Sequence:
#
# PCOD9434998 Si02
#       6
#     8   8   8   8   8   8
#     4   8  17  34  54  73  98 132 167 207 257 308
#     4  10  20  37  59  82 108 139 173 211 260 315
#     4  10  19  30  46  69  99 134 172 212 252 297
#     4   9  18  34  52  71  97 132 172 212 254 297
#     4  10  19  32  50  73 102 136 172 210 256 309
#     4  11  21  35  55  80 109 139 173 214 260 311
#
# _framework density 17.536176000000001
#
# number of rings (size 3 to 8) (size 9 to 14) (size 15 to 20)
#    0.000    2.333    0.000    4.500    0.000    1.333 
#    0.000    5.833    0.000    2.000    0.000    0.000 
#    0.000    0.000    0.000    0.000    0.000    0.000 
#
# Total GULP energy -267777.800092 kJ/mol
# GULP energy per Si atom -5578.704169 kJ/mol
# Density = 1.749626 g / cm^3
# Si number density = 17.536176 Si / 1000 Ang^3
#
#
#
# Elastic Constant Matrix: (Units=GPa)
#
#
# Indices 1 2 3 4 5 6 
#
# 1 144.3902 110.9908 42.2867 0.0000 0.0000 0.0000
# 2 110.9908 129.7249 42.4657 0.0000 0.0000 0.0000
# 3 42.2867 42.4657 72.4504 0.0000 0.0000 0.0000
# 4 0.0000 0.0000 0.0000 25.0459 0.0000 0.0000
# 5 0.0000 0.0000 0.0000 0.0000 22.0531 0.0000
# 6 0.0000 0.0000 0.0000 0.0000 0.0000 23.3561
#
#
#
# Elastic Compliance Matrix: (Units=1/GPa)
#
#
# Indices 1 2 3 4 5 6 
#
# 1 0.020482 -0.016843 -0.002083 0.000000 0.000000 0.000000
# 2 -0.016843 0.023388 -0.003878 0.000000 0.000000 0.000000
# 3 -0.002083 -0.003878 0.017291 0.000000 0.000000 0.000000
# 4 0.000000 0.000000 0.000000 0.039927 0.000000 0.000000
# 5 0.000000 0.000000 0.000000 0.000000 0.045345 0.000000
# 6 0.000000 0.000000 0.000000 0.000000 0.000000 0.042815
#
#
# Mechanical properties :
#
#
# Convention : Reuss Voigt Hill
#
# Bulk Modulus (GPa) = 64.28898 82.00575 73.14737
# Shear Modulus (GPa) = 20.82971 24.14585 22.48778
#
# Velocity S-wave (km/s) = 3.45021 3.71471 3.58490
# Velocity P-wave (km/s) = 7.25343 8.07861 7.67712
#
# Compressibility (1/GPa) = 0.01555477
#
# Stress axis : x y z
#
# Youngs Moduli (GPa) = 48.82264 42.75608 57.83203
#
# Poissons Ratio (x) = 0.72012 0.12045
# Poissons Ratio (y) = 0.82230 0.22430
# Poissons Ratio (z) = 0.10169 0.16582
#
# Static dielectric constant tensor:
#      x y z
#    x 1.588070 0.000000 0.000000 
#    y 0.000000 1.579550 0.000000 
#    z 0.000000 0.000000 1.595900 
# 
# From -- ./inp_files/4690.got.cif
#   From: 2010.05.17/outbox.cif.g08.bks.cpg/sg57_3_cif.got.tgz:4690.got - 2010.06.03 13:58:18.
