data_PCOD9434461
_publ_section_title
;
Structure prediction by ZEFSAII (Michael W. Deem and Ramdas Pophale) SiO2 
 PCOD9434461
Probable space group: P B C M
;
_chemical_formula_sum "Si O2"
_cell_formula_units_Z 64
_cell_length_a 15.405406
_cell_length_b 30.811156
_cell_length_c 8.300367
_cell_angle_alpha 90.000000
_cell_angle_beta 90.000000
_cell_angle_gamma 90.000000
_cell_volume 3939.838650
_symmetry_space_group_name_H-M "P B C M"
_symmetry_group_IT_number 57
_symmetry_cell_setting 'orthorhombic'
loop_
_space_group_symop_operation_xyz
x,y,z
-x,-y,1/2+z
x,1/2-y,-z
-x,1/2+y,1/2-z
-x,-y,-z
x,y,1/2-z
-x,1/2+y,z
x,1/2-y,1/2+z
loop_
_atom_site_type_symbol
_atom_site_label
_atom_site_fract_x
_atom_site_fract_y
_atom_site_fract_z
Si Si1 0.676272 0.462386 0.944912
Si Si2 0.873443 0.029469 0.056333
Si Si3 0.365533 0.442665 0.943024
Si Si4 0.952850 0.563024 0.555542
Si Si5 0.494458 0.202907 0.442269
Si Si6 0.539096 0.391535 0.946871
Si Si7 0.793120 0.615979 0.555399
Si Si8 0.704635 0.703435 0.943147
O O1 0.677329 0.461863 0.750000
O O2 0.776204 0.461371 0.002344
O O3 0.618700 0.421706 0.999881
O O4 0.634065 0.507930 0.997049
O O5 0.870209 0.028216 0.250000
O O6 0.907059 0.982062 0.001142
O O7 0.948888 0.062503 0.005408
O O8 0.365119 0.442685 0.750000
O O9 0.449387 0.415004 0.997283
O O10 0.278661 0.419177 0.004305
O O11 0.955158 0.562559 0.750000
O O12 0.888301 0.600977 0.501252
O O13 0.526795 0.250000 0.500000
O O14 0.497601 0.203327 0.250000
O O15 0.540179 0.158629 0.500566
O O16 0.393712 0.199048 0.493798
O O17 0.539091 0.391173 0.750000
O O18 0.794042 0.616545 0.750000
O O19 0.761078 0.662864 0.498360
O O20 0.701331 0.702909 0.750000
O O21 0.738295 0.750000 0.000000
#
# Coordination Sequence:
#
# PCOD9434461 Si02
#       8
#     8   8   8   8   8   8   8   8
#     4  10  19  34  49  63  91 128 160 190 228 276
#     4   9  17  29  46  66  87 116 152 189 226 265
#     4  11  20  30  44  68  96 124 158 194 223 258
#     4   9  17  30  46  65  89 116 149 187 225 268
#     4  10  18  31  47  67  92 119 153 190 232 270
#     4   9  19  32  47  66  92 125 157 191 229 269
#     4  10  19  32  48  67  91 127 159 182 225 280
#     4  10  19  30  47  68  92 121 153 187 228 273
#
# _framework density 16.244319999999998
#
# number of rings (size 3 to 8) (size 9 to 14) (size 15 to 20)
#    0.000    2.250    2.500    2.250    0.000    1.500 
#    0.000    1.875    0.000    0.000    0.000    0.875 
#    0.000    6.000    0.000    0.000    0.000    0.000 
#
# Total GULP energy -356842.976383 kJ/mol
# GULP energy per Si atom -5575.671506 kJ/mol
# Density = 1.620735 g / cm^3
# Si number density = 16.244320 Si / 1000 Ang^3
#
#
#
# Elastic Constant Matrix: (Units=GPa)
#
#
# Indices 1 2 3 4 5 6 
#
# 1 73.6514 52.9257 4.3665 0.0000 0.0000 0.0000
# 2 52.9257 144.2700 12.0852 0.0000 0.0000 0.0000
# 3 4.3665 12.0852 7.8086 0.0000 0.0000 0.0000
# 4 0.0000 0.0000 0.0000 17.3079 0.0000 0.0000
# 5 0.0000 0.0000 0.0000 0.0000 15.5342 0.0000
# 6 0.0000 0.0000 0.0000 0.0000 0.0000 21.3688
#
#
#
# Elastic Compliance Matrix: (Units=1/GPa)
#
#
# Indices 1 2 3 4 5 6 
#
# 1 0.018438 -0.006779 0.000182 0.000000 0.000000 0.000000
# 2 -0.006779 0.010457 -0.012392 0.000000 0.000000 0.000000
# 3 0.000182 -0.012392 0.147142 0.000000 0.000000 0.000000
# 4 0.000000 0.000000 0.000000 0.057777 0.000000 0.000000
# 5 0.000000 0.000000 0.000000 0.000000 0.064374 0.000000
# 6 0.000000 0.000000 0.000000 0.000000 0.000000 0.046797
#
#
# Mechanical properties :
#
#
# Convention : Reuss Voigt Hill
#
# Bulk Modulus (GPa) = 7.24341 40.49831 23.87086
# Shear Modulus (GPa) = 11.65544 21.26569 16.46057
#
# Velocity S-wave (km/s) = 2.68154 3.62210 3.18671
# Velocity P-wave (km/s) = 3.74917 6.51749 5.31667
#
# Compressibility (1/GPa) = 0.13805649
#
# Stress axis : x y z
#
# Youngs Moduli (GPa) = 54.23488 95.63398 6.79616
#
# Poissons Ratio (x) = 0.64834 -0.00123
# Poissons Ratio (y) = 0.36768 0.08422
# Poissons Ratio (z) = -0.00985 1.18513
#
# Static dielectric constant tensor:
#      x y z
#    x 1.538570 0.000000 0.000000 
#    y 0.000000 1.559390 0.000000 
#    z 0.000000 0.000000 1.565370 
# 
# From -- ./inp_files/5975.got.cif
#   From: 2010.05.17/outbox.cif.g08.bks.cpg/sg57_3_cif.got.tgz:5975.got - 2010.06.03 13:58:18.
