data_PCOD9434470
_publ_section_title
;
Structure prediction by ZEFSAII (Michael W. Deem and Ramdas Pophale) SiO2 
 PCOD9434470
Probable space group: P B C M
;
_chemical_formula_sum "Si O2"
_cell_formula_units_Z 64
_cell_length_a 18.276987
_cell_length_b 23.262762
_cell_length_c 8.120756
_cell_angle_alpha 90.000000
_cell_angle_beta 90.000000
_cell_angle_gamma 90.000000
_cell_volume 3452.727804
_symmetry_space_group_name_H-M "P B C M"
_symmetry_group_IT_number 57
_symmetry_cell_setting 'orthorhombic'
loop_
_space_group_symop_operation_xyz
x,y,z
-x,-y,1/2+z
x,1/2-y,-z
-x,1/2+y,1/2-z
-x,-y,-z
x,y,1/2-z
-x,1/2+y,z
x,1/2-y,1/2+z
loop_
_atom_site_type_symbol
_atom_site_label
_atom_site_fract_x
_atom_site_fract_y
_atom_site_fract_z
Si Si1 0.667745 0.050250 0.948920
Si Si2 0.350050 0.417548 0.447236
Si Si3 0.509395 0.066223 0.948397
Si Si4 0.175448 0.915243 0.048289
Si Si5 0.929568 0.187192 0.946219
Si Si6 0.091026 0.152035 0.051062
Si Si7 0.751312 0.811932 0.946260
Si Si8 0.920500 0.978385 0.948310
O O1 0.667427 0.051994 0.750000
O O2 0.591686 0.079083 0.008016
O O3 0.740623 0.082547 0.006520
O O4 0.669766 0.982266 0.994053
O O5 0.350282 0.419345 0.250000
O O6 0.433831 0.404705 0.505771
O O7 0.295361 0.367430 0.501328
O O8 0.510222 0.070694 0.750000
O O9 0.500000 0.000000 0.000000
O O10 0.174995 0.913923 0.250000
O O11 0.124177 0.863023 0.990857
O O12 0.138218 0.974968 0.995519
O O13 0.929385 0.184018 0.750000
O O14 0.904447 0.250000 0.000000
O O15 0.013274 0.178044 0.001606
O O16 0.092999 0.152347 0.250000
O O17 0.165014 0.182032 0.989543
O O18 0.092715 0.085985 0.991825
O O19 0.754026 0.812547 0.750000
O O20 0.721097 0.750000 0.000000
O O21 0.917665 0.976873 0.750000
O O22 0.000000 0.000000 0.000000
#
# Coordination Sequence:
#
# PCOD9434470 Si02
#       8
#     8   8   8   8   8   8   8   8
#     4   9  16  31  54  78 104 136 170 206 254 305
#     4  10  19  32  50  78 110 136 166 205 252 307
#     4   8  15  27  48  76 104 132 161 195 238 294
#     4   9  18  32  51  74 100 131 167 205 248 300
#     4  11  22  36  53  71  95 129 170 211 251 296
#     4  10  21  36  55  76 100 128 166 211 253 302
#     4  11  23  38  54  73  99 136 177 217 257 303
#     4  10  18  31  49  73 101 128 160 200 246 298
#
# _framework density 18.536069000000001
#
# number of rings (size 3 to 8) (size 9 to 14) (size 15 to 20)
#    0.000    2.250    1.250    2.250    0.000    4.500 
#    0.000    3.125    0.000    0.750    0.000    1.750 
#    0.000    0.000    0.000    0.000    0.000    0.000 
#
# Total GULP energy -356831.125263 kJ/mol
# GULP energy per Si atom -5575.486332 kJ/mol
# Density = 1.849388 g / cm^3
# Si number density = 18.536069 Si / 1000 Ang^3
#
#
#
# Elastic Constant Matrix: (Units=GPa)
#
#
# Indices 1 2 3 4 5 6 
#
# 1 144.8925 38.0816 8.0941 0.0000 0.0000 0.0000
# 2 38.0816 84.6386 4.1061 0.0000 0.0000 0.0000
# 3 8.0941 4.1061 16.0076 0.0000 0.0000 0.0000
# 4 0.0000 0.0000 0.0000 20.7096 0.0000 0.0000
# 5 0.0000 0.0000 0.0000 0.0000 16.1312 0.0000
# 6 0.0000 0.0000 0.0000 0.0000 0.0000 10.5152
#
#
#
# Elastic Compliance Matrix: (Units=1/GPa)
#
#
# Indices 1 2 3 4 5 6 
#
# 1 0.007981 -0.003438 -0.003154 0.000000 0.000000 0.000000
# 2 -0.003438 0.013445 -0.001710 0.000000 0.000000 0.000000
# 3 -0.003154 -0.001710 0.064504 0.000000 0.000000 0.000000
# 4 0.000000 0.000000 0.000000 0.048287 0.000000 0.000000
# 5 0.000000 0.000000 0.000000 0.000000 0.061992 0.000000
# 6 0.000000 0.000000 0.000000 0.000000 0.000000 0.095101
#
#
# Mechanical properties :
#
#
# Convention : Reuss Voigt Hill
#
# Bulk Modulus (GPa) = 14.42470 38.45582 26.44026
# Shear Modulus (GPa) = 15.10473 22.48832 18.79652
#
# Velocity S-wave (km/s) = 2.85771 3.48691 3.18787
# Velocity P-wave (km/s) = 4.32291 6.08300 5.27686
#
# Compressibility (1/GPa) = 0.06932552
#
# Stress axis : x y z
#
# Youngs Moduli (GPa) = 125.28998 74.37799 15.50298
#
# Poissons Ratio (x) = 0.25572 0.04889
# Poissons Ratio (y) = 0.43076 0.02651
# Poissons Ratio (z) = 0.39515 0.12721
#
# Static dielectric constant tensor:
#      x y z
#    x 1.689800 0.000000 0.000000 
#    y 0.000000 1.579620 0.000000 
#    z 0.000000 0.000000 1.647740 
# 
# From -- ./inp_files/7159.got.cif
#   From: 2010.05.17/outbox.cif.g08.bks.cpg/sg57_4_cif.got.tgz:7159.got - 2010.06.03 13:58:18.
