data_PCOD9434071
_publ_section_title
;
Structure prediction by ZEFSAII (Michael W. Deem and Ramdas Pophale) SiO2 
 PCOD9434071
Probable space group: P B C M
;
_chemical_formula_sum "Si O2"
_cell_formula_units_Z 64
_cell_length_a 21.359228
_cell_length_b 20.282573
_cell_length_c 8.895937
_cell_angle_alpha 90.000000
_cell_angle_beta 90.000000
_cell_angle_gamma 90.000000
_cell_volume 3853.898727
_symmetry_space_group_name_H-M "P B C M"
_symmetry_group_IT_number 57
_symmetry_cell_setting 'orthorhombic'
loop_
_space_group_symop_operation_xyz
x,y,z
-x,-y,1/2+z
x,1/2-y,-z
-x,1/2+y,1/2-z
-x,-y,-z
x,y,1/2-z
-x,1/2+y,z
x,1/2-y,1/2+z
loop_
_atom_site_type_symbol
_atom_site_label
_atom_site_fract_x
_atom_site_fract_y
_atom_site_fract_z
Si Si1 0.907482 0.969228 0.079046
Si Si2 0.438016 0.314568 0.570549
Si Si3 0.013025 0.605445 0.078263
Si Si4 0.305080 0.464097 0.429553
Si Si5 0.547877 0.551131 0.930623
Si Si6 0.701880 0.683522 0.568780
Si Si7 0.798222 0.047666 0.571064
Si Si8 0.127250 0.678679 0.930861
O O1 0.889755 0.952825 0.250000
O O2 0.950955 0.034920 0.083973
O O3 0.948280 0.911464 0.004689
O O4 0.848358 0.993501 0.985005
O O5 0.468792 0.250000 0.500000
O O6 0.434931 0.311782 0.750000
O O7 0.468867 0.379970 0.508245
O O8 0.368070 0.316692 0.500257
O O9 0.003559 0.627359 0.250000
O O10 0.059495 0.654286 0.990956
O O11 0.300093 0.470336 0.250000
O O12 0.379053 0.464242 0.467568
O O13 0.276517 0.391211 0.468061
O O14 0.267245 0.522986 0.505400
O O15 0.543605 0.555273 0.750000
O O16 0.500000 0.500000 0.000000
O O17 0.732608 0.750000 0.500000
O O18 0.699047 0.689490 0.750000
O O19 0.796118 0.047694 0.750000
O O20 0.824368 0.119893 0.524014
O O21 0.126168 0.682384 0.750000
O O22 0.142211 0.750000 0.000000
#
# Coordination Sequence:
#
# PCOD9434071 Si02
#       8
#     8   8   8   8   8   8   8   8
#     4   9  16  27  45  68  95 124 152 187 235 287
#     4  10  17  27  45  69  96 125 155 191 235 286
#     4   9  16  27  45  69  95 122 153 192 237 283
#     4   9  19  33  49  71 100 131 165 204 250 304
#     4  10  20  34  51  74 101 130 165 208 258 311
#     4   9  16  27  44  68  95 122 153 190 232 284
#     4  10  20  32  49  73  99 128 168 212 253 302
#     4  10  20  33  49  72  99 130 171 216 258 299
#
# _framework density 16.606560000000002
#
# number of rings (size 3 to 8) (size 9 to 14) (size 15 to 20)
#    0.000    2.500    0.000    4.875    0.000    7.500 
#    0.000    0.000    0.000    1.500    0.000    5.250 
#    0.000    0.000    0.000    0.000    0.000    0.000 
#
# Total GULP energy -356370.730773 kJ/mol
# GULP energy per Si atom -5568.292668 kJ/mol
# Density = 1.656876 g / cm^3
# Si number density = 16.606560 Si / 1000 Ang^3
#
#
#
# Elastic Constant Matrix: (Units=GPa)
#
#
# Indices 1 2 3 4 5 6 
#
# 1 50.9090 51.3855 27.3187 0.0000 0.0000 0.0000
# 2 51.3855 129.6827 55.1390 0.0000 0.0000 0.0000
# 3 27.3187 55.1390 73.0323 0.0000 0.0000 0.0000
# 4 0.0000 0.0000 0.0000 29.5374 0.0000 0.0000
# 5 0.0000 0.0000 0.0000 0.0000 23.2228 0.0000
# 6 0.0000 0.0000 0.0000 0.0000 0.0000 21.9516
#
#
#
# Elastic Compliance Matrix: (Units=1/GPa)
#
#
# Indices 1 2 3 4 5 6 
#
# 1 0.033395 -0.011666 -0.003684 0.000000 0.000000 0.000000
# 2 -0.011666 0.015432 -0.007287 0.000000 0.000000 0.000000
# 3 -0.003684 -0.007287 0.020573 0.000000 0.000000 0.000000
# 4 0.000000 0.000000 0.000000 0.033855 0.000000 0.000000
# 5 0.000000 0.000000 0.000000 0.000000 0.043061 0.000000
# 6 0.000000 0.000000 0.000000 0.000000 0.000000 0.045555
#
#
# Mechanical properties :
#
#
# Convention : Reuss Voigt Hill
#
# Bulk Modulus (GPa) = 41.45107 57.92337 49.68722
# Shear Modulus (GPa) = 20.39255 22.92775 21.66015
#
# Velocity S-wave (km/s) = 3.50806 3.71973 3.61545
# Velocity P-wave (km/s) = 6.43611 7.30781 6.88577
#
# Compressibility (1/GPa) = 0.02412483
#
# Stress axis : x y z
#
# Youngs Moduli (GPa) = 29.94455 64.79981 48.60846
#
# Poissons Ratio (x) = 0.75596 0.17908
# Poissons Ratio (y) = 0.34933 0.35423
# Poissons Ratio (z) = 0.11032 0.47222
#
# Static dielectric constant tensor:
#      x y z
#    x 1.518910 0.000000 0.000000 
#    y 0.000000 1.548210 0.000000 
#    z 0.000000 0.000000 1.555480 
# 
# From -- ./inp_files/8774.got.cif
#   From: 2010.05.17/outbox.cif.g08.bks.cpg/sg57_5_cif.got.tgz:8774.got - 2010.06.03 13:58:18.
