data_PCOD9434092
_publ_section_title
;
Structure prediction by ZEFSAII (Michael W. Deem and Ramdas Pophale) SiO2 
 PCOD9434092
Probable space group: P B C M
;
_chemical_formula_sum "Si O2"
_cell_formula_units_Z 56
_cell_length_a 15.273898
_cell_length_b 26.701256
_cell_length_c 7.818999
_cell_angle_alpha 90.000000
_cell_angle_beta 90.000000
_cell_angle_gamma 90.000000
_cell_volume 3188.840038
_symmetry_space_group_name_H-M "P B C M"
_symmetry_group_IT_number 57
_symmetry_cell_setting 'orthorhombic'
loop_
_space_group_symop_operation_xyz
x,y,z
-x,-y,1/2+z
x,1/2-y,-z
-x,1/2+y,1/2-z
-x,-y,-z
x,y,1/2-z
-x,1/2+y,z
x,1/2-y,1/2+z
loop_
_atom_site_type_symbol
_atom_site_label
_atom_site_fract_x
_atom_site_fract_y
_atom_site_fract_z
Si Si1 0.932043 0.567262 0.456392
Si Si2 0.378295 0.192312 0.953717
Si Si3 0.483444 0.609831 0.540030
Si Si4 0.879579 0.456071 0.453080
Si Si5 0.757528 0.614086 0.048538
Si Si6 0.694606 0.426228 0.446579
Si Si7 0.622297 0.969610 0.052495
O O1 0.937153 0.565633 0.250000
O O2 0.898177 0.512496 0.518646
O O3 0.857970 0.607116 0.506164
O O4 0.030701 0.573891 0.519889
O O5 0.376450 0.187777 0.750000
O O6 0.458703 0.157237 0.015614
O O7 0.387752 0.250000 0.000000
O O8 0.289016 0.167054 0.020515
O O9 0.482885 0.609202 0.750000
O O10 0.383637 0.607312 0.478366
O O11 0.536387 0.559669 0.488002
O O12 0.864815 0.461754 0.250000
O O13 0.791200 0.431533 0.525637
O O14 0.753631 0.602060 0.250000
O O15 0.697628 0.572739 0.956673
O O16 0.705627 0.409748 0.250000
O O17 0.654535 0.482315 0.450783
O O18 0.609863 0.984224 0.250000
#
# Coordination Sequence:
#
# PCOD9434092 Si02
#       7
#     8   8   8   8   8   8   8
#     4   9  17  29  42  62  89 121 157 191 229 267
#     4  10  20  35  52  74  95 117 148 186 235 282
#     4   8  17  30  45  64  89 118 152 189 226 270
#     4   9  17  27  41  62  88 123 161 192 224 262
#     4  10  18  31  49  68  91 123 157 192 233 276
#     4  10  17  29  44  61  89 125 159 192 225 267
#     4  10  18  27  40  64  93 123 156 190 224 267
#
# _framework density 17.561245
#
# number of rings (size 3 to 8) (size 9 to 14) (size 15 to 20)
#    0.000    2.571    1.429    2.571    0.000    1.714 
#    0.000    3.571    0.000    0.000    0.000    1.000 
#    0.000    4.571    0.000    0.000    0.000    0.000 
#
# Total GULP energy -312124.762655 kJ/mol
# GULP energy per Si atom -5573.656476 kJ/mol
# Density = 1.752128 g / cm^3
# Si number density = 17.561245 Si / 1000 Ang^3
#
#
#
# Elastic Constant Matrix: (Units=GPa)
#
#
# Indices 1 2 3 4 5 6 
#
# 1 179.2044 46.2174 3.3646 0.0000 0.0000 0.0000
# 2 46.2174 63.1498 -3.1625 0.0000 0.0000 0.0000
# 3 3.3646 -3.1625 31.5085 0.0000 0.0000 0.0000
# 4 0.0000 0.0000 0.0000 14.0377 0.0000 0.0000
# 5 0.0000 0.0000 0.0000 0.0000 12.3115 0.0000
# 6 0.0000 0.0000 0.0000 0.0000 0.0000 13.1771
#
#
#
# Elastic Compliance Matrix: (Units=1/GPa)
#
#
# Indices 1 2 3 4 5 6 
#
# 1 0.006928 -0.005133 -0.001255 0.000000 0.000000 0.000000
# 2 -0.005133 0.019719 0.002527 0.000000 0.000000 0.000000
# 3 -0.001255 0.002527 0.032125 0.000000 0.000000 0.000000
# 4 0.000000 0.000000 0.000000 0.071237 0.000000 0.000000
# 5 0.000000 0.000000 0.000000 0.000000 0.081225 0.000000
# 6 0.000000 0.000000 0.000000 0.000000 0.000000 0.075889
#
#
# Mechanical properties :
#
#
# Convention : Reuss Voigt Hill
#
# Bulk Modulus (GPa) = 19.58860 40.74463 30.16662
# Shear Modulus (GPa) = 16.03282 23.06813 19.55048
#
# Velocity S-wave (km/s) = 3.02481 3.62827 3.34020
# Velocity P-wave (km/s) = 4.83508 6.38782 5.66490
#
# Compressibility (1/GPa) = 0.05105009
#
# Stress axis : x y z
#
# Youngs Moduli (GPa) = 144.35049 50.71368 31.12823
#
# Poissons Ratio (x) = 0.26031 0.03906
# Poissons Ratio (y) = 0.74094 -0.07867
# Poissons Ratio (z) = 0.18115 -0.12817
#
# Static dielectric constant tensor:
#      x y z
#    x 1.657510 0.000000 0.000000 
#    y 0.000000 1.573910 0.000000 
#    z 0.000000 0.000000 1.655190 
# 
# From -- ./inp_files/5905.got.cif
#   From: 2010.05.17/outbox.cif.g08.bks.cpg/sg57_3_cif.got.tgz:5905.got - 2010.06.03 13:58:18.
