data_PCOD9434032
_publ_section_title
;
Structure prediction by ZEFSAII (Michael W. Deem and Ramdas Pophale) SiO2 
 PCOD9434032
Probable space group: P B C M
;
_chemical_formula_sum "Si O2"
_cell_formula_units_Z 48
_cell_length_a 16.616262
_cell_length_b 18.456700
_cell_length_c 8.502324
_cell_angle_alpha 90.000000
_cell_angle_beta 90.000000
_cell_angle_gamma 90.000000
_cell_volume 2607.504312
_symmetry_space_group_name_H-M "P B C M"
_symmetry_group_IT_number 57
_symmetry_cell_setting 'orthorhombic'
loop_
_space_group_symop_operation_xyz
x,y,z
-x,-y,1/2+z
x,1/2-y,-z
-x,1/2+y,1/2-z
-x,-y,-z
x,y,1/2-z
-x,1/2+y,z
x,1/2-y,1/2+z
loop_
_atom_site_type_symbol
_atom_site_label
_atom_site_fract_x
_atom_site_fract_y
_atom_site_fract_z
Si Si1 0.843177 0.667785 0.938586
Si Si2 0.491684 0.333276 0.438844
Si Si3 0.334434 0.667186 0.939760
Si Si4 0.840849 0.167634 0.940358
Si Si5 0.674849 0.667038 0.063128
Si Si6 0.998118 0.081289 0.559892
O O1 0.840108 0.669669 0.750000
O O2 0.758767 0.635565 0.000506
O O3 0.921434 0.623528 0.990675
O O4 0.850266 0.750000 0.000000
O O5 0.493231 0.250000 0.500000
O O6 0.486443 0.332247 0.250000
O O7 0.578845 0.365222 0.488004
O O8 0.409318 0.366593 0.505139
O O9 0.335168 0.668164 0.750000
O O10 0.247251 0.637195 0.989659
O O11 0.334087 0.750000 0.000000
O O12 0.842248 0.169170 0.750000
O O13 0.917156 0.121709 0.995201
O O14 0.847693 0.250000 0.000000
O O15 0.675783 0.831327 0.750000
O O16 0.674834 0.750000 0.000000
O O17 0.997346 0.081557 0.750000
O O18 0.000000 0.000000 0.500000
#
# Coordination Sequence:
#
# PCOD9434032 Si02
#       6
#     8   8   8   8   8   8
#     4  10  19  32  49  71  95 123 157 195 234 277
#     4   9  14  21  34  56  87 121 149 180 220 266
#     4   8  14  23  38  60  89 120 150 182 223 268
#     4   9  17  31  49  72  97 124 157 194 232 277
#     4  10  17  25  39  61  89 122 153 187 227 270
#     4  10  22  36  51  70  95 124 157 194 236 282
#
# _framework density 18.408405999999999
#
# number of rings (size 3 to 8) (size 9 to 14) (size 15 to 20)
#    0.000    2.667    0.000    5.000    0.000    2.667 
#    0.000    0.000    0.000    0.000    0.000    1.167 
#    0.000    0.000    0.000    0.000    0.000    0.000 
#
# Total GULP energy -267266.562521 kJ/mol
# GULP energy per Si atom -5568.053386 kJ/mol
# Density = 1.836651 g / cm^3
# Si number density = 18.408406 Si / 1000 Ang^3
#
#
#
# Elastic Constant Matrix: (Units=GPa)
#
#
# Indices 1 2 3 4 5 6 
#
# 1 256.7003 56.5574 43.3019 0.0000 0.0000 0.0000
# 2 56.5574 36.9183 7.8564 0.0000 0.0000 0.0000
# 3 43.3019 7.8564 47.1747 0.0000 0.0000 0.0000
# 4 0.0000 0.0000 0.0000 15.3273 0.0000 0.0000
# 5 0.0000 0.0000 0.0000 0.0000 20.7998 0.0000
# 6 0.0000 0.0000 0.0000 0.0000 0.0000 -0.9222
#
#
#
# Elastic Compliance Matrix: (Units=1/GPa)
#
#
# Indices 1 2 3 4 5 6 
#
# 1 0.006731 -0.009327 -0.004625 0.000000 0.000000 0.000000
# 2 -0.009327 0.041007 0.001732 0.000000 0.000000 0.000000
# 3 -0.004625 0.001732 0.025155 0.000000 0.000000 0.000000
# 4 0.000000 0.000000 0.000000 0.065243 0.000000 0.000000
# 5 0.000000 0.000000 0.000000 0.000000 0.048077 0.000000
# 6 0.000000 0.000000 0.000000 0.000000 0.000000 -1.084307
#
#
# Mechanical properties :
#
#
# Convention : Reuss Voigt Hill
#
# Bulk Modulus (GPa) = 20.63877 61.80275 41.22076
# Shear Modulus (GPa) = -5.83087 22.57948 8.37431
#
# Velocity S-wave (km/s) = -1.78168 3.50606 2.13519
# Velocity P-wave (km/s) = 2.64640 7.07361 5.34038
#
# Compressibility (1/GPa) = 0.04845249
#
# Stress axis : x y z
#
# Youngs Moduli (GPa) = 148.57279 24.38618 39.75427
#
# Poissons Ratio (x) = 0.22745 0.18386
# Poissons Ratio (y) = 1.38574 -0.06886
# Poissons Ratio (z) = 0.68713 -0.04224
#
# Static dielectric constant tensor:
#      x y z
#    x 1.739620 0.000000 0.000000 
#    y 0.000000 1.570160 0.000000 
#    z 0.000000 0.000000 1.617270 
# 
# From -- ./inp_files/6721.got.cif
#   From: 2010.05.17/outbox.cif.g08.bks.cpg/sg57_4_cif.got.tgz:6721.got - 2010.06.03 13:58:18.
