data_PCOD9434958
_publ_section_title
;
Structure prediction by ZEFSAII (Michael W. Deem and Ramdas Pophale) SiO2 
 PCOD9434958
Probable space group: P B C M
;
_chemical_formula_sum "Si O2"
_cell_formula_units_Z 64
_cell_length_a 23.980451
_cell_length_b 17.743932
_cell_length_c 8.627215
_cell_angle_alpha 90.000000
_cell_angle_beta 90.000000
_cell_angle_gamma 90.000000
_cell_volume 3670.944617
_symmetry_space_group_name_H-M "P B C M"
_symmetry_group_IT_number 57
_symmetry_cell_setting 'orthorhombic'
loop_
_space_group_symop_operation_xyz
x,y,z
-x,-y,1/2+z
x,1/2-y,-z
-x,1/2+y,1/2-z
-x,-y,-z
x,y,1/2-z
-x,1/2+y,z
x,1/2-y,1/2+z
loop_
_atom_site_type_symbol
_atom_site_label
_atom_site_fract_x
_atom_site_fract_y
_atom_site_fract_z
Si Si1 0.033309 0.571906 0.936509
Si Si2 0.322466 0.171631 0.065196
Si Si3 0.631494 0.442494 0.564648
Si Si4 0.571072 0.596192 0.936817
Si Si5 0.932089 0.667226 0.563651
Si Si6 0.737832 0.517293 0.436941
Si Si7 0.865556 0.521856 0.062091
Si Si8 0.544294 0.333468 0.064342
O O1 0.032171 0.571827 0.750000
O O2 0.096268 0.550399 0.983165
O O3 0.995572 0.643001 0.985300
O O4 0.000000 0.500000 0.000000
O O5 0.324722 0.174675 0.250000
O O6 0.285069 0.100138 0.018628
O O7 0.300606 0.250000 0.000000
O O8 0.384183 0.155773 0.999992
O O9 0.630944 0.439767 0.750000
O O10 0.594182 0.514793 0.512626
O O11 0.693864 0.458480 0.506538
O O12 0.601028 0.370181 0.496556
O O13 0.572494 0.598127 0.750000
O O14 0.508867 0.616438 0.988130
O O15 0.918181 0.750000 0.500000
O O16 0.929164 0.668606 0.750000
O O17 0.892470 0.599198 0.503628
O O18 0.735504 0.511778 0.250000
O O19 0.801780 0.510658 0.486679
O O20 0.866768 0.528242 0.250000
O O21 0.544625 0.332119 0.250000
O O22 0.536828 0.250000 0.000000
#
# Coordination Sequence:
#
# PCOD9434958 Si02
#       8
#     8   8   8   8   8   8   8   8
#     4   8  15  28  47  69  93 123 158 195 235 279
#     4  10  19  30  45  66  95 129 162 197 239 288
#     4  10  20  35  54  75 100 130 165 204 246 293
#     4   9  19  34  52  74  98 126 160 199 244 296
#     4  10  19  30  46  72 104 133 160 194 240 289
#     4   9  19  34  51  71  95 128 167 204 244 288
#     4   9  17  32  52  72  95 126 166 206 243 285
#     4  11  22  35  52  75 101 127 159 201 251 302
#
# _framework density 17.434204999999999
#
# number of rings (size 3 to 8) (size 9 to 14) (size 15 to 20)
#    0.000    2.500    0.000    2.250    0.000    4.500 
#    0.000    1.250    0.000    0.750    0.000    1.750 
#    0.000    0.000    0.000    0.000    0.000    0.000 
#
# Total GULP energy -356700.769898 kJ/mol
# GULP energy per Si atom -5573.449530 kJ/mol
# Density = 1.739452 g / cm^3
# Si number density = 17.434205 Si / 1000 Ang^3
#
#
#
# Elastic Constant Matrix: (Units=GPa)
#
#
# Indices 1 2 3 4 5 6 
#
# 1 137.4879 30.1881 22.1227 0.0000 0.0000 0.0000
# 2 30.1881 32.6280 8.3876 0.0000 0.0000 0.0000
# 3 22.1227 8.3876 12.8035 0.0000 0.0000 0.0000
# 4 0.0000 0.0000 0.0000 19.1535 0.0000 0.0000
# 5 0.0000 0.0000 0.0000 0.0000 20.2924 0.0000
# 6 0.0000 0.0000 0.0000 0.0000 0.0000 12.0493
#
#
#
# Elastic Compliance Matrix: (Units=1/GPa)
#
#
# Indices 1 2 3 4 5 6 
#
# 1 0.011088 -0.006414 -0.014957 0.000000 0.000000 0.000000
# 2 -0.006414 0.040566 -0.015491 0.000000 0.000000 0.000000
# 3 -0.014957 -0.015491 0.114097 0.000000 0.000000 0.000000
# 4 0.000000 0.000000 0.000000 0.052210 0.000000 0.000000
# 5 0.000000 0.000000 0.000000 0.000000 0.049279 0.000000
# 6 0.000000 0.000000 0.000000 0.000000 0.000000 0.082993
#
#
# Mechanical properties :
#
#
# Convention : Reuss Voigt Hill
#
# Bulk Modulus (GPa) = 10.86670 33.81291 22.33981
# Shear Modulus (GPa) = 10.99786 18.44709 14.72248
#
# Velocity S-wave (km/s) = 2.51434 3.25637 2.90911
# Velocity P-wave (km/s) = 3.83089 5.79442 4.91177
#
# Compressibility (1/GPa) = 0.09202428
#
# Stress axis : x y z
#
# Youngs Moduli (GPa) = 90.18355 24.65147 8.76450
#
# Poissons Ratio (x) = 0.15812 0.13109
# Poissons Ratio (y) = 0.57846 0.13577
# Poissons Ratio (z) = 1.34892 0.38189
#
# Static dielectric constant tensor:
#      x y z
#    x 1.613550 0.000000 0.000000 
#    y 0.000000 1.582530 0.000000 
#    z 0.000000 0.000000 1.588100 
# 
# From -- ./inp_files/9419.got.cif
#   From: 2010.05.17/outbox.cif.g08.bks.cpg/sg57_5_cif.got.tgz:9419.got - 2010.06.03 13:58:18.
