data_PCOD9434308
_publ_section_title
;
Structure prediction by ZEFSAII (Michael W. Deem and Ramdas Pophale) SiO2 
 PCOD9434308
Probable space group: P B C M
;
_chemical_formula_sum "Si O2"
_cell_formula_units_Z 56
_cell_length_a 21.451240
_cell_length_b 19.031434
_cell_length_c 8.532619
_cell_angle_alpha 90.000000
_cell_angle_beta 90.000000
_cell_angle_gamma 90.000000
_cell_volume 3483.423432
_symmetry_space_group_name_H-M "P B C M"
_symmetry_group_IT_number 57
_symmetry_cell_setting 'orthorhombic'
loop_
_space_group_symop_operation_xyz
x,y,z
-x,-y,1/2+z
x,1/2-y,-z
-x,1/2+y,1/2-z
-x,-y,-z
x,y,1/2-z
-x,1/2+y,z
x,1/2-y,1/2+z
loop_
_atom_site_type_symbol
_atom_site_label
_atom_site_fract_x
_atom_site_fract_y
_atom_site_fract_z
Si Si1 0.439236 0.040724 0.561375
Si Si2 0.880759 0.106331 0.559482
Si Si3 0.489551 0.828376 0.061573
Si Si4 0.986727 0.827751 0.437588
Si Si5 0.936275 0.964935 0.937890
Si Si6 0.367493 0.910172 0.561619
Si Si7 0.249313 0.828255 0.437898
O O1 0.439577 0.039657 0.750000
O O2 0.452616 0.120876 0.513548
O O3 0.500000 0.000000 0.500000
O O4 0.382150 0.990912 0.511751
O O5 0.881171 0.108535 0.750000
O O6 0.817930 0.143616 0.504951
O O7 0.944066 0.146218 0.508150
O O8 0.885458 0.023801 0.515568
O O9 0.485264 0.827876 0.250000
O O10 0.496321 0.750000 0.000000
O O11 0.426060 0.863215 0.995749
O O12 0.974603 0.750000 0.500000
O O13 0.987091 0.827346 0.250000
O O14 0.937655 0.886588 0.494651
O O15 0.937825 0.961086 0.750000
O O16 0.000000 0.000000 0.000000
O O17 0.365284 0.906859 0.750000
O O18 0.304457 0.878914 0.493173
O O19 0.260530 0.750000 0.500000
O O20 0.248460 0.826442 0.250000
#
# Coordination Sequence:
#
# PCOD9434308 Si02
#       7
#     8   8   8   8   8   8   8
#     4   8  16  29  45  62  84 111 143 178 216 257
#     4   8  17  31  46  63  88 119 152 184 218 258
#     4  10  18  29  45  67  90 115 142 176 218 262
#     4  10  18  29  45  68  93 119 148 183 225 268
#     4   9  16  29  46  65  88 116 147 184 225 269
#     4  10  19  32  46  63  87 118 150 183 217 255
#     4  11  21  33  46  64  89 120 153 184 213 251
#
# _framework density 16.076139000000001
#
# number of rings (size 3 to 8) (size 9 to 14) (size 15 to 20)
#    0.000    2.571    0.000    3.857    0.000    1.143 
#    0.000    7.857    0.000    0.000    0.000    1.000 
#    0.000    4.571    0.000    0.000    0.000    0.000 
#
# Total GULP energy -311841.366940 kJ/mol
# GULP energy per Si atom -5568.595838 kJ/mol
# Density = 1.603955 g / cm^3
# Si number density = 16.076139 Si / 1000 Ang^3
#
#
#
# Elastic Constant Matrix: (Units=GPa)
#
#
# Indices 1 2 3 4 5 6 
#
# 1 17.2277 -9.4358 1.3140 0.0000 0.0000 0.0000
# 2 -9.4358 68.7668 10.2543 0.0000 0.0000 0.0000
# 3 1.3140 10.2543 36.8843 0.0000 0.0000 0.0000
# 4 0.0000 0.0000 0.0000 16.8742 0.0000 0.0000
# 5 0.0000 0.0000 0.0000 0.0000 13.5312 0.0000
# 6 0.0000 0.0000 0.0000 0.0000 0.0000 27.6051
#
#
#
# Elastic Compliance Matrix: (Units=1/GPa)
#
#
# Indices 1 2 3 4 5 6 
#
# 1 0.063599 0.009457 -0.004895 0.000000 0.000000 0.000000
# 2 0.009457 0.016577 -0.004945 0.000000 0.000000 0.000000
# 3 -0.004895 -0.004945 0.028661 0.000000 0.000000 0.000000
# 4 0.000000 0.000000 0.000000 0.059262 0.000000 0.000000
# 5 0.000000 0.000000 0.000000 0.000000 0.073903 0.000000
# 6 0.000000 0.000000 0.000000 0.000000 0.000000 0.036225
#
#
# Mechanical properties :
#
#
# Convention : Reuss Voigt Hill
#
# Bulk Modulus (GPa) = 9.25332 14.12710 11.69021
# Shear Modulus (GPa) = 15.87212 19.65185 17.76199
#
# Velocity S-wave (km/s) = 3.14556 3.50011 3.32756
# Velocity P-wave (km/s) = 4.35444 5.01409 4.69586
#
# Compressibility (1/GPa) = 0.10806932
#
# Stress axis : x y z
#
# Youngs Moduli (GPa) = 15.72361 60.32479 34.89051
#
# Poissons Ratio (x) = -0.57046 0.17078
# Poissons Ratio (y) = -0.14869 0.17255
# Poissons Ratio (z) = 0.07696 0.29834
#
# Static dielectric constant tensor:
#      x y z
#    x 1.521640 0.000000 0.000000 
#    y 0.000000 1.569860 0.000000 
#    z 0.000000 0.000000 1.561050 
# 
# From -- ./inp_files/8315.got.cif
#   From: 2010.05.17/outbox.cif.g08.bks.cpg/sg57_5_cif.got.tgz:8315.got - 2010.06.03 13:58:18.
