data_PCOD9434563
_publ_section_title
;
Structure prediction by ZEFSAII (Michael W. Deem and Ramdas Pophale) SiO2 
 PCOD9434563
Probable space group: P B C M
;
_chemical_formula_sum "Si O2"
_cell_formula_units_Z 28
_cell_length_a 12.689286
_cell_length_b 21.567177
_cell_length_c 5.404934
_cell_angle_alpha 90.000000
_cell_angle_beta 90.000000
_cell_angle_gamma 90.000000
_cell_volume 1479.179515
_symmetry_space_group_name_H-M "P B C M"
_symmetry_group_IT_number 57
_symmetry_cell_setting 'orthorhombic'
loop_
_space_group_symop_operation_xyz
x,y,z
-x,-y,1/2+z
x,1/2-y,-z
-x,1/2+y,1/2-z
-x,-y,-z
x,y,1/2-z
-x,1/2+y,z
x,1/2-y,1/2+z
loop_
_atom_site_type_symbol
_atom_site_label
_atom_site_fract_x
_atom_site_fract_y
_atom_site_fract_z
Si Si1 0.550487 0.420981 0.250000
Si Si2 0.039712 0.422900 0.750000
Si Si3 0.708784 0.812658 0.750000
Si Si4 0.633389 0.025052 0.250000
Si Si5 0.379422 0.326043 0.250000
Si Si6 0.958689 0.785531 0.750000
Si Si7 0.865472 0.969244 0.250000
O O1 0.614013 0.435279 0.500656
O O2 0.453024 0.469878 0.250000
O O3 0.496374 0.353281 0.250000
O O4 0.994803 0.353992 0.750000
O O5 0.107766 0.432142 0.500875
O O6 0.947315 0.473246 0.750000
O O7 0.641154 0.748261 0.750000
O O8 0.677051 0.847762 0.501240
O O9 0.830877 0.794307 0.750000
O O10 0.748257 0.995163 0.250000
O O11 0.986608 0.750000 0.500000
#
# Coordination Sequence:
#
# PCOD9434563 Si02
#       7
#     4   4   4   4   4   4   4
#     4  10  21  33  50  80 104 148 181 221 276 325
#     4  10  23  36  61  88 112 152 191 232 292 349
#     4  10  19  30  47  77 104 140 173 209 281 332
#     4  10  21  35  51  78 112 139 190 225 267 326
#     4  10  18  32  47  70 108 137 175 215 262 337
#     4  12  21  35  52  87 120 140 185 226 288 360
#     4  10  21  41  58  84 116 150 195 236 284 341
#
# _framework density 18.929413
#
# number of rings (size 3 to 8) (size 9 to 14) (size 15 to 20)
#    0.000    1.714    2.857    2.571    4.000    0.000 
#    0.000    0.000    0.000    0.000   22.286    0.000 
#    0.000    0.000    0.000    0.000    0.000    0.000 
#
# Total GULP energy -156313.850634 kJ/mol
# GULP energy per Si atom -5582.637523 kJ/mol
# Density = 1.888633 g / cm^3
# Si number density = 18.929413 Si / 1000 Ang^3
#
#
#
# Elastic Constant Matrix: (Units=GPa)
#
#
# Indices 1 2 3 4 5 6 
#
# 1 38.0325 0.5261 21.0371 0.0000 0.0000 0.0000
# 2 0.5261 69.8750 26.6983 0.0000 0.0000 0.0000
# 3 21.0371 26.6983 194.8511 0.0000 0.0000 0.0000
# 4 0.0000 0.0000 0.0000 12.9749 0.0000 0.0000
# 5 0.0000 0.0000 0.0000 0.0000 3.0182 0.0000
# 6 0.0000 0.0000 0.0000 0.0000 0.0000 25.7400
#
#
#
# Elastic Compliance Matrix: (Units=1/GPa)
#
#
# Indices 1 2 3 4 5 6 
#
# 1 0.028029 0.000997 -0.003163 0.000000 0.000000 0.000000
# 2 0.000997 0.015137 -0.002182 0.000000 0.000000 0.000000
# 3 -0.003163 -0.002182 0.005773 0.000000 0.000000 0.000000
# 4 0.000000 0.000000 0.000000 0.077072 0.000000 0.000000
# 5 0.000000 0.000000 0.000000 0.000000 0.331329 0.000000
# 6 0.000000 0.000000 0.000000 0.000000 0.000000 0.038850
#
#
# Mechanical properties :
#
#
# Convention : Reuss Voigt Hill
#
# Bulk Modulus (GPa) = 24.84810 44.36463 34.60637
# Shear Modulus (GPa) = 9.64694 25.31308 17.48001
#
# Velocity S-wave (km/s) = 2.25994 3.66079 3.04210
# Velocity P-wave (km/s) = 4.46822 6.43088 5.53720
#
# Compressibility (1/GPa) = 0.04024452
#
# Stress axis : x y z
#
# Youngs Moduli (GPa) = 35.67738 66.06157 173.23382
#
# Poissons Ratio (x) = -0.06589 0.54791
# Poissons Ratio (y) = -0.03559 0.37796
# Poissons Ratio (z) = 0.11284 0.14413
#
# Static dielectric constant tensor:
#      x y z
#    x 1.616880 0.000000 0.000000 
#    y 0.000000 1.670380 0.000000 
#    z 0.000000 0.000000 5.423550 
# 
# From -- ./inp_files/333.got.cif
#   From: 2010.05.17/outbox.cif.g08.bks.cpg/sg57_1_cif.got.tgz:333.got - 2010.06.03 13:58:18.
