data_PCOD9434994
_publ_section_title
;
Structure prediction by ZEFSAII (Michael W. Deem and Ramdas Pophale) SiO2 
 PCOD9434994
Probable space group: P B C M
;
_chemical_formula_sum "Si O2"
_cell_formula_units_Z 56
_cell_length_a 20.269958
_cell_length_b 18.295985
_cell_length_c 7.713624
_cell_angle_alpha 90.000000
_cell_angle_beta 90.000000
_cell_angle_gamma 90.000000
_cell_volume 2860.665707
_symmetry_space_group_name_H-M "P B C M"
_symmetry_group_IT_number 57
_symmetry_cell_setting 'orthorhombic'
loop_
_space_group_symop_operation_xyz
x,y,z
-x,-y,1/2+z
x,1/2-y,-z
-x,1/2+y,1/2-z
-x,-y,-z
x,y,1/2-z
-x,1/2+y,z
x,1/2-y,1/2+z
loop_
_atom_site_type_symbol
_atom_site_label
_atom_site_fract_x
_atom_site_fract_y
_atom_site_fract_z
Si Si1 0.727244 0.910465 0.952753
Si Si2 0.691779 0.164346 0.040597
Si Si3 0.143883 0.168561 0.956613
Si Si4 0.799364 0.055979 0.450091
Si Si5 0.451488 0.836475 0.958122
Si Si6 0.594861 0.836131 0.959058
Si Si7 0.073904 0.477421 0.041458
O O1 0.719731 0.928823 0.750000
O O2 0.657959 0.880850 0.023027
O O3 0.783711 0.848751 0.968590
O O4 0.756444 0.981671 0.044828
O O5 0.691075 0.156681 0.250000
O O6 0.753433 0.118543 0.970759
O O7 0.619737 0.136402 0.976996
O O8 0.697496 0.250000 0.000000
O O9 0.149638 0.162717 0.750000
O O10 0.095480 0.103671 0.018466
O O11 0.121845 0.250000 0.000000
O O12 0.811416 0.076782 0.250000
O O13 0.870127 0.033406 0.527014
O O14 0.451700 0.845148 0.750000
O O15 0.522857 0.863017 0.023198
O O16 0.451307 0.750000 0.000000
O O17 0.595035 0.841709 0.750000
O O18 0.601751 0.750000 0.000000
O O19 0.079941 0.476988 0.250000
O O20 0.000000 0.500000 0.000000
#
# Coordination Sequence:
#
# PCOD9434994 Si02
#       7
#     8   8   8   8   8   8   8
#     4  10  19  30  46  69  97 130 163 199 240 282
#     4   9  17  31  52  72  92 121 158 199 242 283
#     4  10  20  34  52  76 103 131 164 201 237 281
#     4   9  19  35  51  70  96 125 156 193 238 291
#     4   8  14  26  43  63  88 120 156 195 237 280
#     4   9  17  27  41  64  93 123 159 199 237 277
#     4   9  19  35  54  74  99 128 158 192 233 282
#
# _framework density 19.575862999999998
#
# number of rings (size 3 to 8) (size 9 to 14) (size 15 to 20)
#    0.000    2.857    0.000    2.143    0.000    5.714 
#    0.000    1.429    0.000    3.429    0.000    0.000 
#    0.000    0.000    0.000    0.000    0.000    0.000 
#
# Total GULP energy -311999.552669 kJ/mol
# GULP energy per Si atom -5571.420583 kJ/mol
# Density = 1.953131 g / cm^3
# Si number density = 19.575863 Si / 1000 Ang^3
#
#
#
# Elastic Constant Matrix: (Units=GPa)
#
#
# Indices 1 2 3 4 5 6 
#
# 1 204.6273 74.0108 2.0531 0.0000 0.0000 0.0000
# 2 74.0108 57.1927 -6.7394 0.0000 0.0000 0.0000
# 3 2.0531 -6.7394 37.4795 0.0000 0.0000 0.0000
# 4 0.0000 0.0000 0.0000 17.7496 0.0000 0.0000
# 5 0.0000 0.0000 0.0000 0.0000 22.7424 0.0000
# 6 0.0000 0.0000 0.0000 0.0000 0.0000 22.0402
#
#
#
# Elastic Compliance Matrix: (Units=1/GPa)
#
#
# Indices 1 2 3 4 5 6 
#
# 1 0.009462 -0.012572 -0.002779 0.000000 0.000000 0.000000
# 2 -0.012572 0.034567 0.006904 0.000000 0.000000 0.000000
# 3 -0.002779 0.006904 0.028075 0.000000 0.000000 0.000000
# 4 0.000000 0.000000 0.000000 0.056339 0.000000 0.000000
# 5 0.000000 0.000000 0.000000 0.000000 0.043971 0.000000
# 6 0.000000 0.000000 0.000000 0.000000 0.000000 0.045372
#
#
# Mechanical properties :
#
#
# Convention : Reuss Voigt Hill
#
# Bulk Modulus (GPa) = 18.11228 48.66095 33.38661
# Shear Modulus (GPa) = 19.75653 27.83812 23.79732
#
# Velocity S-wave (km/s) = 3.18028 3.77512 3.49039
# Velocity P-wave (km/s) = 4.77054 6.62673 5.77372
#
# Compressibility (1/GPa) = 0.05521117
#
# Stress axis : x y z
#
# Youngs Moduli (GPa) = 105.68861 28.92965 35.61887
#
# Poissons Ratio (x) = 0.36369 0.09898
# Poissons Ratio (y) = 1.32867 -0.24592
# Poissons Ratio (z) = 0.29370 -0.19974
#
# Static dielectric constant tensor:
#      x y z
#    x 1.729640 0.000000 0.000000 
#    y 0.000000 1.669930 0.000000 
#    z 0.000000 0.000000 1.725750 
# 
# From -- ./inp_files/8278.got.cif
#   From: 2010.05.17/outbox.cif.g08.bks.cpg/sg57_5_cif.got.tgz:8278.got - 2010.06.03 13:58:18.
