data_PCOD9434546
_publ_section_title
;
Structure prediction by ZEFSAII (Michael W. Deem and Ramdas Pophale) SiO2 
 PCOD9434546
Probable space group: P B C M
;
_chemical_formula_sum "Si O2"
_cell_formula_units_Z 64
_cell_length_a 19.785140
_cell_length_b 10.606465
_cell_length_c 13.127695
_cell_angle_alpha 90.000000
_cell_angle_beta 90.000000
_cell_angle_gamma 90.000000
_cell_volume 2754.851980
_symmetry_space_group_name_H-M "P B C M"
_symmetry_group_IT_number 57
_symmetry_cell_setting 'orthorhombic'
loop_
_space_group_symop_operation_xyz
x,y,z
-x,-y,1/2+z
x,1/2-y,-z
-x,1/2+y,1/2-z
-x,-y,-z
x,y,1/2-z
-x,1/2+y,z
x,1/2-y,1/2+z
loop_
_atom_site_type_symbol
_atom_site_label
_atom_site_fract_x
_atom_site_fract_y
_atom_site_fract_z
Si Si1 0.290908 0.440583 0.929617
Si Si2 0.853691 0.620329 0.059812
Si Si3 0.001391 0.125818 0.069584
Si Si4 0.430930 0.313737 0.872715
Si Si5 0.499953 0.067289 0.626757
Si Si6 0.642537 0.192244 0.871450
Si Si7 0.861434 0.055190 0.138717
Si Si8 0.288685 0.940348 0.633930
O O1 0.218263 0.399669 0.887838
O O2 0.355748 0.361956 0.896120
O O3 0.303718 0.584468 0.896487
O O4 0.287955 0.446989 0.053130
O O5 0.924284 0.619944 0.120813
O O6 0.848742 0.750000 0.000000
O O7 0.860348 0.521762 0.966254
O O8 0.932183 0.129079 0.133260
O O9 0.001464 0.250000 0.000000
O O10 0.000000 0.000000 0.000000
O O11 0.437379 0.312265 0.750000
O O12 0.485935 0.422376 0.905855
O O13 0.443761 0.169362 0.906713
O O14 0.493145 0.058718 0.750000
O O15 0.569510 0.139440 0.601647
O O16 0.642100 0.204919 0.750000
O O17 0.660913 0.332509 0.905858
O O18 0.861954 0.986834 0.250000
O O19 0.787238 0.118815 0.136614
O O20 0.305711 0.978018 0.750000
#
# Coordination Sequence:
#
# PCOD9434546 Si02
#       8
#     8   8   8   8   8   8   8   8
#     4  10  18  31  54  78 105 143 184 229 275 329
#     4   9  19  36  54  75 111 155 190 227 287 348
#     4   9  18  34  55  78 108 148 187 225 279 339
#     4   9  17  32  54  83 112 142 180 227 281 341
#     4   8  15  29  50  74 109 146 174 213 272 332
#     4   9  17  31  51  79 110 138 172 222 281 339
#     4   9  18  34  55  80 108 143 192 244 282 330
#     4   9  18  31  50  75 104 139 183 229 278 330
#
# _framework density 23.231736999999999
#
# number of rings (size 3 to 8) (size 9 to 14) (size 15 to 20)
#    0.000    3.000    0.000    1.500    0.000    3.000 
#    0.000   11.250    0.000    6.000    0.000    3.500 
#    0.000    0.000    0.000    0.000    0.000    0.000 
#
# Total GULP energy -356794.087650 kJ/mol
# GULP energy per Si atom -5574.907620 kJ/mol
# Density = 2.317886 g / cm^3
# Si number density = 23.231737 Si / 1000 Ang^3
#
#
#
# Elastic Constant Matrix: (Units=GPa)
#
#
# Indices 1 2 3 4 5 6 
#
# 1 93.5255 24.5767 13.8068 0.0000 0.0000 0.0000
# 2 24.5767 66.7571 27.6003 0.0000 0.0000 0.0000
# 3 13.8068 27.6003 48.0974 0.0000 0.0000 0.0000
# 4 0.0000 0.0000 0.0000 21.7582 0.0000 0.0000
# 5 0.0000 0.0000 0.0000 0.0000 16.6504 0.0000
# 6 0.0000 0.0000 0.0000 0.0000 0.0000 28.6684
#
#
#
# Elastic Compliance Matrix: (Units=1/GPa)
#
#
# Indices 1 2 3 4 5 6 
#
# 1 0.011888 -0.003888 -0.001181 0.000000 0.000000 0.000000
# 2 -0.003888 0.020911 -0.010883 0.000000 0.000000 0.000000
# 3 -0.001181 -0.010883 0.027376 0.000000 0.000000 0.000000
# 4 0.000000 0.000000 0.000000 0.045960 0.000000 0.000000
# 5 0.000000 0.000000 0.000000 0.000000 0.060059 0.000000
# 6 0.000000 0.000000 0.000000 0.000000 0.000000 0.034882
#
#
# Mechanical properties :
#
#
# Convention : Reuss Voigt Hill
#
# Bulk Modulus (GPa) = 35.37475 37.81641 36.59558
# Shear Modulus (GPa) = 20.62672 22.90846 21.76759
#
# Velocity S-wave (km/s) = 2.98294 3.14360 3.06433
# Velocity P-wave (km/s) = 5.20806 5.43043 5.32041
#
# Compressibility (1/GPa) = 0.02826875
#
# Stress axis : x y z
#
# Youngs Moduli (GPa) = 84.11532 47.82217 36.52885
#
# Poissons Ratio (x) = 0.18595 0.04316
# Poissons Ratio (y) = 0.32706 0.39756
# Poissons Ratio (z) = 0.09938 0.52047
#
# Static dielectric constant tensor:
#      x y z
#    x 1.920700 0.000000 0.000000 
#    y 0.000000 1.862350 0.000000 
#    z 0.000000 0.000000 1.931790 
# 
# From -- ./inp_files/19127.got.cif
#   From: 2010.05.17/outbox.cif.g08.bks.cpg/sg57_10_cif.got.tgz:19127.got - 2010.06.03 13:58:18.
