data_PCOD9434724
_publ_section_title
;
Structure prediction by ZEFSAII (Michael W. Deem and Ramdas Pophale) SiO2 
 PCOD9434724
Probable space group: P B C M
;
_chemical_formula_sum "Si O2"
_cell_formula_units_Z 36
_cell_length_a 6.485625
_cell_length_b 12.689580
_cell_length_c 19.400645
_cell_angle_alpha 90.000000
_cell_angle_beta 90.000000
_cell_angle_gamma 90.000000
_cell_volume 1596.670315
_symmetry_space_group_name_H-M "P B C M"
_symmetry_group_IT_number 57
_symmetry_cell_setting 'orthorhombic'
loop_
_space_group_symop_operation_xyz
x,y,z
-x,-y,1/2+z
x,1/2-y,-z
-x,1/2+y,1/2-z
-x,-y,-z
x,y,1/2-z
-x,1/2+y,z
x,1/2-y,1/2+z
loop_
_atom_site_type_symbol
_atom_site_label
_atom_site_fract_x
_atom_site_fract_y
_atom_site_fract_z
Si Si1 0.946496 0.283753 0.892979
Si Si2 0.819399 0.781147 0.750000
Si Si3 0.917530 0.612414 0.520970
Si Si4 0.513152 0.403549 0.250000
Si Si5 0.081569 0.516069 0.750000
Si Si6 0.267112 0.504958 0.365463
O O1 0.767867 0.372572 0.887042
O O2 0.049642 0.263729 0.819692
O O3 0.910406 0.175468 0.934134
O O4 0.115047 0.330684 0.947911
O O5 0.623342 0.703163 0.750000
O O6 0.790678 0.907003 0.750000
O O7 0.736839 0.579326 0.572657
O O8 0.000000 0.500000 0.500000
O O9 0.756446 0.389825 0.250000
O O10 0.452416 0.472742 0.316481
O O11 0.933062 0.514467 0.816227
#
# Coordination Sequence:
#
# PCOD9434724 Si02
#       6
#     8   4   8   4   4   8
#     4   9  17  30  53  82 108 142 183 227 272 330
#     4  10  18  34  54  76 114 146 182 232 282 322
#     4   9  16  29  53  84 106 144 185 219 277 331
#     4  11  19  35  55  82 108 154 189 225 287 329
#     4   9  21  35  49  84 116 138 191 239 265 331
#     4   9  18  34  55  79 109 145 186 231 277 328
#
# _framework density 22.546921999999999
#
# number of rings (size 3 to 8) (size 9 to 14) (size 15 to 20)
#    0.000    2.667    2.222    0.667    0.000    0.000 
#    4.000    0.000    0.000   21.333    0.000    0.000 
#    0.000    0.000    0.000    0.000    0.000    0.000 
#
# Total GULP energy -200429.915239 kJ/mol
# GULP energy per Si atom -5567.497646 kJ/mol
# Density = 2.249560 g / cm^3
# Si number density = 22.546922 Si / 1000 Ang^3
#
#
#
# Elastic Constant Matrix: (Units=GPa)
#
#
# Indices 1 2 3 4 5 6 
#
# 1 45.6861 19.8831 15.9359 0.0000 0.0000 0.0000
# 2 19.8831 103.5779 35.7301 0.0000 0.0000 0.0000
# 3 15.9359 35.7301 151.3616 0.0000 0.0000 0.0000
# 4 0.0000 0.0000 0.0000 47.5348 0.0000 0.0000
# 5 0.0000 0.0000 0.0000 0.0000 -1.2276 0.0000
# 6 0.0000 0.0000 0.0000 0.0000 0.0000 16.9764
#
#
#
# Elastic Compliance Matrix: (Units=1/GPa)
#
#
# Indices 1 2 3 4 5 6 
#
# 1 0.024227 -0.004105 -0.001582 0.000000 0.000000 0.000000
# 2 -0.004105 0.011206 -0.002213 0.000000 0.000000 0.000000
# 3 -0.001582 -0.002213 0.007296 0.000000 0.000000 0.000000
# 4 0.000000 0.000000 0.000000 0.021037 0.000000 0.000000
# 5 0.000000 0.000000 0.000000 0.000000 -0.814595 0.000000
# 6 0.000000 0.000000 0.000000 0.000000 0.000000 0.058905
#
#
# Mechanical properties :
#
#
# Convention : Reuss Voigt Hill
#
# Bulk Modulus (GPa) = 37.13487 49.30265 43.21876
# Shear Modulus (GPa) = -7.49459 27.92849 10.21695
#
# Velocity S-wave (km/s) = -1.82516 3.52331 2.13102
# Velocity P-wave (km/s) = 3.47335 6.20208 5.02643
#
# Compressibility (1/GPa) = 0.02692887
#
# Stress axis : x y z
#
# Youngs Moduli (GPa) = 41.27669 89.23795 137.06840
#
# Poissons Ratio (x) = 0.36632 0.21680
# Poissons Ratio (y) = 0.16944 0.30334
# Poissons Ratio (z) = 0.06529 0.19749
#
# Static dielectric constant tensor:
#      x y z
#    x 1.798230 0.000000 0.000000 
#    y 0.000000 2.037150 0.000000 
#    z 0.000000 0.000000 1.928860 
# 
# From -- ./inp_files/23520.got.cif
#   From: 2010.05.17/outbox.cif.g08.bks.cpg/sg57_12_cif.got.tgz:23520.got - 2010.06.03 13:58:18.
