data_PCOD9434109
_publ_section_title
;
Structure prediction by ZEFSAII (Michael W. Deem and Ramdas Pophale) SiO2 
 PCOD9434109
Probable space group: P B C M
;
_chemical_formula_sum "Si O2"
_cell_formula_units_Z 52
_cell_length_a 21.502672
_cell_length_b 5.628563
_cell_length_c 18.805997
_cell_angle_alpha 90.000000
_cell_angle_beta 90.000000
_cell_angle_gamma 90.000000
_cell_volume 2276.073719
_symmetry_space_group_name_H-M "P B C M"
_symmetry_group_IT_number 57
_symmetry_cell_setting 'orthorhombic'
loop_
_space_group_symop_operation_xyz
x,y,z
-x,-y,1/2+z
x,1/2-y,-z
-x,1/2+y,1/2-z
-x,-y,-z
x,y,1/2-z
-x,1/2+y,z
x,1/2-y,1/2+z
loop_
_atom_site_type_symbol
_atom_site_label
_atom_site_fract_x
_atom_site_fract_y
_atom_site_fract_z
Si Si1 0.534611 0.055544 0.835559
Si Si2 0.249257 0.369184 0.250000
Si Si3 0.244704 0.631348 0.750000
Si Si4 0.715022 0.612108 0.595005
Si Si5 0.948339 0.250000 0.500000
Si Si6 0.860651 0.898796 0.072091
Si Si7 0.327985 0.887635 0.393465
Si Si8 0.022122 0.170819 0.641206
O O1 0.543398 0.057298 0.750000
O O2 0.502153 0.801559 0.853093
O O3 0.600996 0.069510 0.873328
O O4 0.211044 0.614702 0.250000
O O5 0.293333 0.369088 0.180864
O O6 0.211771 0.123229 0.250000
O O7 0.286777 0.630847 0.679044
O O8 0.788779 0.574072 0.587758
O O9 0.680758 0.372088 0.571872
O O10 0.697228 0.874634 0.567919
O O11 0.897440 0.363845 0.553672
O O12 0.994217 0.137137 0.559774
O O13 0.904175 0.785423 0.132305
O O14 0.865728 0.750000 0.000000
O O15 0.992799 0.411163 0.672051
#
# Coordination Sequence:
#
# PCOD9434109 Si02
#       8
#     8   4   4   8   4   8   8   8
#     4  10  19  29  49  77 101 132 171 213 261 304
#     4   8  16  32  42  65  88 129 182 194 220 296
#     4   8  14  26  48  57  88 133 158 202 220 280
#     4  10  22  30  52  69 100 145 175 201 254 300
#     4  10  18  32  50  72 106 134 158 208 274 324
#     4  11  20  32  49  76 107 132 170 218 256 317
#     4  10  18  34  44  70 102 136 172 198 250 310
#     4  10  17  30  48  71  97 130 160 198 264 325
#
# _framework density 22.846361999999999
#
# number of rings (size 3 to 8) (size 9 to 14) (size 15 to 20)
#    0.000    2.154    3.077    1.846    2.154    0.000 
#    0.000    0.000    0.000    0.000    0.000    4.308 
#    0.000   12.308    0.000    0.000    0.000    0.000 
#
# Total GULP energy -289661.882566 kJ/mol
# GULP energy per Si atom -5570.420819 kJ/mol
# Density = 2.279436 g / cm^3
# Si number density = 22.846362 Si / 1000 Ang^3
#
#
#
# Elastic Constant Matrix: (Units=GPa)
#
#
# Indices 1 2 3 4 5 6 
#
# 1 134.8241 37.9282 -2.3538 0.0000 0.0000 0.0000
# 2 37.9282 197.0183 10.9523 0.0000 0.0000 0.0000
# 3 -2.3538 10.9523 53.2019 0.0000 0.0000 0.0000
# 4 0.0000 0.0000 0.0000 8.5000 0.0000 0.0000
# 5 0.0000 0.0000 0.0000 0.0000 14.7122 0.0000
# 6 0.0000 0.0000 0.0000 0.0000 0.0000 20.9678
#
#
#
# Elastic Compliance Matrix: (Units=1/GPa)
#
#
# Indices 1 2 3 4 5 6 
#
# 1 0.007865 -0.001551 0.000667 0.000000 0.000000 0.000000
# 2 -0.001551 0.005440 -0.001189 0.000000 0.000000 0.000000
# 3 0.000667 -0.001189 0.019071 0.000000 0.000000 0.000000
# 4 0.000000 0.000000 0.000000 0.117647 0.000000 0.000000
# 5 0.000000 0.000000 0.000000 0.000000 0.067971 0.000000
# 6 0.000000 0.000000 0.000000 0.000000 0.000000 0.047692
#
#
# Mechanical properties :
#
#
# Convention : Reuss Voigt Hill
#
# Bulk Modulus (GPa) = 35.42209 53.12199 44.27204
# Shear Modulus (GPa) = 17.90564 31.40383 24.65473
#
# Velocity S-wave (km/s) = 2.80258 3.71154 3.28861
# Velocity P-wave (km/s) = 5.10007 6.45520 5.81723
#
# Compressibility (1/GPa) = 0.02823097
#
# Stress axis : x y z
#
# Youngs Moduli (GPa) = 127.14390 183.81098 52.43696
#
# Poissons Ratio (x) = 0.28513 -0.03499
# Poissons Ratio (y) = 0.19723 0.06233
# Poissons Ratio (z) = -0.08484 0.21848
#
# Static dielectric constant tensor:
#      x y z
#    x 1.770790 0.000000 0.000000 
#    y 0.000000 2.191330 0.000000 
#    z 0.000000 0.000000 1.913020 
# 
# From -- ./inp_files/25781.got.cif
#   From: 2010.05.17/outbox.cif.g08.bks.cpg/sg57_13_cif.got.tgz:25781.got - 2010.06.03 13:58:18.
