data_PCOD9434531
_publ_section_title
;
Structure prediction by ZEFSAII (Michael W. Deem and Ramdas Pophale) SiO2 
 PCOD9434531
Probable space group: P B C M
;
_chemical_formula_sum "Si O2"
_cell_formula_units_Z 64
_cell_length_a 21.918188
_cell_length_b 18.805509
_cell_length_c 9.096202
_cell_angle_alpha 90.000000
_cell_angle_beta 90.000000
_cell_angle_gamma 90.000000
_cell_volume 3749.296934
_symmetry_space_group_name_H-M "P B C M"
_symmetry_group_IT_number 57
_symmetry_cell_setting 'orthorhombic'
loop_
_space_group_symop_operation_xyz
x,y,z
-x,-y,1/2+z
x,1/2-y,-z
-x,1/2+y,1/2-z
-x,-y,-z
x,y,1/2-z
-x,1/2+y,z
x,1/2-y,1/2+z
loop_
_atom_site_type_symbol
_atom_site_label
_atom_site_fract_x
_atom_site_fract_y
_atom_site_fract_z
Si Si1 0.937019 0.522781 0.573741
Si Si2 0.109838 0.319353 0.076117
Si Si3 0.484067 0.075055 0.926437
Si Si4 0.183114 0.972852 0.418601
Si Si5 0.599709 0.326965 0.073651
Si Si6 0.698142 0.071723 0.423683
Si Si7 0.653477 0.908106 0.076775
Si Si8 0.230084 0.363724 0.583324
O O1 0.938208 0.513651 0.750000
O O2 0.923687 0.606268 0.542707
O O3 0.880727 0.479164 0.503628
O O4 0.000000 0.500000 0.500000
O O5 0.110814 0.309940 0.250000
O O6 0.081998 0.250000 0.000000
O O7 0.178556 0.327805 0.015412
O O8 0.482329 0.064695 0.750000
O O9 0.536721 0.131572 0.960186
O O10 0.416477 0.100201 0.971341
O O11 0.500000 0.000000 0.000000
O O12 0.175334 0.948853 0.250000
O O13 0.234615 0.929355 0.505401
O O14 0.209552 0.053400 0.413027
O O15 0.605544 0.321735 0.250000
O O16 0.599633 0.250000 0.000000
O O17 0.654223 0.374135 0.007317
O O18 0.700675 0.087184 0.250000
O O19 0.670510 0.991852 0.439684
O O20 0.659083 0.891270 0.250000
O O21 0.702908 0.863520 0.986336
O O22 0.229130 0.336336 0.750000
#
# Coordination Sequence:
#
# PCOD9434531 Si02
#       8
#     8   8   8   8   8   8   8   8
#     4  10  20  34  54  82 114 148 185 224 268 315
#     4  10  20  34  53  77 107 143 182 222 265 317
#     4  10  20  34  53  76 101 134 178 226 274 326
#     4   9  17  30  50  77 107 135 169 212 257 305
#     4  11  23  37  53  74 103 137 176 222 276 334
#     4  10  18  31  53  77 102 132 169 214 267 318
#     4   9  17  30  49  74 102 131 166 215 267 314
#     4   9  17  29  47  73 102 133 169 210 256 306
#
# _framework density 17.069866999999999
#
# number of rings (size 3 to 8) (size 9 to 14) (size 15 to 20)
#    0.000    2.250    1.250    2.250    0.000    6.000 
#    0.000    0.625    0.000    2.250    0.000    3.500 
#    0.000    0.000    0.000    0.000    0.000    0.000 
#
# Total GULP energy -357058.758146 kJ/mol
# GULP energy per Si atom -5579.043096 kJ/mol
# Density = 1.703102 g / cm^3
# Si number density = 17.069867 Si / 1000 Ang^3
#
#
#
# Elastic Constant Matrix: (Units=GPa)
#
#
# Indices 1 2 3 4 5 6 
#
# 1 164.3343 47.9600 75.6649 0.0000 0.0000 0.0000
# 2 47.9600 62.7636 53.3366 0.0000 0.0000 0.0000
# 3 75.6649 53.3366 98.6798 0.0000 0.0000 0.0000
# 4 0.0000 0.0000 0.0000 24.6268 0.0000 0.0000
# 5 0.0000 0.0000 0.0000 0.0000 30.4890 0.0000
# 6 0.0000 0.0000 0.0000 0.0000 0.0000 11.3678
#
#
#
# Elastic Compliance Matrix: (Units=1/GPa)
#
#
# Indices 1 2 3 4 5 6 
#
# 1 0.009538 -0.001985 -0.006240 0.000000 0.000000 0.000000
# 2 -0.001985 0.029881 -0.014629 0.000000 0.000000 0.000000
# 3 -0.006240 -0.014629 0.022826 0.000000 0.000000 0.000000
# 4 0.000000 0.000000 0.000000 0.040606 0.000000 0.000000
# 5 0.000000 0.000000 0.000000 0.000000 0.032799 0.000000
# 6 0.000000 0.000000 0.000000 0.000000 0.000000 0.087968
#
#
# Mechanical properties :
#
#
# Convention : Reuss Voigt Hill
#
# Bulk Modulus (GPa) = 60.47340 75.52229 67.99784
# Shear Modulus (GPa) = 18.19259 23.21782 20.70520
#
# Velocity S-wave (km/s) = 3.26816 3.69204 3.48655
# Velocity P-wave (km/s) = 7.05302 7.90658 7.49196
#
# Compressibility (1/GPa) = 0.01653620
#
# Stress axis : x y z
#
# Youngs Moduli (GPa) = 104.84657 33.46583 43.81056
#
# Poissons Ratio (x) = 0.06643 0.27339
# Poissons Ratio (y) = 0.20813 0.64089
# Poissons Ratio (z) = 0.65428 0.48956
#
# Static dielectric constant tensor:
#      x y z
#    x 1.562600 0.000000 0.000000 
#    y 0.000000 1.570210 0.000000 
#    z 0.000000 0.000000 1.573030 
# 
# From -- ./inp_files/8481.got.cif
#   From: 2010.05.17/outbox.cif.g08.bks.cpg/sg57_5_cif.got.tgz:8481.got - 2010.06.03 13:58:18.
