data_PCOD9434771
_publ_section_title
;
Structure prediction by ZEFSAII (Michael W. Deem and Ramdas Pophale) SiO2 
 PCOD9434771
Probable space group: P B C M
;
_chemical_formula_sum "Si O2"
_cell_formula_units_Z 40
_cell_length_a 12.319387
_cell_length_b 17.578261
_cell_length_c 10.080551
_cell_angle_alpha 90.000000
_cell_angle_beta 90.000000
_cell_angle_gamma 90.000000
_cell_volume 2182.977593
_symmetry_space_group_name_H-M "P B C M"
_symmetry_group_IT_number 57
_symmetry_cell_setting 'orthorhombic'
loop_
_space_group_symop_operation_xyz
x,y,z
-x,-y,1/2+z
x,1/2-y,-z
-x,1/2+y,1/2-z
-x,-y,-z
x,y,1/2-z
-x,1/2+y,z
x,1/2-y,1/2+z
loop_
_atom_site_type_symbol
_atom_site_label
_atom_site_fract_x
_atom_site_fract_y
_atom_site_fract_z
Si Si1 0.107167 0.964690 0.750000
Si Si2 0.371053 0.618627 0.003881
Si Si3 0.602477 0.823097 0.093148
Si Si4 0.221223 0.647508 0.750000
Si Si5 0.252941 0.684161 0.250000
Si Si6 0.746889 0.964743 0.470198
Si Si7 0.857294 0.512640 0.250000
O O1 0.166089 0.883297 0.750000
O O2 0.153816 0.008912 0.622449
O O3 0.978765 0.956679 0.750000
O O4 0.492395 0.637324 0.960775
O O5 0.294581 0.634234 0.878709
O O6 0.344711 0.531284 0.043601
O O7 0.330092 0.672254 0.122884
O O8 0.590851 0.804217 0.250000
O O9 0.621468 0.750000 0.000000
O O10 0.696821 0.885313 0.074815
O O11 0.191922 0.735687 0.750000
O O12 0.134434 0.579888 0.750000
O O13 0.790038 0.963442 0.620281
#
# Coordination Sequence:
#
# PCOD9434771 Si02
#       7
#     4   8   8   4   4   8   4
#     4  10  20  41  61  87 113 161 202 249 299 352
#     4  10  21  36  60  84 118 158 193 236 292 353
#     4  12  25  40  59  88 126 162 196 235 291 355
#     4  10  18  35  53  89 115 149 190 255 297 332
#     4  10  20  33  59  87 119 145 198 249 299 342
#     4  10  22  41  61  86 119 157 199 249 294 354
#     4  10  22  37  65  85 117 153 208 247 299 356
#
# _framework density 18.323595999999998
#
# number of rings (size 3 to 8) (size 9 to 14) (size 15 to 20)
#    0.000    1.600    2.000    3.000    2.800    0.000 
#    0.000    2.000    0.000    0.000    0.000    0.000 
#    0.000    0.000    0.000    0.000    0.000    0.000 
#
# Total GULP energy -223345.237799 kJ/mol
# GULP energy per Si atom -5583.630945 kJ/mol
# Density = 1.828189 g / cm^3
# Si number density = 18.323596 Si / 1000 Ang^3
#
#
#
# Elastic Constant Matrix: (Units=GPa)
#
#
# Indices 1 2 3 4 5 6 
#
# 1 51.6661 23.0088 0.9197 0.0000 0.0000 0.0000
# 2 23.0088 76.5702 13.2381 0.0000 0.0000 0.0000
# 3 0.9197 13.2381 110.4112 0.0000 0.0000 0.0000
# 4 0.0000 0.0000 0.0000 24.5569 0.0000 0.0000
# 5 0.0000 0.0000 0.0000 0.0000 18.1941 0.0000
# 6 0.0000 0.0000 0.0000 0.0000 0.0000 10.6912
#
#
#
# Elastic Compliance Matrix: (Units=1/GPa)
#
#
# Indices 1 2 3 4 5 6 
#
# 1 0.022389 -0.006837 0.000633 0.000000 0.000000 0.000000
# 2 -0.006837 0.015424 -0.001792 0.000000 0.000000 0.000000
# 3 0.000633 -0.001792 0.009267 0.000000 0.000000 0.000000
# 4 0.000000 0.000000 0.000000 0.040722 0.000000 0.000000
# 5 0.000000 0.000000 0.000000 0.000000 0.054963 0.000000
# 6 0.000000 0.000000 0.000000 0.000000 0.000000 0.093535
#
#
# Mechanical properties :
#
#
# Convention : Reuss Voigt Hill
#
# Bulk Modulus (GPa) = 32.16765 34.77562 33.47163
# Shear Modulus (GPa) = 19.03644 24.12049 21.57846
#
# Velocity S-wave (km/s) = 3.22670 3.63211 3.43539
# Velocity P-wave (km/s) = 5.61031 6.05057 5.83459
#
# Compressibility (1/GPa) = 0.03108713
#
# Stress axis : x y z
#
# Youngs Moduli (GPa) = 44.66562 64.83285 107.91347
#
# Poissons Ratio (x) = 0.44327 -0.06834
# Poissons Ratio (y) = 0.30538 0.19342
# Poissons Ratio (z) = -0.02829 0.11621
#
# Static dielectric constant tensor:
#      x y z
#    x 1.582710 0.000000 0.000000 
#    y 0.000000 1.655530 0.000000 
#    z 0.000000 0.000000 1.636970 
# 
# From -- ./inp_files/2745.got.cif
#   From: 2010.05.17/outbox.cif.g08.bks.cpg/sg57_2_cif.got.tgz:2745.got - 2010.06.03 13:58:18.
