data_PCOD9434571
_publ_section_title
;
Structure prediction by ZEFSAII (Michael W. Deem and Ramdas Pophale) SiO2 
 PCOD9434571
Probable space group: P B C M
;
_chemical_formula_sum "Si O2"
_cell_formula_units_Z 64
_cell_length_a 15.363847
_cell_length_b 30.763933
_cell_length_c 8.551745
_cell_angle_alpha 90.000000
_cell_angle_beta 90.000000
_cell_angle_gamma 90.000000
_cell_volume 4042.002454
_symmetry_space_group_name_H-M "P B C M"
_symmetry_group_IT_number 57
_symmetry_cell_setting 'orthorhombic'
loop_
_space_group_symop_operation_xyz
x,y,z
-x,-y,1/2+z
x,1/2-y,-z
-x,1/2+y,1/2-z
-x,-y,-z
x,y,1/2-z
-x,1/2+y,z
x,1/2-y,1/2+z
loop_
_atom_site_type_symbol
_atom_site_label
_atom_site_fract_x
_atom_site_fract_y
_atom_site_fract_z
Si Si1 0.676703 0.462630 0.937137
Si Si2 0.869608 0.029706 0.936839
Si Si3 0.365888 0.443359 0.937384
Si Si4 0.947686 0.560467 0.561210
Si Si5 0.493035 0.203506 0.437607
Si Si6 0.539370 0.391519 0.940509
Si Si7 0.790101 0.615284 0.561426
Si Si8 0.704092 0.795731 0.062236
O O1 0.673129 0.464471 0.750000
O O2 0.619857 0.421390 0.991101
O O3 0.776837 0.460032 0.989124
O O4 0.636106 0.507506 0.000884
O O5 0.860206 0.030454 0.750000
O O6 0.950880 0.060486 0.983807
O O7 0.901917 0.982004 0.989045
O O8 0.366046 0.444481 0.750000
O O9 0.450168 0.415727 0.989914
O O10 0.279511 0.418826 0.994942
O O11 0.945092 0.555759 0.750000
O O12 0.887172 0.600857 0.516607
O O13 0.526260 0.250000 0.500000
O O14 0.493645 0.205172 0.250000
O O15 0.539674 0.158916 0.490222
O O16 0.393158 0.199241 0.494422
O O17 0.538693 0.391119 0.750000
O O18 0.784273 0.613336 0.750000
O O19 0.761300 0.663218 0.512366
O O20 0.698360 0.794541 0.250000
O O21 0.738872 0.750000 0.000000
#
# Coordination Sequence:
#
# PCOD9434571 Si02
#       8
#     8   8   8   8   8   8   8   8
#     4  11  21  34  48  65  94 132 164 196 236 280
#     4  10  19  31  47  70  93 119 157 198 236 274
#     4  11  20  32  47  68  95 127 163 200 230 270
#     4   9  18  32  49  67  93 123 152 191 238 281
#     4  10  18  32  49  68  92 120 155 195 238 279
#     4   9  20  34  48  66  94 129 161 193 238 283
#     4  10  19  31  48  70  94 126 159 189 231 287
#     4  10  19  30  46  69  95 123 156 189 231 280
#
# _framework density 15.833736999999999
#
# number of rings (size 3 to 8) (size 9 to 14) (size 15 to 20)
#    0.000    2.000    2.500    3.000    0.000    1.000 
#    0.000    4.375    0.000    0.000    0.000    0.875 
#    0.000    6.000    0.000    0.000    0.000    0.000 
#
# Total GULP energy -356924.935589 kJ/mol
# GULP energy per Si atom -5576.952119 kJ/mol
# Density = 1.579770 g / cm^3
# Si number density = 15.833737 Si / 1000 Ang^3
#
#
#
# Elastic Constant Matrix: (Units=GPa)
#
#
# Indices 1 2 3 4 5 6 
#
# 1 73.9971 56.8455 10.6373 0.0000 0.0000 0.0000
# 2 56.8455 146.4792 24.4610 0.0000 0.0000 0.0000
# 3 10.6373 24.4610 19.8287 0.0000 0.0000 0.0000
# 4 0.0000 0.0000 0.0000 17.1562 0.0000 0.0000
# 5 0.0000 0.0000 0.0000 0.0000 16.0054 0.0000
# 6 0.0000 0.0000 0.0000 0.0000 0.0000 22.6762
#
#
#
# Elastic Compliance Matrix: (Units=1/GPa)
#
#
# Indices 1 2 3 4 5 6 
#
# 1 0.019285 -0.007250 -0.001402 0.000000 0.000000 0.000000
# 2 -0.007250 0.011324 -0.010080 0.000000 0.000000 0.000000
# 3 -0.001402 -0.010080 0.063619 0.000000 0.000000 0.000000
# 4 0.000000 0.000000 0.000000 0.058288 0.000000 0.000000
# 5 0.000000 0.000000 0.000000 0.000000 0.062479 0.000000
# 6 0.000000 0.000000 0.000000 0.000000 0.000000 0.044099
#
#
# Mechanical properties :
#
#
# Convention : Reuss Voigt Hill
#
# Bulk Modulus (GPa) = 17.61682 47.13254 32.37468
# Shear Modulus (GPa) = 15.84895 21.05831 18.45363
#
# Velocity S-wave (km/s) = 3.16723 3.65082 3.41759
# Velocity P-wave (km/s) = 4.95231 6.89950 6.00535
#
# Compressibility (1/GPa) = 0.05676393
#
# Stress axis : x y z
#
# Youngs Moduli (GPa) = 51.85336 88.30987 15.71868
#
# Poissons Ratio (x) = 0.64025 0.02204
# Poissons Ratio (y) = 0.37594 0.15844
# Poissons Ratio (z) = 0.07269 0.89015
#
# Static dielectric constant tensor:
#      x y z
#    x 1.523480 0.000000 0.000000 
#    y 0.000000 1.538420 0.000000 
#    z 0.000000 0.000000 1.541070 
# 
# From -- ./inp_files/5990.got.cif
#   From: 2010.05.17/outbox.cif.g08.bks.cpg/sg57_3_cif.got.tgz:5990.got - 2010.06.03 13:58:18.
