data_PCOD9434586
_publ_section_title
;
Structure prediction by ZEFSAII (Michael W. Deem and Ramdas Pophale) SiO2 
 PCOD9434586
Probable space group: P B C M
;
_chemical_formula_sum "Si O2"
_cell_formula_units_Z 48
_cell_length_a 12.866170
_cell_length_b 25.799391
_cell_length_c 8.686684
_cell_angle_alpha 90.000000
_cell_angle_beta 90.000000
_cell_angle_gamma 90.000000
_cell_volume 2883.452245
_symmetry_space_group_name_H-M "P B C M"
_symmetry_group_IT_number 57
_symmetry_cell_setting 'orthorhombic'
loop_
_space_group_symop_operation_xyz
x,y,z
-x,-y,1/2+z
x,1/2-y,-z
-x,1/2+y,1/2-z
-x,-y,-z
x,y,1/2-z
-x,1/2+y,z
x,1/2-y,1/2+z
loop_
_atom_site_type_symbol
_atom_site_label
_atom_site_fract_x
_atom_site_fract_y
_atom_site_fract_z
Si Si1 0.500892 0.191381 0.065961
Si Si2 0.875369 0.889194 0.934074
Si Si3 0.284755 0.191851 0.933609
Si Si4 0.116821 0.002462 0.934536
Si Si5 0.121697 0.886990 0.934477
Si Si6 0.716265 0.192111 0.932766
O O1 0.499051 0.192098 0.250000
O O2 0.609728 0.169280 0.005260
O O3 0.501780 0.250000 0.000000
O O4 0.393207 0.169355 0.000744
O O5 0.865379 0.886347 0.750000
O O6 0.998514 0.884170 0.971448
O O7 0.809126 0.844320 0.012782
O O8 0.837263 0.945586 0.992255
O O9 0.291410 0.194825 0.750000
O O10 0.271634 0.250000 0.000000
O O11 0.113879 0.007538 0.750000
O O12 0.160863 0.945421 0.971112
O O13 0.000000 0.000000 0.000000
O O14 0.131401 0.879622 0.750000
O O15 0.188251 0.844197 0.020981
O O16 0.704472 0.304035 0.250000
O O17 0.731534 0.250000 0.000000
#
# Coordination Sequence:
#
# PCOD9434586 Si02
#       6
#     8   8   8   8   8   8
#     4  10  18  32  52  72  97 128 166 206 245 291
#     4  10  20  34  52  75 103 134 169 207 249 297
#     4  11  21  34  52  75 103 133 168 206 249 298
#     4   9  17  31  51  73  98 130 168 208 247 292
#     4   9  19  34  51  73 102 133 166 204 246 294
#     4  11  21  33  51  74 101 132 167 205 248 296
#
# _framework density 16.646712999999998
#
# number of rings (size 3 to 8) (size 9 to 14) (size 15 to 20)
#    0.000    2.000    0.000    8.500    0.000    4.667 
#    0.000    0.000    0.000    1.000    0.000    0.000 
#    0.000    0.000    0.000    0.000    0.000    0.000 
#
# Total GULP energy -267625.628075 kJ/mol
# GULP energy per Si atom -5575.533918 kJ/mol
# Density = 1.660882 g / cm^3
# Si number density = 16.646713 Si / 1000 Ang^3
#
#
#
# Elastic Constant Matrix: (Units=GPa)
#
#
# Indices 1 2 3 4 5 6 
#
# 1 84.5674 51.1253 58.1387 0.0000 0.0000 0.0000
# 2 51.1253 92.5405 54.6188 0.0000 0.0000 0.0000
# 3 58.1387 54.6188 135.4177 0.0000 0.0000 0.0000
# 4 0.0000 0.0000 0.0000 29.1802 0.0000 0.0000
# 5 0.0000 0.0000 0.0000 0.0000 27.5353 0.0000
# 6 0.0000 0.0000 0.0000 0.0000 0.0000 -3.8183
#
#
#
# Elastic Compliance Matrix: (Units=1/GPa)
#
#
# Indices 1 2 3 4 5 6 
#
# 1 0.020515 -0.008052 -0.005560 0.000000 0.000000 0.000000
# 2 -0.008052 0.017343 -0.003538 0.000000 0.000000 0.000000
# 3 -0.005560 -0.003538 0.011199 0.000000 0.000000 0.000000
# 4 0.000000 0.000000 0.000000 0.034270 0.000000 0.000000
# 5 0.000000 0.000000 0.000000 0.000000 0.036317 0.000000
# 6 0.000000 0.000000 0.000000 0.000000 0.000000 -0.261899
#
#
# Mechanical properties :
#
#
# Convention : Reuss Voigt Hill
#
# Bulk Modulus (GPa) = 67.76794 71.14347 69.45571
# Shear Modulus (GPa) = -48.52694 20.48896 -14.01899
#
# Velocity S-wave (km/s) = -5.40503 3.51210 -2.90513
# Velocity P-wave (km/s) = 1.35846 7.69912 5.52820
#
# Compressibility (1/GPa) = 0.01475624
#
# Stress axis : x y z
#
# Youngs Moduli (GPa) = 48.74383 57.66070 89.29691
#
# Poissons Ratio (x) = 0.46431 0.49649
# Poissons Ratio (y) = 0.39250 0.31592
# Poissons Ratio (z) = 0.27102 0.20400
#
# Static dielectric constant tensor:
#      x y z
#    x 1.572840 0.000000 0.000000 
#    y 0.000000 1.570050 0.000000 
#    z 0.000000 0.000000 1.553420 
# 
# From -- ./inp_files/3270.got.cif
#   From: 2010.05.17/outbox.cif.g08.bks.cpg/sg57_2_cif.got.tgz:3270.got - 2010.06.03 13:58:18.
