data_PCOD9434876
_publ_section_title
;
Structure prediction by ZEFSAII (Michael W. Deem and Ramdas Pophale) SiO2 
 PCOD9434876
Probable space group: P B C M
;
_chemical_formula_sum "Si O2"
_cell_formula_units_Z 64
_cell_length_a 24.223492
_cell_length_b 14.352090
_cell_length_c 7.464809
_cell_angle_alpha 90.000000
_cell_angle_beta 90.000000
_cell_angle_gamma 90.000000
_cell_volume 2595.198606
_symmetry_space_group_name_H-M "P B C M"
_symmetry_group_IT_number 57
_symmetry_cell_setting 'orthorhombic'
loop_
_space_group_symop_operation_xyz
x,y,z
-x,-y,1/2+z
x,1/2-y,-z
-x,1/2+y,1/2-z
-x,-y,-z
x,y,1/2-z
-x,1/2+y,z
x,1/2-y,1/2+z
loop_
_atom_site_type_symbol
_atom_site_label
_atom_site_fract_x
_atom_site_fract_y
_atom_site_fract_z
Si Si1 0.044339 0.129235 0.453103
Si Si2 0.664690 0.850837 0.036237
Si Si3 0.690392 0.063806 0.541706
Si Si4 0.430628 0.913917 0.030368
Si Si5 0.808757 0.054944 0.965696
Si Si6 0.162338 0.151348 0.464725
Si Si7 0.931088 0.081898 0.036487
Si Si8 0.454662 0.372015 0.044416
O O1 0.043238 0.165203 0.250000
O O2 0.100605 0.160507 0.544835
O O3 0.983050 0.143041 0.529424
O O4 0.056798 0.018273 0.449160
O O5 0.662335 0.863133 0.250000
O O6 0.602537 0.841397 0.957179
O O7 0.691194 0.750000 0.000000
O O8 0.687825 0.949732 0.966863
O O9 0.690168 0.089931 0.750000
O O10 0.750030 0.092658 0.465783
O O11 0.632246 0.103659 0.469342
O O12 0.431345 0.916330 0.250000
O O13 0.483998 0.854828 0.970255
O O14 0.444843 0.016837 0.960056
O O15 0.805260 0.052957 0.750000
O O16 0.814038 0.947066 0.030374
O O17 0.866936 0.105089 0.006950
O O18 0.190535 0.250000 0.500000
O O19 0.158845 0.141288 0.250000
O O20 0.938424 0.071785 0.250000
O O21 0.455245 0.339605 0.250000
#
# Coordination Sequence:
#
# PCOD9434876 Si02
#       8
#     8   8   8   8   8   8   8   8
#     4   8  15  27  40  55  76  98 121 158 204 237
#     4  10  19  29  40  55  78 106 135 165 195 229
#     4   9  17  29  43  57  76 105 136 163 194 230
#     4   8  13  23  40  58  73  92 122 157 194 235
#     4   9  18  30  40  54  80 108 130 158 194 227
#     4   9  17  28  39  52  74 102 130 158 187 219
#     4   9  15  24  41  60  74  94 126 159 194 236
#     4   8  14  24  38  56  75  94 119 157 200 233
#
# _framework density 24.660927000000001
#
# number of rings (size 3 to 8) (size 9 to 14) (size 15 to 20)
#    0.000    3.250    0.000    1.500    0.000    4.000 
#    0.000    1.250    0.000    0.000    0.000    0.000 
#    0.000    1.000    0.000    9.750    0.000    1.250 
#
# Total GULP energy -356326.635410 kJ/mol
# GULP energy per Si atom -5567.603678 kJ/mol
# Density = 2.460480 g / cm^3
# Si number density = 24.660927 Si / 1000 Ang^3
#
#
#
# Elastic Constant Matrix: (Units=GPa)
#
#
# Indices 1 2 3 4 5 6 
#
# 1 266.3976 -2.3515 8.7878 0.0000 0.0000 0.0000
# 2 -2.3515 21.2293 -5.4593 0.0000 0.0000 0.0000
# 3 8.7878 -5.4593 98.5340 0.0000 0.0000 0.0000
# 4 0.0000 0.0000 0.0000 2.8476 0.0000 0.0000
# 5 0.0000 0.0000 0.0000 0.0000 34.9354 0.0000
# 6 0.0000 0.0000 0.0000 0.0000 0.0000 -13.9259
#
#
#
# Elastic Compliance Matrix: (Units=1/GPa)
#
#
# Indices 1 2 3 4 5 6 
#
# 1 0.003767 0.000336 -0.000317 0.000000 0.000000 0.000000
# 2 0.000336 0.047816 0.002619 0.000000 0.000000 0.000000
# 3 -0.000317 0.002619 0.010322 0.000000 0.000000 0.000000
# 4 0.000000 0.000000 0.000000 0.351173 0.000000 0.000000
# 5 0.000000 0.000000 0.000000 0.000000 0.028624 0.000000
# 6 0.000000 0.000000 0.000000 0.000000 0.000000 -0.071808
#
#
# Mechanical properties :
#
#
# Convention : Reuss Voigt Hill
#
# Bulk Modulus (GPa) = 14.88537 43.12388 29.00462
# Shear Modulus (GPa) = 12.91949 30.45033 21.68491
#
# Velocity S-wave (km/s) = 2.29134 3.51773 2.96855
# Velocity P-wave (km/s) = 3.61240 5.83300 4.85146
#
# Compressibility (1/GPa) = 0.06718008
#
# Stress axis : x y z
#
# Youngs Moduli (GPa) = 265.44776 20.91370 96.87850
#
# Poissons Ratio (x) = -0.00702 0.03075
# Poissons Ratio (y) = -0.08910 -0.25375
# Poissons Ratio (z) = 0.08425 -0.05478
#
# Static dielectric constant tensor:
#      x y z
#    x 2.070930 0.000000 0.000000 
#    y 0.000000 1.965390 0.000000 
#    z 0.000000 0.000000 1.923820 
# 
# From -- ./inp_files/9800.got.cif
#   From: 2010.05.17/outbox.cif.g08.bks.cpg/sg57_5_cif.got.tgz:9800.got - 2010.06.03 13:58:18.
