data_PCOD9434246
_publ_section_title
;
Structure prediction by ZEFSAII (Michael W. Deem and Ramdas Pophale) SiO2 
 PCOD9434246
Probable space group: P B C M
;
_chemical_formula_sum "Si O2"
_cell_formula_units_Z 56
_cell_length_a 16.789100
_cell_length_b 25.482819
_cell_length_c 8.468890
_cell_angle_alpha 90.000000
_cell_angle_beta 90.000000
_cell_angle_gamma 90.000000
_cell_volume 3623.275667
_symmetry_space_group_name_H-M "P B C M"
_symmetry_group_IT_number 57
_symmetry_cell_setting 'orthorhombic'
loop_
_space_group_symop_operation_xyz
x,y,z
-x,-y,1/2+z
x,1/2-y,-z
-x,1/2+y,1/2-z
-x,-y,-z
x,y,1/2-z
-x,1/2+y,z
x,1/2-y,1/2+z
loop_
_atom_site_type_symbol
_atom_site_label
_atom_site_fract_x
_atom_site_fract_y
_atom_site_fract_z
Si Si1 0.766923 0.306509 0.937328
Si Si2 0.477877 0.917203 0.059098
Si Si3 0.587645 0.307211 0.438800
Si Si4 0.624650 0.512126 0.559153
Si Si5 0.965215 0.944727 0.059786
Si Si6 0.194686 0.010878 0.558403
Si Si7 0.874413 0.400033 0.060314
O O1 0.758888 0.304500 0.750000
O O2 0.794636 0.250000 0.000000
O O3 0.679098 0.315649 0.009004
O O4 0.826572 0.352105 0.987327
O O5 0.476656 0.917395 0.250000
O O6 0.462374 0.857746 0.005520
O O7 0.560979 0.943780 0.007189
O O8 0.408745 0.956424 0.000751
O O9 0.562106 0.250000 0.500000
O O10 0.585204 0.305765 0.250000
O O11 0.623782 0.510993 0.750000
O O12 0.715116 0.521822 0.507059
O O13 0.966018 0.944591 0.250000
O O14 0.872728 0.946542 0.010161
O O15 0.032304 0.903033 0.009598
O O16 0.000000 0.000000 0.000000
O O17 0.194265 0.007899 0.750000
O O18 0.166535 0.954509 0.493431
O O19 0.870690 0.396775 0.250000
#
# Coordination Sequence:
#
# PCOD9434246 Si02
#       7
#     8   8   8   8   8   8   8
#     4  11  21  32  45  62  84 109 140 173 206 246
#     4   9  18  30  42  60  86 113 141 173 211 253
#     4  10  19  31  46  63  85 111 141 175 210 250
#     4   9  17  28  43  62  85 113 143 175 209 249
#     4   8  15  26  40  59  83 109 137 168 200 239
#     4   9  16  27  43  63  85 111 144 175 205 243
#     4  10  18  28  42  61  87 115 140 169 208 248
#
# _framework density 15.455628000000001
#
# number of rings (size 3 to 8) (size 9 to 14) (size 15 to 20)
#    0.000    2.571    0.000    3.857    0.000    4.571 
#    0.000    0.000    0.000    0.000    0.000    1.000 
#    0.000    2.286    0.000    0.000    0.000    0.571 
#
# Total GULP energy -311910.374585 kJ/mol
# GULP energy per Si atom -5569.828118 kJ/mol
# Density = 1.542045 g / cm^3
# Si number density = 15.455628 Si / 1000 Ang^3
#
#
#
# Elastic Constant Matrix: (Units=GPa)
#
#
# Indices 1 2 3 4 5 6 
#
# 1 110.6767 52.4762 13.7890 0.0000 0.0000 0.0000
# 2 52.4762 104.8635 18.1771 0.0000 0.0000 0.0000
# 3 13.7890 18.1771 24.2921 0.0000 0.0000 0.0000
# 4 0.0000 0.0000 0.0000 20.6694 0.0000 0.0000
# 5 0.0000 0.0000 0.0000 0.0000 14.0950 0.0000
# 6 0.0000 0.0000 0.0000 0.0000 0.0000 24.3924
#
#
#
# Elastic Compliance Matrix: (Units=1/GPa)
#
#
# Indices 1 2 3 4 5 6 
#
# 1 0.011994 -0.005541 -0.002662 0.000000 0.000000 0.000000
# 2 -0.005541 0.013517 -0.006969 0.000000 0.000000 0.000000
# 3 -0.002662 -0.006969 0.047892 0.000000 0.000000 0.000000
# 4 0.000000 0.000000 0.000000 0.048381 0.000000 0.000000
# 5 0.000000 0.000000 0.000000 0.000000 0.070947 0.000000
# 6 0.000000 0.000000 0.000000 0.000000 0.000000 0.040996
#
#
# Mechanical properties :
#
#
# Convention : Reuss Voigt Hill
#
# Bulk Modulus (GPa) = 23.22432 45.41299 34.31866
# Shear Modulus (GPa) = 17.95822 22.19071 20.07446
#
# Velocity S-wave (km/s) = 3.41239 3.79326 3.60786
# Velocity P-wave (km/s) = 5.53037 6.97365 6.29352
#
# Compressibility (1/GPa) = 0.04305831
#
# Stress axis : x y z
#
# Youngs Moduli (GPa) = 83.37471 73.98127 20.88040
#
# Poissons Ratio (x) = 0.40990 0.05559
# Poissons Ratio (y) = 0.46195 0.14552
# Poissons Ratio (z) = 0.22197 0.51560
#
# Static dielectric constant tensor:
#      x y z
#    x 1.544970 0.000000 0.000000 
#    y 0.000000 1.497550 0.000000 
#    z 0.000000 0.000000 1.524590 
# 
# From -- ./inp_files/7327.got.cif
#   From: 2010.05.17/outbox.cif.g08.bks.cpg/sg57_4_cif.got.tgz:7327.got - 2010.06.03 13:58:18.
