data_PCOD9434990
_publ_section_title
;
Structure prediction by ZEFSAII (Michael W. Deem and Ramdas Pophale) SiO2 
 PCOD9434990
Probable space group: P B C M
;
_chemical_formula_sum "Si O2"
_cell_formula_units_Z 64
_cell_length_a 19.477657
_cell_length_b 19.539766
_cell_length_c 9.860717
_cell_angle_alpha 90.000000
_cell_angle_beta 90.000000
_cell_angle_gamma 90.000000
_cell_volume 3752.879042
_symmetry_space_group_name_H-M "P B C M"
_symmetry_group_IT_number 57
_symmetry_cell_setting 'orthorhombic'
loop_
_space_group_symop_operation_xyz
x,y,z
-x,-y,1/2+z
x,1/2-y,-z
-x,1/2+y,1/2-z
-x,-y,-z
x,y,1/2-z
-x,1/2+y,z
x,1/2-y,1/2+z
loop_
_atom_site_type_symbol
_atom_site_label
_atom_site_fract_x
_atom_site_fract_y
_atom_site_fract_z
Si Si1 0.805037 0.465277 0.407307
Si Si2 0.303508 0.040040 0.593162
Si Si3 0.369810 0.313849 0.406951
Si Si4 0.533592 0.315886 0.408894
Si Si5 0.758737 0.170492 0.470315
Si Si6 0.380723 0.596390 0.397548
Si Si7 0.058068 0.537717 0.412945
Si Si8 0.914147 0.190841 0.395463
O O1 0.818078 0.482116 0.250000
O O2 0.749020 0.512985 0.480634
O O3 0.777857 0.386111 0.414892
O O4 0.871157 0.472902 0.504427
O O5 0.276119 0.038056 0.750000
O O6 0.330625 0.115703 0.563835
O O7 0.364159 0.983793 0.592325
O O8 0.350279 0.250000 0.500000
O O9 0.357342 0.296190 0.250000
O O10 0.451736 0.325725 0.421231
O O11 0.552046 0.250000 0.500000
O O12 0.550577 0.306918 0.250000
O O13 0.574507 0.377381 0.478195
O O14 0.741691 0.250000 0.500000
O O15 0.692806 0.135765 0.401632
O O16 0.832172 0.175021 0.395430
O O17 0.413056 0.610955 0.250000
O O18 0.061190 0.520436 0.250000
O O19 0.048014 0.619683 0.420078
O O20 0.000000 0.500000 0.500000
O O21 0.926959 0.250000 0.500000
O O22 0.934002 0.218063 0.250000
#
# Coordination Sequence:
#
# PCOD9434990 Si02
#       8
#     8   8   8   8   8   8   8   8
#     4  10  20  33  51  78 107 134 168 207 245 290
#     4   9  19  36  54  73 100 130 160 201 254 303
#     4   9  19  36  56  75  95 123 161 207 259 312
#     4  10  20  33  48  68  96 129 167 209 251 299
#     4   9  18  29  45  68  99 134 169 203 237 277
#     4  10  19  30  46  68  98 135 168 201 246 295
#     4  10  20  34  53  77 105 139 174 206 244 290
#     4   9  18  31  48  71  99 131 167 205 243 285
#
# _framework density 17.053574000000001
#
# number of rings (size 3 to 8) (size 9 to 14) (size 15 to 20)
#    0.000    2.500    0.000    1.875    0.000   12.000 
#    0.000    0.000    0.000    0.750    0.000    5.250 
#    0.000    0.000    0.000    0.000    0.000    0.000 
#
# Total GULP energy -356270.834234 kJ/mol
# GULP energy per Si atom -5566.731785 kJ/mol
# Density = 1.701476 g / cm^3
# Si number density = 17.053574 Si / 1000 Ang^3
#
#
#
# Elastic Constant Matrix: (Units=GPa)
#
#
# Indices 1 2 3 4 5 6 
#
# 1 34.2696 39.8781 49.8119 0.0000 0.0000 0.0000
# 2 39.8781 121.6831 77.4779 0.0000 0.0000 0.0000
# 3 49.8119 77.4779 162.6406 0.0000 0.0000 0.0000
# 4 0.0000 0.0000 0.0000 36.9033 0.0000 0.0000
# 5 0.0000 0.0000 0.0000 0.0000 16.0764 0.0000
# 6 0.0000 0.0000 0.0000 0.0000 0.0000 22.8790
#
#
#
# Elastic Compliance Matrix: (Units=1/GPa)
#
#
# Indices 1 2 3 4 5 6 
#
# 1 0.062745 -0.011952 -0.013523 0.000000 0.000000 0.000000
# 2 -0.011952 0.014073 -0.003043 0.000000 0.000000 0.000000
# 3 -0.013523 -0.003043 0.011740 0.000000 0.000000 0.000000
# 4 0.000000 0.000000 0.000000 0.027098 0.000000 0.000000
# 5 0.000000 0.000000 0.000000 0.000000 0.062203 0.000000
# 6 0.000000 0.000000 0.000000 0.000000 0.000000 0.043708
#
#
# Mechanical properties :
#
#
# Convention : Reuss Voigt Hill
#
# Bulk Modulus (GPa) = 31.72561 72.54766 52.13664
# Shear Modulus (GPa) = 17.29439 25.26678 21.28058
#
# Velocity S-wave (km/s) = 3.18798 3.85335 3.53635
# Velocity P-wave (km/s) = 5.67405 7.90134 6.87844
#
# Compressibility (1/GPa) = 0.03152027
#
# Stress axis : x y z
#
# Youngs Moduli (GPa) = 15.93752 71.05883 85.17915
#
# Poissons Ratio (x) = 0.84933 1.15188
# Poissons Ratio (y) = 0.19049 0.25922
# Poissons Ratio (z) = 0.21552 0.21625
#
# Static dielectric constant tensor:
#      x y z
#    x 1.573830 0.000000 0.000000 
#    y 0.000000 1.575630 0.000000 
#    z 0.000000 0.000000 1.623110 
# 
# From -- ./inp_files/8417.got.cif
#   From: 2010.05.17/outbox.cif.g08.bks.cpg/sg57_5_cif.got.tgz:8417.got - 2010.06.03 13:58:18.
