data_PCOD9434086
_publ_section_title
;
Structure prediction by ZEFSAII (Michael W. Deem and Ramdas Pophale) SiO2 
 PCOD9434086
Probable space group: P B C M
;
_chemical_formula_sum "Si O2"
_cell_formula_units_Z 48
_cell_length_a 11.648497
_cell_length_b 12.755353
_cell_length_c 19.418681
_cell_angle_alpha 90.000000
_cell_angle_beta 90.000000
_cell_angle_gamma 90.000000
_cell_volume 2885.241044
_symmetry_space_group_name_H-M "P B C M"
_symmetry_group_IT_number 57
_symmetry_cell_setting 'orthorhombic'
loop_
_space_group_symop_operation_xyz
x,y,z
-x,-y,1/2+z
x,1/2-y,-z
-x,1/2+y,1/2-z
-x,-y,-z
x,y,1/2-z
-x,1/2+y,z
x,1/2-y,1/2+z
loop_
_atom_site_type_symbol
_atom_site_label
_atom_site_fract_x
_atom_site_fract_y
_atom_site_fract_z
Si Si1 0.430993 0.350600 0.038973
Si Si2 0.177517 0.432644 0.829089
Si Si3 0.648962 0.030114 0.934429
Si Si4 0.969591 0.972939 0.394665
Si Si5 0.812615 0.723560 0.918870
Si Si6 0.859899 0.373512 0.993431
O O1 0.530755 0.409607 0.079720
O O2 0.320693 0.310915 0.080928
O O3 0.481203 0.250000 0.000000
O O4 0.382827 0.428462 0.979968
O O5 0.205958 0.411927 0.750000
O O6 0.277280 0.498050 0.867991
O O7 0.166523 0.326692 0.874039
O O8 0.055245 0.492441 0.834506
O O9 0.731105 0.098930 0.983782
O O10 0.886075 0.873384 0.389959
O O11 0.060196 0.935096 0.452602
O O12 0.896572 0.072653 0.421767
O O13 0.839522 0.750000 0.000000
O O14 0.879897 0.250000 0.000000
#
# Coordination Sequence:
#
# PCOD9434086 Si02
#       6
#     8   8   8   8   8   8
#     4  10  18  32  58  86 108 134 183 242 274 322
#     4  11  23  37  54  78 115 153 187 231 287 348
#     4  10  19  33  53  83 112 138 180 230 286 325
#     4  10  19  31  50  76 108 145 180 222 273 329
#     4  11  18  36  59  85 109 143 193 239 280 331
#     4  10  17  28  49  81 108 136 173 224 276 326
#
# _framework density 16.636392000000001
#
# number of rings (size 3 to 8) (size 9 to 14) (size 15 to 20)
#    0.000    1.667    5.000    4.000    0.000    0.667 
#    0.000    0.833    0.000    0.000    0.000    0.000 
#    0.000    0.000    0.000    0.000    0.000    0.000 
#
# Total GULP energy -267456.135458 kJ/mol
# GULP energy per Si atom -5572.002822 kJ/mol
# Density = 1.659853 g / cm^3
# Si number density = 16.636392 Si / 1000 Ang^3
#
#
#
# Elastic Constant Matrix: (Units=GPa)
#
#
# Indices 1 2 3 4 5 6 
#
# 1 94.9747 43.9845 33.3399 0.0000 0.0000 0.0000
# 2 43.9845 95.2330 27.4058 0.0000 0.0000 0.0000
# 3 33.3399 27.4058 79.7956 0.0000 0.0000 0.0000
# 4 0.0000 0.0000 0.0000 13.1186 0.0000 0.0000
# 5 0.0000 0.0000 0.0000 0.0000 8.0367 0.0000
# 6 0.0000 0.0000 0.0000 0.0000 0.0000 24.9233
#
#
#
# Elastic Compliance Matrix: (Units=1/GPa)
#
#
# Indices 1 2 3 4 5 6 
#
# 1 0.014554 -0.005517 -0.004186 0.000000 0.000000 0.000000
# 2 -0.005517 0.013744 -0.002415 0.000000 0.000000 0.000000
# 3 -0.004186 -0.002415 0.015110 0.000000 0.000000 0.000000
# 4 0.000000 0.000000 0.000000 0.076227 0.000000 0.000000
# 5 0.000000 0.000000 0.000000 0.000000 0.124430 0.000000
# 6 0.000000 0.000000 0.000000 0.000000 0.000000 0.040123
#
#
# Mechanical properties :
#
#
# Convention : Reuss Voigt Hill
#
# Bulk Modulus (GPa) = 52.16087 53.27374 52.71730
# Shear Modulus (GPa) = 15.88236 20.23393 18.05814
#
# Velocity S-wave (km/s) = 3.09313 3.49125 3.29821
# Velocity P-wave (km/s) = 6.64667 6.95297 6.80154
#
# Compressibility (1/GPa) = 0.01917146
#
# Stress axis : x y z
#
# Youngs Moduli (GPa) = 68.71137 72.76033 66.17945
#
# Poissons Ratio (x) = 0.40143 0.27702
# Poissons Ratio (y) = 0.37909 0.15983
# Poissons Ratio (z) = 0.28762 0.17573
#
# Static dielectric constant tensor:
#      x y z
#    x 1.592170 0.000000 0.000000 
#    y 0.000000 1.583870 0.000000 
#    z 0.000000 0.000000 1.543330 
# 
# From -- ./inp_files/24949.got.cif
#   From: 2010.05.17/outbox.cif.g08.bks.cpg/sg57_13_cif.got.tgz:24949.got - 2010.06.03 13:58:18.
