data_PCOD9434168
_publ_section_title
;
Structure prediction by ZEFSAII (Michael W. Deem and Ramdas Pophale) SiO2 
 PCOD9434168
Probable space group: P B C M
;
_chemical_formula_sum "Si O2"
_cell_formula_units_Z 48
_cell_length_a 15.965078
_cell_length_b 10.274974
_cell_length_c 16.556101
_cell_angle_alpha 90.000000
_cell_angle_beta 90.000000
_cell_angle_gamma 90.000000
_cell_volume 2715.875413
_symmetry_space_group_name_H-M "P B C M"
_symmetry_group_IT_number 57
_symmetry_cell_setting 'orthorhombic'
loop_
_space_group_symop_operation_xyz
x,y,z
-x,-y,1/2+z
x,1/2-y,-z
-x,1/2+y,1/2-z
-x,-y,-z
x,y,1/2-z
-x,1/2+y,z
x,1/2-y,1/2+z
loop_
_atom_site_type_symbol
_atom_site_label
_atom_site_fract_x
_atom_site_fract_y
_atom_site_fract_z
Si Si1 0.658317 0.781701 0.154571
Si Si2 0.190012 0.885387 0.047263
Si Si3 0.656103 0.470803 0.154599
Si Si4 0.993033 0.375208 0.057671
Si Si5 0.498755 0.626104 0.556466
Si Si6 0.824588 0.864284 0.432654
O O1 0.644874 0.802399 0.250000
O O2 0.652761 0.626417 0.138299
O O3 0.586768 0.849831 0.101290
O O4 0.749205 0.834040 0.127793
O O5 0.264912 0.913066 0.107735
O O6 0.100071 0.883988 0.093681
O O7 0.200440 0.750000 0.000000
O O8 0.188655 0.001231 0.981012
O O9 0.663978 0.453511 0.250000
O O10 0.573473 0.400474 0.121490
O O11 0.081205 0.367054 0.104561
O O12 0.990639 0.250000 0.000000
O O13 0.000000 0.500000 0.000000
O O14 0.480480 0.750000 0.500000
O O15 0.500000 0.500000 0.500000
O O16 0.823153 0.750000 0.500000
#
# Coordination Sequence:
#
# PCOD9434168 Si02
#       6
#     8   8   8   8   8   8
#     4  11  23  39  58  86 117 148 186 232 285 340
#     4  10  19  35  56  86 116 146 190 235 279 325
#     4  11  23  39  58  85 117 149 184 232 289 340
#     4   8  16  28  52  83 111 141 184 237 273 314
#     4  12  23  41  63  86 111 145 193 234 277 335
#     4  10  17  34  59  83 110 149 195 228 271 333
#
# _framework density 17.673859
#
# number of rings (size 3 to 8) (size 9 to 14) (size 15 to 20)
#    0.000    1.667    3.333    2.500    0.000    0.000 
#    0.000    3.333    0.000    0.000    0.000    0.000 
#    0.000    0.000    0.000    0.000    0.000    0.000 
#
# Total GULP energy -267697.052648 kJ/mol
# GULP energy per Si atom -5577.021930 kJ/mol
# Density = 1.763363 g / cm^3
# Si number density = 17.673859 Si / 1000 Ang^3
#
#
#
# Elastic Constant Matrix: (Units=GPa)
#
#
# Indices 1 2 3 4 5 6 
#
# 1 163.9410 33.3656 59.1474 0.0000 0.0000 0.0000
# 2 33.3656 130.0783 40.9790 0.0000 0.0000 0.0000
# 3 59.1474 40.9790 68.7071 0.0000 0.0000 0.0000
# 4 0.0000 0.0000 0.0000 23.3439 0.0000 0.0000
# 5 0.0000 0.0000 0.0000 0.0000 -0.2110 0.0000
# 6 0.0000 0.0000 0.0000 0.0000 0.0000 25.4720
#
#
#
# Elastic Compliance Matrix: (Units=1/GPa)
#
#
# Indices 1 2 3 4 5 6 
#
# 1 0.008850 0.000160 -0.007715 0.000000 0.000000 0.000000
# 2 0.000160 0.009469 -0.005786 0.000000 0.000000 0.000000
# 3 -0.007715 -0.005786 0.024646 0.000000 0.000000 0.000000
# 4 0.000000 0.000000 0.000000 0.042838 0.000000 0.000000
# 5 0.000000 0.000000 0.000000 0.000000 -4.738253 0.000000
# 6 0.000000 0.000000 0.000000 0.000000 0.000000 0.039259
#
#
# Mechanical properties :
#
#
# Convention : Reuss Voigt Hill
#
# Bulk Modulus (GPa) = 61.40205 69.96784 65.68494
# Shear Modulus (GPa) = -1.09145 25.00327 11.95591
#
# Velocity S-wave (km/s) = -0.78669 3.76533 2.60373
# Velocity P-wave (km/s) = 5.83026 7.65362 6.80330
#
# Compressibility (1/GPa) = 0.01628610
#
# Stress axis : x y z
#
# Youngs Moduli (GPa) = 112.98858 105.60482 40.57383
#
# Poissons Ratio (x) = -0.01691 0.31301
# Poissons Ratio (y) = -0.01810 0.23475
# Poissons Ratio (z) = 0.87166 0.61099
#
# Static dielectric constant tensor:
#      x y z
#    x 1.646130 0.000000 0.000000 
#    y 0.000000 1.580570 0.000000 
#    z 0.000000 0.000000 1.554570 
# 
# From -- ./inp_files/22392.got.cif
#   From: 2010.05.17/outbox.cif.g08.bks.cpg/sg57_12_cif.got.tgz:22392.got - 2010.06.03 13:58:18.
