data_PCOD9434314
_publ_section_title
;
Structure prediction by ZEFSAII (Michael W. Deem and Ramdas Pophale) SiO2 
 PCOD9434314
Probable space group: P B C M
;
_chemical_formula_sum "Si O2"
_cell_formula_units_Z 64
_cell_length_a 22.328391
_cell_length_b 18.474638
_cell_length_c 8.657446
_cell_angle_alpha 90.000000
_cell_angle_beta 90.000000
_cell_angle_gamma 90.000000
_cell_volume 3571.273880
_symmetry_space_group_name_H-M "P B C M"
_symmetry_group_IT_number 57
_symmetry_cell_setting 'orthorhombic'
loop_
_space_group_symop_operation_xyz
x,y,z
-x,-y,1/2+z
x,1/2-y,-z
-x,1/2+y,1/2-z
-x,-y,-z
x,y,1/2-z
-x,1/2+y,z
x,1/2-y,1/2+z
loop_
_atom_site_type_symbol
_atom_site_label
_atom_site_fract_x
_atom_site_fract_y
_atom_site_fract_z
Si Si1 0.183294 0.962188 0.065792
Si Si2 0.620581 0.087275 0.434343
Si Si3 0.503478 0.582116 0.565312
Si Si4 0.064048 0.022795 0.564183
Si Si5 0.247361 0.102681 0.934861
Si Si6 0.124186 0.326909 0.064576
Si Si7 0.733716 0.328923 0.434224
Si Si8 0.372237 0.076363 0.065966
O O1 0.184580 0.975061 0.250000
O O2 0.212261 0.884541 0.034721
O O3 0.116585 0.972222 0.002391
O O4 0.223791 0.023301 0.984145
O O5 0.617685 0.081374 0.250000
O O6 0.557228 0.116366 0.499429
O O7 0.674709 0.137514 0.487723
O O8 0.630864 0.006562 0.503289
O O9 0.500000 0.500000 0.500000
O O10 0.497444 0.419078 0.250000
O O11 0.567165 0.610267 0.504374
O O12 0.064500 0.019439 0.750000
O O13 0.083553 0.104575 0.517591
O O14 0.000000 0.000000 0.500000
O O15 0.253729 0.105267 0.750000
O O16 0.192797 0.155097 0.983051
O O17 0.311307 0.114845 0.012987
O O18 0.123576 0.324516 0.250000
O O19 0.104785 0.250000 0.000000
O O20 0.745824 0.250000 0.500000
O O21 0.724465 0.326127 0.250000
O O22 0.376563 0.074008 0.250000
#
# Coordination Sequence:
#
# PCOD9434314 Si02
#       8
#     8   8   8   8   8   8   8   8
#     4  10  20  35  56  81 110 142 181 226 271 323
#     4  11  20  32  50  71 101 138 177 229 284 335
#     4  10  18  29  45  68  99 133 171 220 276 332
#     4  10  21  38  61  89 118 149 188 227 269 320
#     4  10  19  32  52  79 109 143 181 223 274 326
#     4   9  20  36  56  84 116 147 183 224 267 324
#     4  11  23  37  54  78 107 143 189 234 283 339
#     4  11  19  29  47  75 105 136 178 225 278 335
#
# _framework density 17.920777000000001
#
# number of rings (size 3 to 8) (size 9 to 14) (size 15 to 20)
#    0.000    1.750    1.250    7.125    0.000    4.500 
#    0.000    0.625    0.000    0.750    0.000    3.500 
#    0.000    0.000    0.000    0.000    0.000    0.000 
#
# Total GULP energy -357300.498906 kJ/mol
# GULP energy per Si atom -5582.820295 kJ/mol
# Density = 1.787999 g / cm^3
# Si number density = 17.920777 Si / 1000 Ang^3
#
#
#
# Elastic Constant Matrix: (Units=GPa)
#
#
# Indices 1 2 3 4 5 6 
#
# 1 155.9193 43.4495 54.0320 0.0000 0.0000 0.0000
# 2 43.4495 72.6833 33.1549 0.0000 0.0000 0.0000
# 3 54.0320 33.1549 114.4852 0.0000 0.0000 0.0000
# 4 0.0000 0.0000 0.0000 22.9704 0.0000 0.0000
# 5 0.0000 0.0000 0.0000 0.0000 29.2302 0.0000
# 6 0.0000 0.0000 0.0000 0.0000 0.0000 14.3943
#
#
#
# Elastic Compliance Matrix: (Units=1/GPa)
#
#
# Indices 1 2 3 4 5 6 
#
# 1 0.008463 -0.003730 -0.002914 0.000000 0.000000 0.000000
# 2 -0.003730 0.017496 -0.003307 0.000000 0.000000 0.000000
# 3 -0.002914 -0.003307 0.011068 0.000000 0.000000 0.000000
# 4 0.000000 0.000000 0.000000 0.043534 0.000000 0.000000
# 5 0.000000 0.000000 0.000000 0.000000 0.034211 0.000000
# 6 0.000000 0.000000 0.000000 0.000000 0.000000 0.069472
#
#
# Mechanical properties :
#
#
# Convention : Reuss Voigt Hill
#
# Bulk Modulus (GPa) = 58.39076 67.15118 62.77097
# Shear Modulus (GPa) = 23.82621 27.48243 25.65432
#
# Velocity S-wave (km/s) = 3.65023 3.92031 3.78768
# Velocity P-wave (km/s) = 7.10063 7.61868 7.36421
#
# Compressibility (1/GPa) = 0.01712600
#
# Stress axis : x y z
#
# Youngs Moduli (GPa) = 118.16557 57.15505 90.35393
#
# Poissons Ratio (x) = 0.21317 0.26328
# Poissons Ratio (y) = 0.44073 0.29877
# Poissons Ratio (z) = 0.34432 0.18899
#
# Static dielectric constant tensor:
#      x y z
#    x 1.641060 0.000000 0.000000 
#    y 0.000000 1.604220 0.000000 
#    z 0.000000 0.000000 1.599540 
# 
# From -- ./inp_files/8507.got.cif
#   From: 2010.05.17/outbox.cif.g08.bks.cpg/sg57_5_cif.got.tgz:8507.got - 2010.06.03 13:58:18.
