data_PCOD9434211
_publ_section_title
;
Structure prediction by ZEFSAII (Michael W. Deem and Ramdas Pophale) SiO2 
 PCOD9434211
Probable space group: P B C M
;
_chemical_formula_sum "Si O2"
_cell_formula_units_Z 56
_cell_length_a 15.097782
_cell_length_b 27.352829
_cell_length_c 8.482304
_cell_angle_alpha 90.000000
_cell_angle_beta 90.000000
_cell_angle_gamma 90.000000
_cell_volume 3502.912054
_symmetry_space_group_name_H-M "P B C M"
_symmetry_group_IT_number 57
_symmetry_cell_setting 'orthorhombic'
loop_
_space_group_symop_operation_xyz
x,y,z
-x,-y,1/2+z
x,1/2-y,-z
-x,1/2+y,1/2-z
-x,-y,-z
x,y,1/2-z
-x,1/2+y,z
x,1/2-y,1/2+z
loop_
_atom_site_type_symbol
_atom_site_label
_atom_site_fract_x
_atom_site_fract_y
_atom_site_fract_z
Si Si1 0.924971 0.565800 0.440627
Si Si2 0.381768 0.195332 0.938192
Si Si3 0.479330 0.613630 0.560639
Si Si4 0.880706 0.458007 0.559362
Si Si5 0.761593 0.623951 0.062011
Si Si6 0.687013 0.433249 0.560245
Si Si7 0.630005 0.958716 0.059046
O O1 0.923074 0.564222 0.250000
O O2 0.887099 0.513993 0.501425
O O3 0.860843 0.609887 0.491140
O O4 0.027647 0.567678 0.491111
O O5 0.384809 0.195604 0.750000
O O6 0.462106 0.159901 0.994305
O O7 0.389605 0.250000 0.000000
O O8 0.289904 0.169738 0.989178
O O9 0.476946 0.614987 0.750000
O O10 0.380261 0.607776 0.499063
O O11 0.536587 0.565617 0.513445
O O12 0.879423 0.459323 0.750000
O O13 0.789282 0.433026 0.506706
O O14 0.761132 0.629601 0.250000
O O15 0.703362 0.576889 0.013691
O O16 0.686597 0.432134 0.750000
O O17 0.647830 0.486012 0.509400
O O18 0.637201 0.956338 0.250000
#
# Coordination Sequence:
#
# PCOD9434211 Si02
#       7
#     8   8   8   8   8   8   8
#     4   9  17  28  42  64  91 123 160 192 226 264
#     4  10  21  37  54  72  92 115 145 186 236 285
#     4   9  19  31  44  63  90 118 148 187 229 273
#     4   9  17  28  42  61  91 127 161 195 224 257
#     4  10  18  28  46  70  94 122 155 191 230 275
#     4  10  18  27  42  63  90 126 162 192 224 263
#     4   9  17  29  41  60  90 125 159 191 225 263
#
# _framework density 15.986698000000001
#
# number of rings (size 3 to 8) (size 9 to 14) (size 15 to 20)
#    0.000    2.571    1.429    2.143    0.000    4.571 
#    0.000    0.000    0.000    0.000    0.000    1.000 
#    0.000    2.286    0.000    0.000    0.000    0.000 
#
# Total GULP energy -311984.218487 kJ/mol
# GULP energy per Si atom -5571.146759 kJ/mol
# Density = 1.595031 g / cm^3
# Si number density = 15.986698 Si / 1000 Ang^3
#
#
#
# Elastic Constant Matrix: (Units=GPa)
#
#
# Indices 1 2 3 4 5 6 
#
# 1 153.9431 58.8207 21.5142 0.0000 0.0000 0.0000
# 2 58.8207 74.9837 13.1239 0.0000 0.0000 0.0000
# 3 21.5142 13.1239 6.0086 0.0000 0.0000 0.0000
# 4 0.0000 0.0000 0.0000 19.5361 0.0000 0.0000
# 5 0.0000 0.0000 0.0000 0.0000 19.5668 0.0000
# 6 0.0000 0.0000 0.0000 0.0000 0.0000 12.1694
#
#
#
# Elastic Compliance Matrix: (Units=1/GPa)
#
#
# Indices 1 2 3 4 5 6 
#
# 1 0.013534 -0.003456 -0.040910 0.000000 0.000000 0.000000
# 2 -0.003456 0.022472 -0.036708 0.000000 0.000000 0.000000
# 3 -0.040910 -0.036708 0.393087 0.000000 0.000000 0.000000
# 4 0.000000 0.000000 0.000000 0.051187 0.000000 0.000000
# 5 0.000000 0.000000 0.000000 0.000000 0.051107 0.000000
# 6 0.000000 0.000000 0.000000 0.000000 0.000000 0.082173
#
#
# Mechanical properties :
#
#
# Convention : Reuss Voigt Hill
#
# Bulk Modulus (GPa) = 3.74609 46.87257 25.30933
# Shear Modulus (GPa) = 5.78241 19.68622 12.73431
#
# Velocity S-wave (km/s) = 1.90391 3.51296 2.82540
# Velocity P-wave (km/s) = 2.67983 6.77037 5.14875
#
# Compressibility (1/GPa) = 0.26694528
#
# Stress axis : x y z
#
# Youngs Moduli (GPa) = 73.88829 44.49910 2.54396
#
# Poissons Ratio (x) = 0.15381 0.10407
# Poissons Ratio (y) = 0.25539 0.09338
# Poissons Ratio (z) = 3.02276 1.63347
#
# Static dielectric constant tensor:
#      x y z
#    x 1.580740 0.000000 0.000000 
#    y 0.000000 1.506800 0.000000 
#    z 0.000000 0.000000 1.519350 
# 
# From -- ./inp_files/5891.got.cif
#   From: 2010.05.17/outbox.cif.g08.bks.cpg/sg57_3_cif.got.tgz:5891.got - 2010.06.03 13:58:18.
