data_PCOD9434060
_publ_section_title
;
Structure prediction by ZEFSAII (Michael W. Deem and Ramdas Pophale) SiO2 
 PCOD9434060
Probable space group: P B C M
;
_chemical_formula_sum "Si O2"
_cell_formula_units_Z 56
_cell_length_a 18.500444
_cell_length_b 22.414182
_cell_length_c 8.618263
_cell_angle_alpha 90.000000
_cell_angle_beta 90.000000
_cell_angle_gamma 90.000000
_cell_volume 3573.755103
_symmetry_space_group_name_H-M "P B C M"
_symmetry_group_IT_number 57
_symmetry_cell_setting 'orthorhombic'
loop_
_space_group_symop_operation_xyz
x,y,z
-x,-y,1/2+z
x,1/2-y,-z
-x,1/2+y,1/2-z
-x,-y,-z
x,y,1/2-z
-x,1/2+y,z
x,1/2-y,1/2+z
loop_
_atom_site_type_symbol
_atom_site_label
_atom_site_fract_x
_atom_site_fract_y
_atom_site_fract_z
Si Si1 0.398946 0.957237 0.435361
Si Si2 0.213374 0.103313 0.562067
Si Si3 0.904390 0.443239 0.434427
Si Si4 0.544323 0.588539 0.435470
Si Si5 0.244570 0.966180 0.935199
Si Si6 0.940491 0.925305 0.437957
Si Si7 0.654370 0.683558 0.563906
O O1 0.403417 0.953793 0.250000
O O2 0.461831 0.917176 0.508920
O O3 0.318611 0.943033 0.491928
O O4 0.417587 0.025793 0.482409
O O5 0.216490 0.103494 0.750000
O O6 0.129388 0.114118 0.519747
O O7 0.272438 0.150343 0.506425
O O8 0.234245 0.035724 0.513560
O O9 0.894865 0.439568 0.250000
O O10 0.827843 0.431443 0.514663
O O11 0.924259 0.511048 0.483135
O O12 0.977489 0.407209 0.478525
O O13 0.547103 0.592907 0.250000
O O14 0.587889 0.642653 0.509774
O O15 0.250138 0.965973 0.750000
O O16 0.939137 0.933893 0.250000
O O17 0.649623 0.750000 0.500000
O O18 0.655783 0.685210 0.750000
#
# Coordination Sequence:
#
# PCOD9434060 Si02
#       7
#     8   8   8   8   8   8   8
#     4  10  19  30  47  69  92 117 150 189 229 277
#     4   8  15  27  43  59  80 114 152 186 222 266
#     4   9  15  22  35  57  84 111 143 179 216 257
#     4  10  20  33  48  67  90 117 151 188 233 281
#     4  10  17  27  42  61  88 120 152 181 221 271
#     4   8  14  25  38  54  78 112 147 178 214 259
#     4  11  21  34  49  66  90 120 157 196 235 273
#
# _framework density 15.669793
#
# number of rings (size 3 to 8) (size 9 to 14) (size 15 to 20)
#    0.000    2.571    1.429    3.000    0.000    1.714 
#    0.000    0.714    0.000    0.000    0.000    0.000 
#    0.000    1.143    0.000    8.000    0.000    4.143 
#
# Total GULP energy -311811.364619 kJ/mol
# GULP energy per Si atom -5568.060082 kJ/mol
# Density = 1.563413 g / cm^3
# Si number density = 15.669793 Si / 1000 Ang^3
#
#
#
# Elastic Constant Matrix: (Units=GPa)
#
#
# Indices 1 2 3 4 5 6 
#
# 1 152.7946 45.8385 27.9116 0.0000 0.0000 0.0000
# 2 45.8385 53.7977 16.7000 0.0000 0.0000 0.0000
# 3 27.9116 16.7000 32.8008 0.0000 0.0000 0.0000
# 4 0.0000 0.0000 0.0000 13.4276 0.0000 0.0000
# 5 0.0000 0.0000 0.0000 0.0000 24.9450 0.0000
# 6 0.0000 0.0000 0.0000 0.0000 0.0000 10.7568
#
#
#
# Elastic Compliance Matrix: (Units=1/GPa)
#
#
# Indices 1 2 3 4 5 6 
#
# 1 0.009349 -0.006528 -0.004632 0.000000 0.000000 0.000000
# 2 -0.006528 0.026636 -0.008006 0.000000 0.000000 0.000000
# 3 -0.004632 -0.008006 0.038505 0.000000 0.000000 0.000000
# 4 0.000000 0.000000 0.000000 0.074474 0.000000 0.000000
# 5 0.000000 0.000000 0.000000 0.000000 0.040088 0.000000
# 6 0.000000 0.000000 0.000000 0.000000 0.000000 0.092964
#
#
# Mechanical properties :
#
#
# Convention : Reuss Voigt Hill
#
# Bulk Modulus (GPa) = 27.65690 46.69928 37.17809
# Shear Modulus (GPa) = 15.04207 19.75541 17.39874
#
# Velocity S-wave (km/s) = 3.10165 3.55453 3.33579
# Velocity P-wave (km/s) = 5.52405 6.83470 6.21402
#
# Compressibility (1/GPa) = 0.03615734
#
# Stress axis : x y z
#
# Youngs Moduli (GPa) = 106.95898 37.54337 25.97085
#
# Poissons Ratio (x) = 0.24509 0.12030
# Poissons Ratio (y) = 0.69826 0.20792
# Poissons Ratio (z) = 0.49543 0.30057
#
# Static dielectric constant tensor:
#      x y z
#    x 1.574600 0.000000 0.000000 
#    y 0.000000 1.483350 0.000000 
#    z 0.000000 0.000000 1.521610 
# 
# From -- ./inp_files/7055.got.cif
#   From: 2010.05.17/outbox.cif.g08.bks.cpg/sg57_4_cif.got.tgz:7055.got - 2010.06.03 13:58:18.
