data_PCOD9434318
_publ_section_title
;
Structure prediction by ZEFSAII (Michael W. Deem and Ramdas Pophale) SiO2 
 PCOD9434318
Probable space group: P B C M
;
_chemical_formula_sum "Si O2"
_cell_formula_units_Z 56
_cell_length_a 14.893477
_cell_length_b 14.410384
_cell_length_c 11.382358
_cell_angle_alpha 90.000000
_cell_angle_beta 90.000000
_cell_angle_gamma 90.000000
_cell_volume 2442.889900
_symmetry_space_group_name_H-M "P B C M"
_symmetry_group_IT_number 57
_symmetry_cell_setting 'orthorhombic'
loop_
_space_group_symop_operation_xyz
x,y,z
-x,-y,1/2+z
x,1/2-y,-z
-x,1/2+y,1/2-z
-x,-y,-z
x,y,1/2-z
-x,1/2+y,z
x,1/2-y,1/2+z
loop_
_atom_site_type_symbol
_atom_site_label
_atom_site_fract_x
_atom_site_fract_y
_atom_site_fract_z
Si Si1 0.922612 0.607433 0.620004
Si Si2 0.445697 0.802563 0.878714
Si Si3 0.131676 0.622333 0.622921
Si Si4 0.639579 0.505284 0.621069
Si Si5 0.355206 0.341188 0.565377
Si Si6 0.161850 0.100326 0.125600
Si Si7 0.834790 0.419116 0.620978
O O1 0.883200 0.632338 0.750000
O O2 0.876794 0.637488 0.497994
O O3 0.915780 0.494026 0.616504
O O4 0.025197 0.638758 0.620114
O O5 0.414055 0.765789 0.750000
O O6 0.407822 0.906457 0.890162
O O7 0.553631 0.809480 0.873349
O O8 0.422117 0.750000 0.000000
O O9 0.167231 0.656356 0.750000
O O10 0.146924 0.510566 0.624542
O O11 0.166868 0.645901 0.492552
O O12 0.618979 0.543857 0.750000
O O13 0.614420 0.578984 0.524442
O O14 0.745629 0.482950 0.614946
O O15 0.321009 0.250000 0.500000
O O16 0.268094 0.381005 0.627987
O O17 0.122269 0.135946 0.250000
O O18 0.835913 0.374508 0.750000
#
# Coordination Sequence:
#
# PCOD9434318 Si02
#       7
#     8   8   8   8   8   8   8
#     4   9  16  27  45  71 104 145 187 226 275 334
#     4  10  23  43  64  88 115 152 200 253 307 367
#     4   9  16  26  44  71 108 143 181 230 276 327
#     4  10  20  37  61  86 118 157 199 243 298 362
#     4  11  22  36  56  84 120 159 196 238 292 355
#     4  10  18  29  45  71 107 144 184 232 276 326
#     4   9  15  26  46  73 103 138 182 227 274 332
#
# _framework density 22.923670000000001
#
# number of rings (size 3 to 8) (size 9 to 14) (size 15 to 20)
#    0.000    2.286    2.857    2.571    0.000    4.571 
#    0.000    2.143    0.000    0.000    0.000    4.000 
#    0.000    6.857    0.000    0.000    0.000    0.000 
#
# Total GULP energy -312162.004532 kJ/mol
# GULP energy per Si atom -5574.321510 kJ/mol
# Density = 2.287149 g / cm^3
# Si number density = 22.923670 Si / 1000 Ang^3
#
#
#
# Elastic Constant Matrix: (Units=GPa)
#
#
# Indices 1 2 3 4 5 6 
#
# 1 23.9840 -5.4790 -1.5045 0.0000 0.0000 0.0000
# 2 -5.4790 50.2560 27.9991 0.0000 0.0000 0.0000
# 3 -1.5045 27.9991 258.9603 0.0000 0.0000 0.0000
# 4 0.0000 0.0000 0.0000 -31.4990 0.0000 0.0000
# 5 0.0000 0.0000 0.0000 0.0000 262.5942 0.0000
# 6 0.0000 0.0000 0.0000 0.0000 0.0000 -2.2859
#
#
#
# Elastic Compliance Matrix: (Units=1/GPa)
#
#
# Indices 1 2 3 4 5 6 
#
# 1 0.042777 0.004815 -0.000272 0.000000 0.000000 0.000000
# 2 0.004815 0.021716 -0.002320 0.000000 0.000000 0.000000
# 3 -0.000272 -0.002320 0.004111 0.000000 0.000000 0.000000
# 4 0.000000 0.000000 0.000000 -0.031747 0.000000 0.000000
# 5 0.000000 0.000000 0.000000 0.000000 0.003808 0.000000
# 6 0.000000 0.000000 0.000000 0.000000 0.000000 -0.437467
#
#
# Mechanical properties :
#
#
# Convention : Reuss Voigt Hill
#
# Bulk Modulus (GPa) = 13.68919 41.69239 27.69079
# Shear Modulus (GPa) = -13.26619 66.57416 26.65399
#
# Velocity S-wave (km/s) = -2.40825 5.39488 3.41358
# Velocity P-wave (km/s) = 1.32223 7.55204 5.25761
#
# Compressibility (1/GPa) = 0.07305032
#
# Stress axis : x y z
#
# Youngs Moduli (GPa) = 23.37679 46.04981 243.25862
#
# Poissons Ratio (x) = -0.22174 0.06619
# Poissons Ratio (y) = -0.11256 0.56435
# Poissons Ratio (z) = 0.00636 0.10683
#
# Static dielectric constant tensor:
#      x y z
#    x 1.850920 0.000000 0.000000 
#    y 0.000000 1.806690 0.000000 
#    z 0.000000 0.000000 1.983990 
# 
# From -- ./inp_files/13802.got.cif
#   From: 2010.05.17/outbox.cif.g08.bks.cpg/sg57_7_cif.got.tgz:13802.got - 2010.06.03 13:58:18.
