data_PCOD9434621
_publ_section_title
;
Structure prediction by ZEFSAII (Michael W. Deem and Ramdas Pophale) SiO2 
 PCOD9434621
Probable space group: P B C M
;
_chemical_formula_sum "Si O2"
_cell_formula_units_Z 36
_cell_length_a 7.103895
_cell_length_b 24.400400
_cell_length_c 8.256633
_cell_angle_alpha 90.000000
_cell_angle_beta 90.000000
_cell_angle_gamma 90.000000
_cell_volume 1431.187257
_symmetry_space_group_name_H-M "P B C M"
_symmetry_group_IT_number 57
_symmetry_cell_setting 'orthorhombic'
loop_
_space_group_symop_operation_xyz
x,y,z
-x,-y,1/2+z
x,1/2-y,-z
-x,1/2+y,1/2-z
-x,-y,-z
x,y,1/2-z
-x,1/2+y,z
x,1/2-y,1/2+z
loop_
_atom_site_type_symbol
_atom_site_label
_atom_site_fract_x
_atom_site_fract_y
_atom_site_fract_z
Si Si1 0.297393 0.125886 0.750000
Si Si2 0.347627 0.190947 0.433164
Si Si3 0.851276 0.340300 0.250000
Si Si4 0.168587 0.539365 0.059147
Si Si5 0.399671 0.949004 0.250000
Si Si6 0.094404 0.829391 0.577506
O O1 0.379868 0.150027 0.582251
O O2 0.073229 0.139350 0.750000
O O3 0.380553 0.065259 0.750000
O O4 0.404372 0.250000 0.500000
O O5 0.413537 0.177893 0.250000
O O6 0.120404 0.189712 0.418882
O O7 0.819766 0.307006 0.413066
O O8 0.715111 0.391657 0.250000
O O9 0.212989 0.532834 0.250000
O O10 0.105196 0.603980 0.054400
O O11 0.326584 0.527391 0.921443
O O12 0.000000 0.500000 0.000000
O O13 0.180465 0.816540 0.750000
#
# Coordination Sequence:
#
# PCOD9434621 Si02
#       6
#     4   8   4   8   4   8
#     4  10  20  34  56  83 110 143 186 230 276 343
#     4  10  18  32  54  83 107 145 189 230 289 344
#     4   8  16  32  52  74 104 139 178 221 276 318
#     4  10  18  32  54  84 112 151 194 235 292 349
#     4  10  20  34  56  81 108 148 186 225 282 339
#     4   8  16  28  48  77 106 139 182 230 274 337
#
# _framework density 25.153941
#
# number of rings (size 3 to 8) (size 9 to 14) (size 15 to 20)
#    0.000    2.667    2.222    0.000    0.000    0.889 
#    0.000    0.000    0.000   24.000    0.000    0.000 
#    0.000    0.000    0.000    0.000    0.000    0.000 
#
# Total GULP energy -200792.648054 kJ/mol
# GULP energy per Si atom -5577.573557 kJ/mol
# Density = 2.509669 g / cm^3
# Si number density = 25.153941 Si / 1000 Ang^3
#
#
#
# Elastic Constant Matrix: (Units=GPa)
#
#
# Indices 1 2 3 4 5 6 
#
# 1 99.2929 30.7505 20.4773 0.0000 0.0000 0.0000
# 2 30.7505 81.6372 44.4105 0.0000 0.0000 0.0000
# 3 20.4773 44.4105 305.6946 0.0000 0.0000 0.0000
# 4 0.0000 0.0000 0.0000 30.9796 0.0000 0.0000
# 5 0.0000 0.0000 0.0000 0.0000 -57.4671 0.0000
# 6 0.0000 0.0000 0.0000 0.0000 0.0000 6.3690
#
#
#
# Elastic Compliance Matrix: (Units=1/GPa)
#
#
# Indices 1 2 3 4 5 6 
#
# 1 0.011408 -0.004214 -0.000152 0.000000 0.000000 0.000000
# 2 -0.004214 0.014857 -0.001876 0.000000 0.000000 0.000000
# 3 -0.000152 -0.001876 0.003554 0.000000 0.000000 0.000000
# 4 0.000000 0.000000 0.000000 0.032279 0.000000 0.000000
# 5 0.000000 0.000000 0.000000 0.000000 -0.017401 0.000000
# 6 0.000000 0.000000 0.000000 0.000000 0.000000 0.157011
#
#
# Mechanical properties :
#
#
# Convention : Reuss Voigt Hill
#
# Bulk Modulus (GPa) = 57.68917 75.32236 66.50576
# Shear Modulus (GPa) = 22.73026 22.04206 22.38616
#
# Velocity S-wave (km/s) = 3.00933 2.96343 2.98647
# Velocity P-wave (km/s) = 5.92106 6.45901 6.19588
#
# Compressibility (1/GPa) = 0.01733428
#
# Stress axis : x y z
#
# Youngs Moduli (GPa) = 87.66015 67.30679 281.37508
#
# Poissons Ratio (x) = 0.28365 0.04274
# Poissons Ratio (y) = 0.36943 0.52790
# Poissons Ratio (z) = 0.01332 0.12628
#
# Static dielectric constant tensor:
#      x y z
#    x 1.973610 0.000000 0.000000 
#    y 0.000000 2.102300 0.000000 
#    z 0.000000 0.000000 2.395130 
# 
# From -- ./inp_files/1688.got.cif
#   From: 2010.05.17/outbox.cif.g08.bks.cpg/sg57_1_cif.got.tgz:1688.got - 2010.06.03 13:58:18.
