data_PCOD9434477
_publ_section_title
;
Structure prediction by ZEFSAII (Michael W. Deem and Ramdas Pophale) SiO2 
 PCOD9434477
Probable space group: P B C M
;
_chemical_formula_sum "Si O2"
_cell_formula_units_Z 56
_cell_length_a 18.621579
_cell_length_b 20.643145
_cell_length_c 8.678545
_cell_angle_alpha 90.000000
_cell_angle_beta 90.000000
_cell_angle_gamma 90.000000
_cell_volume 3336.101740
_symmetry_space_group_name_H-M "P B C M"
_symmetry_group_IT_number 57
_symmetry_cell_setting 'orthorhombic'
loop_
_space_group_symop_operation_xyz
x,y,z
-x,-y,1/2+z
x,1/2-y,-z
-x,1/2+y,1/2-z
-x,-y,-z
x,y,1/2-z
-x,1/2+y,z
x,1/2-y,1/2+z
loop_
_atom_site_type_symbol
_atom_site_label
_atom_site_fract_x
_atom_site_fract_y
_atom_site_fract_z
Si Si1 0.188041 0.467048 0.433402
Si Si2 0.662666 0.943737 0.569740
Si Si3 0.962333 0.564383 0.434852
Si Si4 0.792872 0.111952 0.563811
Si Si5 0.485871 0.072320 0.936240
Si Si6 0.637339 0.400300 0.069131
Si Si7 0.930430 0.180540 0.065605
O O1 0.185161 0.472655 0.250000
O O2 0.261988 0.433062 0.485248
O O3 0.117325 0.432227 0.496548
O O4 0.188999 0.539550 0.504978
O O5 0.668637 0.928679 0.750000
O O6 0.592708 0.909685 0.497846
O O7 0.649146 0.021725 0.557707
O O8 0.958557 0.559699 0.250000
O O9 0.000000 0.500000 0.500000
O O10 0.011681 0.625554 0.476257
O O11 0.792727 0.110860 0.750000
O O12 0.711813 0.128447 0.506654
O O13 0.853738 0.159295 0.502730
O O14 0.485249 0.070465 0.750000
O O15 0.556635 0.112102 0.990309
O O16 0.500000 0.000000 0.000000
O O17 0.635374 0.383856 0.250000
O O18 0.925231 0.182806 0.250000
O O19 0.951224 0.250000 0.000000
#
# Coordination Sequence:
#
# PCOD9434477 Si02
#       7
#     8   8   8   8   8   8   8
#     4  11  20  30  47  72  98 128 168 209 254 306
#     4   9  16  26  38  57  88 124 161 201 248 293
#     4  11  22  36  55  77 102 132 170 213 260 313
#     4  10  18  31  50  70  97 130 166 208 252 298
#     4   9  14  22  35  54  84 121 160 197 239 292
#     4   7  13  23  37  58  84 119 158 195 237 285
#     4  11  24  39  55  76 102 134 172 212 261 314
#
# _framework density 16.786058000000001
#
# number of rings (size 3 to 8) (size 9 to 14) (size 15 to 20)
#    0.000    2.286    1.429    5.143    0.000    1.714 
#    0.000    2.143    0.000    0.000    0.000    0.000 
#    0.000    1.143    0.000    8.286    0.000    5.857 
#
# Total GULP energy -311970.436010 kJ/mol
# GULP energy per Si atom -5570.900643 kJ/mol
# Density = 1.674785 g / cm^3
# Si number density = 16.786058 Si / 1000 Ang^3
#
#
#
# Elastic Constant Matrix: (Units=GPa)
#
#
# Indices 1 2 3 4 5 6 
#
# 1 166.2028 46.9801 49.2085 0.0000 0.0000 0.0000
# 2 46.9801 55.5567 27.8887 0.0000 0.0000 0.0000
# 3 49.2085 27.8887 68.1272 0.0000 0.0000 0.0000
# 4 0.0000 0.0000 0.0000 14.8829 0.0000 0.0000
# 5 0.0000 0.0000 0.0000 0.0000 30.8747 0.0000
# 6 0.0000 0.0000 0.0000 0.0000 0.0000 11.9798
#
#
#
# Elastic Compliance Matrix: (Units=1/GPa)
#
#
# Indices 1 2 3 4 5 6 
#
# 1 0.008746 -0.005317 -0.004140 0.000000 0.000000 0.000000
# 2 -0.005317 0.025888 -0.006757 0.000000 0.000000 0.000000
# 3 -0.004140 -0.006757 0.020435 0.000000 0.000000 0.000000
# 4 0.000000 0.000000 0.000000 0.067191 0.000000 0.000000
# 5 0.000000 0.000000 0.000000 0.000000 0.032389 0.000000
# 6 0.000000 0.000000 0.000000 0.000000 0.000000 0.083474
#
#
# Mechanical properties :
#
#
# Convention : Reuss Voigt Hill
#
# Bulk Modulus (GPa) = 44.17024 59.78236 51.97630
# Shear Modulus (GPa) = 17.97932 22.60145 20.29038
#
# Velocity S-wave (km/s) = 3.27630 3.67337 3.48050
# Velocity P-wave (km/s) = 6.37832 7.32688 6.86899
#
# Compressibility (1/GPa) = 0.02263968
#
# Stress axis : x y z
#
# Youngs Moduli (GPa) = 114.34371 38.62836 48.93553
#
# Poissons Ratio (x) = 0.20539 0.20261
# Poissons Ratio (y) = 0.60797 0.33065
# Poissons Ratio (z) = 0.47342 0.26101
#
# Static dielectric constant tensor:
#      x y z
#    x 1.634180 0.000000 0.000000 
#    y 0.000000 1.542780 0.000000 
#    z 0.000000 0.000000 1.567060 
# 
# From -- ./inp_files/7056.got.cif
#   From: 2010.05.17/outbox.cif.g08.bks.cpg/sg57_4_cif.got.tgz:7056.got - 2010.06.03 13:58:18.
