data_PCOD9434725
_publ_section_title
;
Structure prediction by ZEFSAII (Michael W. Deem and Ramdas Pophale) SiO2 
 PCOD9434725
Probable space group: P B C M
;
_chemical_formula_sum "Si O2"
_cell_formula_units_Z 64
_cell_length_a 14.162812
_cell_length_b 13.731760
_cell_length_c 15.196197
_cell_angle_alpha 90.000000
_cell_angle_beta 90.000000
_cell_angle_gamma 90.000000
_cell_volume 2955.361488
_symmetry_space_group_name_H-M "P B C M"
_symmetry_group_IT_number 57
_symmetry_cell_setting 'orthorhombic'
loop_
_space_group_symop_operation_xyz
x,y,z
-x,-y,1/2+z
x,1/2-y,-z
-x,1/2+y,1/2-z
-x,-y,-z
x,y,1/2-z
-x,1/2+y,z
x,1/2-y,1/2+z
loop_
_atom_site_type_symbol
_atom_site_label
_atom_site_fract_x
_atom_site_fract_y
_atom_site_fract_z
Si Si1 0.167716 0.284763 0.647179
Si Si2 0.859104 0.410278 0.343675
Si Si3 0.789733 0.953612 0.508556
Si Si4 0.372509 0.250852 0.349161
Si Si5 0.954558 0.006599 0.402229
Si Si6 0.457474 0.845066 0.459183
Si Si7 0.039951 0.768329 0.604514
Si Si8 0.594708 0.953490 0.923056
O O1 0.175213 0.317294 0.750000
O O2 0.170529 0.368058 0.572048
O O3 0.263474 0.224943 0.628324
O O4 0.064797 0.238508 0.636676
O O5 0.813792 0.434864 0.250000
O O6 0.807399 0.452089 0.428911
O O7 0.965121 0.455388 0.345732
O O8 0.878944 0.296564 0.353599
O O9 0.850872 0.963890 0.420627
O O10 0.677548 0.945613 0.503614
O O11 0.391397 0.281307 0.250000
O O12 0.452215 0.297275 0.410406
O O13 0.375668 0.132029 0.355625
O O14 0.947517 0.118535 0.375570
O O15 0.000000 0.000000 0.500000
O O16 0.404645 0.750000 0.500000
O O17 0.496980 0.910354 0.539727
O O18 0.412785 0.931877 0.400197
O O19 0.042058 0.750000 0.500000
#
# Coordination Sequence:
#
# PCOD9434725 Si02
#       8
#     8   8   8   8   8   8   8   8
#     4  10  19  31  50  76 105 135 171 218 265 305
#     4  11  22  34  51  75 104 139 177 221 263 311
#     4  10  18  34  54  77 100 140 176 222 257 310
#     4   9  19  33  52  82 112 136 170 214 264 323
#     4  10  19  35  50  72 103 136 175 214 258 307
#     4   9  18  36  55  82 109 133 172 216 268 320
#     4  12  20  33  50  72 103 137 179 214 257 307
#     4   9  19  34  57  80 105 138 176 218 265 313
#
# _framework density 21.655557999999999
#
# number of rings (size 3 to 8) (size 9 to 14) (size 15 to 20)
#    0.000    2.000    5.000    0.750    0.000    5.000 
#    2.250    0.000    0.000    0.000    0.000    0.000 
#    0.000    0.000    0.000    0.000    0.000    0.000 
#
# Total GULP energy -356538.871613 kJ/mol
# GULP energy per Si atom -5570.919869 kJ/mol
# Density = 2.160627 g / cm^3
# Si number density = 21.655558 Si / 1000 Ang^3
#
#
#
# Elastic Constant Matrix: (Units=GPa)
#
#
# Indices 1 2 3 4 5 6 
#
# 1 44.3089 3.8689 -0.4301 0.0000 0.0000 0.0000
# 2 3.8689 117.5589 -3.2875 0.0000 0.0000 0.0000
# 3 -0.4301 -3.2875 46.8863 0.0000 0.0000 0.0000
# 4 0.0000 0.0000 0.0000 1.3060 0.0000 0.0000
# 5 0.0000 0.0000 0.0000 0.0000 12.9401 0.0000
# 6 0.0000 0.0000 0.0000 0.0000 0.0000 27.2822
#
#
#
# Elastic Compliance Matrix: (Units=1/GPa)
#
#
# Indices 1 2 3 4 5 6 
#
# 1 0.022635 -0.000741 0.000156 0.000000 0.000000 0.000000
# 2 -0.000741 0.008547 0.000593 0.000000 0.000000 0.000000
# 3 0.000156 0.000593 0.021371 0.000000 0.000000 0.000000
# 4 0.000000 0.000000 0.000000 0.765676 0.000000 0.000000
# 5 0.000000 0.000000 0.000000 0.000000 0.077279 0.000000
# 6 0.000000 0.000000 0.000000 0.000000 0.000000 0.036654
#
#
# Mechanical properties :
#
#
# Convention : Reuss Voigt Hill
#
# Bulk Modulus (GPa) = 19.02268 23.22851 21.12560
# Shear Modulus (GPa) = 5.26499 22.21251 13.73875
#
# Velocity S-wave (km/s) = 1.56094 3.20616 2.52150
# Velocity P-wave (km/s) = 3.47159 4.94526 4.27244
#
# Compressibility (1/GPa) = 0.05256882
#
# Stress axis : x y z
#
# Youngs Moduli (GPa) = 44.17935 116.99574 46.79199
#
# Poissons Ratio (x) = 0.08664 -0.00729
# Poissons Ratio (y) = 0.03272 -0.02772
# Poissons Ratio (z) = -0.00688 -0.06932
#
# Static dielectric constant tensor:
#      x y z
#    x 1.836640 0.000000 0.000000 
#    y 0.000000 1.890230 0.000000 
#    z 0.000000 0.000000 1.751710 
# 
# From -- ./inp_files/22718.got.cif
#   From: 2010.05.17/outbox.cif.g08.bks.cpg/sg57_12_cif.got.tgz:22718.got - 2010.06.03 13:58:18.
