data_PCOD9434303
_publ_section_title
;
Structure prediction by ZEFSAII (Michael W. Deem and Ramdas Pophale) SiO2 
 PCOD9434303
Probable space group: P B C M
;
_chemical_formula_sum "Si O2"
_cell_formula_units_Z 64
_cell_length_a 15.447579
_cell_length_b 30.755942
_cell_length_c 7.731368
_cell_angle_alpha 90.000000
_cell_angle_beta 90.000000
_cell_angle_gamma 90.000000
_cell_volume 3673.210386
_symmetry_space_group_name_H-M "P B C M"
_symmetry_group_IT_number 57
_symmetry_cell_setting 'orthorhombic'
loop_
_space_group_symop_operation_xyz
x,y,z
-x,-y,1/2+z
x,1/2-y,-z
-x,1/2+y,1/2-z
-x,-y,-z
x,y,1/2-z
-x,1/2+y,z
x,1/2-y,1/2+z
loop_
_atom_site_type_symbol
_atom_site_label
_atom_site_fract_x
_atom_site_fract_y
_atom_site_fract_z
Si Si1 0.033689 0.607924 0.037935
Si Si2 0.139018 0.056278 0.459029
Si Si3 0.541371 0.560893 0.545864
Si Si4 0.700328 0.885418 0.541114
Si Si5 0.985977 0.702051 0.457665
Si Si6 0.367654 0.973630 0.546743
Si Si7 0.787311 0.702311 0.042427
Si Si8 0.176663 0.958727 0.955695
O O1 0.034166 0.607552 0.250000
O O2 0.113551 0.578677 0.975496
O O3 0.943856 0.584524 0.986025
O O4 0.033431 0.658275 0.982072
O O5 0.139710 0.056352 0.250000
O O6 0.227881 0.079357 0.518524
O O7 0.136281 0.006516 0.517763
O O8 0.530694 0.554891 0.750000
O O9 0.604913 0.600778 0.513916
O O10 0.444944 0.560959 0.471025
O O11 0.592491 0.518466 0.472639
O O12 0.702265 0.885660 0.750000
O O13 0.731676 0.838281 0.479291
O O14 0.021132 0.750000 0.500000
O O15 0.982533 0.699587 0.250000
O O16 0.886442 0.699958 0.523292
O O17 0.353286 0.981923 0.750000
O O18 0.274639 0.960619 0.472637
O O19 0.791963 0.698524 0.250000
O O20 0.752579 0.750000 0.000000
O O21 0.182633 0.951003 0.750000
#
# Coordination Sequence:
#
# PCOD9434303 Si02
#       8
#     8   8   8   8   8   8   8   8
#     4   9  17  30  47  65  90 125 157 183 221 270
#     4  10  18  29  44  64  92 127 158 182 213 263
#     4  10  19  30  46  66  88 115 149 190 229 266
#     4  10  18  29  46  66  92 124 153 181 221 272
#     4   9  16  29  46  65  88 117 152 187 223 264
#     4   9  18  31  44  63  89 116 150 190 228 266
#     4   9  17  29  45  65  90 120 152 185 221 265
#     4  10  19  31  46  65  91 122 156 194 226 260
#
# _framework density 17.423451
#
# number of rings (size 3 to 8) (size 9 to 14) (size 15 to 20)
#    0.000    2.500    2.500    0.750    0.000    1.500 
#    0.000    1.250    0.000    0.000    0.000    0.875 
#    0.000    2.000    0.000    0.000    0.000    0.000 
#
# Total GULP energy -356837.854680 kJ/mol
# GULP energy per Si atom -5575.591479 kJ/mol
# Density = 1.738379 g / cm^3
# Si number density = 17.423451 Si / 1000 Ang^3
#
#
#
# Elastic Constant Matrix: (Units=GPa)
#
#
# Indices 1 2 3 4 5 6 
#
# 1 83.3430 55.6402 0.5874 0.0000 0.0000 0.0000
# 2 55.6402 138.3008 -5.8180 0.0000 0.0000 0.0000
# 3 0.5874 -5.8180 22.0773 0.0000 0.0000 0.0000
# 4 0.0000 0.0000 0.0000 19.0227 0.0000 0.0000
# 5 0.0000 0.0000 0.0000 0.0000 7.9608 0.0000
# 6 0.0000 0.0000 0.0000 0.0000 0.0000 22.8052
#
#
#
# Elastic Compliance Matrix: (Units=1/GPa)
#
#
# Indices 1 2 3 4 5 6 
#
# 1 0.016511 -0.006736 -0.002214 0.000000 0.000000 0.000000
# 2 -0.006736 0.010060 0.002830 0.000000 0.000000 0.000000
# 3 -0.002214 0.002830 0.046100 0.000000 0.000000 0.000000
# 4 0.000000 0.000000 0.000000 0.052569 0.000000 0.000000
# 5 0.000000 0.000000 0.000000 0.000000 0.125615 0.000000
# 6 0.000000 0.000000 0.000000 0.000000 0.000000 0.043850
#
#
# Mechanical properties :
#
#
# Convention : Reuss Voigt Hill
#
# Bulk Modulus (GPa) = 16.54782 38.28224 27.41503
# Shear Modulus (GPa) = 15.28643 22.84518 19.06581
#
# Velocity S-wave (km/s) = 2.96522 3.62494 3.31155
# Velocity P-wave (km/s) = 4.60884 6.28806 5.51276
#
# Compressibility (1/GPa) = 0.06043092
#
# Stress axis : x y z
#
# Youngs Moduli (GPa) = 60.56552 99.40792 21.69190
#
# Poissons Ratio (x) = 0.66959 0.04803
# Poissons Ratio (y) = 0.40795 -0.06139
# Poissons Ratio (z) = 0.13411 -0.28134
#
# Static dielectric constant tensor:
#      x y z
#    x 1.598330 0.000000 0.000000 
#    y 0.000000 1.600010 0.000000 
#    z 0.000000 0.000000 1.642240 
# 
# From -- ./inp_files/5968.got.cif
#   From: 2010.05.17/outbox.cif.g08.bks.cpg/sg57_3_cif.got.tgz:5968.got - 2010.06.03 13:58:18.
