data_PCOD9434463
_publ_section_title
;
Structure prediction by ZEFSAII (Michael W. Deem and Ramdas Pophale) SiO2 
 PCOD9434463
Probable space group: P B C M
;
_chemical_formula_sum "Si O2"
_cell_formula_units_Z 64
_cell_length_a 16.179865
_cell_length_b 29.488826
_cell_length_c 8.509163
_cell_angle_alpha 90.000000
_cell_angle_beta 90.000000
_cell_angle_gamma 90.000000
_cell_volume 4059.936300
_symmetry_space_group_name_H-M "P B C M"
_symmetry_group_IT_number 57
_symmetry_cell_setting 'orthorhombic'
loop_
_space_group_symop_operation_xyz
x,y,z
-x,-y,1/2+z
x,1/2-y,-z
-x,1/2+y,1/2-z
-x,-y,-z
x,y,1/2-z
-x,1/2+y,z
x,1/2-y,1/2+z
loop_
_atom_site_type_symbol
_atom_site_label
_atom_site_fract_x
_atom_site_fract_y
_atom_site_fract_z
Si Si1 0.502704 0.948510 0.060684
Si Si2 0.841571 0.894688 0.441510
Si Si3 0.316319 0.048169 0.940640
Si Si4 0.321779 0.555164 0.938644
Si Si5 0.097740 0.298633 0.061544
Si Si6 0.910392 0.298617 0.938479
Si Si7 0.163110 0.893530 0.561744
Si Si8 0.993943 0.051056 0.938729
O O1 0.502449 0.948391 0.250000
O O2 0.593724 0.931913 0.011282
O O3 0.414064 0.928680 0.010355
O O4 0.500000 0.000000 0.000000
O O5 0.840268 0.895041 0.250000
O O6 0.760157 0.921261 0.495166
O O7 0.850110 0.842368 0.490574
O O8 0.924598 0.921154 0.489889
O O9 0.313958 0.046230 0.750000
O O10 0.309529 0.996519 0.001252
O O11 0.318998 0.554253 0.750000
O O12 0.249033 0.586678 0.000752
O O13 0.095873 0.297457 0.250000
O O14 0.127394 0.250000 0.000000
O O15 0.003584 0.304845 0.002508
O O16 0.914381 0.297229 0.750000
O O17 0.856330 0.341849 0.987727
O O18 0.880158 0.250000 0.000000
O O19 0.163001 0.895153 0.750000
O O20 0.088008 0.924528 0.500742
O O21 0.991933 0.050861 0.750000
O O22 0.000000 0.000000 0.000000
#
# Coordination Sequence:
#
# PCOD9434463 Si02
#       8
#     8   8   8   8   8   8   8   8
#     4   8  15  27  45  67  91 118 153 191 233 275
#     4   9  18  30  46  66  90 120 153 184 224 269
#     4   9  16  30  49  68  93 125 156 191 228 277
#     4  10  19  30  45  69  96 124 156 195 236 275
#     4  10  18  31  48  67  89 116 150 189 232 275
#     4  10  20  33  50  69  89 115 152 195 238 281
#     4  11  22  34  47  67  92 125 162 193 231 280
#     4  11  21  33  46  65  95 130 161 191 223 267
#
# _framework density 15.763794000000001
#
# number of rings (size 3 to 8) (size 9 to 14) (size 15 to 20)
#    0.000    2.250    1.250    3.375    0.000    3.000 
#    0.000    1.875    0.000    0.000    0.000    0.875 
#    0.000    4.000    0.000    0.000    0.000    0.000 
#
# Total GULP energy -356732.344487 kJ/mol
# GULP energy per Si atom -5573.942883 kJ/mol
# Density = 1.572792 g / cm^3
# Si number density = 15.763794 Si / 1000 Ang^3
#
#
#
# Elastic Constant Matrix: (Units=GPa)
#
#
# Indices 1 2 3 4 5 6 
#
# 1 114.9670 52.1584 20.0048 0.0000 0.0000 0.0000
# 2 52.1584 108.0063 21.9279 0.0000 0.0000 0.0000
# 3 20.0048 21.9279 27.9843 0.0000 0.0000 0.0000
# 4 0.0000 0.0000 0.0000 12.4787 0.0000 0.0000
# 5 0.0000 0.0000 0.0000 0.0000 11.3074 0.0000
# 6 0.0000 0.0000 0.0000 0.0000 0.0000 -5.3381
#
#
#
# Elastic Compliance Matrix: (Units=1/GPa)
#
#
# Indices 1 2 3 4 5 6 
#
# 1 0.011626 -0.004670 -0.004652 0.000000 0.000000 0.000000
# 2 -0.004670 0.012886 -0.006759 0.000000 0.000000 0.000000
# 3 -0.004652 -0.006759 0.044356 0.000000 0.000000 0.000000
# 4 0.000000 0.000000 0.000000 0.080136 0.000000 0.000000
# 5 0.000000 0.000000 0.000000 0.000000 0.088437 0.000000
# 6 0.000000 0.000000 0.000000 0.000000 0.000000 -0.187331
#
#
# Mechanical properties :
#
#
# Convention : Reuss Voigt Hill
#
# Bulk Modulus (GPa) = 27.24293 48.79331 38.01812
# Shear Modulus (GPa) = 52.90526 14.14737 33.52631
#
# Velocity S-wave (km/s) = 5.79949 2.99901 4.61672
# Velocity P-wave (km/s) = 7.88448 6.55836 7.25179
#
# Compressibility (1/GPa) = 0.03670677
#
# Stress axis : x y z
#
# Youngs Moduli (GPa) = 86.01153 77.60209 22.54498
#
# Poissons Ratio (x) = 0.36242 0.10487
# Poissons Ratio (y) = 0.40169 0.15238
# Poissons Ratio (z) = 0.40010 0.52450
#
# Static dielectric constant tensor:
#      x y z
#    x 1.544030 0.000000 0.000000 
#    y 0.000000 1.512150 0.000000 
#    z 0.000000 0.000000 1.535800 
# 
# From -- ./inp_files/6055.got.cif
#   From: 2010.05.17/outbox.cif.g08.bks.cpg/sg57_4_cif.got.tgz:6055.got - 2010.06.03 13:58:18.
