data_PCOD9434019
_publ_section_title
;
Structure prediction by ZEFSAII (Michael W. Deem and Ramdas Pophale) SiO2 
 PCOD9434019
Probable space group: P B C M
;
_chemical_formula_sum "Si O2"
_cell_formula_units_Z 60
_cell_length_a 17.951430
_cell_length_b 5.369055
_cell_length_c 33.149482
_cell_angle_alpha 90.000000
_cell_angle_beta 90.000000
_cell_angle_gamma 90.000000
_cell_volume 3195.020501
_symmetry_space_group_name_H-M "P B C M"
_symmetry_group_IT_number 57
_symmetry_cell_setting 'orthorhombic'
loop_
_space_group_symop_operation_xyz
x,y,z
-x,-y,1/2+z
x,1/2-y,-z
-x,1/2+y,1/2-z
-x,-y,-z
x,y,1/2-z
-x,1/2+y,z
x,1/2-y,1/2+z
loop_
_atom_site_type_symbol
_atom_site_label
_atom_site_fract_x
_atom_site_fract_y
_atom_site_fract_z
Si Si1 0.157709 0.712631 0.929130
Si Si2 0.551189 0.210842 0.750000
Si Si3 0.592145 0.337936 0.337999
Si Si4 0.408304 0.210141 0.456082
Si Si5 0.686253 0.211174 0.044942
Si Si6 0.426926 0.163229 0.870270
Si Si7 0.918594 0.788203 0.044267
Si Si8 0.975259 0.284368 0.375740
O O1 0.245587 0.742454 0.925416
O O2 0.135483 0.447889 0.948594
O O3 0.110699 0.719447 0.887796
O O4 0.126138 0.952995 0.953165
O O5 0.499983 0.460065 0.750000
O O6 0.600015 0.206298 0.709348
O O7 0.619959 0.602875 0.354103
O O8 0.502375 0.361664 0.344678
O O9 0.614175 0.098801 0.364428
O O10 0.445115 0.250000 0.500000
O O11 0.346236 0.431483 0.454303
O O12 0.452510 0.271946 0.415577
O O13 0.374907 0.932584 0.452367
O O14 0.719164 0.250000 0.000000
O O15 0.977688 0.788426 0.081225
O O16 0.953149 0.750000 0.000000
O O17 0.998906 0.535651 0.354513
#
# Coordination Sequence:
#
# PCOD9434019 Si02
#       8
#     8   4   8   8   8   8   8   8
#     4  10  18  26  36  48  63  82 112 152 193 254
#     4  12  16  30  48  78 108 118 128 144 178 234
#     4  10  19  30  50  74  94 116 129 151 187 249
#     4  10  21  34  45  56  76 105 141 188 222 240
#     4  10  19  30  42  54  66  92 133 175 222 254
#     4  10  18  32  46  65  88 111 141 165 200 244
#     4  10  17  23  32  47  65  83 101 133 189 255
#     4   8  16  24  31  45  64  83 101 130 184 252
#
# _framework density 18.779223000000002
#
# number of rings (size 3 to 8) (size 9 to 14) (size 15 to 20)
#    0.000    2.133    2.667    2.800    0.000    6.400 
#    0.000    2.667    0.000    0.000    0.000    0.000 
#    0.000    0.000    0.000    0.000    0.000    0.000 
#
# Total GULP energy -334464.402461 kJ/mol
# GULP energy per Si atom -5574.406708 kJ/mol
# Density = 1.873648 g / cm^3
# Si number density = 18.779223 Si / 1000 Ang^3
#
#
#
# Elastic Constant Matrix: (Units=GPa)
#
#
# Indices 1 2 3 4 5 6 
#
# 1 30.2473 8.9103 2.3348 0.0000 0.0000 0.0000
# 2 8.9103 157.2801 -3.0310 0.0000 0.0000 0.0000
# 3 2.3348 -3.0310 56.7350 0.0000 0.0000 0.0000
# 4 0.0000 0.0000 0.0000 15.2662 0.0000 0.0000
# 5 0.0000 0.0000 0.0000 0.0000 3.7018 0.0000
# 6 0.0000 0.0000 0.0000 0.0000 0.0000 19.0043
#
#
#
# Elastic Compliance Matrix: (Units=1/GPa)
#
#
# Indices 1 2 3 4 5 6 
#
# 1 0.033748 -0.001941 -0.001492 0.000000 0.000000 0.000000
# 2 -0.001941 0.006476 0.000426 0.000000 0.000000 0.000000
# 3 -0.001492 0.000426 0.017710 0.000000 0.000000 0.000000
# 4 0.000000 0.000000 0.000000 0.065504 0.000000 0.000000
# 5 0.000000 0.000000 0.000000 0.000000 0.270141 0.000000
# 6 0.000000 0.000000 0.000000 0.000000 0.000000 0.052620
#
#
# Mechanical properties :
#
#
# Convention : Reuss Voigt Hill
#
# Bulk Modulus (GPa) = 19.26065 28.96561 24.11313
# Shear Modulus (GPa) = 10.64919 23.33100 16.99009
#
# Velocity S-wave (km/s) = 2.38391 3.52857 3.01113
# Velocity P-wave (km/s) = 4.22564 5.66205 4.99574
#
# Compressibility (1/GPa) = 0.05191932
#
# Stress axis : x y z
#
# Youngs Moduli (GPa) = 29.63170 154.41075 56.46540
#
# Poissons Ratio (x) = 0.29966 0.08427
# Poissons Ratio (y) = 0.05750 -0.02405
# Poissons Ratio (z) = 0.04422 -0.06576
#
# Static dielectric constant tensor:
#      x y z
#    x 1.666480 0.000000 0.000000 
#    y 0.000000 1.782050 0.000000 
#    z 0.000000 0.000000 1.671160 
# 
# From -- ./inp_files/29979.got.cif
#   From: 2010.05.17/outbox.cif.g08.bks.cpg/sg57_15_cif.got.tgz:29979.got - 2010.06.03 13:58:18.
