data_PCOD9434775
_publ_section_title
;
Structure prediction by ZEFSAII (Michael W. Deem and Ramdas Pophale) SiO2 
 PCOD9434775
Probable space group: P B C M
;
_chemical_formula_sum "Si O2"
_cell_formula_units_Z 48
_cell_length_a 4.907786
_cell_length_b 13.490467
_cell_length_c 29.842987
_cell_angle_alpha 90.000000
_cell_angle_beta 90.000000
_cell_angle_gamma 90.000000
_cell_volume 1975.854185
_symmetry_space_group_name_H-M "P B C M"
_symmetry_group_IT_number 57
_symmetry_cell_setting 'orthorhombic'
loop_
_space_group_symop_operation_xyz
x,y,z
-x,-y,1/2+z
x,1/2-y,-z
-x,1/2+y,1/2-z
-x,-y,-z
x,y,1/2-z
-x,1/2+y,z
x,1/2-y,1/2+z
loop_
_atom_site_type_symbol
_atom_site_label
_atom_site_fract_x
_atom_site_fract_y
_atom_site_fract_z
Si Si1 0.979469 0.509652 0.069914
Si Si2 0.453761 0.615327 0.032100
Si Si3 0.545377 0.727357 0.750000
Si Si4 0.956917 0.134964 0.250000
Si Si5 0.171509 0.874240 0.654549
Si Si6 0.328690 0.267922 0.153311
Si Si7 0.386148 0.825519 0.433594
O O1 0.717694 0.577002 0.057694
O O2 0.101688 0.546969 0.116802
O O3 0.867714 0.398509 0.071555
O O4 0.215620 0.534460 0.034475
O O5 0.325068 0.710344 0.057288
O O6 0.516154 0.644590 0.981264
O O7 0.735528 0.826142 0.750000
O O8 0.617576 0.680772 0.701666
O O9 0.235383 0.765930 0.750000
O O10 0.889611 0.082543 0.203709
O O11 0.972296 0.777787 0.649735
O O12 0.473173 0.829101 0.653527
O O13 0.425833 0.329858 0.110297
#
# Coordination Sequence:
#
# PCOD9434775 Si02
#       7
#     8   8   4   4   8   8   8
#     4  12  23  41  61  87 119 156 199 244 292 348
#     4  11  26  42  58  87 124 155 200 243 290 353
#     4   8  16  30  55  78 111 146 186 232 285 346
#     4   8  16  28  53  78 107 150 182 224 299 336
#     4  10  18  35  55  82 115 147 189 241 283 350
#     4  10  19  36  56  85 113 151 191 236 292 343
#     4  11  24  40  64  87 118 161 196 243 297 346
#
# _framework density 24.293292000000001
#
# number of rings (size 3 to 8) (size 9 to 14) (size 15 to 20)
#    0.000    1.667    3.333    1.000    0.000    6.667 
#    0.000    0.833    0.000    0.000    0.000   14.000 
#    0.000    0.000    0.000    0.000    0.000    0.000 
#
# Total GULP energy -268568.108111 kJ/mol
# GULP energy per Si atom -5595.168919 kJ/mol
# Density = 2.423800 g / cm^3
# Si number density = 24.293292 Si / 1000 Ang^3
#
#
#
# Elastic Constant Matrix: (Units=GPa)
#
#
# Indices 1 2 3 4 5 6 
#
# 1 80.7927 22.2826 -2.9764 0.0000 0.0000 0.0000
# 2 22.2826 93.2087 29.0288 0.0000 0.0000 0.0000
# 3 -2.9764 29.0288 185.7322 0.0000 0.0000 0.0000
# 4 0.0000 0.0000 0.0000 15.7763 0.0000 0.0000
# 5 0.0000 0.0000 0.0000 0.0000 13.9940 0.0000
# 6 0.0000 0.0000 0.0000 0.0000 0.0000 22.7061
#
#
#
# Elastic Compliance Matrix: (Units=1/GPa)
#
#
# Indices 1 2 3 4 5 6 
#
# 1 0.013349 -0.003425 0.000749 0.000000 0.000000 0.000000
# 2 -0.003425 0.012156 -0.001955 0.000000 0.000000 0.000000
# 3 0.000749 -0.001955 0.005702 0.000000 0.000000 0.000000
# 4 0.000000 0.000000 0.000000 0.063386 0.000000 0.000000
# 5 0.000000 0.000000 0.000000 0.000000 0.071459 0.000000
# 6 0.000000 0.000000 0.000000 0.000000 0.000000 0.044041
#
#
# Mechanical properties :
#
#
# Convention : Reuss Voigt Hill
#
# Bulk Modulus (GPa) = 45.56506 50.71150 48.13828
# Shear Modulus (GPa) = 22.05851 31.25518 26.65684
#
# Velocity S-wave (km/s) = 3.01659 3.59078 3.31613
# Velocity P-wave (km/s) = 5.56148 6.17346 5.87544
#
# Compressibility (1/GPa) = 0.02194664
#
# Stress axis : x y z
#
# Youngs Moduli (GPa) = 74.90927 82.26307 175.38860
#
# Poissons Ratio (x) = 0.28172 -0.13140
# Poissons Ratio (y) = 0.25654 0.34285
# Poissons Ratio (z) = -0.05612 0.16081
#
# Static dielectric constant tensor:
#      x y z
#    x 1.877270 0.000000 0.000000 
#    y 0.000000 1.931430 0.000000 
#    z 0.000000 0.000000 2.020150 
# 
# From -- ./inp_files/29122.got.cif
#   From: 2010.05.17/outbox.cif.g08.bks.cpg/sg57_15_cif.got.tgz:29122.got - 2010.06.03 13:58:18.
