data_PCOD9434336
_publ_section_title
;
Structure prediction by ZEFSAII (Michael W. Deem and Ramdas Pophale) SiO2 
 PCOD9434336
Probable space group: P B C M
;
_chemical_formula_sum "Si O2"
_cell_formula_units_Z 64
_cell_length_a 19.702142
_cell_length_b 22.036366
_cell_length_c 8.819767
_cell_angle_alpha 90.000000
_cell_angle_beta 90.000000
_cell_angle_gamma 90.000000
_cell_volume 3829.221899
_symmetry_space_group_name_H-M "P B C M"
_symmetry_group_IT_number 57
_symmetry_cell_setting 'orthorhombic'
loop_
_space_group_symop_operation_xyz
x,y,z
-x,-y,1/2+z
x,1/2-y,-z
-x,1/2+y,1/2-z
-x,-y,-z
x,y,1/2-z
-x,1/2+y,z
x,1/2-y,1/2+z
loop_
_atom_site_type_symbol
_atom_site_label
_atom_site_fract_x
_atom_site_fract_y
_atom_site_fract_z
Si Si1 0.034135 0.315297 0.432091
Si Si2 0.535418 0.440448 0.931695
Si Si3 0.834120 0.872471 0.928378
Si Si4 0.402285 0.116353 0.431724
Si Si5 0.710129 0.687427 0.570868
Si Si6 0.818250 0.487710 0.428854
Si Si7 0.039924 0.558553 0.933609
Si Si8 0.329799 0.996336 0.931922
O O1 0.012776 0.250000 0.500000
O O2 0.034592 0.310927 0.250000
O O3 0.109006 0.331709 0.493368
O O4 0.990845 0.375613 0.475575
O O5 0.532384 0.445055 0.750000
O O6 0.481819 0.388348 0.974158
O O7 0.614832 0.443747 0.971608
O O8 0.500000 0.500000 0.000000
O O9 0.829862 0.641730 0.250000
O O10 0.762547 0.861648 0.008176
O O11 0.847553 0.943941 0.945292
O O12 0.395455 0.118813 0.250000
O O13 0.363711 0.171733 0.507701
O O14 0.362447 0.056434 0.491784
O O15 0.734289 0.750000 0.500000
O O16 0.710650 0.689054 0.750000
O O17 0.805315 0.478203 0.250000
O O18 0.880746 0.445726 0.479004
O O19 0.746173 0.483499 0.512272
O O20 0.036527 0.553542 0.750000
O O21 0.000000 0.500000 0.000000
O O22 0.329250 0.005063 0.750000
#
# Coordination Sequence:
#
# PCOD9434336 Si02
#       8
#     8   8   8   8   8   8   8   8
#     4  11  23  38  57  79 105 137 177 219 264 313
#     4   8  16  28  44  67  95 125 158 195 237 285
#     4  11  21  35  54  74 103 138 174 213 257 306
#     4  10  18  31  48  67  95 131 166 205 251 293
#     4  12  24  36  49  68  97 133 176 216 253 301
#     4  10  20  33  51  75 105 138 170 210 262 312
#     4  10  21  37  56  78 104 136 174 217 264 317
#     4  10  18  29  47  73 101 130 164 201 244 298
#
# _framework density 16.713578999999999
#
# number of rings (size 3 to 8) (size 9 to 14) (size 15 to 20)
#    0.000    1.750    2.500    3.000    0.000    2.500 
#    0.000    0.000    0.000    0.000    0.000    0.875 
#    0.000    4.000    0.000    0.000    0.000    0.000 
#
# Total GULP energy -356694.894921 kJ/mol
# GULP energy per Si atom -5573.357733 kJ/mol
# Density = 1.667554 g / cm^3
# Si number density = 16.713579 Si / 1000 Ang^3
#
#
#
# Elastic Constant Matrix: (Units=GPa)
#
#
# Indices 1 2 3 4 5 6 
#
# 1 100.3173 41.4532 28.6277 0.0000 0.0000 0.0000
# 2 41.4532 57.8710 38.0274 0.0000 0.0000 0.0000
# 3 28.6277 38.0274 56.2227 0.0000 0.0000 0.0000
# 4 0.0000 0.0000 0.0000 19.7490 0.0000 0.0000
# 5 0.0000 0.0000 0.0000 0.0000 22.0800 0.0000
# 6 0.0000 0.0000 0.0000 0.0000 0.0000 22.6347
#
#
#
# Elastic Compliance Matrix: (Units=1/GPa)
#
#
# Indices 1 2 3 4 5 6 
#
# 1 0.014172 -0.009737 -0.000630 0.000000 0.000000 0.000000
# 2 -0.009737 0.037794 -0.020605 0.000000 0.000000 0.000000
# 3 -0.000630 -0.020605 0.032044 0.000000 0.000000 0.000000
# 4 0.000000 0.000000 0.000000 0.050635 0.000000 0.000000
# 5 0.000000 0.000000 0.000000 0.000000 0.045290 0.000000
# 6 0.000000 0.000000 0.000000 0.000000 0.000000 0.044180
#
#
# Mechanical properties :
#
#
# Convention : Reuss Voigt Hill
#
# Bulk Modulus (GPa) = 45.31981 47.84753 46.58367
# Shear Modulus (GPa) = 17.04075 19.97960 18.51017
#
# Velocity S-wave (km/s) = 3.19654 3.46122 3.33151
# Velocity P-wave (km/s) = 6.38735 6.68308 6.53689
#
# Compressibility (1/GPa) = 0.02206541
#
# Stress axis : x y z
#
# Youngs Moduli (GPa) = 70.56251 26.45909 31.20743
#
# Poissons Ratio (x) = 0.25764 0.01966
# Poissons Ratio (y) = 0.68709 0.64302
# Poissons Ratio (z) = 0.04446 0.54518
#
# Static dielectric constant tensor:
#      x y z
#    x 1.595190 0.000000 0.000000 
#    y 0.000000 1.573220 0.000000 
#    z 0.000000 0.000000 1.593180 
# 
# From -- ./inp_files/8769.got.cif
#   From: 2010.05.17/outbox.cif.g08.bks.cpg/sg57_5_cif.got.tgz:8769.got - 2010.06.03 13:58:18.
