data_PCOD9434812
_publ_section_title
;
Structure prediction by ZEFSAII (Michael W. Deem and Ramdas Pophale) SiO2 
 PCOD9434812
Probable space group: P B C M
;
_chemical_formula_sum "Si O2"
_cell_formula_units_Z 64
_cell_length_a 16.574764
_cell_length_b 11.317760
_cell_length_c 17.651708
_cell_angle_alpha 90.000000
_cell_angle_beta 90.000000
_cell_angle_gamma 90.000000
_cell_volume 3311.269800
_symmetry_space_group_name_H-M "P B C M"
_symmetry_group_IT_number 57
_symmetry_cell_setting 'orthorhombic'
loop_
_space_group_symop_operation_xyz
x,y,z
-x,-y,1/2+z
x,1/2-y,-z
-x,1/2+y,1/2-z
-x,-y,-z
x,y,1/2-z
-x,1/2+y,z
x,1/2-y,1/2+z
loop_
_atom_site_type_symbol
_atom_site_label
_atom_site_fract_x
_atom_site_fract_y
_atom_site_fract_z
Si Si1 0.345000 0.706041 0.586332
Si Si2 0.658208 0.912857 0.101678
Si Si3 0.039135 0.199061 0.842272
Si Si4 0.781880 0.722004 0.161198
Si Si5 0.243534 0.878258 0.839887
Si Si6 0.520716 0.750107 0.408207
Si Si7 0.939159 0.431667 0.657587
Si Si8 0.339756 0.071766 0.422979
O O1 0.334843 0.750000 0.500000
O O2 0.267825 0.748139 0.633513
O O3 0.429631 0.755052 0.619713
O O4 0.353388 0.565958 0.584613
O O5 0.719677 0.828194 0.145794
O O6 0.567589 0.868865 0.117086
O O7 0.686605 0.041881 0.123581
O O8 0.668186 0.896873 0.011672
O O9 0.034858 0.196508 0.750000
O O10 0.130021 0.236470 0.864034
O O11 0.983204 0.309777 0.867032
O O12 0.026531 0.061271 0.866589
O O13 0.786345 0.696193 0.250000
O O14 0.741632 0.613625 0.117594
O O15 0.246326 0.889066 0.750000
O O16 0.155007 0.920744 0.864748
O O17 0.513075 0.750000 0.500000
O O18 0.583385 0.644835 0.391171
O O19 0.942089 0.432029 0.750000
#
# Coordination Sequence:
#
# PCOD9434812 Si02
#       8
#     8   8   8   8   8   8   8   8
#     4  11  22  36  57  81 113 149 188 236 281 335
#     4  10  18  36  60  82 109 145 192 227 274 336
#     4   9  17  31  54  82 110 148 190 233 283 340
#     4  10  19  34  58  85 113 145 183 233 285 334
#     4  11  22  36  57  84 113 147 183 231 288 340
#     4   8  19  33  57  83 105 143 192 235 268 328
#     4   9  18  33  54  82 113 145 191 236 281 342
#     4  10  21  36  56  87 110 145 194 234 280 334
#
# _framework density 19.327933000000002
#
# number of rings (size 3 to 8) (size 9 to 14) (size 15 to 20)
#    0.000    2.250    2.500    1.500    1.750    3.000 
#    0.000    5.625    0.000    2.250    0.000    0.000 
#    0.000    0.000    0.000    0.000    0.000    0.000 
#
# Total GULP energy -356591.858936 kJ/mol
# GULP energy per Si atom -5571.747796 kJ/mol
# Density = 1.928394 g / cm^3
# Si number density = 19.327933 Si / 1000 Ang^3
#
#
#
# Elastic Constant Matrix: (Units=GPa)
#
#
# Indices 1 2 3 4 5 6 
#
# 1 76.6635 42.1057 10.6511 0.0000 0.0000 0.0000
# 2 42.1057 110.5824 4.9975 0.0000 0.0000 0.0000
# 3 10.6511 4.9975 18.5514 0.0000 0.0000 0.0000
# 4 0.0000 0.0000 0.0000 22.6493 0.0000 0.0000
# 5 0.0000 0.0000 0.0000 0.0000 14.8555 0.0000
# 6 0.0000 0.0000 0.0000 0.0000 0.0000 23.9578
#
#
#
# Elastic Compliance Matrix: (Units=1/GPa)
#
#
# Indices 1 2 3 4 5 6 
#
# 1 0.017713 -0.006362 -0.008456 0.000000 0.000000 0.000000
# 2 -0.006362 0.011440 0.000571 0.000000 0.000000 0.000000
# 3 -0.008456 0.000571 0.058605 0.000000 0.000000 0.000000
# 4 0.000000 0.000000 0.000000 0.044152 0.000000 0.000000
# 5 0.000000 0.000000 0.000000 0.000000 0.067315 0.000000
# 6 0.000000 0.000000 0.000000 0.000000 0.000000 0.041740
#
#
# Mechanical properties :
#
#
# Convention : Reuss Voigt Hill
#
# Bulk Modulus (GPa) = 16.87361 35.70065 26.28713
# Shear Modulus (GPa) = 17.28822 22.16205 19.72513
#
# Velocity S-wave (km/s) = 2.99401 3.38987 3.19807
# Velocity P-wave (km/s) = 4.54986 5.81659 5.22178
#
# Compressibility (1/GPa) = 0.05926414
#
# Stress axis : x y z
#
# Youngs Moduli (GPa) = 56.45496 87.41426 17.06326
#
# Poissons Ratio (x) = 0.55616 0.14429
# Poissons Ratio (y) = 0.35919 -0.00975
# Poissons Ratio (z) = 0.47738 -0.04993
#
# Static dielectric constant tensor:
#      x y z
#    x 1.672410 0.000000 0.000000 
#    y 0.000000 1.694850 0.000000 
#    z 0.000000 0.000000 1.662750 
# 
# From -- ./inp_files/22686.got.cif
#   From: 2010.05.17/outbox.cif.g08.bks.cpg/sg57_12_cif.got.tgz:22686.got - 2010.06.03 13:58:18.
