data_PCOD9434165
_publ_section_title
;
Structure prediction by ZEFSAII (Michael W. Deem and Ramdas Pophale) SiO2 
 PCOD9434165
Probable space group: P B C M
;
_chemical_formula_sum "Si O2"
_cell_formula_units_Z 44
_cell_length_a 7.062673
_cell_length_b 24.176237
_cell_length_c 14.167034
_cell_angle_alpha 90.000000
_cell_angle_beta 90.000000
_cell_angle_gamma 90.000000
_cell_volume 2419.004853
_symmetry_space_group_name_H-M "P B C M"
_symmetry_group_IT_number 57
_symmetry_cell_setting 'orthorhombic'
loop_
_space_group_symop_operation_xyz
x,y,z
-x,-y,1/2+z
x,1/2-y,-z
-x,1/2+y,1/2-z
-x,-y,-z
x,y,1/2-z
-x,1/2+y,z
x,1/2-y,1/2+z
loop_
_atom_site_type_symbol
_atom_site_label
_atom_site_fract_x
_atom_site_fract_y
_atom_site_fract_z
Si Si1 0.198185 0.312084 0.250000
Si Si2 0.828919 0.819055 0.750000
Si Si3 0.036010 0.498583 0.887966
Si Si4 0.586803 0.121512 0.750000
Si Si5 0.430430 0.620394 0.250000
Si Si6 0.893230 0.378557 0.888859
Si Si7 0.064888 0.623144 0.886683
Si Si8 0.382391 0.004367 0.250000
O O1 0.198462 0.246242 0.250000
O O2 0.406437 0.339069 0.250000
O O3 0.079978 0.334144 0.340348
O O4 0.628143 0.848781 0.750000
O O5 0.949150 0.840894 0.660786
O O6 0.929440 0.442690 0.859479
O O7 0.988788 0.561510 0.859515
O O8 0.245004 0.491292 0.842190
O O9 0.000000 0.500000 0.000000
O O10 0.529083 0.056714 0.750000
O O11 0.729550 0.129880 0.661811
O O12 0.306808 0.635852 0.341765
O O13 0.476210 0.555161 0.250000
O O14 0.910107 0.373531 0.001124
#
# Coordination Sequence:
#
# PCOD9434165 Si02
#       8
#     4   4   8   4   4   8   8   4
#     4  11  24  40  62  77 114 165 197 242 290 352
#     4  11  24  41  56  86 115 155 208 237 287 359
#     4   9  17  35  60  88 120 149 187 240 293 362
#     4   9  21  37  57  91 120 150 199 237 290 355
#     4  11  22  34  61  90 120 155 193 248 297 353
#     4  10  21  39  61  88 119 154 190 246 303 345
#     4   9  21  40  60  87 119 151 193 244 295 352
#     4  10  17  34  56  88 125 153 187 242 298 355
#
# _framework density 18.189298999999998
#
# number of rings (size 3 to 8) (size 9 to 14) (size 15 to 20)
#    0.000    2.182    1.818    1.091    2.545    5.091 
#    0.000    2.727    0.000    0.000    0.000    0.000 
#    0.000    0.000    0.000    0.000    0.000    0.000 
#
# Total GULP energy -245144.252503 kJ/mol
# GULP energy per Si atom -5571.460284 kJ/mol
# Density = 1.814790 g / cm^3
# Si number density = 18.189299 Si / 1000 Ang^3
#
#
#
# Elastic Constant Matrix: (Units=GPa)
#
#
# Indices 1 2 3 4 5 6 
#
# 1 126.6396 78.2942 60.4177 0.0000 0.0000 0.0000
# 2 78.2942 136.8606 48.4268 0.0000 0.0000 0.0000
# 3 60.4177 48.4268 159.1895 0.0000 0.0000 0.0000
# 4 0.0000 0.0000 0.0000 14.0049 0.0000 0.0000
# 5 0.0000 0.0000 0.0000 0.0000 2.7162 0.0000
# 6 0.0000 0.0000 0.0000 0.0000 0.0000 14.3881
#
#
#
# Elastic Compliance Matrix: (Units=1/GPa)
#
#
# Indices 1 2 3 4 5 6 
#
# 1 0.013456 -0.006601 -0.003099 0.000000 0.000000 0.000000
# 2 -0.006601 0.011427 -0.000971 0.000000 0.000000 0.000000
# 3 -0.003099 -0.000971 0.007753 0.000000 0.000000 0.000000
# 4 0.000000 0.000000 0.000000 0.071403 0.000000 0.000000
# 5 0.000000 0.000000 0.000000 0.000000 0.368168 0.000000
# 6 0.000000 0.000000 0.000000 0.000000 0.000000 0.069502
#
#
# Mechanical properties :
#
#
# Convention : Reuss Voigt Hill
#
# Bulk Modulus (GPa) = 88.54080 88.55190 88.54635
# Shear Modulus (GPa) = 8.82121 21.92524 15.37322
#
# Velocity S-wave (km/s) = 2.20459 3.47564 2.91035
# Velocity P-wave (km/s) = 7.43393 8.05580 7.75111
#
# Compressibility (1/GPa) = 0.01129423
#
# Stress axis : x y z
#
# Youngs Moduli (GPa) = 74.31587 87.51497 128.97886
#
# Poissons Ratio (x) = 0.57772 0.39968
# Poissons Ratio (y) = 0.49059 0.12519
# Poissons Ratio (z) = 0.23029 0.08495
#
# Static dielectric constant tensor:
#      x y z
#    x 1.604460 0.000000 0.000000 
#    y 0.000000 1.623310 0.000000 
#    z 0.000000 0.000000 1.627820 
# 
# From -- ./inp_files/15076.got.cif
#   From: 2010.05.17/outbox.cif.g08.bks.cpg/sg57_8_cif.got.tgz:15076.got - 2010.06.03 13:58:18.
