data_PCOD9434379
_publ_section_title
;
Structure prediction by ZEFSAII (Michael W. Deem and Ramdas Pophale) SiO2 
 PCOD9434379
Probable space group: P B C M
;
_chemical_formula_sum "Si O2"
_cell_formula_units_Z 64
_cell_length_a 20.212973
_cell_length_b 18.755135
_cell_length_c 9.322778
_cell_angle_alpha 90.000000
_cell_angle_beta 90.000000
_cell_angle_gamma 90.000000
_cell_volume 3534.237520
_symmetry_space_group_name_H-M "P B C M"
_symmetry_group_IT_number 57
_symmetry_cell_setting 'orthorhombic'
loop_
_space_group_symop_operation_xyz
x,y,z
-x,-y,1/2+z
x,1/2-y,-z
-x,1/2+y,1/2-z
-x,-y,-z
x,y,1/2-z
-x,1/2+y,z
x,1/2-y,1/2+z
loop_
_atom_site_type_symbol
_atom_site_label
_atom_site_fract_x
_atom_site_fract_y
_atom_site_fract_z
Si Si1 0.415744 0.566275 0.916683
Si Si2 0.469719 0.324494 0.078113
Si Si3 0.360082 0.432383 0.421620
Si Si4 0.696845 0.316106 0.416557
Si Si5 0.920208 0.572219 0.415151
Si Si6 0.179213 0.624157 0.082305
Si Si7 0.951056 0.098481 0.915538
Si Si8 0.209380 0.454611 0.418026
O O1 0.427480 0.547059 0.750000
O O2 0.476170 0.616122 0.965421
O O3 0.350823 0.615977 0.924001
O O4 0.400948 0.496498 0.007541
O O5 0.476792 0.314983 0.250000
O O6 0.398165 0.359092 0.047431
O O7 0.479453 0.250000 0.000000
O O8 0.360747 0.442948 0.250000
O O9 0.283446 0.435631 0.467302
O O10 0.664812 0.250000 0.500000
O O11 0.707489 0.298642 0.250000
O O12 0.764844 0.333726 0.496773
O O13 0.920652 0.595666 0.250000
O O14 0.936171 0.486984 0.415204
O O15 0.848904 0.579786 0.488839
O O16 0.978624 0.607649 0.507135
O O17 0.176892 0.643494 0.250000
O O18 0.199241 0.540272 0.073711
O O19 0.108445 0.632319 0.006286
O O20 0.951609 0.121805 0.750000
O O21 0.202048 0.435160 0.250000
#
# Coordination Sequence:
#
# PCOD9434379 Si02
#       8
#     8   8   8   8   8   8   8   8
#     4  10  21  36  55  80 107 137 176 222 269 320
#     4  10  22  39  57  80 109 141 178 220 267 320
#     4  10  20  35  56  81 108 140 178 220 268 323
#     4  11  22  34  49  71 101 137 179 222 268 322
#     4   9  16  25  40  65  96 130 167 207 253 306
#     4  10  18  30  47  67  96 133 173 214 263 314
#     4   9  16  26  41  63  94 131 168 208 255 306
#     4   9  17  29  46  70 100 133 167 209 262 315
#
# _framework density 18.108571999999999
#
# number of rings (size 3 to 8) (size 9 to 14) (size 15 to 20)
#    0.000    2.250    1.250    2.250    0.000    5.500 
#    0.000    0.000    0.000    0.000    0.000    0.875 
#    0.000    2.000    0.000    0.000    0.000    0.000 
#
# Total GULP energy -357129.926312 kJ/mol
# GULP energy per Si atom -5580.155099 kJ/mol
# Density = 1.806736 g / cm^3
# Si number density = 18.108572 Si / 1000 Ang^3
#
#
#
# Elastic Constant Matrix: (Units=GPa)
#
#
# Indices 1 2 3 4 5 6 
#
# 1 132.3673 29.3048 54.2632 0.0000 0.0000 0.0000
# 2 29.3048 22.0137 20.5423 0.0000 0.0000 0.0000
# 3 54.2632 20.5423 93.1055 0.0000 0.0000 0.0000
# 4 0.0000 0.0000 0.0000 17.5433 0.0000 0.0000
# 5 0.0000 0.0000 0.0000 0.0000 26.3347 0.0000
# 6 0.0000 0.0000 0.0000 0.0000 0.0000 7.3769
#
#
#
# Elastic Compliance Matrix: (Units=1/GPa)
#
#
# Indices 1 2 3 4 5 6 
#
# 1 0.011968 -0.011866 -0.004357 0.000000 0.000000 0.000000
# 2 -0.011866 0.068969 -0.008301 0.000000 0.000000 0.000000
# 3 -0.004357 -0.008301 0.015111 0.000000 0.000000 0.000000
# 4 0.000000 0.000000 0.000000 0.057002 0.000000 0.000000
# 5 0.000000 0.000000 0.000000 0.000000 0.037973 0.000000
# 6 0.000000 0.000000 0.000000 0.000000 0.000000 0.135559
#
#
# Mechanical properties :
#
#
# Convention : Reuss Voigt Hill
#
# Bulk Modulus (GPa) = 21.27676 50.63411 35.95544
# Shear Modulus (GPa) = 12.77803 19.80938 16.29370
#
# Velocity S-wave (km/s) = 2.65926 3.31104 3.00288
# Velocity P-wave (km/s) = 4.60477 6.52989 5.64993
#
# Compressibility (1/GPa) = 0.04699963
#
# Stress axis : x y z
#
# Youngs Moduli (GPa) = 83.55706 14.49930 66.17530
#
# Poissons Ratio (x) = 0.17205 0.28833
# Poissons Ratio (y) = 0.99149 0.54934
# Poissons Ratio (z) = 0.36406 0.12036
#
# Static dielectric constant tensor:
#      x y z
#    x 1.632260 0.000000 0.000000 
#    y 0.000000 1.598500 0.000000 
#    z 0.000000 0.000000 1.607490 
# 
# From -- ./inp_files/8766.got.cif
#   From: 2010.05.17/outbox.cif.g08.bks.cpg/sg57_5_cif.got.tgz:8766.got - 2010.06.03 13:58:18.
