data_PCOD9434273
_publ_section_title
;
Structure prediction by ZEFSAII (Michael W. Deem and Ramdas Pophale) SiO2 
 PCOD9434273
Probable space group: P B C M
;
_chemical_formula_sum "Si O2"
_cell_formula_units_Z 64
_cell_length_a 17.441560
_cell_length_b 24.757282
_cell_length_c 8.080981
_cell_angle_alpha 90.000000
_cell_angle_beta 90.000000
_cell_angle_gamma 90.000000
_cell_volume 3489.413006
_symmetry_space_group_name_H-M "P B C M"
_symmetry_group_IT_number 57
_symmetry_cell_setting 'orthorhombic'
loop_
_space_group_symop_operation_xyz
x,y,z
-x,-y,1/2+z
x,1/2-y,-z
-x,1/2+y,1/2-z
-x,-y,-z
x,y,1/2-z
-x,1/2+y,z
x,1/2-y,1/2+z
loop_
_atom_site_type_symbol
_atom_site_label
_atom_site_fract_x
_atom_site_fract_y
_atom_site_fract_z
Si Si1 0.744262 0.812425 0.549745
Si Si2 0.748970 0.136050 0.553379
Si Si3 0.898577 0.189830 0.441715
Si Si4 0.592025 0.187045 0.051313
Si Si5 0.575210 0.812669 0.949011
Si Si6 0.983502 0.413942 0.441541
Si Si7 0.168097 0.527767 0.952340
Si Si8 0.844659 0.910337 0.554575
O O1 0.756819 0.750000 0.500000
O O2 0.744790 0.812043 0.750000
O O3 0.659022 0.831770 0.493899
O O4 0.806475 0.855654 0.487220
O O5 0.762283 0.140057 0.750000
O O6 0.808785 0.176553 0.467215
O O7 0.662650 0.152691 0.515632
O O8 0.773995 0.075659 0.499918
O O9 0.915216 0.250000 0.500000
O O10 0.918555 0.183304 0.250000
O O11 0.944394 0.144819 0.543335
O O12 0.425029 0.183083 0.250000
O O13 0.507837 0.166498 0.992997
O O14 0.600397 0.250000 0.000000
O O15 0.593894 0.314795 0.750000
O O16 0.574452 0.750000 0.000000
O O17 0.997844 0.426782 0.250000
O O18 0.917594 0.454382 0.506698
O O19 0.064145 0.412639 0.532069
O O20 0.166260 0.527255 0.750000
O O21 0.186402 0.467640 0.011908
O O22 0.828069 0.910039 0.750000
#
# Coordination Sequence:
#
# PCOD9434273 Si02
#       8
#     8   8   8   8   8   8   8   8
#     4   9  18  32  51  73  98 125 154 192 238 287
#     4  10  19  32  48  69  97 127 160 198 238 280
#     4  11  21  34  50  69  96 130 163 195 236 285
#     4  10  18  28  45  70  98 127 160 195 232 279
#     4   8  15  28  45  67  94 124 156 191 232 276
#     4  10  20  34  50  71  97 125 159 201 245 285
#     4   8  17  33  51  69  92 123 161 202 239 280
#     4  10  19  33  53  74  93 121 162 202 242 287
#
# _framework density 18.341194999999999
#
# number of rings (size 3 to 8) (size 9 to 14) (size 15 to 20)
#    0.000    2.500    0.000    3.750    0.000    1.500 
#    0.000    4.375    0.000    0.750    0.000    0.000 
#    0.000    0.000    0.000    0.000    0.000    1.125 
#
# Total GULP energy -356681.204138 kJ/mol
# GULP energy per Si atom -5573.143815 kJ/mol
# Density = 1.829945 g / cm^3
# Si number density = 18.341195 Si / 1000 Ang^3
#
#
#
# Elastic Constant Matrix: (Units=GPa)
#
#
# Indices 1 2 3 4 5 6 
#
# 1 93.8959 54.8171 -0.4423 0.0000 0.0000 0.0000
# 2 54.8171 100.5657 1.7205 0.0000 0.0000 0.0000
# 3 -0.4423 1.7205 24.6599 0.0000 0.0000 0.0000
# 4 0.0000 0.0000 0.0000 11.0149 0.0000 0.0000
# 5 0.0000 0.0000 0.0000 0.0000 73.1756 0.0000
# 6 0.0000 0.0000 0.0000 0.0000 0.0000 15.7975
#
#
#
# Elastic Compliance Matrix: (Units=1/GPa)
#
#
# Indices 1 2 3 4 5 6 
#
# 1 0.015640 -0.008540 0.000876 0.000000 0.000000 0.000000
# 2 -0.008540 0.014619 -0.001173 0.000000 0.000000 0.000000
# 3 0.000876 -0.001173 0.040649 0.000000 0.000000 0.000000
# 4 0.000000 0.000000 0.000000 0.090786 0.000000 0.000000
# 5 0.000000 0.000000 0.000000 0.000000 0.013666 0.000000
# 6 0.000000 0.000000 0.000000 0.000000 0.000000 0.063301
#
#
# Mechanical properties :
#
#
# Convention : Reuss Voigt Hill
#
# Bulk Modulus (GPa) = 18.78486 36.81245 27.79865
# Shear Modulus (GPa) = 18.24284 30.86600 24.55442
#
# Velocity S-wave (km/s) = 3.15721 4.10674 3.66287
# Velocity P-wave (km/s) = 4.85332 6.52699 5.75136
#
# Compressibility (1/GPa) = 0.05323436
#
# Stress axis : x y z
#
# Youngs Moduli (GPa) = 63.93841 68.40423 24.60070
#
# Poissons Ratio (x) = 0.58419 -0.02156
# Poissons Ratio (y) = 0.54605 0.02886
# Poissons Ratio (z) = -0.05604 0.08025
#
# Static dielectric constant tensor:
#      x y z
#    x 1.657720 0.000000 0.000000 
#    y 0.000000 1.630330 0.000000 
#    z 0.000000 0.000000 1.670840 
# 
# From -- ./inp_files/7413.got.cif
#   From: 2010.05.17/outbox.cif.g08.bks.cpg/sg57_4_cif.got.tgz:7413.got - 2010.06.03 13:58:18.
