data_PCOD9434415
_publ_section_title
;
Structure prediction by ZEFSAII (Michael W. Deem and Ramdas Pophale) SiO2 
 PCOD9434415
Probable space group: P B C M
;
_chemical_formula_sum "Si O2"
_cell_formula_units_Z 40
_cell_length_a 13.021224
_cell_length_b 20.265907
_cell_length_c 8.638430
_cell_angle_alpha 90.000000
_cell_angle_beta 90.000000
_cell_angle_gamma 90.000000
_cell_volume 2279.568640
_symmetry_space_group_name_H-M "P B C M"
_symmetry_group_IT_number 57
_symmetry_cell_setting 'orthorhombic'
loop_
_space_group_symop_operation_xyz
x,y,z
-x,-y,1/2+z
x,1/2-y,-z
-x,1/2+y,1/2-z
-x,-y,-z
x,y,1/2-z
-x,1/2+y,z
x,1/2-y,1/2+z
loop_
_atom_site_type_symbol
_atom_site_label
_atom_site_fract_x
_atom_site_fract_y
_atom_site_fract_z
Si Si1 0.731027 0.049504 0.934855
Si Si2 0.878694 0.822300 0.935410
Si Si3 0.689788 0.902362 0.434850
Si Si4 0.951796 0.067637 0.064527
Si Si5 0.520564 0.426208 0.935081
O O1 0.725031 0.047361 0.750000
O O2 0.721843 0.974295 0.998297
O O3 0.633823 0.089461 0.002306
O O4 0.839924 0.076661 0.990870
O O5 0.866867 0.820642 0.750000
O O6 0.970593 0.873021 0.972306
O O7 0.900254 0.750000 0.000000
O O8 0.775000 0.851017 0.010160
O O9 0.685732 0.906809 0.250000
O O10 0.576574 0.886182 0.500640
O O11 0.942309 0.062362 0.250000
O O12 0.000000 0.000000 0.000000
O O13 0.519695 0.427131 0.750000
O O14 0.500000 0.500000 0.000000
#
# Coordination Sequence:
#
# PCOD9434415 Si02
#       5
#     8   8   8   8   8
#     4  11  20  32  52  81 114 146 185 231 283 335
#     4  11  24  40  58  82 113 150 192 235 285 344
#     4  11  20  33  54  79 111 146 184 229 282 336
#     4  11  22  36  57  83 113 149 191 236 286 341
#     4  10  18  30  49  76 110 143 179 222 275 330
#
# _framework density 17.547179
#
# number of rings (size 3 to 8) (size 9 to 14) (size 15 to 20)
#    0.000    1.200    2.000    9.000    0.000    2.400 
#    0.000    0.000    0.000    1.200    0.000    5.600 
#    0.000    0.000    0.000    0.000    0.000    0.000 
#
# Total GULP energy -223453.275912 kJ/mol
# GULP energy per Si atom -5586.331898 kJ/mol
# Density = 1.750724 g / cm^3
# Si number density = 17.547179 Si / 1000 Ang^3
#
#
#
# Elastic Constant Matrix: (Units=GPa)
#
#
# Indices 1 2 3 4 5 6 
#
# 1 187.1958 57.8662 90.5523 0.0000 0.0000 0.0000
# 2 57.8662 80.7816 53.1973 0.0000 0.0000 0.0000
# 3 90.5523 53.1973 162.4550 0.0000 0.0000 0.0000
# 4 0.0000 0.0000 0.0000 22.3063 0.0000 0.0000
# 5 0.0000 0.0000 0.0000 0.0000 36.0171 0.0000
# 6 0.0000 0.0000 0.0000 0.0000 0.0000 17.7575
#
#
#
# Elastic Compliance Matrix: (Units=1/GPa)
#
#
# Indices 1 2 3 4 5 6 
#
# 1 0.008054 -0.003586 -0.003315 0.000000 0.000000 0.000000
# 2 -0.003586 0.017379 -0.003692 0.000000 0.000000 0.000000
# 3 -0.003315 -0.003692 0.009212 0.000000 0.000000 0.000000
# 4 0.000000 0.000000 0.000000 0.044830 0.000000 0.000000
# 5 0.000000 0.000000 0.000000 0.000000 0.027765 0.000000
# 6 0.000000 0.000000 0.000000 0.000000 0.000000 0.056314
#
#
# Mechanical properties :
#
#
# Convention : Reuss Voigt Hill
#
# Bulk Modulus (GPa) = 74.29912 92.62934 83.46423
# Shear Modulus (GPa) = 26.42312 30.47063 28.44687
#
# Velocity S-wave (km/s) = 3.88472 4.17165 4.03074
# Velocity P-wave (km/s) = 7.90922 8.72393 8.32654
#
# Compressibility (1/GPa) = 0.01345911
#
# Stress axis : x y z
#
# Youngs Moduli (GPa) = 124.15867 57.53940 108.55053
#
# Poissons Ratio (x) = 0.20636 0.35985
# Poissons Ratio (y) = 0.44529 0.40076
# Poissons Ratio (z) = 0.41159 0.21243
#
# Static dielectric constant tensor:
#      x y z
#    x 1.640670 0.000000 0.000000 
#    y 0.000000 1.586350 0.000000 
#    z 0.000000 0.000000 1.626140 
# 
# From -- ./inp_files/4800.got.cif
#   From: 2010.05.17/outbox.cif.g08.bks.cpg/sg57_3_cif.got.tgz:4800.got - 2010.06.03 13:58:18.
