data_PCOD9434279
_publ_section_title
;
Structure prediction by ZEFSAII (Michael W. Deem and Ramdas Pophale) SiO2 
 PCOD9434279
Probable space group: P B C M
;
_chemical_formula_sum "Si O2"
_cell_formula_units_Z 48
_cell_length_a 16.053276
_cell_length_b 20.672694
_cell_length_c 8.492440
_cell_angle_alpha 90.000000
_cell_angle_beta 90.000000
_cell_angle_gamma 90.000000
_cell_volume 2818.339035
_symmetry_space_group_name_H-M "P B C M"
_symmetry_group_IT_number 57
_symmetry_cell_setting 'orthorhombic'
loop_
_space_group_symop_operation_xyz
x,y,z
-x,-y,1/2+z
x,1/2-y,-z
-x,1/2+y,1/2-z
-x,-y,-z
x,y,1/2-z
-x,1/2+y,z
x,1/2-y,1/2+z
loop_
_atom_site_type_symbol
_atom_site_label
_atom_site_fract_x
_atom_site_fract_y
_atom_site_fract_z
Si Si1 0.961527 0.567063 0.438534
Si Si2 0.426460 0.586961 0.561340
Si Si3 0.398368 0.441077 0.440848
Si Si4 0.087606 0.821227 0.561516
Si Si5 0.753475 0.106260 0.939550
Si Si6 0.783286 0.960173 0.438739
O O1 0.963101 0.565439 0.250000
O O2 0.866669 0.571349 0.495452
O O3 0.000000 0.500000 0.500000
O O4 0.019422 0.626196 0.493222
O O5 0.426228 0.592726 0.750000
O O6 0.412242 0.512076 0.514275
O O7 0.521418 0.601374 0.508489
O O8 0.341567 0.621123 0.505300
O O9 0.401443 0.446925 0.250000
O O10 0.303279 0.424076 0.482105
O O11 0.069184 0.750000 0.500000
O O12 0.087631 0.821023 0.750000
O O13 0.177671 0.845176 0.503320
O O14 0.755590 0.106310 0.750000
O O15 0.776308 0.033820 0.997766
O O16 0.788825 0.536397 0.750000
#
# Coordination Sequence:
#
# PCOD9434279 Si02
#       6
#     8   8   8   8   8   8
#     4  11  22  35  53  75 100 132 169 211 258 311
#     4   8  14  24  39  62  92 127 161 193 235 283
#     4   8  14  24  38  61  95 128 159 196 237 283
#     4  11  24  39  54  73  99 131 169 211 259 311
#     4  10  18  29  48  71  98 132 167 205 248 296
#     4  10  18  28  46  72 101 133 168 206 249 297
#
# _framework density 17.031307999999999
#
# number of rings (size 3 to 8) (size 9 to 14) (size 15 to 20)
#    0.000    2.333    1.667    2.000    0.000    3.333 
#    0.000    0.000    0.000    0.000    0.000    1.167 
#    0.000    2.667    0.000    0.000    0.000    0.000 
#
# Total GULP energy -267290.373608 kJ/mol
# GULP energy per Si atom -5568.549450 kJ/mol
# Density = 1.699254 g / cm^3
# Si number density = 17.031308 Si / 1000 Ang^3
#
#
#
# Elastic Constant Matrix: (Units=GPa)
#
#
# Indices 1 2 3 4 5 6 
#
# 1 179.9226 61.0315 22.6841 0.0000 0.0000 0.0000
# 2 61.0315 72.1432 18.3496 0.0000 0.0000 0.0000
# 3 22.6841 18.3496 28.0916 0.0000 0.0000 0.0000
# 4 0.0000 0.0000 0.0000 17.3834 0.0000 0.0000
# 5 0.0000 0.0000 0.0000 0.0000 22.9190 0.0000
# 6 0.0000 0.0000 0.0000 0.0000 0.0000 13.5507
#
#
#
# Elastic Compliance Matrix: (Units=1/GPa)
#
#
# Indices 1 2 3 4 5 6 
#
# 1 0.007930 -0.006092 -0.002424 0.000000 0.000000 0.000000
# 2 -0.006092 0.021303 -0.008996 0.000000 0.000000 0.000000
# 3 -0.002424 -0.008996 0.043432 0.000000 0.000000 0.000000
# 4 0.000000 0.000000 0.000000 0.057526 0.000000 0.000000
# 5 0.000000 0.000000 0.000000 0.000000 0.043632 0.000000
# 6 0.000000 0.000000 0.000000 0.000000 0.000000 0.073797
#
#
# Mechanical properties :
#
#
# Convention : Reuss Voigt Hill
#
# Bulk Modulus (GPa) = 26.56723 53.80976 40.18849
# Shear Modulus (GPa) = 16.93819 22.64345 19.79082
#
# Velocity S-wave (km/s) = 3.15704 3.65021 3.41255
# Velocity P-wave (km/s) = 5.37793 7.03055 6.25902
#
# Compressibility (1/GPa) = 0.03764036
#
# Stress axis : x y z
#
# Youngs Moduli (GPa) = 126.10240 46.94139 23.02473
#
# Poissons Ratio (x) = 0.28597 0.05582
# Poissons Ratio (y) = 0.76822 0.20713
# Poissons Ratio (z) = 0.30570 0.42228
#
# Static dielectric constant tensor:
#      x y z
#    x 1.658940 0.000000 0.000000 
#    y 0.000000 1.531080 0.000000 
#    z 0.000000 0.000000 1.580190 
# 
# From -- ./inp_files/4893.got.cif
#   From: 2010.05.17/outbox.cif.g08.bks.cpg/sg57_3_cif.got.tgz:4893.got - 2010.06.03 13:58:18.
