data_PCOD9434172
_publ_section_title
;
Structure prediction by ZEFSAII (Michael W. Deem and Ramdas Pophale) SiO2 
 PCOD9434172
Probable space group: P B C M
;
_chemical_formula_sum "Si O2"
_cell_formula_units_Z 52
_cell_length_a 6.968848
_cell_length_b 13.755976
_cell_length_c 23.395645
_cell_angle_alpha 90.000000
_cell_angle_beta 90.000000
_cell_angle_gamma 90.000000
_cell_volume 2242.783872
_symmetry_space_group_name_H-M "P B C M"
_symmetry_group_IT_number 57
_symmetry_cell_setting 'orthorhombic'
loop_
_space_group_symop_operation_xyz
x,y,z
-x,-y,1/2+z
x,1/2-y,-z
-x,1/2+y,1/2-z
-x,-y,-z
x,y,1/2-z
-x,1/2+y,z
x,1/2-y,1/2+z
loop_
_atom_site_type_symbol
_atom_site_label
_atom_site_fract_x
_atom_site_fract_y
_atom_site_fract_z
Si Si1 0.348441 0.196828 0.250000
Si Si2 0.452199 0.515373 0.250000
Si Si3 0.540295 0.155269 0.035930
Si Si4 0.642182 0.445072 0.366514
Si Si5 0.991257 0.167082 0.876996
Si Si6 0.281558 0.457134 0.051023
Si Si7 0.854330 0.620393 0.750000
Si Si8 0.768759 0.650693 0.375273
O O1 0.338237 0.312156 0.250000
O O2 0.241509 0.165751 0.192671
O O3 0.537355 0.132393 0.250000
O O4 0.565077 0.472715 0.304245
O O5 0.230909 0.486438 0.250000
O O6 0.436445 0.179615 0.096099
O O7 0.706552 0.073164 0.039157
O O8 0.594503 0.250000 0.000000
O O9 0.361218 0.102427 0.003072
O O10 0.453515 0.443546 0.404017
O O11 0.779477 0.535572 0.383971
O O12 0.765048 0.349448 0.377067
O O13 0.099502 0.093066 0.920032
O O14 0.044698 0.142103 0.810339
O O15 0.068492 0.273667 0.893818
#
# Coordination Sequence:
#
# PCOD9434172 Si02
#       8
#     4   4   8   8   8   8   4   8
#     4   8  18  32  56  86 112 150 194 236 288 356
#     4  10  17  35  57  83 120 154 194 243 293 345
#     4  10  19  37  62  81 116 158 191 242 301 338
#     4  10  21  37  57  88 119 153 200 247 290 353
#     4  11  20  38  60  86 122 157 199 242 301 353
#     4  10  21  37  60  86 111 155 204 242 289 359
#     4  10  19  33  59  89 114 162 196 235 303 349
#     4   9  19  37  59  82 120 157 187 243 303 341
#
# _framework density 23.185471
#
# number of rings (size 3 to 8) (size 9 to 14) (size 15 to 20)
#    0.000    2.154    3.077    0.462    0.000    0.000 
#    2.769    8.462    0.000    0.000    0.000    0.000 
#    0.000    0.000    0.000    0.000    0.000    0.000 
#
# Total GULP energy -290069.872652 kJ/mol
# GULP energy per Si atom -5578.266782 kJ/mol
# Density = 2.313270 g / cm^3
# Si number density = 23.185471 Si / 1000 Ang^3
#
#
#
# Elastic Constant Matrix: (Units=GPa)
#
#
# Indices 1 2 3 4 5 6 
#
# 1 23.6789 21.0180 16.6730 0.0000 0.0000 0.0000
# 2 21.0180 49.7676 1.9803 0.0000 0.0000 0.0000
# 3 16.6730 1.9803 92.5698 0.0000 0.0000 0.0000
# 4 0.0000 0.0000 0.0000 28.0286 0.0000 0.0000
# 5 0.0000 0.0000 0.0000 0.0000 5.5105 0.0000
# 6 0.0000 0.0000 0.0000 0.0000 0.0000 26.0526
#
#
#
# Elastic Compliance Matrix: (Units=1/GPa)
#
#
# Indices 1 2 3 4 5 6 
#
# 1 0.082707 -0.034366 -0.014161 0.000000 0.000000 0.000000
# 2 -0.034366 0.034390 0.005454 0.000000 0.000000 0.000000
# 3 -0.014161 0.005454 0.013237 0.000000 0.000000 0.000000
# 4 0.000000 0.000000 0.000000 0.035678 0.000000 0.000000
# 5 0.000000 0.000000 0.000000 0.000000 0.181472 0.000000
# 6 0.000000 0.000000 0.000000 0.000000 0.000000 0.038384
#
#
# Mechanical properties :
#
#
# Convention : Reuss Voigt Hill
#
# Bulk Modulus (GPa) = 22.63090 27.26209 24.94650
# Shear Modulus (GPa) = 10.27237 20.34135 15.30686
#
# Velocity S-wave (km/s) = 2.10716 2.96519 2.57221
# Velocity P-wave (km/s) = 3.96260 4.84840 4.42770
#
# Compressibility (1/GPa) = 0.04418737
#
# Stress axis : x y z
#
# Youngs Moduli (GPa) = 12.09087 29.07842 75.54776
#
# Poissons Ratio (x) = 0.99930 1.06987
# Poissons Ratio (y) = 0.41551 -0.41204
# Poissons Ratio (z) = 0.17122 -0.15859
#
# Static dielectric constant tensor:
#      x y z
#    x 1.836560 0.000000 0.000000 
#    y 0.000000 1.932110 0.000000 
#    z 0.000000 0.000000 2.034010 
# 
# From -- ./inp_files/26825.got.cif
#   From: 2010.05.17/outbox.cif.g08.bks.cpg/sg57_14_cif.got.tgz:26825.got - 2010.06.03 13:58:18.
