data_PCOD9434142
_publ_section_title
;
Structure prediction by ZEFSAII (Michael W. Deem and Ramdas Pophale) SiO2 
 PCOD9434142
Probable space group: P B C M
;
_chemical_formula_sum "Si O2"
_cell_formula_units_Z 60
_cell_length_a 8.694804
_cell_length_b 20.019342
_cell_length_c 14.314845
_cell_angle_alpha 90.000000
_cell_angle_beta 90.000000
_cell_angle_gamma 90.000000
_cell_volume 2491.702829
_symmetry_space_group_name_H-M "P B C M"
_symmetry_group_IT_number 57
_symmetry_cell_setting 'orthorhombic'
loop_
_space_group_symop_operation_xyz
x,y,z
-x,-y,1/2+z
x,1/2-y,-z
-x,1/2+y,1/2-z
-x,-y,-z
x,y,1/2-z
-x,1/2+y,z
x,1/2-y,1/2+z
loop_
_atom_site_type_symbol
_atom_site_label
_atom_site_fract_x
_atom_site_fract_y
_atom_site_fract_z
Si Si1 0.568637 0.360072 0.113883
Si Si2 0.189373 0.293502 0.861376
Si Si3 0.038991 0.065497 0.360580
Si Si4 0.802534 0.647816 0.642248
Si Si5 0.506627 0.000869 0.353324
Si Si6 0.197899 0.016436 0.534922
Si Si7 0.652841 0.245105 0.250000
Si Si8 0.490200 0.650291 0.402653
O O1 0.385106 0.348484 0.137080
O O2 0.601759 0.436232 0.143216
O O3 0.659097 0.304164 0.169358
O O4 0.584996 0.354780 0.003429
O O5 0.229013 0.288580 0.750000
O O6 0.076553 0.355986 0.870831
O O7 0.134127 0.219919 0.888158
O O8 0.348917 0.310128 0.911550
O O9 0.045938 0.049979 0.250000
O O10 0.155084 0.023831 0.427150
O O11 0.880425 0.043735 0.408869
O O12 0.843828 0.636045 0.750000
O O13 0.857349 0.586437 0.580364
O O14 0.583203 0.996566 0.250000
O O15 0.459173 0.077431 0.364705
O O16 0.626189 0.987323 0.436590
O O17 0.617019 0.188484 0.169250
#
# Coordination Sequence:
#
# PCOD9434142 Si02
#       8
#     8   8   8   8   8   8   4   8
#     4  11  20  33  54  78 113 145 186 233 287 332
#     4  10  18  32  53  85 115 139 171 223 289 326
#     4  10  21  36  54  84 114 143 176 232 279 331
#     4  10  17  32  55  83 110 140 179 233 277 326
#     4  11  21  38  57  82 114 151 191 235 277 343
#     4  10  21  36  59  84 106 146 192 222 279 331
#     4  12  20  36  50  82 114 150 184 240 286 328
#     4  12  22  34  55  86 116 149 186 232 289 347
#
# _framework density 24.079920000000001
#
# number of rings (size 3 to 8) (size 9 to 14) (size 15 to 20)
#    0.000    1.333    4.000    4.400    0.000    1.600 
#    0.000    0.000    1.467    0.000   17.333    0.000 
#    0.000    0.000    0.000    0.000    0.000    0.000 
#
# Total GULP energy -334580.659314 kJ/mol
# GULP energy per Si atom -5576.344322 kJ/mol
# Density = 2.402511 g / cm^3
# Si number density = 24.079920 Si / 1000 Ang^3
#
#
#
# Elastic Constant Matrix: (Units=GPa)
#
#
# Indices 1 2 3 4 5 6 
#
# 1 14.3221 16.1589 15.6181 0.0000 0.0000 0.0000
# 2 16.1589 157.4332 59.6091 0.0000 0.0000 0.0000
# 3 15.6181 59.6091 159.4302 0.0000 0.0000 0.0000
# 4 0.0000 0.0000 0.0000 35.4704 0.0000 0.0000
# 5 0.0000 0.0000 0.0000 0.0000 11.4786 0.0000
# 6 0.0000 0.0000 0.0000 0.0000 0.0000 16.2598
#
#
#
# Elastic Compliance Matrix: (Units=1/GPa)
#
#
# Indices 1 2 3 4 5 6 
#
# 1 0.083304 -0.006361 -0.005782 0.000000 0.000000 0.000000
# 2 -0.006361 0.007885 -0.002325 0.000000 0.000000 0.000000
# 3 -0.005782 -0.002325 0.007708 0.000000 0.000000 0.000000
# 4 0.000000 0.000000 0.000000 0.028193 0.000000 0.000000
# 5 0.000000 0.000000 0.000000 0.000000 0.087119 0.000000
# 6 0.000000 0.000000 0.000000 0.000000 0.000000 0.061501
#
#
# Mechanical properties :
#
#
# Convention : Reuss Voigt Hill
#
# Bulk Modulus (GPa) = 14.29369 57.10640 35.70004
# Shear Modulus (GPa) = 15.24542 28.62839 21.93691
#
# Velocity S-wave (km/s) = 2.51891 3.45177 3.02156
# Velocity P-wave (km/s) = 3.79588 6.29707 5.19913
#
# Compressibility (1/GPa) = 0.06996096
#
# Stress axis : x y z
#
# Youngs Moduli (GPa) = 12.00416 126.82129 129.73384
#
# Poissons Ratio (x) = 0.80670 0.75017
# Poissons Ratio (y) = 0.07636 0.30163
# Poissons Ratio (z) = 0.06941 0.29486
#
# Static dielectric constant tensor:
#      x y z
#    x 2.009280 0.000000 0.000000 
#    y 0.000000 1.933240 0.000000 
#    z 0.000000 0.000000 1.914540 
# 
# From -- ./inp_files/17895.got.cif
#   From: 2010.05.17/outbox.cif.g08.bks.cpg/sg57_9_cif.got.tgz:17895.got - 2010.06.03 13:58:18.
