data_PCOD9434324
_publ_section_title
;
Structure prediction by ZEFSAII (Michael W. Deem and Ramdas Pophale) SiO2 
 PCOD9434324
Probable space group: P B C M
;
_chemical_formula_sum "Si O2"
_cell_formula_units_Z 56
_cell_length_a 18.306110
_cell_length_b 20.430018
_cell_length_c 9.174581
_cell_angle_alpha 90.000000
_cell_angle_beta 90.000000
_cell_angle_gamma 90.000000
_cell_volume 3431.239685
_symmetry_space_group_name_H-M "P B C M"
_symmetry_group_IT_number 57
_symmetry_cell_setting 'orthorhombic'
loop_
_space_group_symop_operation_xyz
x,y,z
-x,-y,1/2+z
x,1/2-y,-z
-x,1/2+y,1/2-z
-x,-y,-z
x,y,1/2-z
-x,1/2+y,z
x,1/2-y,1/2+z
loop_
_atom_site_type_symbol
_atom_site_label
_atom_site_fract_x
_atom_site_fract_y
_atom_site_fract_z
Si Si1 0.333808 0.440837 0.417822
Si Si2 0.960906 0.938369 0.424631
Si Si3 0.217107 0.885877 0.422866
Si Si4 0.494455 0.071195 0.575128
Si Si5 0.189416 0.458733 0.921445
Si Si6 0.636293 0.401755 0.581241
Si Si7 0.932861 0.318033 0.075278
O O1 0.314812 0.425903 0.250000
O O2 0.411097 0.406804 0.454512
O O3 0.265529 0.428823 0.521822
O O4 0.349858 0.519279 0.424114
O O5 0.960215 0.947216 0.250000
O O6 0.879440 0.934066 0.487392
O O7 0.008569 0.874276 0.458960
O O8 0.000000 0.000000 0.500000
O O9 0.229594 0.876994 0.250000
O O10 0.291354 0.871864 0.509233
O O11 0.147687 0.843263 0.469431
O O12 0.195913 0.962464 0.443146
O O13 0.502329 0.064911 0.750000
O O14 0.561860 0.110950 0.507528
O O15 0.500000 0.000000 0.500000
O O16 0.178962 0.447194 0.750000
O O17 0.628330 0.383644 0.750000
O O18 0.931769 0.310486 0.250000
O O19 0.950291 0.250000 0.000000
#
# Coordination Sequence:
#
# PCOD9434324 Si02
#       7
#     8   8   8   8   8   8   8
#     4   8  15  25  36  56  86 120 156 192 234 283
#     4  11  21  35  53  74  99 126 164 207 250 300
#     4   9  17  31  46  64  93 123 158 199 239 286
#     4   9  15  23  35  53  81 118 156 191 233 280
#     4  10  18  29  46  69  94 123 160 201 246 292
#     4   9  16  24  37  59  84 116 158 193 231 280
#     4  10  22  38  53  73  99 129 164 205 252 301
#
# _framework density 16.320630999999999
#
# number of rings (size 3 to 8) (size 9 to 14) (size 15 to 20)
#    0.000    2.571    1.429    2.571    0.000    6.286 
#    0.000    0.000    0.000    0.000    0.000    0.000 
#    0.000    1.143    0.000    3.714    0.000    5.571 
#
# Total GULP energy -312003.009001 kJ/mol
# GULP energy per Si atom -5571.482304 kJ/mol
# Density = 1.628348 g / cm^3
# Si number density = 16.320631 Si / 1000 Ang^3
#
#
#
# Elastic Constant Matrix: (Units=GPa)
#
#
# Indices 1 2 3 4 5 6 
#
# 1 148.2319 43.4320 78.8942 0.0000 0.0000 0.0000
# 2 43.4320 47.8265 38.1745 0.0000 0.0000 0.0000
# 3 78.8942 38.1745 80.6397 0.0000 0.0000 0.0000
# 4 0.0000 0.0000 0.0000 15.0898 0.0000 0.0000
# 5 0.0000 0.0000 0.0000 0.0000 34.4670 0.0000
# 6 0.0000 0.0000 0.0000 0.0000 0.0000 10.0847
#
#
#
# Elastic Compliance Matrix: (Units=1/GPa)
#
#
# Indices 1 2 3 4 5 6 
#
# 1 0.014326 -0.002929 -0.012630 0.000000 0.000000 0.000000
# 2 -0.002929 0.034207 -0.013328 0.000000 0.000000 0.000000
# 3 -0.012630 -0.013328 0.031066 0.000000 0.000000 0.000000
# 4 0.000000 0.000000 0.000000 0.066270 0.000000 0.000000
# 5 0.000000 0.000000 0.000000 0.000000 0.029013 0.000000
# 6 0.000000 0.000000 0.000000 0.000000 0.000000 0.099160
#
#
# Mechanical properties :
#
#
# Convention : Reuss Voigt Hill
#
# Bulk Modulus (GPa) = 45.81535 66.41105 56.11320
# Shear Modulus (GPa) = 14.74529 19.67478 17.21004
#
# Velocity S-wave (km/s) = 3.00905 3.47582 3.25082
# Velocity P-wave (km/s) = 6.34078 7.54243 6.96756
#
# Compressibility (1/GPa) = 0.02182674
#
# Stress axis : x y z
#
# Youngs Moduli (GPa) = 69.80161 29.23392 32.18935
#
# Poissons Ratio (x) = 0.08563 0.40654
# Poissons Ratio (y) = 0.20446 0.42900
# Poissons Ratio (z) = 0.88156 0.38962
#
# Static dielectric constant tensor:
#      x y z
#    x 1.584170 0.000000 0.000000 
#    y 0.000000 1.521240 0.000000 
#    z 0.000000 0.000000 1.546270 
# 
# From -- ./inp_files/6986.got.cif
#   From: 2010.05.17/outbox.cif.g08.bks.cpg/sg57_4_cif.got.tgz:6986.got - 2010.06.03 13:58:18.
