data_PCOD9434076
_publ_section_title
;
Structure prediction by ZEFSAII (Michael W. Deem and Ramdas Pophale) SiO2 
 PCOD9434076
Probable space group: P B C M
;
_chemical_formula_sum "Si O2"
_cell_formula_units_Z 40
_cell_length_a 15.498844
_cell_length_b 14.879997
_cell_length_c 8.697986
_cell_angle_alpha 90.000000
_cell_angle_beta 90.000000
_cell_angle_gamma 90.000000
_cell_volume 2005.953470
_symmetry_space_group_name_H-M "P B C M"
_symmetry_group_IT_number 57
_symmetry_cell_setting 'orthorhombic'
loop_
_space_group_symop_operation_xyz
x,y,z
-x,-y,1/2+z
x,1/2-y,-z
-x,1/2+y,1/2-z
-x,-y,-z
x,y,1/2-z
-x,1/2+y,z
x,1/2-y,1/2+z
loop_
_atom_site_type_symbol
_atom_site_label
_atom_site_fract_x
_atom_site_fract_y
_atom_site_fract_z
Si Si1 0.409345 0.147997 0.066482
Si Si2 0.230485 0.350204 0.434120
Si Si3 0.776307 0.350718 0.065816
Si Si4 0.415143 0.648344 0.565672
Si Si5 0.095755 0.997032 0.566232
O O1 0.408892 0.149527 0.250000
O O2 0.409111 0.250000 0.000000
O O3 0.319345 0.110380 0.003768
O O4 0.498873 0.106400 0.006913
O O5 0.218369 0.250000 0.500000
O O6 0.239502 0.345045 0.250000
O O7 0.150491 0.413797 0.473838
O O8 0.782220 0.346898 0.250000
O O9 0.680011 0.387860 0.027339
O O10 0.783358 0.250000 0.000000
O O11 0.849903 0.413717 0.998681
O O12 0.412340 0.750000 0.500000
O O13 0.424701 0.650207 0.750000
O O14 0.092009 0.990786 0.750000
O O15 0.000000 0.000000 0.500000
#
# Coordination Sequence:
#
# PCOD9434076 Si02
#       5
#     8   8   8   8   8
#     4  10  17  27  49  80 114 152 189 229 276 332
#     4  10  21  38  60  86 115 151 191 235 286 341
#     4  10  21  38  62  89 119 155 195 238 288 343
#     4   9  16  28  49  79 114 151 189 230 275 331
#     4  11  25  43  63  86 115 149 191 244 298 351
#
# _framework density 19.940642
#
# number of rings (size 3 to 8) (size 9 to 14) (size 15 to 20)
#    0.000    2.000    0.000    6.600    0.000    6.400 
#    0.000    3.000    0.000    0.000    0.000    0.000 
#    0.000    0.000    0.000    0.000    0.000    0.000 
#
# Total GULP energy -223389.406443 kJ/mol
# GULP energy per Si atom -5584.735161 kJ/mol
# Density = 1.989526 g / cm^3
# Si number density = 19.940642 Si / 1000 Ang^3
#
#
#
# Elastic Constant Matrix: (Units=GPa)
#
#
# Indices 1 2 3 4 5 6 
#
# 1 245.3752 81.6391 89.8233 0.0000 0.0000 0.0000
# 2 81.6391 101.0915 42.1065 0.0000 0.0000 0.0000
# 3 89.8233 42.1065 97.4985 0.0000 0.0000 0.0000
# 4 0.0000 0.0000 0.0000 18.2279 0.0000 0.0000
# 5 0.0000 0.0000 0.0000 0.0000 41.4007 0.0000
# 6 0.0000 0.0000 0.0000 0.0000 0.0000 39.7154
#
#
#
# Elastic Compliance Matrix: (Units=1/GPa)
#
#
# Indices 1 2 3 4 5 6 
#
# 1 0.007119 -0.003679 -0.004969 0.000000 0.000000 0.000000
# 2 -0.003679 0.013963 -0.002641 0.000000 0.000000 0.000000
# 3 -0.004969 -0.002641 0.015975 0.000000 0.000000 0.000000
# 4 0.000000 0.000000 0.000000 0.054861 0.000000 0.000000
# 5 0.000000 0.000000 0.000000 0.000000 0.024154 0.000000
# 6 0.000000 0.000000 0.000000 0.000000 0.000000 0.025179
#
#
# Mechanical properties :
#
#
# Convention : Reuss Voigt Hill
#
# Bulk Modulus (GPa) = 69.06790 96.78923 82.92856
# Shear Modulus (GPa) = 29.64623 35.22855 32.43739
#
# Velocity S-wave (km/s) = 3.85999 4.20774 4.03761
# Velocity P-wave (km/s) = 7.38769 8.50005 7.96331
#
# Compressibility (1/GPa) = 0.01447851
#
# Stress axis : x y z
#
# Youngs Moduli (GPa) = 140.47892 71.61783 62.59698
#
# Poissons Ratio (x) = 0.26348 0.31106
# Poissons Ratio (y) = 0.51681 0.16531
# Poissons Ratio (z) = 0.69809 0.18913
#
# Static dielectric constant tensor:
#      x y z
#    x 1.727870 0.000000 0.000000 
#    y 0.000000 1.777010 0.000000 
#    z 0.000000 0.000000 1.662180 
# 
# From -- ./inp_files/4284.got.cif
#   From: 2010.05.17/outbox.cif.g08.bks.cpg/sg57_3_cif.got.tgz:4284.got - 2010.06.03 13:58:18.
