data_PCOD9434138
_publ_section_title
;
Structure prediction by ZEFSAII (Michael W. Deem and Ramdas Pophale) SiO2 
 PCOD9434138
Probable space group: P B C M
;
_chemical_formula_sum "Si O2"
_cell_formula_units_Z 64
_cell_length_a 9.240507
_cell_length_b 15.393046
_cell_length_c 20.027190
_cell_angle_alpha 90.000000
_cell_angle_beta 90.000000
_cell_angle_gamma 90.000000
_cell_volume 2848.658480
_symmetry_space_group_name_H-M "P B C M"
_symmetry_group_IT_number 57
_symmetry_cell_setting 'orthorhombic'
loop_
_space_group_symop_operation_xyz
x,y,z
-x,-y,1/2+z
x,1/2-y,-z
-x,1/2+y,1/2-z
-x,-y,-z
x,y,1/2-z
-x,1/2+y,z
x,1/2-y,1/2+z
loop_
_atom_site_type_symbol
_atom_site_label
_atom_site_fract_x
_atom_site_fract_y
_atom_site_fract_z
Si Si1 0.633953 0.790786 0.584166
Si Si2 0.192776 0.043379 0.130514
Si Si3 0.155946 0.916126 0.020346
Si Si4 0.916093 0.370857 0.868853
Si Si5 0.596365 0.346337 0.676633
Si Si6 0.926794 0.790114 0.425890
Si Si7 0.530146 0.458284 0.324248
Si Si8 0.514148 0.401641 0.469949
O O1 0.720039 0.867443 0.623097
O O2 0.482666 0.785150 0.623292
O O3 0.755708 0.715356 0.588482
O O4 0.582963 0.836674 0.514270
O O5 0.036942 0.064781 0.160771
O O6 0.174928 0.009790 0.054147
O O7 0.297127 0.975731 0.167208
O O8 0.316542 0.874571 0.025135
O O9 0.028391 0.873558 0.064993
O O10 0.118386 0.908875 0.942803
O O11 0.766870 0.354893 0.832582
O O12 0.991806 0.277794 0.878727
O O13 0.558787 0.314183 0.750000
O O14 0.540480 0.445670 0.670776
O O15 0.933345 0.750000 0.500000
O O16 0.499086 0.423361 0.250000
O O17 0.481729 0.409948 0.391362
O O18 0.500000 0.500000 0.500000
#
# Coordination Sequence:
#
# PCOD9434138 Si02
#       8
#     8   8   8   8   8   8   8   8
#     4  10  18  35  54  83 113 147 191 238 286 351
#     4   9  18  29  55  79 111 148 182 223 288 347
#     4  10  17  32  53  84 116 148 183 238 293 344
#     4  10  18  32  51  79 113 142 184 236 285 342
#     4  10  19  32  53  81 111 146 190 242 287 334
#     4   9  21  36  49  79 117 146 187 238 288 346
#     4   9  18  31  49  80 118 143 176 230 287 343
#     4  11  16  31  59  88 114 148 191 236 299 349
#
# _framework density 22.466715000000001
#
# number of rings (size 3 to 8) (size 9 to 14) (size 15 to 20)
#    0.000    2.250    5.000    0.375    0.000    0.500 
#    2.250    1.875    0.000    6.000    0.000    3.500 
#    0.000    0.000    0.000    0.000    0.000    0.000 
#
# Total GULP energy -356753.514580 kJ/mol
# GULP energy per Si atom -5574.273665 kJ/mol
# Density = 2.241558 g / cm^3
# Si number density = 22.466715 Si / 1000 Ang^3
#
#
#
# Elastic Constant Matrix: (Units=GPa)
#
#
# Indices 1 2 3 4 5 6 
#
# 1 155.3931 29.1145 32.2107 0.0000 0.0000 0.0000
# 2 29.1145 45.1206 7.4428 0.0000 0.0000 0.0000
# 3 32.2107 7.4428 104.2933 0.0000 0.0000 0.0000
# 4 0.0000 0.0000 0.0000 5.5734 0.0000 0.0000
# 5 0.0000 0.0000 0.0000 0.0000 8.9438 0.0000
# 6 0.0000 0.0000 0.0000 0.0000 0.0000 35.4373
#
#
#
# Elastic Compliance Matrix: (Units=1/GPa)
#
#
# Indices 1 2 3 4 5 6 
#
# 1 0.007733 -0.004650 -0.002056 0.000000 0.000000 0.000000
# 2 -0.004650 0.025224 -0.000364 0.000000 0.000000 0.000000
# 3 -0.002056 -0.000364 0.010249 0.000000 0.000000 0.000000
# 4 0.000000 0.000000 0.000000 0.179423 0.000000 0.000000
# 5 0.000000 0.000000 0.000000 0.000000 0.111809 0.000000
# 6 0.000000 0.000000 0.000000 0.000000 0.000000 0.028219
#
#
# Mechanical properties :
#
#
# Convention : Reuss Voigt Hill
#
# Bulk Modulus (GPa) = 34.40618 49.14923 41.77771
# Shear Modulus (GPa) = 12.93709 25.72684 19.33197
#
# Velocity S-wave (km/s) = 2.40226 3.38762 2.93656
# Velocity P-wave (km/s) = 4.80021 6.10125 5.48941
#
# Compressibility (1/GPa) = 0.02906454
#
# Stress axis : x y z
#
# Youngs Moduli (GPa) = 129.31807 39.64545 97.56648
#
# Poissons Ratio (x) = 0.18437 0.20064
# Poissons Ratio (y) = 0.60139 0.03549
# Poissons Ratio (z) = 0.26593 0.01442
#
# Static dielectric constant tensor:
#      x y z
#    x 1.909900 0.000000 0.000000 
#    y 0.000000 1.903480 0.000000 
#    z 0.000000 0.000000 1.867740 
# 
# From -- ./inp_files/24578.got.cif
#   From: 2010.05.17/outbox.cif.g08.bks.cpg/sg57_13_cif.got.tgz:24578.got - 2010.06.03 13:58:18.
