data_PCOD9434282
_publ_section_title
;
Structure prediction by ZEFSAII (Michael W. Deem and Ramdas Pophale) SiO2 
 PCOD9434282
Probable space group: P B C M
;
_chemical_formula_sum "Si O2"
_cell_formula_units_Z 56
_cell_length_a 14.472686
_cell_length_b 21.443890
_cell_length_c 7.885921
_cell_angle_alpha 90.000000
_cell_angle_beta 90.000000
_cell_angle_gamma 90.000000
_cell_volume 2447.400997
_symmetry_space_group_name_H-M "P B C M"
_symmetry_group_IT_number 57
_symmetry_cell_setting 'orthorhombic'
loop_
_space_group_symop_operation_xyz
x,y,z
-x,-y,1/2+z
x,1/2-y,-z
-x,1/2+y,1/2-z
-x,-y,-z
x,y,1/2-z
-x,1/2+y,z
x,1/2-y,1/2+z
loop_
_atom_site_type_symbol
_atom_site_label
_atom_site_fract_x
_atom_site_fract_y
_atom_site_fract_z
Si Si1 0.229477 0.139676 0.454122
Si Si2 0.424163 0.182171 0.548955
Si Si3 0.445487 0.579286 0.558187
Si Si4 0.310897 0.819996 0.556012
Si Si5 0.862757 0.098599 0.053833
Si Si6 0.027666 0.179223 0.455204
Si Si7 0.714915 0.996088 0.548385
O O1 0.222578 0.136184 0.250000
O O2 0.317499 0.180796 0.499130
O O3 0.131774 0.165676 0.516310
O O4 0.254272 0.070610 0.520409
O O5 0.464085 0.250000 0.500000
O O6 0.433902 0.177240 0.750000
O O7 0.471090 0.118733 0.475301
O O8 0.470729 0.560748 0.750000
O O9 0.369317 0.634491 0.561384
O O10 0.382928 0.523898 0.478637
O O11 0.319550 0.750000 0.500000
O O12 0.343014 0.828886 0.750000
O O13 0.205488 0.842068 0.549768
O O14 0.877938 0.080562 0.250000
O O15 0.958225 0.125106 0.980721
O O16 0.800553 0.043637 0.976564
O O17 0.000779 0.250000 0.500000
O O18 0.025492 0.175350 0.250000
O O19 0.700182 0.990761 0.750000
#
# Coordination Sequence:
#
# PCOD9434282 Si02
#       7
#     8   8   8   8   8   8   8
#     4  10  22  39  58  80 110 147 185 228 272 318
#     4  11  23  38  57  81 108 141 182 227 275 325
#     4   9  19  35  54  77 107 141 177 219 268 325
#     4  10  18  28  46  73 104 138 174 215 265 318
#     4   9  19  34  52  77 109 141 176 221 268 319
#     4  10  21  37  56  80 110 144 183 226 273 322
#     4   9  19  37  58  82 112 145 181 220 269 327
#
# _framework density 22.881416999999999
#
# number of rings (size 3 to 8) (size 9 to 14) (size 15 to 20)
#    0.000    2.286    0.000    2.143    0.000    6.857 
#    0.000    0.000    0.000    0.000    0.000    0.000 
#    0.000    0.000    0.000    0.000    0.000    0.000 
#
# Total GULP energy -312486.703881 kJ/mol
# GULP energy per Si atom -5580.119712 kJ/mol
# Density = 2.282934 g / cm^3
# Si number density = 22.881417 Si / 1000 Ang^3
#
#
#
# Elastic Constant Matrix: (Units=GPa)
#
#
# Indices 1 2 3 4 5 6 
#
# 1 88.1307 20.1167 11.2728 0.0000 0.0000 0.0000
# 2 20.1167 116.6071 -0.2664 0.0000 0.0000 0.0000
# 3 11.2728 -0.2664 38.6449 0.0000 0.0000 0.0000
# 4 0.0000 0.0000 0.0000 17.3257 0.0000 0.0000
# 5 0.0000 0.0000 0.0000 0.0000 38.2096 0.0000
# 6 0.0000 0.0000 0.0000 0.0000 0.0000 14.1387
#
#
#
# Elastic Compliance Matrix: (Units=1/GPa)
#
#
# Indices 1 2 3 4 5 6 
#
# 1 0.012293 -0.002129 -0.003601 0.000000 0.000000 0.000000
# 2 -0.002129 0.008945 0.000683 0.000000 0.000000 0.000000
# 3 -0.003601 0.000683 0.026932 0.000000 0.000000 0.000000
# 4 0.000000 0.000000 0.000000 0.057718 0.000000 0.000000
# 5 0.000000 0.000000 0.000000 0.000000 0.026171 0.000000
# 6 0.000000 0.000000 0.000000 0.000000 0.000000 0.070728
#
#
# Mechanical properties :
#
#
# Convention : Reuss Voigt Hill
#
# Bulk Modulus (GPa) = 26.26349 33.95876 30.11113
# Shear Modulus (GPa) = 22.16581 28.08543 25.12562
#
# Velocity S-wave (km/s) = 3.11581 3.50728 3.31732
# Velocity P-wave (km/s) = 4.94443 5.59238 5.27836
#
# Compressibility (1/GPa) = 0.03807567
#
# Stress axis : x y z
#
# Youngs Moduli (GPa) = 81.34504 111.79848 37.13102
#
# Poissons Ratio (x) = 0.23802 0.13370
# Poissons Ratio (y) = 0.17319 -0.02535
# Poissons Ratio (z) = 0.29289 -0.07632
#
# Static dielectric constant tensor:
#      x y z
#    x 1.890800 0.000000 0.000000 
#    y 0.000000 1.857050 0.000000 
#    z 0.000000 0.000000 1.970950 
# 
# From -- ./inp_files/5147.got.cif
#   From: 2010.05.17/outbox.cif.g08.bks.cpg/sg57_3_cif.got.tgz:5147.got - 2010.06.03 13:58:18.
