data_PCOD9434630
_publ_section_title
;
Structure prediction by ZEFSAII (Michael W. Deem and Ramdas Pophale) SiO2 
 PCOD9434630
Probable space group: P B C M
;
_chemical_formula_sum "Si O2"
_cell_formula_units_Z 56
_cell_length_a 20.721432
_cell_length_b 5.403218
_cell_length_c 25.021522
_cell_angle_alpha 90.000000
_cell_angle_beta 90.000000
_cell_angle_gamma 90.000000
_cell_volume 2801.470014
_symmetry_space_group_name_H-M "P B C M"
_symmetry_group_IT_number 57
_symmetry_cell_setting 'orthorhombic'
loop_
_space_group_symop_operation_xyz
x,y,z
-x,-y,1/2+z
x,1/2-y,-z
-x,1/2+y,1/2-z
-x,-y,-z
x,y,1/2-z
-x,1/2+y,z
x,1/2-y,1/2+z
loop_
_atom_site_type_symbol
_atom_site_label
_atom_site_fract_x
_atom_site_fract_y
_atom_site_fract_z
Si Si1 0.291440 0.858527 0.056569
Si Si2 0.238444 0.015996 0.750000
Si Si3 0.459449 0.455521 0.312880
Si Si4 0.778252 0.540974 0.866684
Si Si5 0.157682 0.123869 0.053561
Si Si6 0.025955 0.544003 0.938927
Si Si7 0.352190 0.161112 0.359503
Si Si8 0.322022 0.525007 0.750000
O O1 0.257193 0.670410 0.098547
O O2 0.349461 0.996668 0.087391
O O3 0.229372 0.026542 0.041870
O O4 0.313421 0.750000 0.000000
O O5 0.202389 0.975365 0.693710
O O6 0.271883 0.290098 0.750000
O O7 0.290863 0.794981 0.750000
O O8 0.439274 0.448184 0.250000
O O9 0.492894 0.719998 0.321438
O O10 0.400250 0.390433 0.352072
O O11 0.833445 0.674892 0.900218
O O12 0.720681 0.738617 0.859290
O O13 0.103135 0.921208 0.064771
O O14 0.133111 0.250000 0.000000
O O15 0.009059 0.278736 0.914145
O O16 0.000000 0.500000 0.000000
O O17 0.361209 0.005838 0.304911
#
# Coordination Sequence:
#
# PCOD9434630 Si02
#       8
#     8   4   8   8   8   8   8   4
#     4  11  22  33  56  81 116 159 195 241 295 352
#     4  10  20  36  52  81 114 145 202 220 299 348
#     4  10  22  37  59  89 116 146 189 243 299 353
#     4  10  22  35  56  83 114 160 190 243 299 348
#     4  11  21  34  53  84 125 153 194 247 292 353
#     4  10  21  33  53  82 113 159 193 231 293 352
#     4  10  21  36  54  84 115 153 189 236 298 359
#     4  10  18  32  56  79 110 149 180 234 277 360
#
# _framework density 19.989505000000001
#
# number of rings (size 3 to 8) (size 9 to 14) (size 15 to 20)
#    0.000    1.714    5.000    0.000    6.000    0.000 
#    0.000    0.000    0.000    0.857    0.000    1.000 
#    0.000    0.000    0.000    0.000    0.000    0.000 
#
# Total GULP energy -312086.858174 kJ/mol
# GULP energy per Si atom -5572.979610 kJ/mol
# Density = 1.994401 g / cm^3
# Si number density = 19.989505 Si / 1000 Ang^3
#
#
#
# Elastic Constant Matrix: (Units=GPa)
#
#
# Indices 1 2 3 4 5 6 
#
# 1 48.4173 11.8722 4.4626 0.0000 0.0000 0.0000
# 2 11.8722 73.8561 13.9436 0.0000 0.0000 0.0000
# 3 4.4626 13.9436 99.3926 0.0000 0.0000 0.0000
# 4 0.0000 0.0000 0.0000 19.1013 0.0000 0.0000
# 5 0.0000 0.0000 0.0000 0.0000 1.7929 0.0000
# 6 0.0000 0.0000 0.0000 0.0000 0.0000 24.3402
#
#
#
# Elastic Compliance Matrix: (Units=1/GPa)
#
#
# Indices 1 2 3 4 5 6 
#
# 1 0.021525 -0.003367 -0.000494 0.000000 0.000000 0.000000
# 2 -0.003367 0.014435 -0.001874 0.000000 0.000000 0.000000
# 3 -0.000494 -0.001874 0.010346 0.000000 0.000000 0.000000
# 4 0.000000 0.000000 0.000000 0.052352 0.000000 0.000000
# 5 0.000000 0.000000 0.000000 0.000000 0.557768 0.000000
# 6 0.000000 0.000000 0.000000 0.000000 0.000000 0.041084
#
#
# Mechanical properties :
#
#
# Convention : Reuss Voigt Hill
#
# Bulk Modulus (GPa) = 28.70568 31.35809 30.03189
# Shear Modulus (GPa) = 6.93874 21.80604 14.37239
#
# Velocity S-wave (km/s) = 1.86513 3.30642 2.68432
# Velocity P-wave (km/s) = 4.36232 5.50435 4.96627
#
# Compressibility (1/GPa) = 0.03483631
#
# Stress axis : x y z
#
# Youngs Moduli (GPa) = 46.45786 69.27686 96.65406
#
# Poissons Ratio (x) = 0.23324 0.04776
# Poissons Ratio (y) = 0.15641 0.18112
# Poissons Ratio (z) = 0.02296 0.12982
#
# Static dielectric constant tensor:
#      x y z
#    x 1.711180 0.000000 0.000000 
#    y 0.000000 1.874160 0.000000 
#    z 0.000000 0.000000 1.760200 
# 
# From -- ./inp_files/27653.got.cif
#   From: 2010.05.17/outbox.cif.g08.bks.cpg/sg57_14_cif.got.tgz:27653.got - 2010.06.03 13:58:18.
