data_PCOD9434787
_publ_section_title
;
Structure prediction by ZEFSAII (Michael W. Deem and Ramdas Pophale) SiO2 
 PCOD9434787
Probable space group: P B C M
;
_chemical_formula_sum "Si O2"
_cell_formula_units_Z 48
_cell_length_a 8.861102
_cell_length_b 13.382665
_cell_length_c 18.608489
_cell_angle_alpha 90.000000
_cell_angle_beta 90.000000
_cell_angle_gamma 90.000000
_cell_volume 2206.690638
_symmetry_space_group_name_H-M "P B C M"
_symmetry_group_IT_number 57
_symmetry_cell_setting 'orthorhombic'
loop_
_space_group_symop_operation_xyz
x,y,z
-x,-y,1/2+z
x,1/2-y,-z
-x,1/2+y,1/2-z
-x,-y,-z
x,y,1/2-z
-x,1/2+y,z
x,1/2-y,1/2+z
loop_
_atom_site_type_symbol
_atom_site_label
_atom_site_fract_x
_atom_site_fract_y
_atom_site_fract_z
Si Si1 0.803378 0.423877 0.830894
Si Si2 0.079226 0.379758 0.934467
Si Si3 0.349225 0.796181 0.331695
Si Si4 0.625723 0.773114 0.915375
Si Si5 0.825096 0.104242 0.541893
Si Si6 0.417389 0.940712 0.938059
O O1 0.823648 0.460322 0.750000
O O2 0.716544 0.317044 0.828437
O O3 0.693635 0.491443 0.880617
O O4 0.959359 0.406010 0.872250
O O5 0.196340 0.295060 0.908974
O O6 0.163062 0.484061 0.952840
O O7 0.981184 0.359302 0.006624
O O8 0.355456 0.834019 0.250000
O O9 0.516190 0.797006 0.368168
O O10 0.232438 0.853665 0.383130
O O11 0.547908 0.879802 0.899688
O O12 0.604676 0.750000 0.000000
O O13 0.698541 0.129582 0.482331
O O14 0.500000 0.000000 0.000000
#
# Coordination Sequence:
#
# PCOD9434787 Si02
#       6
#     8   8   8   8   8   8
#     4   9  21  38  56  83 120 158 192 241 305 368
#     4  10  22  34  61  91 118 155 204 254 304 371
#     4  10  22  40  59  82 119 162 202 249 309 372
#     4  11  21  34  60  89 112 152 203 255 298 357
#     4  10  20  38  57  87 120 156 202 252 305 366
#     4  10  18  35  60  82 114 148 197 243 288 352
#
# _framework density 21.752029
#
# number of rings (size 3 to 8) (size 9 to 14) (size 15 to 20)
#    0.000    2.000    3.333    0.000    2.333    1.333 
#    0.000    0.833    0.000    0.000    0.000    0.000 
#    0.000    0.000    0.000    0.000    0.000    0.000 
#
# Total GULP energy -267521.307497 kJ/mol
# GULP energy per Si atom -5573.360573 kJ/mol
# Density = 2.170252 g / cm^3
# Si number density = 21.752029 Si / 1000 Ang^3
#
#
#
# Elastic Constant Matrix: (Units=GPa)
#
#
# Indices 1 2 3 4 5 6 
#
# 1 151.6107 20.0840 68.2404 0.0000 0.0000 0.0000
# 2 20.0840 36.5746 7.8090 0.0000 0.0000 0.0000
# 3 68.2404 7.8090 179.0714 0.0000 0.0000 0.0000
# 4 0.0000 0.0000 0.0000 21.3297 0.0000 0.0000
# 5 0.0000 0.0000 0.0000 0.0000 20.8912 0.0000
# 6 0.0000 0.0000 0.0000 0.0000 0.0000 29.5817
#
#
#
# Elastic Compliance Matrix: (Units=1/GPa)
#
#
# Indices 1 2 3 4 5 6 
#
# 1 0.008509 -0.004017 -0.003067 0.000000 0.000000 0.000000
# 2 -0.004017 0.029495 0.000245 0.000000 0.000000 0.000000
# 3 -0.003067 0.000245 0.006743 0.000000 0.000000 0.000000
# 4 0.000000 0.000000 0.000000 0.046883 0.000000 0.000000
# 5 0.000000 0.000000 0.000000 0.000000 0.047867 0.000000
# 6 0.000000 0.000000 0.000000 0.000000 0.000000 0.033805
#
#
# Mechanical properties :
#
#
# Convention : Reuss Voigt Hill
#
# Bulk Modulus (GPa) = 32.18904 62.16928 47.17916
# Shear Modulus (GPa) = 25.33743 32.43541 28.88642
#
# Velocity S-wave (km/s) = 3.41666 3.86572 3.64811
# Velocity P-wave (km/s) = 5.51317 6.96908 6.28344
#
# Compressibility (1/GPa) = 0.03106648
#
# Stress axis : x y z
#
# Youngs Moduli (GPa) = 117.52795 33.90381 148.31159
#
# Poissons Ratio (x) = 0.13621 0.45491
# Poissons Ratio (y) = 0.47216 -0.03629
# Poissons Ratio (z) = 0.36049 -0.00830
#
# Static dielectric constant tensor:
#      x y z
#    x 1.828830 0.000000 0.000000 
#    y 0.000000 1.923880 0.000000 
#    z 0.000000 0.000000 1.816880 
# 
# From -- ./inp_files/21106.got.cif
#   From: 2010.05.17/outbox.cif.g08.bks.cpg/sg57_11_cif.got.tgz:21106.got - 2010.06.03 13:58:18.
