data_PCOD9434917
_publ_section_title
;
Structure prediction by ZEFSAII (Michael W. Deem and Ramdas Pophale) SiO2 
 PCOD9434917
Probable space group: P B C M
;
_chemical_formula_sum "Si O2"
_cell_formula_units_Z 64
_cell_length_a 15.787170
_cell_length_b 25.219382
_cell_length_c 9.813447
_cell_angle_alpha 90.000000
_cell_angle_beta 90.000000
_cell_angle_gamma 90.000000
_cell_volume 3907.152000
_symmetry_space_group_name_H-M "P B C M"
_symmetry_group_IT_number 57
_symmetry_cell_setting 'orthorhombic'
loop_
_space_group_symop_operation_xyz
x,y,z
-x,-y,1/2+z
x,1/2-y,-z
-x,1/2+y,1/2-z
-x,-y,-z
x,y,1/2-z
-x,1/2+y,z
x,1/2-y,1/2+z
loop_
_atom_site_type_symbol
_atom_site_label
_atom_site_fract_x
_atom_site_fract_y
_atom_site_fract_z
Si Si1 0.987077 0.201335 0.906471
Si Si2 0.960731 0.891332 0.902944
Si Si3 0.800215 0.158962 0.594473
Si Si4 0.612382 0.301487 0.412142
Si Si5 0.196607 0.032493 0.094714
Si Si6 0.856481 0.063113 0.092286
Si Si7 0.609654 0.531024 0.409354
Si Si8 0.536446 0.417646 0.087374
O O1 0.011986 0.207332 0.750000
O O2 0.884972 0.194185 0.910880
O O3 0.011685 0.250000 0.000000
O O4 0.026772 0.150025 0.976880
O O5 0.967772 0.867003 0.750000
O O6 0.872027 0.921054 0.912663
O O7 0.041524 0.930379 0.913832
O O8 0.794534 0.137330 0.750000
O O9 0.713298 0.189653 0.568757
O O10 0.815252 0.112603 0.486422
O O11 0.585750 0.250000 0.500000
O O12 0.597428 0.292643 0.250000
O O13 0.570360 0.358806 0.449013
O O14 0.192284 0.010671 0.250000
O O15 0.293666 0.048388 0.071627
O O16 0.171161 0.988898 0.985940
O O17 0.831550 0.062876 0.250000
O O18 0.586605 0.538322 0.250000
O O19 0.545917 0.563860 0.503819
O O20 0.600803 0.467384 0.437113
O O21 0.520264 0.416858 0.250000
#
# Coordination Sequence:
#
# PCOD9434917 Si02
#       8
#     8   8   8   8   8   8   8   8
#     4  10  19  31  49  69  92 125 162 201 241 280
#     4   9  19  33  47  67  96 128 162 198 236 280
#     4   9  18  32  48  68  97 132 165 195 232 279
#     4  10  20  33  50  73 102 134 164 196 237 289
#     4  10  19  32  50  70  96 129 160 194 238 285
#     4  10  19  29  45  71 101 131 162 197 233 275
#     4   9  18  33  54  75  94 123 162 201 242 290
#     4   9  18  33  51  73 101 127 155 196 244 290
#
# _framework density 16.380217999999999
#
# number of rings (size 3 to 8) (size 9 to 14) (size 15 to 20)
#    0.000    2.500    0.000    2.250    0.000    5.000 
#    0.000    2.500    0.000    0.750    0.000    1.750 
#    0.000    0.000    0.000    0.000    0.000    0.000 
#
# Total GULP energy -356645.840498 kJ/mol
# GULP energy per Si atom -5572.591258 kJ/mol
# Density = 1.634294 g / cm^3
# Si number density = 16.380218 Si / 1000 Ang^3
#
#
#
# Elastic Constant Matrix: (Units=GPa)
#
#
# Indices 1 2 3 4 5 6 
#
# 1 63.7201 34.1768 44.5709 0.0000 0.0000 0.0000
# 2 34.1768 58.0549 43.2415 0.0000 0.0000 0.0000
# 3 44.5709 43.2415 95.7110 0.0000 0.0000 0.0000
# 4 0.0000 0.0000 0.0000 30.7358 0.0000 0.0000
# 5 0.0000 0.0000 0.0000 0.0000 15.8599 0.0000
# 6 0.0000 0.0000 0.0000 0.0000 0.0000 7.3081
#
#
#
# Elastic Compliance Matrix: (Units=1/GPa)
#
#
# Indices 1 2 3 4 5 6 
#
# 1 0.026422 -0.009631 -0.007953 0.000000 0.000000 0.000000
# 2 -0.009631 0.029472 -0.008830 0.000000 0.000000 0.000000
# 3 -0.007953 -0.008830 0.018141 0.000000 0.000000 0.000000
# 4 0.000000 0.000000 0.000000 0.032535 0.000000 0.000000
# 5 0.000000 0.000000 0.000000 0.000000 0.063052 0.000000
# 6 0.000000 0.000000 0.000000 0.000000 0.000000 0.136835
#
#
# Mechanical properties :
#
#
# Convention : Reuss Voigt Hill
#
# Bulk Modulus (GPa) = 47.15490 51.27382 49.21436
# Shear Modulus (GPa) = 13.64795 17.14720 15.39758
#
# Velocity S-wave (km/s) = 2.88965 3.23898 3.06929
# Velocity P-wave (km/s) = 6.32326 6.73485 6.53230
#
# Compressibility (1/GPa) = 0.02120670
#
# Stress axis : x y z
#
# Youngs Moduli (GPa) = 37.84657 33.93065 55.12303
#
# Poissons Ratio (x) = 0.32678 0.43841
# Poissons Ratio (y) = 0.36450 0.48675
# Poissons Ratio (z) = 0.30100 0.29961
#
# Static dielectric constant tensor:
#      x y z
#    x 1.537560 0.000000 0.000000 
#    y 0.000000 1.547230 0.000000 
#    z 0.000000 0.000000 1.546670 
# 
# From -- ./inp_files/5708.got.cif
#   From: 2010.05.17/outbox.cif.g08.bks.cpg/sg57_3_cif.got.tgz:5708.got - 2010.06.03 13:58:18.
