data_PCOD9434798
_publ_section_title
;
Structure prediction by ZEFSAII (Michael W. Deem and Ramdas Pophale) SiO2 
 PCOD9434798
Probable space group: P B C M
;
_chemical_formula_sum "Si O2"
_cell_formula_units_Z 64
_cell_length_a 8.575197
_cell_length_b 20.585256
_cell_length_c 15.626790
_cell_angle_alpha 90.000000
_cell_angle_beta 90.000000
_cell_angle_gamma 90.000000
_cell_volume 2758.481999
_symmetry_space_group_name_H-M "P B C M"
_symmetry_group_IT_number 57
_symmetry_cell_setting 'orthorhombic'
loop_
_space_group_symop_operation_xyz
x,y,z
-x,-y,1/2+z
x,1/2-y,-z
-x,1/2+y,1/2-z
-x,-y,-z
x,y,1/2-z
-x,1/2+y,z
x,1/2-y,1/2+z
loop_
_atom_site_type_symbol
_atom_site_label
_atom_site_fract_x
_atom_site_fract_y
_atom_site_fract_z
Si Si1 0.310509 0.108981 0.348618
Si Si2 0.039843 0.585149 0.085369
Si Si3 0.637189 0.144236 0.352232
Si Si4 0.171634 0.457713 0.150808
Si Si5 0.308352 0.788340 0.146225
Si Si6 0.472710 0.114693 0.653228
Si Si7 0.746055 0.761510 0.155880
Si Si8 0.994668 0.663082 0.913624
O O1 0.311723 0.086185 0.250000
O O2 0.488911 0.100565 0.384632
O O3 0.298099 0.187290 0.352188
O O4 0.142338 0.086054 0.384488
O O5 0.186613 0.618311 0.135584
O O6 0.095694 0.510820 0.090191
O O7 0.037150 0.625152 0.998411
O O8 0.611310 0.148326 0.250000
O O9 0.631260 0.218553 0.386238
O O10 0.183912 0.480261 0.250000
O O11 0.342358 0.433853 0.118781
O O12 0.065596 0.393510 0.149461
O O13 0.321539 0.789793 0.250000
O O14 0.372084 0.858357 0.110206
O O15 0.129462 0.792597 0.122208
O O16 0.505638 0.091181 0.750000
O O17 0.392029 0.186140 0.659516
O O18 0.825293 0.766536 0.250000
O O19 0.850382 0.788331 0.080403
#
# Coordination Sequence:
#
# PCOD9434798 Si02
#       8
#     8   8   8   8   8   8   8   8
#     4  10  20  38  64  89 119 163 209 251 300 363
#     4  12  25  41  56  90 131 167 195 241 312 381
#     4  10  21  39  64  92 123 160 205 253 300 363
#     4  10  21  42  66  83 109 159 216 259 298 350
#     4  10  18  35  61  91 119 150 204 261 299 350
#     4   8  15  31  58  85 108 140 194 259 302 327
#     4   9  16  33  59  86 113 153 207 254 297 347
#     4  11  23  37  57  88 123 159 197 251 309 365
#
# _framework density 23.201167000000002
#
# number of rings (size 3 to 8) (size 9 to 14) (size 15 to 20)
#    0.000    2.000    1.250    4.125    0.000    4.000 
#    6.750    1.875    0.000    0.000    0.000    0.000 
#    0.000    0.000    0.000    0.000    0.000    0.000 
#
# Total GULP energy -356312.317873 kJ/mol
# GULP energy per Si atom -5567.379967 kJ/mol
# Density = 2.314836 g / cm^3
# Si number density = 23.201167 Si / 1000 Ang^3
#
#
#
# Elastic Constant Matrix: (Units=GPa)
#
#
# Indices 1 2 3 4 5 6 
#
# 1 75.3423 -0.5565 4.8002 0.0000 0.0000 0.0000
# 2 -0.5565 39.3355 1.2014 0.0000 0.0000 0.0000
# 3 4.8002 1.2014 21.9106 0.0000 0.0000 0.0000
# 4 0.0000 0.0000 0.0000 -126.2923 0.0000 0.0000
# 5 0.0000 0.0000 0.0000 0.0000 -12.0489 0.0000
# 6 0.0000 0.0000 0.0000 0.0000 0.0000 25.6802
#
#
#
# Elastic Compliance Matrix: (Units=1/GPa)
#
#
# Indices 1 2 3 4 5 6 
#
# 1 0.013464 0.000281 -0.002965 0.000000 0.000000 0.000000
# 2 0.000281 0.025471 -0.001458 0.000000 0.000000 0.000000
# 3 -0.002965 -0.001458 0.046370 0.000000 0.000000 0.000000
# 4 0.000000 0.000000 0.000000 -0.007918 0.000000 0.000000
# 5 0.000000 0.000000 0.000000 0.000000 -0.082995 0.000000
# 6 0.000000 0.000000 0.000000 0.000000 0.000000 0.038940
#
#
# Mechanical properties :
#
#
# Convention : Reuss Voigt Hill
#
# Bulk Modulus (GPa) = 12.98368 16.38651 14.68509
# Shear Modulus (GPa) = 74.30629 -13.78930 30.25849
#
# Velocity S-wave (km/s) = 5.66538 -2.44055 3.61526
# Velocity P-wave (km/s) = 6.95727 0.92928 4.87545
#
# Compressibility (1/GPa) = 0.07701977
#
# Stress axis : x y z
#
# Youngs Moduli (GPa) = 74.27360 39.26055 21.56589
#
# Poissons Ratio (x) = -0.01103 0.06394
# Poissons Ratio (y) = -0.02087 0.03145
# Poissons Ratio (z) = 0.22023 0.05725
#
# Static dielectric constant tensor:
#      x y z
#    x 1.998670 0.000000 0.000000 
#    y 0.000000 1.867370 0.000000 
#    z 0.000000 0.000000 1.871770 
# 
# From -- ./inp_files/21441.got.cif
#   From: 2010.05.17/outbox.cif.g08.bks.cpg/sg57_11_cif.got.tgz:21441.got - 2010.06.03 13:58:18.
