data_PCOD9434885
_publ_section_title
;
Structure prediction by ZEFSAII (Michael W. Deem and Ramdas Pophale) SiO2 
 PCOD9434885
Probable space group: P B C M
;
_chemical_formula_sum "Si O2"
_cell_formula_units_Z 64
_cell_length_a 17.157818
_cell_length_b 26.651251
_cell_length_c 8.974237
_cell_angle_alpha 90.000000
_cell_angle_beta 90.000000
_cell_angle_gamma 90.000000
_cell_volume 4103.714992
_symmetry_space_group_name_H-M "P B C M"
_symmetry_group_IT_number 57
_symmetry_cell_setting 'orthorhombic'
loop_
_space_group_symop_operation_xyz
x,y,z
-x,-y,1/2+z
x,1/2-y,-z
-x,1/2+y,1/2-z
-x,-y,-z
x,y,1/2-z
-x,1/2+y,z
x,1/2-y,1/2+z
loop_
_atom_site_type_symbol
_atom_site_label
_atom_site_fract_x
_atom_site_fract_y
_atom_site_fract_z
Si Si1 0.530230 0.048079 0.416841
Si Si2 0.769239 0.423280 0.571664
Si Si3 0.066982 0.566739 0.579370
Si Si4 0.910562 0.553978 0.079473
Si Si5 0.252294 0.459321 0.071657
Si Si6 0.481603 0.304809 0.070806
Si Si7 0.376499 0.114774 0.082260
Si Si8 0.369410 0.872597 0.426302
O O1 0.562697 0.038721 0.250000
O O2 0.455481 0.083096 0.402002
O O3 0.589087 0.075997 0.524817
O O4 0.500000 0.000000 0.500000
O O5 0.770378 0.421915 0.750000
O O6 0.855658 0.416185 0.506161
O O7 0.743046 0.480981 0.529213
O O8 0.712445 0.379888 0.509618
O O9 0.066019 0.584489 0.750000
O O10 0.073375 0.505976 0.583788
O O11 0.986565 0.578407 0.495060
O O12 0.899141 0.570626 0.250000
O O13 0.832419 0.559196 0.983447
O O14 0.258631 0.456721 0.250000
O O15 0.315658 0.422511 0.997575
O O16 0.478076 0.303385 0.250000
O O17 0.565497 0.330908 0.030866
O O18 0.479261 0.250000 0.000000
O O19 0.408635 0.337500 0.009642
O O20 0.349475 0.128175 0.250000
O O21 0.357162 0.869440 0.250000
#
# Coordination Sequence:
#
# PCOD9434885 Si02
#       8
#     8   8   8   8   8   8   8   8
#     4  10  19  29  42  60  85 117 149 180 215 258
#     4  10  19  29  43  64  92 125 158 191 225 263
#     4   9  16  26  40  58  84 119 157 193 226 261
#     4   9  16  26  40  58  83 118 158 193 225 262
#     4  10  19  29  42  63  92 124 157 191 226 263
#     4  10  21  37  55  71  88 112 143 183 230 277
#     4  10  20  32  46  65  88 115 148 184 223 267
#     4  10  20  32  46  65  88 114 146 183 223 267
#
# _framework density 15.595625
#
# number of rings (size 3 to 8) (size 9 to 14) (size 15 to 20)
#    0.000    2.250    0.000    3.750    0.000    9.500 
#    0.000    0.000    0.000    0.000    0.000    0.000 
#    0.000    1.000    0.000    8.500    0.000    6.250 
#
# Total GULP energy -356410.225854 kJ/mol
# GULP energy per Si atom -5568.909779 kJ/mol
# Density = 1.556013 g / cm^3
# Si number density = 15.595625 Si / 1000 Ang^3
#
#
#
# Elastic Constant Matrix: (Units=GPa)
#
#
# Indices 1 2 3 4 5 6 
#
# 1 88.7637 12.1392 35.4902 0.0000 0.0000 0.0000
# 2 12.1392 43.4228 25.0215 0.0000 0.0000 0.0000
# 3 35.4902 25.0215 80.9669 0.0000 0.0000 0.0000
# 4 0.0000 0.0000 0.0000 17.0768 0.0000 0.0000
# 5 0.0000 0.0000 0.0000 0.0000 30.1806 0.0000
# 6 0.0000 0.0000 0.0000 0.0000 0.0000 13.3100
#
#
#
# Elastic Compliance Matrix: (Units=1/GPa)
#
#
# Indices 1 2 3 4 5 6 
#
# 1 0.013667 -0.000449 -0.005852 0.000000 0.000000 0.000000
# 2 -0.000449 0.028034 -0.008467 0.000000 0.000000 0.000000
# 3 -0.005852 -0.008467 0.017532 0.000000 0.000000 0.000000
# 4 0.000000 0.000000 0.000000 0.058559 0.000000 0.000000
# 5 0.000000 0.000000 0.000000 0.000000 0.033134 0.000000
# 6 0.000000 0.000000 0.000000 0.000000 0.000000 0.075131
#
#
# Mechanical properties :
#
#
# Convention : Reuss Voigt Hill
#
# Bulk Modulus (GPa) = 33.67199 39.82834 36.75016
# Shear Modulus (GPa) = 18.83303 21.48034 20.15669
#
# Velocity S-wave (km/s) = 3.47880 3.71527 3.59898
# Velocity P-wave (km/s) = 6.14602 6.63309 6.39420
#
# Compressibility (1/GPa) = 0.02969828
#
# Stress axis : x y z
#
# Youngs Moduli (GPa) = 73.16886 35.67158 57.03751
#
# Poissons Ratio (x) = 0.01600 0.33378
# Poissons Ratio (y) = 0.03282 0.48292
# Poissons Ratio (z) = 0.42819 0.30202
#
# Static dielectric constant tensor:
#      x y z
#    x 1.535800 0.000000 0.000000 
#    y 0.000000 1.486980 0.000000 
#    z 0.000000 0.000000 1.526650 
# 
# From -- ./inp_files/6066.got.cif
#   From: 2010.05.17/outbox.cif.g08.bks.cpg/sg57_4_cif.got.tgz:6066.got - 2010.06.03 13:58:18.
