data_PCOD9434083
_publ_section_title
;
Structure prediction by ZEFSAII (Michael W. Deem and Ramdas Pophale) SiO2 
 PCOD9434083
Probable space group: P B C M
;
_chemical_formula_sum "Si O2"
_cell_formula_units_Z 48
_cell_length_a 12.178725
_cell_length_b 26.761814
_cell_length_c 8.174001
_cell_angle_alpha 90.000000
_cell_angle_beta 90.000000
_cell_angle_gamma 90.000000
_cell_volume 2664.109422
_symmetry_space_group_name_H-M "P B C M"
_symmetry_group_IT_number 57
_symmetry_cell_setting 'orthorhombic'
loop_
_space_group_symop_operation_xyz
x,y,z
-x,-y,1/2+z
x,1/2-y,-z
-x,1/2+y,1/2-z
-x,-y,-z
x,y,1/2-z
-x,1/2+y,z
x,1/2-y,1/2+z
loop_
_atom_site_type_symbol
_atom_site_label
_atom_site_fract_x
_atom_site_fract_y
_atom_site_fract_z
Si Si1 0.508495 0.129122 0.939916
Si Si2 0.047098 0.553753 0.946561
Si Si3 0.311998 0.306604 0.559261
Si Si4 0.704748 0.068065 0.549396
Si Si5 0.634751 0.540237 0.059519
Si Si6 0.170562 0.396472 0.442492
O O1 0.514001 0.143538 0.750000
O O2 0.629762 0.114859 0.002068
O O3 0.432321 0.169237 0.029336
O O4 0.441843 0.076951 0.956762
O O5 0.055137 0.552480 0.750000
O O6 0.169557 0.565619 0.008097
O O7 0.955534 0.595025 0.990337
O O8 0.000000 0.500000 0.000000
O O9 0.308778 0.250000 0.500000
O O10 0.287604 0.309133 0.750000
O O11 0.224155 0.342421 0.470163
O O12 0.704181 0.068060 0.750000
O O13 0.646072 0.016246 0.499775
O O14 0.601083 0.541316 0.250000
O O15 0.755180 0.564857 0.043785
O O16 0.181328 0.408930 0.250000
#
# Coordination Sequence:
#
# PCOD9434083 Si02
#       6
#     8   8   8   8   8   8
#     4  10  19  32  49  72 102 133 169 209 254 304
#     4  10  19  32  49  72 105 144 181 212 247 293
#     4  11  22  38  59  79 100 125 161 213 266 315
#     4   9  18  30  46  69 103 143 175 206 246 293
#     4  10  17  28  46  68 101 139 174 210 247 291
#     4  10  19  31  50  77 105 135 173 214 253 299
#
# _framework density 18.017278999999998
#
# number of rings (size 3 to 8) (size 9 to 14) (size 15 to 20)
#    0.000    2.000    1.667    5.500    0.000    0.667 
#    0.000    4.167    0.000    1.000    0.000    0.000 
#    0.000    0.000    0.000    0.000    0.000    0.000 
#
# Total GULP energy -267742.918652 kJ/mol
# GULP energy per Si atom -5577.977472 kJ/mol
# Density = 1.797627 g / cm^3
# Si number density = 18.017279 Si / 1000 Ang^3
#
#
#
# Elastic Constant Matrix: (Units=GPa)
#
#
# Indices 1 2 3 4 5 6 
#
# 1 74.9132 23.3025 -5.4145 0.0000 0.0000 0.0000
# 2 23.3025 80.7730 -3.0498 0.0000 0.0000 0.0000
# 3 -5.4145 -3.0498 27.8652 0.0000 0.0000 0.0000
# 4 0.0000 0.0000 0.0000 21.1934 0.0000 0.0000
# 5 0.0000 0.0000 0.0000 0.0000 16.5673 0.0000
# 6 0.0000 0.0000 0.0000 0.0000 0.0000 8.2800
#
#
#
# Elastic Compliance Matrix: (Units=1/GPa)
#
#
# Indices 1 2 3 4 5 6 
#
# 1 0.014826 -0.004186 0.002423 0.000000 0.000000 0.000000
# 2 -0.004186 0.013613 0.000677 0.000000 0.000000 0.000000
# 3 0.002423 0.000677 0.036432 0.000000 0.000000 0.000000
# 4 0.000000 0.000000 0.000000 0.047185 0.000000 0.000000
# 5 0.000000 0.000000 0.000000 0.000000 0.060360 0.000000
# 6 0.000000 0.000000 0.000000 0.000000 0.000000 0.120773
#
#
# Mechanical properties :
#
#
# Convention : Reuss Voigt Hill
#
# Bulk Modulus (GPa) = 15.94934 23.69198 19.82066
# Shear Modulus (GPa) = 15.80973 20.45569 18.13271
#
# Velocity S-wave (km/s) = 2.96544 3.37313 3.17583
# Velocity P-wave (km/s) = 4.53834 5.32436 4.94699
#
# Compressibility (1/GPa) = 0.06269854
#
# Stress axis : x y z
#
# Youngs Moduli (GPa) = 67.44956 73.45669 27.44852
#
# Poissons Ratio (x) = 0.30747 -0.06650
# Poissons Ratio (y) = 0.28232 -0.01857
# Poissons Ratio (z) = -0.16341 -0.04970
#
# Static dielectric constant tensor:
#      x y z
#    x 1.672840 0.000000 0.000000 
#    y 0.000000 1.604660 0.000000 
#    z 0.000000 0.000000 1.617160 
# 
# From -- ./inp_files/3293.got.cif
#   From: 2010.05.17/outbox.cif.g08.bks.cpg/sg57_2_cif.got.tgz:3293.got - 2010.06.03 13:58:18.
