data_PCOD9434869
_publ_section_title
;
Structure prediction by ZEFSAII (Michael W. Deem and Ramdas Pophale) SiO2 
 PCOD9434869
Probable space group: P B C M
;
_chemical_formula_sum "Si O2"
_cell_formula_units_Z 64
_cell_length_a 12.522404
_cell_length_b 31.685569
_cell_length_c 8.615312
_cell_angle_alpha 90.000000
_cell_angle_beta 90.000000
_cell_angle_gamma 90.000000
_cell_volume 3418.379153
_symmetry_space_group_name_H-M "P B C M"
_symmetry_group_IT_number 57
_symmetry_cell_setting 'orthorhombic'
loop_
_space_group_symop_operation_xyz
x,y,z
-x,-y,1/2+z
x,1/2-y,-z
-x,1/2+y,1/2-z
-x,-y,-z
x,y,1/2-z
-x,1/2+y,z
x,1/2-y,1/2+z
loop_
_atom_site_type_symbol
_atom_site_label
_atom_site_fract_x
_atom_site_fract_y
_atom_site_fract_z
Si Si1 0.295672 0.295667 0.064441
Si Si2 0.916655 0.381448 0.575408
Si Si3 0.149713 0.375021 0.435325
Si Si4 0.105831 0.518074 0.425784
Si Si5 0.479582 0.349474 0.935784
Si Si6 0.687766 0.384426 0.064205
Si Si7 0.664098 0.570431 0.437815
Si Si8 0.669246 0.479745 0.068182
O O1 0.299761 0.294481 0.250000
O O2 0.212028 0.332252 0.017927
O O3 0.266923 0.250000 0.000000
O O4 0.409439 0.311065 0.998996
O O5 0.917828 0.363952 0.750000
O O6 0.911014 0.432042 0.585243
O O7 0.805369 0.370872 0.491353
O O8 0.028195 0.372224 0.491727
O O9 0.151959 0.378858 0.250000
O O10 0.219723 0.413789 0.503741
O O11 0.126431 0.501928 0.250000
O O12 0.205108 0.511432 0.539709
O O13 0.000000 0.500000 0.500000
O O14 0.482498 0.348230 0.750000
O O15 0.416559 0.392317 0.984510
O O16 0.597263 0.353277 0.003770
O O17 0.688084 0.386700 0.250000
O O18 0.657314 0.432174 0.002845
O O19 0.668042 0.568758 0.250000
O O20 0.623725 0.524310 0.495071
O O21 0.642558 0.477503 0.250000
#
# Coordination Sequence:
#
# PCOD9434869 Si02
#       8
#     8   8   8   8   8   8   8   8
#     4  10  21  38  61  88 113 135 163 202 252 310
#     4  10  20  33  49  70  99 137 177 213 255 308
#     4  10  20  33  52  80 109 135 167 210 260 312
#     4  10  19  28  40  61  90 127 172 219 261 302
#     4  10  20  35  55  78 106 139 175 216 263 314
#     4  10  20  34  51  72 102 141 185 228 266 306
#     4   9  18  32  49  71 101 138 179 222 268 316
#     4   9  18  31  45  64  94 134 179 224 266 306
#
# _framework density 18.722324
#
# number of rings (size 3 to 8) (size 9 to 14) (size 15 to 20)
#    0.000    2.250    0.000    3.000    0.000    8.000 
#    0.000    0.000    0.000    0.750    0.000    3.500 
#    0.000    0.000    0.000    0.000    0.000    0.000 
#
# Total GULP energy -356873.730169 kJ/mol
# GULP energy per Si atom -5576.152034 kJ/mol
# Density = 1.867971 g / cm^3
# Si number density = 18.722324 Si / 1000 Ang^3
#
#
#
# Elastic Constant Matrix: (Units=GPa)
#
#
# Indices 1 2 3 4 5 6 
#
# 1 83.2569 17.4960 15.6315 0.0000 0.0000 0.0000
# 2 17.4960 64.0655 13.4443 0.0000 0.0000 0.0000
# 3 15.6315 13.4443 34.6842 0.0000 0.0000 0.0000
# 4 0.0000 0.0000 0.0000 18.4983 0.0000 0.0000
# 5 0.0000 0.0000 0.0000 0.0000 23.7308 0.0000
# 6 0.0000 0.0000 0.0000 0.0000 0.0000 18.3818
#
#
#
# Elastic Compliance Matrix: (Units=1/GPa)
#
#
# Indices 1 2 3 4 5 6 
#
# 1 0.013515 -0.002626 -0.005073 0.000000 0.000000 0.000000
# 2 -0.002626 0.017502 -0.005600 0.000000 0.000000 0.000000
# 3 -0.005073 -0.005600 0.033289 0.000000 0.000000 0.000000
# 4 0.000000 0.000000 0.000000 0.054059 0.000000 0.000000
# 5 0.000000 0.000000 0.000000 0.000000 0.042139 0.000000
# 6 0.000000 0.000000 0.000000 0.000000 0.000000 0.054402
#
#
# Mechanical properties :
#
#
# Convention : Reuss Voigt Hill
#
# Bulk Modulus (GPa) = 26.52091 30.57223 28.54657
# Shear Modulus (GPa) = 19.67933 21.15116 20.41525
#
# Velocity S-wave (km/s) = 3.24561 3.36479 3.30574
# Velocity P-wave (km/s) = 5.31427 5.60897 5.46360
#
# Compressibility (1/GPa) = 0.03770610
#
# Stress axis : x y z
#
# Youngs Moduli (GPa) = 73.98960 57.13789 30.04029
#
# Poissons Ratio (x) = 0.15007 0.15240
# Poissons Ratio (y) = 0.19433 0.16823
# Poissons Ratio (z) = 0.37535 0.31999
#
# Static dielectric constant tensor:
#      x y z
#    x 1.715270 0.000000 0.000000 
#    y 0.000000 1.674090 0.000000 
#    z 0.000000 0.000000 1.651560 
# 
# From -- ./inp_files/3771.got.cif
#   From: 2010.05.17/outbox.cif.g08.bks.cpg/sg57_2_cif.got.tgz:3771.got - 2010.06.03 13:58:18.
