data_PCOD9434111
_publ_section_title
;
Structure prediction by ZEFSAII (Michael W. Deem and Ramdas Pophale) SiO2 
 PCOD9434111
Probable space group: P B C M
;
_chemical_formula_sum "Si O2"
_cell_formula_units_Z 44
_cell_length_a 22.428029
_cell_length_b 5.451837
_cell_length_c 18.344161
_cell_angle_alpha 90.000000
_cell_angle_beta 90.000000
_cell_angle_gamma 90.000000
_cell_volume 2243.013178
_symmetry_space_group_name_H-M "P B C M"
_symmetry_group_IT_number 57
_symmetry_cell_setting 'orthorhombic'
loop_
_space_group_symop_operation_xyz
x,y,z
-x,-y,1/2+z
x,1/2-y,-z
-x,1/2+y,1/2-z
-x,-y,-z
x,y,1/2-z
-x,1/2+y,z
x,1/2-y,1/2+z
loop_
_atom_site_type_symbol
_atom_site_label
_atom_site_fract_x
_atom_site_fract_y
_atom_site_fract_z
Si Si1 0.239021 0.521546 0.338305
Si Si2 0.641495 0.124701 0.075955
Si Si3 0.554067 0.750000 0.000000
Si Si4 0.170652 0.477044 0.661531
Si Si5 0.477831 0.796170 0.860699
Si Si6 0.966798 0.541761 0.339016
O O1 0.244753 0.520106 0.250000
O O2 0.302886 0.545726 0.376309
O O3 0.206662 0.267640 0.360480
O O4 0.201397 0.765430 0.358957
O O5 0.591762 0.266756 0.124743
O O6 0.661069 0.250000 0.000000
O O7 0.600134 0.908594 0.046605
O O8 0.510366 0.854857 0.938418
O O9 0.169787 0.474040 0.750000
O O10 0.102021 0.464384 0.637226
O O11 0.511132 0.563650 0.826348
O O12 0.967132 0.541980 0.250000
O O13 0.000899 0.293684 0.361880
#
# Coordination Sequence:
#
# PCOD9434111 Si02
#       6
#     8   8   4   8   8   8
#     4  10  22  35  50  70 106 151 173 196 250 322
#     4  11  20  32  54  77 102 127 179 219 256 303
#     4  10  18  32  50  80  98 124 158 222 278 312
#     4   9  18  34  48  68 106 146 172 199 256 314
#     4  10  17  30  48  74  96 120 155 210 271 314
#     4   9  15  24  45  73  97 126 169 216 250 287
#
# _framework density 19.616468999999999
#
# number of rings (size 3 to 8) (size 9 to 14) (size 15 to 20)
#    0.000    2.182    2.727    2.182    2.545    4.364 
#    0.000    0.000    0.000    4.364    0.000    0.000 
#    0.000   14.545    0.000    0.000    0.000    0.000 
#
# Total GULP energy -244999.992005 kJ/mol
# GULP energy per Si atom -5568.181636 kJ/mol
# Density = 1.957182 g / cm^3
# Si number density = 19.616469 Si / 1000 Ang^3
#
#
#
# Elastic Constant Matrix: (Units=GPa)
#
#
# Indices 1 2 3 4 5 6 
#
# 1 145.2441 54.9122 27.6735 0.0000 0.0000 0.0000
# 2 54.9122 136.2382 18.4374 0.0000 0.0000 0.0000
# 3 27.6735 18.4374 44.7326 0.0000 0.0000 0.0000
# 4 0.0000 0.0000 0.0000 -17.3630 0.0000 0.0000
# 5 0.0000 0.0000 0.0000 0.0000 17.8848 0.0000
# 6 0.0000 0.0000 0.0000 0.0000 0.0000 32.0862
#
#
#
# Elastic Compliance Matrix: (Units=1/GPa)
#
#
# Indices 1 2 3 4 5 6 
#
# 1 0.008818 -0.002982 -0.004226 0.000000 0.000000 0.000000
# 2 -0.002982 0.008782 -0.001775 0.000000 0.000000 0.000000
# 3 -0.004226 -0.001775 0.025701 0.000000 0.000000 0.000000
# 4 0.000000 0.000000 0.000000 -0.057594 0.000000 0.000000
# 5 0.000000 0.000000 0.000000 0.000000 0.055913 0.000000
# 6 0.000000 0.000000 0.000000 0.000000 0.000000 0.031166
#
#
# Mechanical properties :
#
#
# Convention : Reuss Voigt Hill
#
# Bulk Modulus (GPa) = 39.47096 58.69566 49.08331
# Shear Modulus (GPa) = 50.40468 21.53438 35.96953
#
# Velocity S-wave (km/s) = 5.07453 3.31686 4.28675
# Velocity P-wave (km/s) = 7.38238 6.68246 7.04112
#
# Compressibility (1/GPa) = 0.02533508
#
# Stress axis : x y z
#
# Youngs Moduli (GPa) = 113.41028 113.86589 38.90919
#
# Poissons Ratio (x) = 0.33956 0.16442
# Poissons Ratio (y) = 0.33820 0.06906
# Poissons Ratio (z) = 0.47925 0.20210
#
# Static dielectric constant tensor:
#      x y z
#    x 1.656910 0.000000 0.000000 
#    y 0.000000 1.815580 0.000000 
#    z 0.000000 0.000000 1.713390 
# 
# From -- ./inp_files/27532.got.cif
#   From: 2010.05.17/outbox.cif.g08.bks.cpg/sg57_14_cif.got.tgz:27532.got - 2010.06.03 13:58:18.
