data_PCOD9434744
_publ_section_title
;
Structure prediction by ZEFSAII (Michael W. Deem and Ramdas Pophale) SiO2 
 PCOD9434744
Probable space group: P B C M
;
_chemical_formula_sum "Si O2"
_cell_formula_units_Z 40
_cell_length_a 10.662156
_cell_length_b 9.450601
_cell_length_c 19.764257
_cell_angle_alpha 90.000000
_cell_angle_beta 90.000000
_cell_angle_gamma 90.000000
_cell_volume 1991.521287
_symmetry_space_group_name_H-M "P B C M"
_symmetry_group_IT_number 57
_symmetry_cell_setting 'orthorhombic'
loop_
_space_group_symop_operation_xyz
x,y,z
-x,-y,1/2+z
x,1/2-y,-z
-x,1/2+y,1/2-z
-x,-y,-z
x,y,1/2-z
-x,1/2+y,z
x,1/2-y,1/2+z
loop_
_atom_site_type_symbol
_atom_site_label
_atom_site_fract_x
_atom_site_fract_y
_atom_site_fract_z
Si Si1 0.843150 0.833325 0.605821
Si Si2 0.940735 0.519269 0.574816
Si Si3 0.468604 0.858322 0.410009
Si Si4 0.586879 0.621866 0.172911
Si Si5 0.299120 0.499407 0.486534
O O1 0.907349 0.681099 0.592974
O O2 0.730864 0.830944 0.659894
O O3 0.770036 0.892426 0.539098
O O4 0.955978 0.943125 0.620923
O O5 0.805084 0.446254 0.565902
O O6 0.000000 0.500000 0.500000
O O7 0.500305 0.706472 0.380318
O O8 0.362072 0.884337 0.465640
O O9 0.430741 0.959375 0.347897
O O10 0.594357 0.915425 0.446317
O O11 0.551709 0.648237 0.250000
#
# Coordination Sequence:
#
# PCOD9434744 Si02
#       5
#     8   8   8   8   8
#     4  10  21  37  59  85 120 155 189 238 295 351
#     4  10  18  34  57  87 122 149 180 235 304 354
#     4  10  21  36  62  85 119 150 192 243 303 356
#     4  11  23  42  59  80 116 164 206 242 282 346
#     4   9  18  33  58  94 118 144 180 238 311 363
#
# _framework density 20.085146999999999
#
# number of rings (size 3 to 8) (size 9 to 14) (size 15 to 20)
#    0.000    2.000    2.000    3.000    2.800    2.400 
#   18.000    1.000    0.000    0.000    0.000    0.000 
#    0.000    0.000    0.000    0.000    0.000    0.000 
#
# Total GULP energy -223089.486760 kJ/mol
# GULP energy per Si atom -5577.237169 kJ/mol
# Density = 2.003943 g / cm^3
# Si number density = 20.085147 Si / 1000 Ang^3
#
#
#
# Elastic Constant Matrix: (Units=GPa)
#
#
# Indices 1 2 3 4 5 6 
#
# 1 99.7890 41.0022 4.2727 0.0000 0.0000 0.0000
# 2 41.0022 73.7992 11.0107 0.0000 0.0000 0.0000
# 3 4.2727 11.0107 47.3684 0.0000 0.0000 0.0000
# 4 0.0000 0.0000 0.0000 17.0942 0.0000 0.0000
# 5 0.0000 0.0000 0.0000 0.0000 21.3902 0.0000
# 6 0.0000 0.0000 0.0000 0.0000 0.0000 29.1139
#
#
#
# Elastic Compliance Matrix: (Units=1/GPa)
#
#
# Indices 1 2 3 4 5 6 
#
# 1 0.012998 -0.007300 0.000524 0.000000 0.000000 0.000000
# 2 -0.007300 0.018137 -0.003557 0.000000 0.000000 0.000000
# 3 0.000524 -0.003557 0.021891 0.000000 0.000000 0.000000
# 4 0.000000 0.000000 0.000000 0.058499 0.000000 0.000000
# 5 0.000000 0.000000 0.000000 0.000000 0.046750 0.000000
# 6 0.000000 0.000000 0.000000 0.000000 0.000000 0.034348
#
#
# Mechanical properties :
#
#
# Convention : Reuss Voigt Hill
#
# Bulk Modulus (GPa) = 30.90250 37.05866 33.98058
# Shear Modulus (GPa) = 22.31389 24.49773 23.40581
#
# Velocity S-wave (km/s) = 3.33673 3.49620 3.41740
# Velocity P-wave (km/s) = 5.50129 5.89820 5.70320
#
# Compressibility (1/GPa) = 0.03235984
#
# Stress axis : x y z
#
# Youngs Moduli (GPa) = 76.93405 55.13656 45.68149
#
# Poissons Ratio (x) = 0.40249 -0.02395
# Poissons Ratio (y) = 0.56161 0.16251
# Poissons Ratio (z) = -0.04034 0.19614
#
# Static dielectric constant tensor:
#      x y z
#    x 1.782410 0.000000 0.000000 
#    y 0.000000 1.747750 0.000000 
#    z 0.000000 0.000000 1.707800 
# 
# From -- ./inp_files/24846.got.cif
#   From: 2010.05.17/outbox.cif.g08.bks.cpg/sg57_13_cif.got.tgz:24846.got - 2010.06.03 13:58:18.
