data_PCOD9434918
_publ_section_title
;
Structure prediction by ZEFSAII (Michael W. Deem and Ramdas Pophale) SiO2 
 PCOD9434918
Probable space group: P B C M
;
_chemical_formula_sum "Si O2"
_cell_formula_units_Z 56
_cell_length_a 24.893297
_cell_length_b 5.555568
_cell_length_c 18.817176
_cell_angle_alpha 90.000000
_cell_angle_beta 90.000000
_cell_angle_gamma 90.000000
_cell_volume 2602.347779
_symmetry_space_group_name_H-M "P B C M"
_symmetry_group_IT_number 57
_symmetry_cell_setting 'orthorhombic'
loop_
_space_group_symop_operation_xyz
x,y,z
-x,-y,1/2+z
x,1/2-y,-z
-x,1/2+y,1/2-z
-x,-y,-z
x,y,1/2-z
-x,1/2+y,z
x,1/2-y,1/2+z
loop_
_atom_site_type_symbol
_atom_site_label
_atom_site_fract_x
_atom_site_fract_y
_atom_site_fract_z
Si Si1 0.640170 0.522379 0.128970
Si Si2 0.799958 0.389769 0.831772
Si Si3 0.972584 0.552911 0.163640
Si Si4 0.274565 0.999781 0.006063
Si Si5 0.325045 0.525278 0.144975
Si Si6 0.478831 0.487295 0.918833
Si Si7 0.847514 0.610863 0.163425
O O1 0.692096 0.506927 0.078080
O O2 0.649136 0.774189 0.168601
O O3 0.585134 0.534464 0.085387
O O4 0.642482 0.262949 0.166193
O O5 0.818866 0.378203 0.750000
O O6 0.736482 0.440953 0.831921
O O7 0.827297 0.629061 0.863409
O O8 0.814234 0.124763 0.860809
O O9 0.976508 0.551392 0.250000
O O10 0.909718 0.569918 0.146140
O O11 0.997837 0.298433 0.139379
O O12 0.244217 0.250000 0.000000
O O13 0.318609 0.991621 0.941630
O O14 0.243851 0.750000 0.000000
O O15 0.496715 0.742988 0.886263
O O16 0.500000 0.500000 0.000000
O O17 0.842014 0.621957 0.250000
#
# Coordination Sequence:
#
# PCOD9434918 Si02
#       7
#     8   8   8   8   8   8   8
#     4  10  19  31  44  64  91 115 138 165 208 266
#     4  10  19  31  44  62  85 114 156 194 223 242
#     4   9  15  23  37  58  81 108 145 178 212 264
#     4   8  16  25  42  56  81 109 135 160 200 246
#     4  10  19  29  46  60  83 117 150 178 208 254
#     4  10  21  27  43  64  92 121 132 154 203 254
#     4   9  17  28  42  58  85 116 144 189 230 252
#
# _framework density 21.519030000000001
#
# number of rings (size 3 to 8) (size 9 to 14) (size 15 to 20)
#    0.000    2.571    0.000    2.571   12.000    3.429 
#    0.000    0.000    0.000    0.000    0.000    0.000 
#    0.000   11.429    0.000    0.000    0.000  450.000 
#
# Total GULP energy -312057.141582 kJ/mol
# GULP energy per Si atom -5572.448957 kJ/mol
# Density = 2.147005 g / cm^3
# Si number density = 21.519030 Si / 1000 Ang^3
#
#
#
# Elastic Constant Matrix: (Units=GPa)
#
#
# Indices 1 2 3 4 5 6 
#
# 1 68.2651 30.1842 -10.2772 0.0000 0.0000 0.0000
# 2 30.1842 232.3981 -5.8438 0.0000 0.0000 0.0000
# 3 -10.2772 -5.8438 36.4354 0.0000 0.0000 0.0000
# 4 0.0000 0.0000 0.0000 -7.1047 0.0000 0.0000
# 5 0.0000 0.0000 0.0000 0.0000 32.0600 0.0000
# 6 0.0000 0.0000 0.0000 0.0000 0.0000 33.2088
#
#
#
# Elastic Compliance Matrix: (Units=1/GPa)
#
#
# Indices 1 2 3 4 5 6 
#
# 1 0.016169 -0.001993 0.004241 0.000000 0.000000 0.000000
# 2 -0.001993 0.004566 0.000170 0.000000 0.000000 0.000000
# 3 0.004241 0.000170 0.028669 0.000000 0.000000 0.000000
# 4 0.000000 0.000000 0.000000 -0.140752 0.000000 0.000000
# 5 0.000000 0.000000 0.000000 0.000000 0.031192 0.000000
# 6 0.000000 0.000000 0.000000 0.000000 0.000000 0.030113
#
#
# Mechanical properties :
#
#
# Convention : Reuss Voigt Hill
#
# Bulk Modulus (GPa) = 18.43681 40.58057 29.50869
# Shear Modulus (GPa) = -297.63289 33.16851 -132.23219
#
# Velocity S-wave (km/s) = -11.77335 3.93027 -7.84744
# Velocity P-wave (km/s) = 13.27514 6.28450 8.26845
#
# Compressibility (1/GPa) = 0.05423932
#
# Stress axis : x y z
#
# Youngs Moduli (GPa) = 61.84822 219.00337 34.88050
#
# Poissons Ratio (x) = 0.43655 -0.14792
# Poissons Ratio (y) = 0.12329 -0.00593
# Poissons Ratio (z) = -0.26229 -0.03725
#
# Static dielectric constant tensor:
#      x y z
#    x 1.719790 0.000000 0.000000 
#    y 0.000000 1.924760 0.000000 
#    z 0.000000 0.000000 1.804010 
# 
# From -- ./inp_files/27626.got.cif
#   From: 2010.05.17/outbox.cif.g08.bks.cpg/sg57_14_cif.got.tgz:27626.got - 2010.06.03 13:58:18.
