data_PCOD9434414
_publ_section_title
;
Structure prediction by ZEFSAII (Michael W. Deem and Ramdas Pophale) SiO2 
 PCOD9434414
Probable space group: P B C M
;
_chemical_formula_sum "Si O2"
_cell_formula_units_Z 48
_cell_length_a 7.750621
_cell_length_b 7.971703
_cell_length_c 32.793352
_cell_angle_alpha 90.000000
_cell_angle_beta 90.000000
_cell_angle_gamma 90.000000
_cell_volume 2026.158526
_symmetry_space_group_name_H-M "P B C M"
_symmetry_group_IT_number 57
_symmetry_cell_setting 'orthorhombic'
loop_
_space_group_symop_operation_xyz
x,y,z
-x,-y,1/2+z
x,1/2-y,-z
-x,1/2+y,1/2-z
-x,-y,-z
x,y,1/2-z
-x,1/2+y,z
x,1/2-y,1/2+z
loop_
_atom_site_type_symbol
_atom_site_label
_atom_site_fract_x
_atom_site_fract_y
_atom_site_fract_z
Si Si1 0.899031 0.161192 0.436955
Si Si2 0.255441 0.153872 0.962430
Si Si3 0.887224 0.046299 0.880173
Si Si4 0.370293 0.238776 0.877389
Si Si5 0.764452 0.368151 0.294509
Si Si6 0.413405 0.947669 0.821967
O O1 0.798593 0.041349 0.468317
O O2 0.941157 0.027216 0.400705
O O3 0.820697 0.318700 0.413152
O O4 0.078603 0.235665 0.454879
O O5 0.373837 0.162622 0.922216
O O6 0.340824 0.250000 0.000000
O O7 0.886575 0.112135 0.834019
O O8 0.767153 0.885525 0.879087
O O9 0.326136 0.109297 0.841472
O O10 0.539262 0.330293 0.860665
O O11 0.837836 0.409576 0.250000
O O12 0.592590 0.484335 0.302131
O O13 0.697550 0.176144 0.294840
#
# Coordination Sequence:
#
# PCOD9434414 Si02
#       6
#     8   8   8   8   8   8
#     4   9  18  32  50  70  97 128 159 193 239 291
#     4  10  18  30  49  75  98 122 159 204 240 277
#     4   9  18  32  51  71  94 128 162 192 235 291
#     4   9  18  32  50  70  94 129 163 191 237 294
#     4  10  18  30  49  75  97 120 156 199 234 269
#     4   9  18  32  50  69  97 129 158 191 235 288
#
# _framework density 23.690149000000002
#
# number of rings (size 3 to 8) (size 9 to 14) (size 15 to 20)
#    0.000    2.667    0.000    2.000    0.000    0.000 
#    0.000    2.500    0.000    0.000    0.000    0.000 
#    0.000    0.000    0.000    0.000    0.000    0.000 
#
# Total GULP energy -267716.089275 kJ/mol
# GULP energy per Si atom -5577.418527 kJ/mol
# Density = 2.363623 g / cm^3
# Si number density = 23.690149 Si / 1000 Ang^3
#
#
#
# Elastic Constant Matrix: (Units=GPa)
#
#
# Indices 1 2 3 4 5 6 
#
# 1 22.9143 -0.1833 0.8279 0.0000 0.0000 0.0000
# 2 -0.1833 97.1411 -3.0460 0.0000 0.0000 0.0000
# 3 0.8279 -3.0460 85.6661 0.0000 0.0000 0.0000
# 4 0.0000 0.0000 0.0000 15.4740 0.0000 0.0000
# 5 0.0000 0.0000 0.0000 0.0000 21.4536 0.0000
# 6 0.0000 0.0000 0.0000 0.0000 0.0000 26.6408
#
#
#
# Elastic Compliance Matrix: (Units=1/GPa)
#
#
# Indices 1 2 3 4 5 6 
#
# 1 0.043657 0.000069 -0.000419 0.000000 0.000000 0.000000
# 2 0.000069 0.010306 0.000366 0.000000 0.000000 0.000000
# 3 -0.000419 0.000366 0.011690 0.000000 0.000000 0.000000
# 4 0.000000 0.000000 0.000000 0.064624 0.000000 0.000000
# 5 0.000000 0.000000 0.000000 0.000000 0.046612 0.000000
# 6 0.000000 0.000000 0.000000 0.000000 0.000000 0.037536
#
#
# Mechanical properties :
#
#
# Convention : Reuss Voigt Hill
#
# Bulk Modulus (GPa) = 15.22441 22.32429 18.77435
# Shear Modulus (GPa) = 21.16050 26.58855 23.87452
#
# Velocity S-wave (km/s) = 2.99192 3.35378 3.17800
# Velocity P-wave (km/s) = 4.28671 4.94378 4.62693
#
# Compressibility (1/GPa) = 0.06568399
#
# Stress axis : x y z
#
# Youngs Moduli (GPa) = 22.90603 97.03175 85.54113
#
# Poissons Ratio (x) = -0.00672 0.03588
# Poissons Ratio (y) = -0.00159 -0.03129
# Poissons Ratio (z) = 0.00961 -0.03549
#
# Static dielectric constant tensor:
#      x y z
#    x 2.010440 0.000000 0.000000 
#    y 0.000000 1.964350 0.000000 
#    z 0.000000 0.000000 2.022100 
# 
# From -- ./inp_files/28504.got.cif
#   From: 2010.05.17/outbox.cif.g08.bks.cpg/sg57_15_cif.got.tgz:28504.got - 2010.06.03 13:58:18.
