data_PCOD9434322
_publ_section_title
;
Structure prediction by ZEFSAII (Michael W. Deem and Ramdas Pophale) SiO2 
 PCOD9434322
Probable space group: P B C M
;
_chemical_formula_sum "Si O2"
_cell_formula_units_Z 56
_cell_length_a 12.366057
_cell_length_b 29.143760
_cell_length_c 7.440328
_cell_angle_alpha 90.000000
_cell_angle_beta 90.000000
_cell_angle_gamma 90.000000
_cell_volume 2681.445085
_symmetry_space_group_name_H-M "P B C M"
_symmetry_group_IT_number 57
_symmetry_cell_setting 'orthorhombic'
loop_
_space_group_symop_operation_xyz
x,y,z
-x,-y,1/2+z
x,1/2-y,-z
-x,1/2+y,1/2-z
-x,-y,-z
x,y,1/2-z
-x,1/2+y,z
x,1/2-y,1/2+z
loop_
_atom_site_type_symbol
_atom_site_label
_atom_site_fract_x
_atom_site_fract_y
_atom_site_fract_z
Si Si1 0.184193 0.476037 0.033248
Si Si2 0.545895 0.696899 0.535838
Si Si3 0.424874 0.043264 0.536111
Si Si4 0.827251 0.082643 0.537370
Si Si5 0.210803 0.303988 0.465450
Si Si6 0.405002 0.883079 0.469968
Si Si7 0.054314 0.114252 0.529767
O O1 0.184600 0.475189 0.250000
O O2 0.305376 0.465626 0.965372
O O3 0.109472 0.433896 0.974441
O O4 0.154116 0.528045 0.984097
O O5 0.528591 0.750000 0.500000
O O6 0.551853 0.689538 0.750000
O O7 0.667126 0.685613 0.466381
O O8 0.444518 0.667017 0.473206
O O9 0.412647 0.049544 0.750000
O O10 0.494698 0.085637 0.469183
O O11 0.500000 0.000000 0.500000
O O12 0.823297 0.091156 0.750000
O O13 0.710067 0.097915 0.464857
O O14 0.930195 0.110930 0.468354
O O15 0.187003 0.250000 0.500000
O O16 0.213918 0.308738 0.250000
O O17 0.123778 0.341547 0.529785
O O18 0.400886 0.885542 0.250000
O O19 0.054692 0.114887 0.750000
#
# Coordination Sequence:
#
# PCOD9434322 Si02
#       7
#     8   8   8   8   8   8   8
#     4  10  19  31  48  70  97 128 161 198 238 278
#     4   9  17  31  51  72  93 119 153 195 239 286
#     4  10  18  29  46  68  94 123 156 192 232 280
#     4  10  19  32  49  68  95 130 165 196 227 277
#     4   9  17  32  53  73  93 118 153 197 241 283
#     4   9  17  30  48  68  93 126 158 188 232 284
#     4   9  18  32  50  71  94 127 165 195 232 284
#
# _framework density 20.884260999999999
#
# number of rings (size 3 to 8) (size 9 to 14) (size 15 to 20)
#    0.000    2.571    1.429    1.286    0.000    3.429 
#    0.000    3.571    0.000    3.429    0.000    0.000 
#    0.000    0.000    0.000    0.000    0.000    0.000 
#
# Total GULP energy -312412.596183 kJ/mol
# GULP energy per Si atom -5578.796360 kJ/mol
# Density = 2.083673 g / cm^3
# Si number density = 20.884261 Si / 1000 Ang^3
#
#
#
# Elastic Constant Matrix: (Units=GPa)
#
#
# Indices 1 2 3 4 5 6 
#
# 1 94.5148 68.4583 2.0671 0.0000 0.0000 0.0000
# 2 68.4583 118.0097 -7.2148 0.0000 0.0000 0.0000
# 3 2.0671 -7.2148 62.2139 0.0000 0.0000 0.0000
# 4 0.0000 0.0000 0.0000 21.1895 0.0000 0.0000
# 5 0.0000 0.0000 0.0000 0.0000 0.2939 0.0000
# 6 0.0000 0.0000 0.0000 0.0000 0.0000 34.5445
#
#
#
# Elastic Compliance Matrix: (Units=1/GPa)
#
#
# Indices 1 2 3 4 5 6 
#
# 1 0.018461 -0.010823 -0.001869 0.000000 0.000000 0.000000
# 2 -0.010823 0.014880 0.002085 0.000000 0.000000 0.000000
# 3 -0.001869 0.002085 0.016377 0.000000 0.000000 0.000000
# 4 0.000000 0.000000 0.000000 0.047193 0.000000 0.000000
# 5 0.000000 0.000000 0.000000 0.000000 3.402533 0.000000
# 6 0.000000 0.000000 0.000000 0.000000 0.000000 0.028948
#
#
# Mechanical properties :
#
#
# Convention : Reuss Voigt Hill
#
# Bulk Modulus (GPa) = 35.08175 44.59549 39.83862
# Shear Modulus (GPa) = 1.40485 25.30076 13.35280
#
# Velocity S-wave (km/s) = 0.82106 3.48440 2.53132
# Velocity P-wave (km/s) = 4.21112 6.13091 5.25935
#
# Compressibility (1/GPa) = 0.02850485
#
# Stress axis : x y z
#
# Youngs Moduli (GPa) = 54.16883 67.20363 61.05944
#
# Poissons Ratio (x) = 0.72738 0.11409
# Poissons Ratio (y) = 0.58630 -0.12732
# Poissons Ratio (z) = 0.10122 -0.14014
#
# Static dielectric constant tensor:
#      x y z
#    x 1.753910 0.000000 0.000000 
#    y 0.000000 1.750170 0.000000 
#    z 0.000000 0.000000 2.087100 
# 
# From -- ./inp_files/13114.got.cif
#   From: 2010.05.17/outbox.cif.g08.bks.cpg/sg57_7_cif.got.tgz:13114.got - 2010.06.03 13:58:18.
