data_PCOD9434618
_publ_section_title
;
Structure prediction by ZEFSAII (Michael W. Deem and Ramdas Pophale) SiO2 
 PCOD9434618
Probable space group: P B C M
;
_chemical_formula_sum "Si O2"
_cell_formula_units_Z 64
_cell_length_a 13.726687
_cell_length_b 8.559013
_cell_length_c 26.995000
_cell_angle_alpha 90.000000
_cell_angle_beta 90.000000
_cell_angle_gamma 90.000000
_cell_volume 3171.558662
_symmetry_space_group_name_H-M "P B C M"
_symmetry_group_IT_number 57
_symmetry_cell_setting 'orthorhombic'
loop_
_space_group_symop_operation_xyz
x,y,z
-x,-y,1/2+z
x,1/2-y,-z
-x,1/2+y,1/2-z
-x,-y,-z
x,y,1/2-z
-x,1/2+y,z
x,1/2-y,1/2+z
loop_
_atom_site_type_symbol
_atom_site_label
_atom_site_fract_x
_atom_site_fract_y
_atom_site_fract_z
Si Si1 0.207450 0.059712 0.105457
Si Si2 0.519965 0.461822 0.908254
Si Si3 0.917443 0.472315 0.193630
Si Si4 0.040636 0.288536 0.942839
Si Si5 0.214624 0.829734 0.695292
Si Si6 0.635420 0.328064 0.364901
Si Si7 0.095292 0.510389 0.120263
Si Si8 0.360127 0.248805 0.446203
O O1 0.157262 0.068493 0.159136
O O2 0.274184 0.904764 0.104785
O O3 0.119675 0.072463 0.066164
O O4 0.282190 0.197716 0.094241
O O5 0.450560 0.542806 0.866554
O O6 0.586077 0.322546 0.888668
O O7 0.586999 0.592520 0.932271
O O8 0.443776 0.384019 0.946244
O O9 0.924945 0.527529 0.250000
O O10 0.873136 0.297409 0.194115
O O11 0.018538 0.479038 0.164692
O O12 0.087900 0.139876 0.914980
O O13 0.945484 0.346151 0.913038
O O14 0.024159 0.250000 0.000000
O O15 0.216770 0.901850 0.750000
O O16 0.312528 0.730342 0.684974
O O17 0.193396 0.944096 0.649223
O O18 0.312149 0.250000 0.500000
#
# Coordination Sequence:
#
# PCOD9434618 Si02
#       8
#     8   8   8   8   8   8   8   8
#     4   9  20  35  55  83 118 152 191 249 294 348
#     4   9  19  34  58  80 111 156 192 243 302 356
#     4   9  18  36  59  82 113 153 195 243 297 344
#     4  11  23  39  59  83 123 167 206 244 298 355
#     4  10  20  36  60  87 118 152 195 250 302 352
#     4   9  19  38  59  83 117 150 191 244 303 355
#     4  11  21  38  59  86 117 159 205 249 288 350
#     4  10  18  32  54  81 114 151 195 243 295 350
#
# _framework density 20.179351
#
# number of rings (size 3 to 8) (size 9 to 14) (size 15 to 20)
#    0.000    2.250    1.250    1.500    1.750    0.000 
#    0.000    1.250    2.750    4.500    0.000    0.000 
#    0.000    0.000    0.000    0.000    0.000    0.000 
#
# Total GULP energy -356823.390657 kJ/mol
# GULP energy per Si atom -5575.365479 kJ/mol
# Density = 2.013342 g / cm^3
# Si number density = 20.179351 Si / 1000 Ang^3
#
#
#
# Elastic Constant Matrix: (Units=GPa)
#
#
# Indices 1 2 3 4 5 6 
#
# 1 58.7446 17.4794 30.6567 0.0000 0.0000 0.0000
# 2 17.4794 69.6748 30.4829 0.0000 0.0000 0.0000
# 3 30.6567 30.4829 115.1114 0.0000 0.0000 0.0000
# 4 0.0000 0.0000 0.0000 19.5963 0.0000 0.0000
# 5 0.0000 0.0000 0.0000 0.0000 11.3576 0.0000
# 6 0.0000 0.0000 0.0000 0.0000 0.0000 25.9866
#
#
#
# Elastic Compliance Matrix: (Units=1/GPa)
#
#
# Indices 1 2 3 4 5 6 
#
# 1 0.020343 -0.003091 -0.004599 0.000000 0.000000 0.000000
# 2 -0.003091 0.016703 -0.003600 0.000000 0.000000 0.000000
# 3 -0.004599 -0.003600 0.010865 0.000000 0.000000 0.000000
# 4 0.000000 0.000000 0.000000 0.051030 0.000000 0.000000
# 5 0.000000 0.000000 0.000000 0.000000 0.088047 0.000000
# 6 0.000000 0.000000 0.000000 0.000000 0.000000 0.038481
#
#
# Mechanical properties :
#
#
# Convention : Reuss Voigt Hill
#
# Bulk Modulus (GPa) = 39.47809 44.52985 42.00397
# Shear Modulus (GPa) = 19.49368 22.38221 20.93794
#
# Velocity S-wave (km/s) = 3.11146 3.33402 3.22466
# Velocity P-wave (km/s) = 5.70213 6.07749 5.89280
#
# Compressibility (1/GPa) = 0.02533051
#
# Stress axis : x y z
#
# Youngs Moduli (GPa) = 49.15751 59.87003 92.03565
#
# Poissons Ratio (x) = 0.18508 0.42328
# Poissons Ratio (y) = 0.15196 0.33131
# Poissons Ratio (z) = 0.22608 0.21552
#
# Static dielectric constant tensor:
#      x y z
#    x 1.749060 0.000000 0.000000 
#    y 0.000000 1.770310 0.000000 
#    z 0.000000 0.000000 1.698450 
# 
# From -- ./inp_files/27483.got.cif
#   From: 2010.05.17/outbox.cif.g08.bks.cpg/sg57_14_cif.got.tgz:27483.got - 2010.06.03 13:58:18.
