data_PCOD9434728
_publ_section_title
;
Structure prediction by ZEFSAII (Michael W. Deem and Ramdas Pophale) SiO2 
 PCOD9434728
Probable space group: P B C M
;
_chemical_formula_sum "Si O2"
_cell_formula_units_Z 64
_cell_length_a 13.285650
_cell_length_b 11.432830
_cell_length_c 24.191548
_cell_angle_alpha 90.000000
_cell_angle_beta 90.000000
_cell_angle_gamma 90.000000
_cell_volume 3674.516589
_symmetry_space_group_name_H-M "P B C M"
_symmetry_group_IT_number 57
_symmetry_cell_setting 'orthorhombic'
loop_
_space_group_symop_operation_xyz
x,y,z
-x,-y,1/2+z
x,1/2-y,-z
-x,1/2+y,1/2-z
-x,-y,-z
x,y,1/2-z
-x,1/2+y,z
x,1/2-y,1/2+z
loop_
_atom_site_type_symbol
_atom_site_label
_atom_site_fract_x
_atom_site_fract_y
_atom_site_fract_z
Si Si1 0.811357 0.321209 0.442734
Si Si2 0.421716 0.177909 0.056705
Si Si3 0.727897 0.006212 0.314191
Si Si4 0.238429 0.181404 0.906992
Si Si5 0.307571 0.000897 0.500616
Si Si6 0.036981 0.949327 0.686120
Si Si7 0.366386 0.672160 0.400640
Si Si8 0.987240 0.796588 0.372743
O O1 0.817607 0.250000 0.500000
O O2 0.779152 0.449676 0.461834
O O3 0.717601 0.272204 0.406888
O O4 0.915876 0.305972 0.411901
O O5 0.317285 0.214908 0.085190
O O6 0.516993 0.203767 0.094727
O O7 0.436955 0.250000 0.000000
O O8 0.399841 0.046955 0.036098
O O9 0.702522 0.987295 0.250000
O O10 0.841427 0.056913 0.316957
O O11 0.656672 0.095681 0.346758
O O12 0.732557 0.889908 0.351576
O O13 0.260790 0.100257 0.960186
O O14 0.120747 0.208769 0.903074
O O15 0.346889 0.905249 0.544085
O O16 0.005786 0.951951 0.750000
O O17 0.996946 0.827965 0.659515
O O18 0.012080 0.077973 0.660222
#
# Coordination Sequence:
#
# PCOD9434728 Si02
#       8
#     8   8   8   8   8   8   8   8
#     4  10  21  33  52  81 117 150 181 230 288 341
#     4  10  19  33  54  80 110 148 185 230 276 336
#     4   9  18  36  58  76 103 143 188 235 284 339
#     4   9  21  35  52  80 111 146 191 223 281 346
#     4   9  19  33  52  79 112 148 186 225 281 339
#     4  10  21  39  62  85 110 149 195 243 287 335
#     4  10  18  34  54  82 105 141 193 233 278 340
#     4  11  22  37  59  87 119 149 193 234 289 348
#
# _framework density 17.417256999999999
#
# number of rings (size 3 to 8) (size 9 to 14) (size 15 to 20)
#    0.000    2.250    1.250    1.875    3.500    4.500 
#    0.000    0.625    0.000    0.000    0.000    0.000 
#    0.000    0.000    0.000    0.000    0.000    0.000 
#
# Total GULP energy -356377.563071 kJ/mol
# GULP energy per Si atom -5568.399423 kJ/mol
# Density = 1.737761 g / cm^3
# Si number density = 17.417257 Si / 1000 Ang^3
#
#
#
# Elastic Constant Matrix: (Units=GPa)
#
#
# Indices 1 2 3 4 5 6 
#
# 1 114.1937 31.1980 42.8995 0.0000 0.0000 0.0000
# 2 31.1980 66.3522 24.5388 0.0000 0.0000 0.0000
# 3 42.8995 24.5388 69.5053 0.0000 0.0000 0.0000
# 4 0.0000 0.0000 0.0000 10.7287 0.0000 0.0000
# 5 0.0000 0.0000 0.0000 0.0000 13.4575 0.0000
# 6 0.0000 0.0000 0.0000 0.0000 0.0000 15.8510
#
#
#
# Elastic Compliance Matrix: (Units=1/GPa)
#
#
# Indices 1 2 3 4 5 6 
#
# 1 0.012012 -0.003342 -0.006234 0.000000 0.000000 0.000000
# 2 -0.003342 0.018264 -0.004385 0.000000 0.000000 0.000000
# 3 -0.006234 -0.004385 0.019783 0.000000 0.000000 0.000000
# 4 0.000000 0.000000 0.000000 0.093208 0.000000 0.000000
# 5 0.000000 0.000000 0.000000 0.000000 0.074308 0.000000
# 6 0.000000 0.000000 0.000000 0.000000 0.000000 0.063087
#
#
# Mechanical properties :
#
#
# Convention : Reuss Voigt Hill
#
# Bulk Modulus (GPa) = 45.17427 49.70266 47.43847
# Shear Modulus (GPa) = 15.82450 18.10176 16.96313
#
# Velocity S-wave (km/s) = 3.01749 3.22732 3.12417
# Velocity P-wave (km/s) = 6.17520 6.51811 6.34898
#
# Compressibility (1/GPa) = 0.02213649
#
# Stress axis : x y z
#
# Youngs Moduli (GPa) = 83.24891 54.75111 50.54763
#
# Poissons Ratio (x) = 0.18300 0.31511
# Poissons Ratio (y) = 0.27826 0.22166
# Poissons Ratio (z) = 0.51897 0.24010
#
# Static dielectric constant tensor:
#      x y z
#    x 1.595470 0.000000 0.000000 
#    y 0.000000 1.645860 0.000000 
#    z 0.000000 0.000000 1.577800 
# 
# From -- ./inp_files/27306.got.cif
#   From: 2010.05.17/outbox.cif.g08.bks.cpg/sg57_14_cif.got.tgz:27306.got - 2010.06.03 13:58:18.
