data_PCOD9434874
_publ_section_title
;
Structure prediction by ZEFSAII (Michael W. Deem and Ramdas Pophale) SiO2 
 PCOD9434874
Probable space group: P B C M
;
_chemical_formula_sum "Si O2"
_cell_formula_units_Z 56
_cell_length_a 17.938216
_cell_length_b 7.824845
_cell_length_c 15.042847
_cell_angle_alpha 90.000000
_cell_angle_beta 90.000000
_cell_angle_gamma 90.000000
_cell_volume 2111.470563
_symmetry_space_group_name_H-M "P B C M"
_symmetry_group_IT_number 57
_symmetry_cell_setting 'orthorhombic'
loop_
_space_group_symop_operation_xyz
x,y,z
-x,-y,1/2+z
x,1/2-y,-z
-x,1/2+y,1/2-z
-x,-y,-z
x,y,1/2-z
-x,1/2+y,z
x,1/2-y,1/2+z
loop_
_atom_site_type_symbol
_atom_site_label
_atom_site_fract_x
_atom_site_fract_y
_atom_site_fract_z
Si Si1 0.022023 0.364314 0.853726
Si Si2 0.420261 0.064535 0.391481
Si Si3 0.260146 0.028720 0.117476
Si Si4 0.157286 0.328559 0.099639
Si Si5 0.419365 0.471803 0.401153
Si Si6 0.729321 0.088557 0.066100
Si Si7 0.883301 0.185226 0.643545
O O1 0.013054 0.404292 0.750000
O O2 0.075835 0.197965 0.859212
O O3 0.073718 0.514317 0.890276
O O4 0.941789 0.323734 0.894416
O O5 0.343524 0.999409 0.347980
O O6 0.411611 0.268881 0.392388
O O7 0.423994 0.989731 0.492402
O O8 0.503036 0.025357 0.356717
O O9 0.215713 0.197158 0.146993
O O10 0.203194 0.869297 0.129297
O O11 0.274560 0.055410 0.012336
O O12 0.193783 0.518039 0.108126
O O13 0.147306 0.250000 0.000000
O O14 0.343163 0.566177 0.373487
O O15 0.722822 0.250000 0.000000
O O16 0.887998 0.199947 0.750000
#
# Coordination Sequence:
#
# PCOD9434874 Si02
#       7
#     8   8   8   8   8   8   8
#     4   9  18  33  54  76  97 123 167 215 251 300
#     4   9  16  26  41  63  91 124 159 189 233 284
#     4   9  17  31  46  65  95 128 158 193 241 297
#     4   9  17  33  49  68  99 138 165 199 257 311
#     4   9  17  25  40  64  93 126 157 192 232 284
#     4  10  19  28  42  68 101 128 161 200 241 294
#     4   9  18  33  53  73  92 120 160 204 249 296
#
# _framework density 26.521802999999998
#
# number of rings (size 3 to 8) (size 9 to 14) (size 15 to 20)
#    0.000    2.857    1.429    0.000    6.000    1.143 
#    0.000    7.143    0.000    0.000    0.000    2.000 
#    0.000    0.000    0.000    0.000    0.000    0.000 
#
# Total GULP energy -311992.329259 kJ/mol
# GULP energy per Si atom -5571.291594 kJ/mol
# Density = 2.646144 g / cm^3
# Si number density = 26.521803 Si / 1000 Ang^3
#
#
#
# Elastic Constant Matrix: (Units=GPa)
#
#
# Indices 1 2 3 4 5 6 
#
# 1 245.1737 -8.5274 8.5779 0.0000 0.0000 0.0000
# 2 -8.5274 38.0500 -8.4444 0.0000 0.0000 0.0000
# 3 8.5779 -8.4444 58.2103 0.0000 0.0000 0.0000
# 4 0.0000 0.0000 0.0000 -0.0393 0.0000 0.0000
# 5 0.0000 0.0000 0.0000 0.0000 28.6846 0.0000
# 6 0.0000 0.0000 0.0000 0.0000 0.0000 34.0780
#
#
#
# Elastic Compliance Matrix: (Units=1/GPa)
#
#
# Indices 1 2 3 4 5 6 
#
# 1 0.004124 0.000816 -0.000489 0.000000 0.000000 0.000000
# 2 0.000816 0.027317 0.003843 0.000000 0.000000 0.000000
# 3 -0.000489 0.003843 0.017809 0.000000 0.000000 0.000000
# 4 0.000000 0.000000 0.000000-25.414187 0.000000 0.000000
# 5 0.000000 0.000000 0.000000 0.000000 0.034862 0.000000
# 6 0.000000 0.000000 0.000000 0.000000 0.000000 0.029344
#
#
# Mechanical properties :
#
#
# Convention : Reuss Voigt Hill
#
# Bulk Modulus (GPa) = 17.36496 36.07181 26.71839
# Shear Modulus (GPa) = -0.19771 35.86651 17.83440
#
# Velocity S-wave (km/s) = -0.27333 3.68141 2.59596
# Velocity P-wave (km/s) = 2.54205 5.63034 4.36822
#
# Compressibility (1/GPa) = 0.05758722
#
# Stress axis : x y z
#
# Youngs Moduli (GPa) = 242.46926 36.60758 56.15251
#
# Poissons Ratio (x) = -0.02986 0.02748
# Poissons Ratio (y) = -0.19777 -0.21577
# Poissons Ratio (z) = 0.11867 -0.14067
#
# Static dielectric constant tensor:
#      x y z
#    x 2.326380 0.000000 0.000000 
#    y 0.000000 2.207380 0.000000 
#    z 0.000000 0.000000 2.070150 
# 
# From -- ./inp_files/27583.got.cif
#   From: 2010.05.17/outbox.cif.g08.bks.cpg/sg57_14_cif.got.tgz:27583.got - 2010.06.03 13:58:18.
