data_PCOD9434372
_publ_section_title
;
Structure prediction by ZEFSAII (Michael W. Deem and Ramdas Pophale) SiO2 
 PCOD9434372
Probable space group: P B C M
;
_chemical_formula_sum "Si O2"
_cell_formula_units_Z 48
_cell_length_a 15.930364
_cell_length_b 22.072160
_cell_length_c 8.361384
_cell_angle_alpha 90.000000
_cell_angle_beta 90.000000
_cell_angle_gamma 90.000000
_cell_volume 2940.009299
_symmetry_space_group_name_H-M "P B C M"
_symmetry_group_IT_number 57
_symmetry_cell_setting 'orthorhombic'
loop_
_space_group_symop_operation_xyz
x,y,z
-x,-y,1/2+z
x,1/2-y,-z
-x,1/2+y,1/2-z
-x,-y,-z
x,y,1/2-z
-x,1/2+y,z
x,1/2-y,1/2+z
loop_
_atom_site_type_symbol
_atom_site_label
_atom_site_fract_x
_atom_site_fract_y
_atom_site_fract_z
Si Si1 0.381488 0.045393 0.943139
Si Si2 0.017614 0.068524 0.941782
Si Si3 0.196621 0.041102 0.555066
Si Si4 0.440847 0.913809 0.443760
Si Si5 0.695393 0.318433 0.440745
Si Si6 0.156492 0.597318 0.059230
O O1 0.380651 0.046408 0.750000
O O2 0.288197 0.062562 0.999490
O O3 0.461699 0.084766 0.996332
O O4 0.400498 0.976634 0.996446
O O5 0.013944 0.070399 0.750000
O O6 0.114145 0.078973 0.993683
O O7 0.940244 0.106793 0.009118
O O8 0.000000 0.000000 0.000000
O O9 0.196571 0.040795 0.750000
O O10 0.183544 0.970718 0.504734
O O11 0.439551 0.914655 0.250000
O O12 0.384065 0.858097 0.500238
O O13 0.694126 0.250000 0.500000
O O14 0.692021 0.317897 0.250000
O O15 0.779239 0.353851 0.492041
O O16 0.161584 0.597705 0.250000
#
# Coordination Sequence:
#
# PCOD9434372 Si02
#       6
#     8   8   8   8   8   8
#     4   9  15  27  46  66  92 122 148 181 229 283
#     4   9  16  26  40  63  92 122 152 183 221 270
#     4   8  14  24  42  66  91 120 149 176 219 274
#     4   9  18  29  43  66  91 116 151 191 231 274
#     4  11  22  34  47  66  90 122 159 196 232 275
#     4  10  18  30  45  64  89 121 154 190 232 275
#
# _framework density 16.326478000000002
#
# number of rings (size 3 to 8) (size 9 to 14) (size 15 to 20)
#    0.000    2.667    1.667    2.500    0.000    0.667 
#    0.000    0.833    0.000    0.000    0.000    1.167 
#    0.000    2.667    0.000    0.000    0.000    0.000 
#
# Total GULP energy -267250.788446 kJ/mol
# GULP energy per Si atom -5567.724759 kJ/mol
# Density = 1.628932 g / cm^3
# Si number density = 16.326478 Si / 1000 Ang^3
#
#
#
# Elastic Constant Matrix: (Units=GPa)
#
#
# Indices 1 2 3 4 5 6 
#
# 1 192.6859 62.2398 17.7442 0.0000 0.0000 0.0000
# 2 62.2398 70.4999 14.5318 0.0000 0.0000 0.0000
# 3 17.7442 14.5318 20.6540 0.0000 0.0000 0.0000
# 4 0.0000 0.0000 0.0000 16.6284 0.0000 0.0000
# 5 0.0000 0.0000 0.0000 0.0000 16.5300 0.0000
# 6 0.0000 0.0000 0.0000 0.0000 0.0000 12.4045
#
#
#
# Elastic Compliance Matrix: (Units=1/GPa)
#
#
# Indices 1 2 3 4 5 6 
#
# 1 0.007333 -0.006053 -0.002041 0.000000 0.000000 0.000000
# 2 -0.006053 0.021587 -0.009988 0.000000 0.000000 0.000000
# 3 -0.002041 -0.009988 0.057198 0.000000 0.000000 0.000000
# 4 0.000000 0.000000 0.000000 0.060138 0.000000 0.000000
# 5 0.000000 0.000000 0.000000 0.000000 0.060496 0.000000
# 6 0.000000 0.000000 0.000000 0.000000 0.000000 0.080616
#
#
# Mechanical properties :
#
#
# Convention : Reuss Voigt Hill
#
# Bulk Modulus (GPa) = 20.01865 52.54128 36.27996
# Shear Modulus (GPa) = 14.69796 21.73418 18.21607
#
# Velocity S-wave (km/s) = 3.00368 3.65255 3.34389
# Velocity P-wave (km/s) = 4.93128 7.07387 6.09742
#
# Compressibility (1/GPa) = 0.04995341
#
# Stress axis : x y z
#
# Youngs Moduli (GPa) = 136.37047 46.32400 17.48325
#
# Poissons Ratio (x) = 0.28040 0.03568
# Poissons Ratio (y) = 0.82546 0.17462
# Poissons Ratio (z) = 0.27833 0.46269
#
# Static dielectric constant tensor:
#      x y z
#    x 1.617970 0.000000 0.000000 
#    y 0.000000 1.503630 0.000000 
#    z 0.000000 0.000000 1.556880 
# 
# From -- ./inp_files/4889.got.cif
#   From: 2010.05.17/outbox.cif.g08.bks.cpg/sg57_3_cif.got.tgz:4889.got - 2010.06.03 13:58:18.
