data_PCOD9434356
_publ_section_title
;
Structure prediction by ZEFSAII (Michael W. Deem and Ramdas Pophale) SiO2 
 PCOD9434356
Probable space group: P B C M
;
_chemical_formula_sum "Si O2"
_cell_formula_units_Z 40
_cell_length_a 12.862845
_cell_length_b 21.362507
_cell_length_c 8.922220
_cell_angle_alpha 90.000000
_cell_angle_beta 90.000000
_cell_angle_gamma 90.000000
_cell_volume 2451.670955
_symmetry_space_group_name_H-M "P B C M"
_symmetry_group_IT_number 57
_symmetry_cell_setting 'orthorhombic'
loop_
_space_group_symop_operation_xyz
x,y,z
-x,-y,1/2+z
x,1/2-y,-z
-x,1/2+y,1/2-z
-x,-y,-z
x,y,1/2-z
-x,1/2+y,z
x,1/2-y,1/2+z
loop_
_atom_site_type_symbol
_atom_site_label
_atom_site_fract_x
_atom_site_fract_y
_atom_site_fract_z
Si Si1 0.144047 0.045961 0.571899
Si Si2 0.757379 0.318307 0.570685
Si Si3 0.583772 0.418974 0.929214
Si Si4 0.645383 0.551111 0.428061
Si Si5 0.083826 0.586977 0.928708
O O1 0.151828 0.036164 0.750000
O O2 0.250665 0.073871 0.509146
O O3 0.039993 0.085761 0.541801
O O4 0.126587 0.978632 0.493777
O O5 0.751339 0.250000 0.500000
O O6 0.765464 0.314131 0.750000
O O7 0.655432 0.359982 0.534129
O O8 0.854792 0.356921 0.505825
O O9 0.593245 0.431069 0.750000
O O10 0.461314 0.412045 0.962583
O O11 0.623824 0.480320 0.015383
O O12 0.661048 0.551040 0.250000
O O13 0.100044 0.588285 0.750000
#
# Coordination Sequence:
#
# PCOD9434356 Si02
#       5
#     8   8   8   8   8
#     4  10  19  31  49  75 107 135 163 209 261 307
#     4  11  22  36  54  74 103 137 172 212 253 300
#     4   9  19  33  48  72 103 134 169 210 254 299
#     4  10  18  29  50  76 103 133 167 208 256 307
#     4  10  20  33  50  74 102 134 174 211 253 304
#
# _framework density 16.315404000000001
#
# number of rings (size 3 to 8) (size 9 to 14) (size 15 to 20)
#    0.000    2.000    2.000    2.400    0.000    4.000 
#    0.000    0.000    0.000    1.200    0.000    5.600 
#    0.000    0.000    0.000    0.000    0.000    0.000 
#
# Total GULP energy -223175.962137 kJ/mol
# GULP energy per Si atom -5579.399053 kJ/mol
# Density = 1.627827 g / cm^3
# Si number density = 16.315404 Si / 1000 Ang^3
#
#
#
# Elastic Constant Matrix: (Units=GPa)
#
#
# Indices 1 2 3 4 5 6 
#
# 1 161.1831 60.8422 68.5980 0.0000 0.0000 0.0000
# 2 60.8422 92.6124 45.4506 0.0000 0.0000 0.0000
# 3 68.5980 45.4506 66.6809 0.0000 0.0000 0.0000
# 4 0.0000 0.0000 0.0000 22.0272 0.0000 0.0000
# 5 0.0000 0.0000 0.0000 0.0000 30.5118 0.0000
# 6 0.0000 0.0000 0.0000 0.0000 0.0000 17.6213
#
#
#
# Elastic Compliance Matrix: (Units=1/GPa)
#
#
# Indices 1 2 3 4 5 6 
#
# 1 0.011442 -0.002615 -0.009989 0.000000 0.000000 0.000000
# 2 -0.002615 0.016823 -0.008776 0.000000 0.000000 0.000000
# 3 -0.009989 -0.008776 0.031255 0.000000 0.000000 0.000000
# 4 0.000000 0.000000 0.000000 0.045398 0.000000 0.000000
# 5 0.000000 0.000000 0.000000 0.000000 0.032774 0.000000
# 6 0.000000 0.000000 0.000000 0.000000 0.000000 0.056749
#
#
# Mechanical properties :
#
#
# Convention : Reuss Voigt Hill
#
# Bulk Modulus (GPa) = 59.66781 74.47311 67.07046
# Shear Modulus (GPa) = 20.59394 23.73777 22.16585
#
# Velocity S-wave (km/s) = 3.55665 3.81849 3.68990
# Velocity P-wave (km/s) = 7.31555 8.07379 7.70401
#
# Compressibility (1/GPa) = 0.01675945
#
# Stress axis : x y z
#
# Youngs Moduli (GPa) = 87.39406 59.44338 31.99470
#
# Poissons Ratio (x) = 0.15544 0.31960
# Poissons Ratio (y) = 0.22853 0.28080
# Poissons Ratio (z) = 0.87298 0.52170
#
# Static dielectric constant tensor:
#      x y z
#    x 1.587740 0.000000 0.000000 
#    y 0.000000 1.498030 0.000000 
#    z 0.000000 0.000000 1.542090 
# 
# From -- ./inp_files/4798.got.cif
#   From: 2010.05.17/outbox.cif.g08.bks.cpg/sg57_3_cif.got.tgz:4798.got - 2010.06.03 13:58:18.
