data_PCOD9434749
_publ_section_title
;
Structure prediction by ZEFSAII (Michael W. Deem and Ramdas Pophale) SiO2 
 PCOD9434749
Probable space group: P B C M
;
_chemical_formula_sum "Si O2"
_cell_formula_units_Z 64
_cell_length_a 19.500345
_cell_length_b 10.390270
_cell_length_c 14.764065
_cell_angle_alpha 90.000000
_cell_angle_beta 90.000000
_cell_angle_gamma 90.000000
_cell_volume 2991.404046
_symmetry_space_group_name_H-M "P B C M"
_symmetry_group_IT_number 57
_symmetry_cell_setting 'orthorhombic'
loop_
_space_group_symop_operation_xyz
x,y,z
-x,-y,1/2+z
x,1/2-y,-z
-x,1/2+y,1/2-z
-x,-y,-z
x,y,1/2-z
-x,1/2+y,z
x,1/2-y,1/2+z
loop_
_atom_site_type_symbol
_atom_site_label
_atom_site_fract_x
_atom_site_fract_y
_atom_site_fract_z
Si Si1 0.577303 0.875548 0.561842
Si Si2 0.726835 0.656014 0.354974
Si Si3 0.931623 0.317821 0.360743
Si Si4 0.780409 0.114703 0.910279
Si Si5 0.279874 0.626813 0.114303
Si Si6 0.571267 0.374596 0.934743
Si Si7 0.049691 0.979290 0.860451
Si Si8 0.812483 0.609126 0.648657
O O1 0.573868 0.750000 0.500000
O O2 0.649774 0.865368 0.610720
O O3 0.503452 0.876727 0.612177
O O4 0.576829 0.001611 0.499518
O O5 0.719809 0.688413 0.250000
O O6 0.767312 0.523719 0.368011
O O7 0.771042 0.773730 0.395963
O O8 0.922118 0.320542 0.250000
O O9 0.860372 0.351747 0.409063
O O10 0.953640 0.171579 0.385986
O O11 0.986804 0.427711 0.384394
O O12 0.746131 0.233328 0.857203
O O13 0.743302 0.113995 0.008276
O O14 0.361096 0.621291 0.125563
O O15 0.240320 0.508253 0.156497
O O16 0.576538 0.250000 0.000000
O O17 0.053232 0.976986 0.750000
O O18 0.119400 0.048293 0.894849
O O19 0.833941 0.652761 0.750000
#
# Coordination Sequence:
#
# PCOD9434749 Si02
#       8
#     8   8   8   8   8   8   8   8
#     4  10  20  35  59  85 114 154 199 240 292 347
#     4  11  23  37  57  89 123 154 197 250 302 345
#     4  10  20  36  58  84 115 152 195 240 294 349
#     4  11  22  35  59  86 116 155 191 250 288 348
#     4  11  20  38  61  84 117 150 202 236 293 357
#     4  10  18  34  58  85 111 148 197 238 283 349
#     4   9  19  35  57  82 112 153 197 239 289 356
#     4  10  22  38  58  84 118 156 196 245 295 353
#
# _framework density 21.394635999999998
#
# number of rings (size 3 to 8) (size 9 to 14) (size 15 to 20)
#    0.000    1.750    3.750    1.125    1.750    0.500 
#    0.000    1.250    0.000   11.250    0.000    0.000 
#    0.000    0.000    0.000    0.000    0.000    0.000 
#
# Total GULP energy -357214.721018 kJ/mol
# GULP energy per Si atom -5581.480016 kJ/mol
# Density = 2.134594 g / cm^3
# Si number density = 21.394636 Si / 1000 Ang^3
#
#
#
# Elastic Constant Matrix: (Units=GPa)
#
#
# Indices 1 2 3 4 5 6 
#
# 1 186.3597 79.8602 8.7157 0.0000 0.0000 0.0000
# 2 79.8602 144.4309 11.9256 0.0000 0.0000 0.0000
# 3 8.7157 11.9256 36.3446 0.0000 0.0000 0.0000
# 4 0.0000 0.0000 0.0000 18.3952 0.0000 0.0000
# 5 0.0000 0.0000 0.0000 0.0000 31.5602 0.0000
# 6 0.0000 0.0000 0.0000 0.0000 0.0000 38.5885
#
#
#
# Elastic Compliance Matrix: (Units=1/GPa)
#
#
# Indices 1 2 3 4 5 6 
#
# 1 0.007039 -0.003857 -0.000422 0.000000 0.000000 0.000000
# 2 -0.003857 0.009230 -0.002104 0.000000 0.000000 0.000000
# 3 -0.000422 -0.002104 0.028306 0.000000 0.000000 0.000000
# 4 0.000000 0.000000 0.000000 0.054362 0.000000 0.000000
# 5 0.000000 0.000000 0.000000 0.000000 0.031685 0.000000
# 6 0.000000 0.000000 0.000000 0.000000 0.000000 0.025914
#
#
# Mechanical properties :
#
#
# Convention : Reuss Voigt Hill
#
# Bulk Modulus (GPa) = 31.43802 63.12646 47.28224
# Shear Modulus (GPa) = 27.79239 35.48436 31.63837
#
# Velocity S-wave (km/s) = 3.60812 4.07696 3.84969
# Velocity P-wave (km/s) = 5.66430 7.19250 6.47365
#
# Compressibility (1/GPa) = 0.03180862
#
# Stress axis : x y z
#
# Youngs Moduli (GPa) = 142.07535 108.34187 35.32822
#
# Poissons Ratio (x) = 0.41787 0.01492
# Poissons Ratio (y) = 0.54798 0.07432
# Poissons Ratio (z) = 0.06000 0.22792
#
# Static dielectric constant tensor:
#      x y z
#    x 1.800780 0.000000 0.000000 
#    y 0.000000 1.761080 0.000000 
#    z 0.000000 0.000000 1.711170 
# 
# From -- ./inp_files/25630.got.cif
#   From: 2010.05.17/outbox.cif.g08.bks.cpg/sg57_13_cif.got.tgz:25630.got - 2010.06.03 13:58:18.
