data_PCOD9434141
_publ_section_title
;
Structure prediction by ZEFSAII (Michael W. Deem and Ramdas Pophale) SiO2 
 PCOD9434141
Probable space group: P B C M
;
_chemical_formula_sum "Si O2"
_cell_formula_units_Z 64
_cell_length_a 7.825461
_cell_length_b 24.942364
_cell_length_c 13.959263
_cell_angle_alpha 90.000000
_cell_angle_beta 90.000000
_cell_angle_gamma 90.000000
_cell_volume 2724.645683
_symmetry_space_group_name_H-M "P B C M"
_symmetry_group_IT_number 57
_symmetry_cell_setting 'orthorhombic'
loop_
_space_group_symop_operation_xyz
x,y,z
-x,-y,1/2+z
x,1/2-y,-z
-x,1/2+y,1/2-z
-x,-y,-z
x,y,1/2-z
-x,1/2+y,z
x,1/2-y,1/2+z
loop_
_atom_site_type_symbol
_atom_site_label
_atom_site_fract_x
_atom_site_fract_y
_atom_site_fract_z
Si Si1 0.647740 0.327301 0.068063
Si Si2 0.142442 0.105913 0.004888
Si Si3 0.310774 0.947790 0.095540
Si Si4 0.249051 0.298930 0.857539
Si Si5 0.254606 0.179500 0.863746
Si Si6 0.996834 0.526107 0.353265
Si Si7 0.656003 0.985353 0.414567
Si Si8 0.337805 0.710555 0.357538
O O1 0.707509 0.384568 0.106605
O O2 0.439758 0.327190 0.083919
O O3 0.704493 0.273196 0.122771
O O4 0.704881 0.320555 0.956441
O O5 0.189466 0.153910 0.075238
O O6 0.008935 0.068394 0.059585
O O7 0.122293 0.136028 0.904139
O O8 0.295178 0.064636 0.982928
O O9 0.485701 0.970577 0.141071
O O10 0.150015 0.982174 0.128838
O O11 0.353558 0.963652 0.984969
O O12 0.190170 0.309586 0.750000
O O13 0.190364 0.239368 0.885465
O O14 0.455295 0.294525 0.855934
O O15 0.282179 0.174998 0.750000
O O16 0.966673 0.552248 0.250000
O O17 0.176387 0.496366 0.353989
O O18 0.277476 0.694550 0.250000
#
# Coordination Sequence:
#
# PCOD9434141 Si02
#       8
#     8   8   8   8   8   8   8   8
#     4  10  17  32  54  86 128 164 212 267 320 390
#     4  11  18  35  57  82 123 169 204 261 322 379
#     4  10  20  39  68  93 122 174 218 265 323 385
#     4   9  16  27  48  82 123 160 201 255 317 383
#     4  10  19  29  49  86 124 161 210 266 321 382
#     4  11  26  43  62  96 135 171 217 271 327 392
#     4  10  22  41  63  90 129 165 218 269 319 380
#     4   9  17  28  48  84 127 165 208 265 324 386
#
# _framework density 23.489291999999999
#
# number of rings (size 3 to 8) (size 9 to 14) (size 15 to 20)
#    0.000    2.000    2.500    3.375    0.000    2.000 
#    0.000    0.625    0.000    0.750   26.000    0.000 
#    0.000    0.000    0.000    0.000    0.000    0.000 
#
# Total GULP energy -357290.538449 kJ/mol
# GULP energy per Si atom -5582.664663 kJ/mol
# Density = 2.343583 g / cm^3
# Si number density = 23.489292 Si / 1000 Ang^3
#
#
#
# Elastic Constant Matrix: (Units=GPa)
#
#
# Indices 1 2 3 4 5 6 
#
# 1 67.4735 21.5643 16.8433 0.0000 0.0000 0.0000
# 2 21.5643 110.5585 25.3238 0.0000 0.0000 0.0000
# 3 16.8433 25.3238 129.5544 0.0000 0.0000 0.0000
# 4 0.0000 0.0000 0.0000 11.6631 0.0000 0.0000
# 5 0.0000 0.0000 0.0000 0.0000 -28.4579 0.0000
# 6 0.0000 0.0000 0.0000 0.0000 0.0000 7.9940
#
#
#
# Elastic Compliance Matrix: (Units=1/GPa)
#
#
# Indices 1 2 3 4 5 6 
#
# 1 0.016097 -0.002785 -0.001548 0.000000 0.000000 0.000000
# 2 -0.002785 0.009951 -0.001583 0.000000 0.000000 0.000000
# 3 -0.001548 -0.001583 0.008229 0.000000 0.000000 0.000000
# 4 0.000000 0.000000 0.000000 0.085740 0.000000 0.000000
# 5 0.000000 0.000000 0.000000 0.000000 -0.035140 0.000000
# 6 0.000000 0.000000 0.000000 0.000000 0.000000 0.125094
#
#
# Mechanical properties :
#
#
# Convention : Reuss Voigt Hill
#
# Bulk Modulus (GPa) = 44.55409 48.33879 46.44644
# Shear Modulus (GPa) = 21.80676 14.49685 18.15180
#
# Velocity S-wave (km/s) = 3.05022 2.48698 2.78289
# Velocity P-wave (km/s) = 5.60483 5.37313 5.49020
#
# Compressibility (1/GPa) = 0.02244463
#
# Stress axis : x y z
#
# Youngs Moduli (GPa) = 62.12237 100.49445 121.51413
#
# Poissons Ratio (x) = 0.27989 0.18815
# Poissons Ratio (y) = 0.17302 0.19235
# Poissons Ratio (z) = 0.09619 0.15908
#
# Static dielectric constant tensor:
#      x y z
#    x 1.931060 0.000000 0.000000 
#    y 0.000000 1.869620 0.000000 
#    z 0.000000 0.000000 1.908100 
# 
# From -- ./inp_files/16972.got.cif
#   From: 2010.05.17/outbox.cif.g08.bks.cpg/sg57_9_cif.got.tgz:16972.got - 2010.06.03 13:58:18.
