data_PCOD9434897
_publ_section_title
;
Structure prediction by ZEFSAII (Michael W. Deem and Ramdas Pophale) SiO2 
 PCOD9434897
Probable space group: P B C M
;
_chemical_formula_sum "Si O2"
_cell_formula_units_Z 64
_cell_length_a 18.833234
_cell_length_b 25.356285
_cell_length_c 9.483441
_cell_angle_alpha 90.000000
_cell_angle_beta 90.000000
_cell_angle_gamma 90.000000
_cell_volume 4528.730464
_symmetry_space_group_name_H-M "P B C M"
_symmetry_group_IT_number 57
_symmetry_cell_setting 'orthorhombic'
loop_
_space_group_symop_operation_xyz
x,y,z
-x,-y,1/2+z
x,1/2-y,-z
-x,1/2+y,1/2-z
-x,-y,-z
x,y,1/2-z
-x,1/2+y,z
x,1/2-y,1/2+z
loop_
_atom_site_type_symbol
_atom_site_label
_atom_site_fract_x
_atom_site_fract_y
_atom_site_fract_z
Si Si1 0.610513 0.513536 0.082010
Si Si2 0.243556 0.490649 0.416620
Si Si3 0.494561 0.918728 0.081531
Si Si4 0.907680 0.545789 0.913545
Si Si5 0.188794 0.889135 0.916310
Si Si6 0.444717 0.802598 0.416419
Si Si7 0.963004 0.424371 0.913293
Si Si8 0.724846 0.197179 0.583307
O O1 0.614418 0.521951 0.250000
O O2 0.574943 0.455640 0.058944
O O3 0.686878 0.517553 0.009095
O O4 0.556964 0.554617 0.008091
O O5 0.257231 0.480483 0.250000
O O6 0.174281 0.456722 0.461093
O O7 0.219608 0.551706 0.427775
O O8 0.509996 0.921233 0.250000
O O9 0.480560 0.858003 0.042193
O O10 0.908547 0.561230 0.750000
O O11 0.935599 0.485149 0.920241
O O12 0.964806 0.579173 0.999628
O O13 0.193043 0.874633 0.750000
O O14 0.105713 0.891056 0.958716
O O15 0.233531 0.850759 0.013402
O O16 0.466504 0.750000 0.500000
O O17 0.457316 0.794486 0.250000
O O18 0.359934 0.809781 0.435762
O O19 0.977114 0.412828 0.750000
O O20 0.745178 0.250000 0.500000
O O21 0.738622 0.201557 0.750000
#
# Coordination Sequence:
#
# PCOD9434897 Si02
#       8
#     8   8   8   8   8   8   8   8
#     4  10  19  29  43  63  84 110 146 180 209 250
#     4   9  17  28  41  58  83 113 140 169 208 249
#     4   9  18  32  45  59  84 113 139 172 215 257
#     4   8  14  24  37  54  77 105 135 163 193 233
#     4   9  17  28  41  58  81 110 142 172 205 246
#     4   9  18  31  46  63  83 108 139 175 213 253
#     4   8  14  24  37  54  77 104 133 165 198 229
#     4  10  19  30  43  60  82 107 137 173 210 245
#
# _framework density 14.131995999999999
#
# number of rings (size 3 to 8) (size 9 to 14) (size 15 to 20)
#    0.000    3.000    0.000    3.000    0.000    4.000 
#    0.000    2.500    0.000    0.000    0.000    0.000 
#    0.000    1.000    0.000    5.500    0.000    4.375 
#
# Total GULP energy -356294.047493 kJ/mol
# GULP energy per Si atom -5567.094492 kJ/mol
# Density = 1.409983 g / cm^3
# Si number density = 14.131996 Si / 1000 Ang^3
#
#
#
# Elastic Constant Matrix: (Units=GPa)
#
#
# Indices 1 2 3 4 5 6 
#
# 1 101.2244 31.2230 57.1533 0.0000 0.0000 0.0000
# 2 31.2230 67.5024 37.1863 0.0000 0.0000 0.0000
# 3 57.1533 37.1863 58.8072 0.0000 0.0000 0.0000
# 4 0.0000 0.0000 0.0000 21.4068 0.0000 0.0000
# 5 0.0000 0.0000 0.0000 0.0000 27.3126 0.0000
# 6 0.0000 0.0000 0.0000 0.0000 0.0000 16.1841
#
#
#
# Elastic Compliance Matrix: (Units=1/GPa)
#
#
# Indices 1 2 3 4 5 6 
#
# 1 0.022159 0.002477 -0.023102 0.000000 0.000000 0.000000
# 2 0.002477 0.023010 -0.016958 0.000000 0.000000 0.000000
# 3 -0.023102 -0.016958 0.050180 0.000000 0.000000 0.000000
# 4 0.000000 0.000000 0.000000 0.046714 0.000000 0.000000
# 5 0.000000 0.000000 0.000000 0.000000 0.036613 0.000000
# 6 0.000000 0.000000 0.000000 0.000000 0.000000 0.061789
#
#
# Mechanical properties :
#
#
# Convention : Reuss Voigt Hill
#
# Bulk Modulus (GPa) = 49.54458 53.18436 51.36447
# Shear Modulus (GPa) = 15.51063 19.77878 17.64471
#
# Velocity S-wave (km/s) = 3.31653 3.74515 3.53734
# Velocity P-wave (km/s) = 7.05694 7.51114 7.28758
#
# Compressibility (1/GPa) = 0.02018384
#
# Stress axis : x y z
#
# Youngs Moduli (GPa) = 45.12877 43.45849 19.92813
#
# Poissons Ratio (x) = -0.10765 0.46038
# Poissons Ratio (y) = -0.11179 0.33794
# Poissons Ratio (z) = 1.04257 0.73697
#
# Static dielectric constant tensor:
#      x y z
#    x 1.465040 0.000000 0.000000 
#    y 0.000000 1.450760 0.000000 
#    z 0.000000 0.000000 1.467150 
# 
# From -- ./inp_files/7359.got.cif
#   From: 2010.05.17/outbox.cif.g08.bks.cpg/sg57_4_cif.got.tgz:7359.got - 2010.06.03 13:58:18.
