data_PCOD9434491
_publ_section_title
;
Structure prediction by ZEFSAII (Michael W. Deem and Ramdas Pophale) SiO2 
 PCOD9434491
Probable space group: P B C M
;
_chemical_formula_sum "Si O2"
_cell_formula_units_Z 64
_cell_length_a 17.147261
_cell_length_b 24.812785
_cell_length_c 8.540111
_cell_angle_alpha 90.000000
_cell_angle_beta 90.000000
_cell_angle_gamma 90.000000
_cell_volume 3633.572134
_symmetry_space_group_name_H-M "P B C M"
_symmetry_group_IT_number 57
_symmetry_cell_setting 'orthorhombic'
loop_
_space_group_symop_operation_xyz
x,y,z
-x,-y,1/2+z
x,1/2-y,-z
-x,1/2+y,1/2-z
-x,-y,-z
x,y,1/2-z
-x,1/2+y,z
x,1/2-y,1/2+z
loop_
_atom_site_type_symbol
_atom_site_label
_atom_site_fract_x
_atom_site_fract_y
_atom_site_fract_z
Si Si1 0.531414 0.911814 0.938987
Si Si2 0.738429 0.310976 0.062049
Si Si3 0.374389 0.309103 0.937787
Si Si4 0.358973 0.912091 0.438598
Si Si5 0.095980 0.811258 0.563135
Si Si6 0.218053 0.128414 0.060208
Si Si7 0.932032 0.688752 0.563678
Si Si8 0.687477 0.974325 0.559524
O O1 0.526276 0.914211 0.750000
O O2 0.560917 0.852367 0.986780
O O3 0.602332 0.951062 0.986921
O O4 0.447352 0.922194 0.009519
O O5 0.738619 0.308115 0.250000
O O6 0.674613 0.354590 0.007584
O O7 0.726685 0.250000 0.000000
O O8 0.822919 0.332522 0.005655
O O9 0.374579 0.308227 0.750000
O O10 0.289851 0.332297 0.984821
O O11 0.387992 0.250000 0.000000
O O12 0.356865 0.911259 0.250000
O O13 0.308189 0.963778 0.491531
O O14 0.094233 0.750000 0.500000
O O15 0.098796 0.811514 0.750000
O O16 0.013658 0.833853 0.504122
O O17 0.211359 0.129184 0.250000
O O18 0.246763 0.068657 0.010750
O O19 0.139487 0.151346 0.987548
O O20 0.920029 0.750000 0.500000
O O21 0.937671 0.692193 0.750000
O O22 0.688447 0.973146 0.750000
#
# Coordination Sequence:
#
# PCOD9434491 Si02
#       8
#     8   8   8   8   8   8   8   8
#     4   9  18  32  49  69  94 125 161 202 245 286
#     4  10  20  34  51  73 101 128 157 196 243 292
#     4   9  18  30  44  64  93 129 162 194 237 285
#     4  10  20  33  52  75  95 122 161 202 243 290
#     4  10  18  31  51  73  98 128 161 195 237 286
#     4   9  17  31  49  69  96 129 163 199 240 285
#     4  11  20  30  47  74 105 132 162 197 234 280
#     4   8  16  33  53  71  95 127 162 201 246 289
#
# _framework density 17.613520999999999
#
# number of rings (size 3 to 8) (size 9 to 14) (size 15 to 20)
#    0.000    2.500    0.000    6.375    0.000    3.500 
#    0.000    5.000    0.000    0.750    0.000    0.000 
#    0.000    0.000    0.000    0.000    0.000    0.000 
#
# Total GULP energy -356727.600497 kJ/mol
# GULP energy per Si atom -5573.868758 kJ/mol
# Density = 1.757343 g / cm^3
# Si number density = 17.613521 Si / 1000 Ang^3
#
#
#
# Elastic Constant Matrix: (Units=GPa)
#
#
# Indices 1 2 3 4 5 6 
#
# 1 59.6590 24.2595 12.2906 0.0000 0.0000 0.0000
# 2 24.2595 95.6297 18.9631 0.0000 0.0000 0.0000
# 3 12.2906 18.9631 45.4783 0.0000 0.0000 0.0000
# 4 0.0000 0.0000 0.0000 14.8749 0.0000 0.0000
# 5 0.0000 0.0000 0.0000 0.0000 25.2117 0.0000
# 6 0.0000 0.0000 0.0000 0.0000 0.0000 16.1337
#
#
#
# Elastic Compliance Matrix: (Units=1/GPa)
#
#
# Indices 1 2 3 4 5 6 
#
# 1 0.019170 -0.004182 -0.003437 0.000000 0.000000 0.000000
# 2 -0.004182 0.012312 -0.004004 0.000000 0.000000 0.000000
# 3 -0.003437 -0.004004 0.024587 0.000000 0.000000 0.000000
# 4 0.000000 0.000000 0.000000 0.067228 0.000000 0.000000
# 5 0.000000 0.000000 0.000000 0.000000 0.039664 0.000000
# 6 0.000000 0.000000 0.000000 0.000000 0.000000 0.061982
#
#
# Mechanical properties :
#
#
# Convention : Reuss Voigt Hill
#
# Bulk Modulus (GPa) = 30.46536 34.64371 32.55454
# Shear Modulus (GPa) = 19.29543 20.92764 20.11153
#
# Velocity S-wave (km/s) = 3.31341 3.45071 3.38275
# Velocity P-wave (km/s) = 5.65441 5.96557 5.81207
#
# Compressibility (1/GPa) = 0.03282417
#
# Stress axis : x y z
#
# Youngs Moduli (GPa) = 52.16368 81.22368 40.67226
#
# Poissons Ratio (x) = 0.33964 0.13980
# Poissons Ratio (y) = 0.21813 0.16283
# Poissons Ratio (z) = 0.17930 0.32518
#
# Static dielectric constant tensor:
#      x y z
#    x 1.609320 0.000000 0.000000 
#    y 0.000000 1.607310 0.000000 
#    z 0.000000 0.000000 1.632450 
# 
# From -- ./inp_files/7370.got.cif
#   From: 2010.05.17/outbox.cif.g08.bks.cpg/sg57_4_cif.got.tgz:7370.got - 2010.06.03 13:58:18.
