data_PCOD9434302
_publ_section_title
;
Structure prediction by ZEFSAII (Michael W. Deem and Ramdas Pophale) SiO2 
 PCOD9434302
Probable space group: P B C M
;
_chemical_formula_sum "Si O2"
_cell_formula_units_Z 64
_cell_length_a 15.476066
_cell_length_b 30.769334
_cell_length_c 7.714404
_cell_angle_alpha 90.000000
_cell_angle_beta 90.000000
_cell_angle_gamma 90.000000
_cell_volume 3673.508492
_symmetry_space_group_name_H-M "P B C M"
_symmetry_group_IT_number 57
_symmetry_cell_setting 'orthorhombic'
loop_
_space_group_symop_operation_xyz
x,y,z
-x,-y,1/2+z
x,1/2-y,-z
-x,1/2+y,1/2-z
-x,-y,-z
x,y,1/2-z
-x,1/2+y,z
x,1/2-y,1/2+z
loop_
_atom_site_type_symbol
_atom_site_label
_atom_site_fract_x
_atom_site_fract_y
_atom_site_fract_z
Si Si1 0.130087 0.472816 0.045342
Si Si2 0.955906 0.437226 0.540244
Si Si3 0.711764 0.201903 0.955855
Si Si4 0.454221 0.109932 0.955182
Si Si5 0.795893 0.386544 0.545839
Si Si6 0.629878 0.059941 0.460315
Si Si7 0.325114 0.463086 0.037322
Si Si8 0.513750 0.298522 0.041299
O O1 0.141461 0.479842 0.250000
O O2 0.089930 0.518027 0.977252
O O3 0.225361 0.462345 0.978209
O O4 0.054710 0.437642 0.019930
O O5 0.960212 0.437999 0.750000
O O6 0.890273 0.399916 0.480018
O O7 0.707663 0.197376 0.750000
O O8 0.613081 0.198248 0.024353
O O9 0.743379 0.250000 0.000000
O O10 0.770064 0.163146 0.023633
O O11 0.437547 0.113964 0.750000
O O12 0.381149 0.077630 0.026119
O O13 0.462866 0.159129 0.024582
O O14 0.546113 0.085847 0.977577
O O15 0.798097 0.396546 0.750000
O O16 0.716997 0.415947 0.476193
O O17 0.628892 0.061254 0.250000
O O18 0.633502 0.009474 0.513197
O O19 0.326214 0.462267 0.250000
O O20 0.517041 0.301510 0.250000
O O21 0.481422 0.250000 0.000000
#
# Coordination Sequence:
#
# PCOD9434302 Si02
#       8
#     8   8   8   8   8   8   8   8
#     4   9  16  29  46  65  87 117 155 189 225 268
#     4   9  17  29  45  65  90 118 149 187 228 269
#     4  10  19  31  46  66  92 119 152 189 229 272
#     4  10  19  31  45  65  91 120 154 190 226 263
#     4  10  18  29  46  66  92 124 155 183 224 276
#     4  10  18  29  44  64  91 126 158 181 214 267
#     4   9  17  30  47  64  90 125 156 188 225 270
#     4   9  18  30  44  63  86 114 147 186 226 264
#
# _framework density 17.422037
#
# number of rings (size 3 to 8) (size 9 to 14) (size 15 to 20)
#    0.000    2.500    2.500    0.750    0.000    1.500 
#    0.000    1.250    0.000    0.000    0.000    0.875 
#    0.000    4.000    0.000    0.000    0.000    0.000 
#
# Total GULP energy -356788.324685 kJ/mol
# GULP energy per Si atom -5574.817573 kJ/mol
# Density = 1.738238 g / cm^3
# Si number density = 17.422037 Si / 1000 Ang^3
#
#
#
# Elastic Constant Matrix: (Units=GPa)
#
#
# Indices 1 2 3 4 5 6 
#
# 1 74.7485 57.5468 -7.0603 0.0000 0.0000 0.0000
# 2 57.5468 133.2984 -8.3915 0.0000 0.0000 0.0000
# 3 -7.0603 -8.3915 20.0400 0.0000 0.0000 0.0000
# 4 0.0000 0.0000 0.0000 11.6957 0.0000 0.0000
# 5 0.0000 0.0000 0.0000 0.0000 12.3840 0.0000
# 6 0.0000 0.0000 0.0000 0.0000 0.0000 23.6874
#
#
#
# Elastic Compliance Matrix: (Units=1/GPa)
#
#
# Indices 1 2 3 4 5 6 
#
# 1 0.020284 -0.008532 0.003574 0.000000 0.000000 0.000000
# 2 -0.008532 0.011294 0.001723 0.000000 0.000000 0.000000
# 3 0.003574 0.001723 0.051881 0.000000 0.000000 0.000000
# 4 0.000000 0.000000 0.000000 0.085502 0.000000 0.000000
# 5 0.000000 0.000000 0.000000 0.000000 0.080749 0.000000
# 6 0.000000 0.000000 0.000000 0.000000 0.000000 0.042216
#
#
# Mechanical properties :
#
#
# Convention : Reuss Voigt Hill
#
# Bulk Modulus (GPa) = 12.98892 34.69743 23.84318
# Shear Modulus (GPa) = 15.42927 21.95289 18.69108
#
# Velocity S-wave (km/s) = 2.97916 3.55359 3.27898
# Velocity P-wave (km/s) = 4.39380 6.06600 5.29632
#
# Compressibility (1/GPa) = 0.07698868
#
# Stress axis : x y z
#
# Youngs Moduli (GPa) = 49.29909 88.54369 19.27497
#
# Poissons Ratio (x) = 0.75546 -0.06888
# Poissons Ratio (y) = 0.42062 -0.03321
# Poissons Ratio (z) = -0.17618 -0.15258
#
# Static dielectric constant tensor:
#      x y z
#    x 1.596050 0.000000 0.000000 
#    y 0.000000 1.594940 0.000000 
#    z 0.000000 0.000000 1.645870 
# 
# From -- ./inp_files/6038.got.cif
#   From: 2010.05.17/outbox.cif.g08.bks.cpg/sg57_4_cif.got.tgz:6038.got - 2010.06.03 13:58:18.
