data_PCOD9434616
_publ_section_title
;
Structure prediction by ZEFSAII (Michael W. Deem and Ramdas Pophale) SiO2 
 PCOD9434616
Probable space group: P B C M
;
_chemical_formula_sum "Si O2"
_cell_formula_units_Z 48
_cell_length_a 32.059898
_cell_length_b 9.513717
_cell_length_c 8.580688
_cell_angle_alpha 90.000000
_cell_angle_beta 90.000000
_cell_angle_gamma 90.000000
_cell_volume 2617.185321
_symmetry_space_group_name_H-M "P B C M"
_symmetry_group_IT_number 57
_symmetry_cell_setting 'orthorhombic'
loop_
_space_group_symop_operation_xyz
x,y,z
-x,-y,1/2+z
x,1/2-y,-z
-x,1/2+y,1/2-z
-x,-y,-z
x,y,1/2-z
-x,1/2+y,z
x,1/2-y,1/2+z
loop_
_atom_site_type_symbol
_atom_site_label
_atom_site_fract_x
_atom_site_fract_y
_atom_site_fract_z
Si Si1 0.537423 0.407111 0.936641
Si Si2 0.369087 0.592410 0.437796
Si Si3 0.874248 0.089903 0.063481
Si Si4 0.038314 0.590387 0.936633
Si Si5 0.709885 0.908175 0.062122
Si Si6 0.786570 0.409617 0.063547
O O1 0.536000 0.406415 0.750000
O O2 0.584198 0.453916 0.985445
O O3 0.532518 0.250000 0.000000
O O4 0.500000 0.500000 0.000000
O O5 0.361877 0.750000 0.500000
O O6 0.368395 0.599263 0.250000
O O7 0.332636 0.487493 0.487500
O O8 0.874586 0.090157 0.250000
O O9 0.874131 0.250000 0.000000
O O10 0.917517 0.029517 0.998377
O O11 0.830653 0.030870 0.000236
O O12 0.038699 0.593331 0.750000
O O13 0.034632 0.750000 0.000000
O O14 0.000000 0.500000 0.000000
O O15 0.711839 0.907934 0.250000
O O16 0.710588 0.750000 0.000000
O O17 0.748652 0.996233 0.995931
O O18 0.787794 0.404340 0.250000
O O19 0.781617 0.250000 0.000000
#
# Coordination Sequence:
#
# PCOD9434616 Si02
#       6
#     8   8   8   8   8   8
#     4  10  20  36  56  82 112 146 183 226 273 324
#     4   9  20  37  58  81 108 141 184 227 270 321
#     4  10  18  32  54  81 109 142 182 227 271 320
#     4  11  21  36  56  82 113 148 186 229 276 327
#     4  11  23  39  56  80 111 145 180 222 273 328
#     4  11  21  36  58  84 110 142 181 225 270 322
#
# _framework density 18.340313999999999
#
# number of rings (size 3 to 8) (size 9 to 14) (size 15 to 20)
#    0.000    1.667    0.000    8.000    0.000    4.000 
#    0.000    2.500    0.000    0.000    0.000    0.000 
#    0.000    0.000    0.000    0.000    0.000    0.000 
#
# Total GULP energy -268050.898036 kJ/mol
# GULP energy per Si atom -5584.393709 kJ/mol
# Density = 1.829857 g / cm^3
# Si number density = 18.340314 Si / 1000 Ang^3
#
#
#
# Elastic Constant Matrix: (Units=GPa)
#
#
# Indices 1 2 3 4 5 6 
#
# 1 227.0970 98.7826 78.1828 0.0000 0.0000 0.0000
# 2 98.7826 81.2416 41.6224 0.0000 0.0000 0.0000
# 3 78.1828 41.6224 141.5778 0.0000 0.0000 0.0000
# 4 0.0000 0.0000 0.0000 29.6987 0.0000 0.0000
# 5 0.0000 0.0000 0.0000 0.0000 29.8343 0.0000
# 6 0.0000 0.0000 0.0000 0.0000 0.0000 31.9702
#
#
#
# Elastic Compliance Matrix: (Units=1/GPa)
#
#
# Indices 1 2 3 4 5 6 
#
# 1 0.009934 -0.010912 -0.002278 0.000000 0.000000 0.000000
# 2 -0.010912 0.026478 -0.001758 0.000000 0.000000 0.000000
# 3 -0.002278 -0.001758 0.008838 0.000000 0.000000 0.000000
# 4 0.000000 0.000000 0.000000 0.033672 0.000000 0.000000
# 5 0.000000 0.000000 0.000000 0.000000 0.033518 0.000000
# 6 0.000000 0.000000 0.000000 0.000000 0.000000 0.031279
#
#
# Mechanical properties :
#
#
# Convention : Reuss Voigt Hill
#
# Bulk Modulus (GPa) = 65.13104 98.56577 81.84841
# Shear Modulus (GPa) = 27.97466 33.72256 30.84861
#
# Velocity S-wave (km/s) = 3.90976 4.29267 4.10568
# Velocity P-wave (km/s) = 7.48139 8.85600 8.19756
#
# Compressibility (1/GPa) = 0.01535366
#
# Stress axis : x y z
#
# Youngs Moduli (GPa) = 100.66354 37.76746 113.14690
#
# Poissons Ratio (x) = 0.41212 0.25773
# Poissons Ratio (y) = 1.09844 0.19895
# Poissons Ratio (z) = 0.22930 0.06641
#
# Static dielectric constant tensor:
#      x y z
#    x 1.666760 0.000000 0.000000 
#    y 0.000000 1.707990 0.000000 
#    z 0.000000 0.000000 1.615010 
# 
# From -- ./inp_files/10015.got.cif
#   From: 2010.05.17/outbox.cif.g08.bks.cpg/sg57_6_cif.got.tgz:10015.got - 2010.06.03 13:58:18.
