data_PCOD9434619
_publ_section_title
;
Structure prediction by ZEFSAII (Michael W. Deem and Ramdas Pophale) SiO2 
 PCOD9434619
Probable space group: P B C M
;
_chemical_formula_sum "Si O2"
_cell_formula_units_Z 64
_cell_length_a 8.551479
_cell_length_b 22.498003
_cell_length_c 18.707291
_cell_angle_alpha 90.000000
_cell_angle_beta 90.000000
_cell_angle_gamma 90.000000
_cell_volume 3599.118168
_symmetry_space_group_name_H-M "P B C M"
_symmetry_group_IT_number 57
_symmetry_cell_setting 'orthorhombic'
loop_
_space_group_symop_operation_xyz
x,y,z
-x,-y,1/2+z
x,1/2-y,-z
-x,1/2+y,1/2-z
-x,-y,-z
x,y,1/2-z
-x,1/2+y,z
x,1/2-y,1/2+z
loop_
_atom_site_type_symbol
_atom_site_label
_atom_site_fract_x
_atom_site_fract_y
_atom_site_fract_z
Si Si1 0.340431 0.427068 0.525026
Si Si2 0.170075 0.668957 0.963104
Si Si3 0.695236 0.225672 0.391033
Si Si4 0.710846 0.445008 0.974698
Si Si5 0.793966 0.885894 0.669717
Si Si6 0.832994 0.389436 0.829632
Si Si7 0.199391 0.309360 0.043586
Si Si8 0.348494 0.244568 0.333560
O O1 0.263929 0.486018 0.491660
O O2 0.526380 0.432460 0.518418
O O3 0.292090 0.421411 0.607719
O O4 0.283414 0.367219 0.486893
O O5 0.234223 0.708112 0.897487
O O6 0.985862 0.681578 0.966961
O O7 0.261884 0.694937 0.032755
O O8 0.202437 0.599061 0.969739
O O9 0.774370 0.178732 0.337528
O O10 0.513951 0.232163 0.372189
O O11 0.761775 0.426876 0.894726
O O12 0.749430 0.904686 0.750000
O O13 0.747857 0.816801 0.662092
O O14 0.980165 0.890656 0.661914
O O15 0.791645 0.410774 0.750000
O O16 0.253538 0.294786 0.123854
O O17 0.244742 0.250000 0.000000
O O18 0.373630 0.258403 0.250000
#
# Coordination Sequence:
#
# PCOD9434619 Si02
#       8
#     8   8   8   8   8   8   8   8
#     4  11  22  39  60  85 113 152 196 243 284 343
#     4  10  20  35  56  86 113 147 191 241 290 339
#     4  10  18  32  54  81 116 146 187 236 286 336
#     4  10  23  38  57  85 116 149 198 238 284 342
#     4  10  20  34  55  83 115 145 184 237 292 347
#     4  10  20  34  54  83 116 151 190 235 287 344
#     4  12  22  36  60  87 115 152 194 241 294 341
#     4  11  23  35  53  85 121 155 189 235 297 352
#
# _framework density 17.782133999999999
#
# number of rings (size 3 to 8) (size 9 to 14) (size 15 to 20)
#    0.000    1.500    2.500    4.875    1.750    3.500 
#    0.000    1.250    0.000    6.000    0.000    0.000 
#    0.000    0.000    0.000    0.000    0.000    0.000 
#
# Total GULP energy -357125.559037 kJ/mol
# GULP energy per Si atom -5580.086860 kJ/mol
# Density = 1.774166 g / cm^3
# Si number density = 17.782134 Si / 1000 Ang^3
#
#
#
# Elastic Constant Matrix: (Units=GPa)
#
#
# Indices 1 2 3 4 5 6 
#
# 1 57.5127 37.8219 37.8141 0.0000 0.0000 0.0000
# 2 37.8219 124.4826 50.3943 0.0000 0.0000 0.0000
# 3 37.8141 50.3943 93.7396 0.0000 0.0000 0.0000
# 4 0.0000 0.0000 0.0000 20.8836 0.0000 0.0000
# 5 0.0000 0.0000 0.0000 0.0000 19.3500 0.0000
# 6 0.0000 0.0000 0.0000 0.0000 0.0000 -21.9928
#
#
#
# Elastic Compliance Matrix: (Units=1/GPa)
#
#
# Indices 1 2 3 4 5 6 
#
# 1 0.025565 -0.004592 -0.007844 0.000000 0.000000 0.000000
# 2 -0.004592 0.011093 -0.004111 0.000000 0.000000 0.000000
# 3 -0.007844 -0.004111 0.016042 0.000000 0.000000 0.000000
# 4 0.000000 0.000000 0.000000 0.047884 0.000000 0.000000
# 5 0.000000 0.000000 0.000000 0.000000 0.051679 0.000000
# 6 0.000000 0.000000 0.000000 0.000000 0.000000 -0.045469
#
#
# Mechanical properties :
#
#
# Convention : Reuss Voigt Hill
#
# Bulk Modulus (GPa) = 51.00605 58.64394 54.82500
# Shear Modulus (GPa) = 34.14757 13.62847 23.88802
#
# Velocity S-wave (km/s) = 4.38691 2.77142 3.66918
# Velocity P-wave (km/s) = 7.37605 6.57965 6.98920
#
# Compressibility (1/GPa) = 0.01960552
#
# Stress axis : x y z
#
# Youngs Moduli (GPa) = 39.11659 90.14936 62.33551
#
# Poissons Ratio (x) = 0.41395 0.48896
# Poissons Ratio (y) = 0.17962 0.25627
# Poissons Ratio (z) = 0.30683 0.37061
#
# Static dielectric constant tensor:
#      x y z
#    x 1.608330 0.000000 0.000000 
#    y 0.000000 1.618490 0.000000 
#    z 0.000000 0.000000 1.639540 
# 
# From -- ./inp_files/21505.got.cif
#   From: 2010.05.17/outbox.cif.g08.bks.cpg/sg57_11_cif.got.tgz:21505.got - 2010.06.03 13:58:18.
