data_PCOD9434496
_publ_section_title
;
Structure prediction by ZEFSAII (Michael W. Deem and Ramdas Pophale) SiO2 
 PCOD9434496
Probable space group: P B C M
;
_chemical_formula_sum "Si O2"
_cell_formula_units_Z 64
_cell_length_a 20.204400
_cell_length_b 20.390936
_cell_length_c 8.711259
_cell_angle_alpha 90.000000
_cell_angle_beta 90.000000
_cell_angle_gamma 90.000000
_cell_volume 3588.922215
_symmetry_space_group_name_H-M "P B C M"
_symmetry_group_IT_number 57
_symmetry_cell_setting 'orthorhombic'
loop_
_space_group_symop_operation_xyz
x,y,z
-x,-y,1/2+z
x,1/2-y,-z
-x,1/2+y,1/2-z
-x,-y,-z
x,y,1/2-z
-x,1/2+y,z
x,1/2-y,1/2+z
loop_
_atom_site_type_symbol
_atom_site_label
_atom_site_fract_x
_atom_site_fract_y
_atom_site_fract_z
Si Si1 0.478292 0.929601 0.434541
Si Si2 0.660928 0.030825 0.934812
Si Si3 0.853409 0.581482 0.434061
Si Si4 0.194823 0.553729 0.433654
Si Si5 0.737228 0.818382 0.567260
Si Si6 0.616587 0.889214 0.434356
Si Si7 0.960910 0.820865 0.066420
Si Si8 0.892005 0.319558 0.934231
O O1 0.479243 0.933059 0.250000
O O2 0.539041 0.882451 0.479553
O O3 0.500000 0.000000 0.500000
O O4 0.401388 0.922335 0.478438
O O5 0.665160 0.026431 0.750000
O O6 0.642614 0.958806 0.999569
O O7 0.730973 0.052792 0.000509
O O8 0.859648 0.579717 0.250000
O O9 0.843807 0.508773 0.498313
O O10 0.787428 0.623111 0.473369
O O11 0.914137 0.621577 0.505118
O O12 0.197574 0.547242 0.250000
O O13 0.156495 0.620638 0.471650
O O14 0.762063 0.750000 0.500000
O O15 0.733734 0.814285 0.750000
O O16 0.665478 0.834911 0.499653
O O17 0.621241 0.890678 0.250000
O O18 0.959651 0.818255 0.250000
O O19 0.938999 0.750000 0.000000
O O20 0.035633 0.831079 0.006774
O O21 0.898936 0.315007 0.750000
O O22 0.867873 0.250000 0.000000
#
# Coordination Sequence:
#
# PCOD9434496 Si02
#       8
#     8   8   8   8   8   8   8   8
#     4   8  16  28  46  73 102 136 175 218 267 316
#     4  10  18  31  51  78 111 143 179 222 273 329
#     4  11  23  38  57  82 114 148 187 232 278 329
#     4  11  23  37  57  85 116 147 183 229 282 333
#     4  11  23  36  52  76 107 149 193 232 278 333
#     4  10  18  31  51  74 105 141 182 231 274 321
#     4  11  22  38  61  85 113 149 189 231 274 327
#     4  10  22  41  63  86 111 142 182 227 277 338
#
# _framework density 17.832653000000001
#
# number of rings (size 3 to 8) (size 9 to 14) (size 15 to 20)
#    0.000    1.750    1.250    4.500    0.000    6.000 
#    0.000    0.000    0.000    0.750    0.000    1.750 
#    0.000    0.000    0.000    0.000    0.000    0.000 
#
# Total GULP energy -357202.941790 kJ/mol
# GULP energy per Si atom -5581.295965 kJ/mol
# Density = 1.779206 g / cm^3
# Si number density = 17.832653 Si / 1000 Ang^3
#
#
#
# Elastic Constant Matrix: (Units=GPa)
#
#
# Indices 1 2 3 4 5 6 
#
# 1 112.5846 70.6103 45.2153 0.0000 0.0000 0.0000
# 2 70.6103 108.9129 50.2669 0.0000 0.0000 0.0000
# 3 45.2153 50.2669 63.8775 0.0000 0.0000 0.0000
# 4 0.0000 0.0000 0.0000 26.3812 0.0000 0.0000
# 5 0.0000 0.0000 0.0000 0.0000 27.3843 0.0000
# 6 0.0000 0.0000 0.0000 0.0000 0.0000 18.6619
#
#
#
# Elastic Compliance Matrix: (Units=1/GPa)
#
#
# Indices 1 2 3 4 5 6 
#
# 1 0.015901 -0.008031 -0.004936 0.000000 0.000000 0.000000
# 2 -0.008031 0.018474 -0.008853 0.000000 0.000000 0.000000
# 3 -0.004936 -0.008853 0.026116 0.000000 0.000000 0.000000
# 4 0.000000 0.000000 0.000000 0.037906 0.000000 0.000000
# 5 0.000000 0.000000 0.000000 0.000000 0.036517 0.000000
# 6 0.000000 0.000000 0.000000 0.000000 0.000000 0.053585
#
#
# Mechanical properties :
#
#
# Convention : Reuss Voigt Hill
#
# Bulk Modulus (GPa) = 59.34337 68.61780 63.98058
# Shear Modulus (GPa) = 21.02988 22.43766 21.73377
#
# Velocity S-wave (km/s) = 3.43781 3.55101 3.49487
# Velocity P-wave (km/s) = 7.00772 7.44145 7.22784
#
# Compressibility (1/GPa) = 0.01685108
#
# Stress axis : x y z
#
# Youngs Moduli (GPa) = 62.88742 54.12883 38.29135
#
# Poissons Ratio (x) = 0.43472 0.18900
# Poissons Ratio (y) = 0.50506 0.33900
# Poissons Ratio (z) = 0.31040 0.47921
#
# Static dielectric constant tensor:
#      x y z
#    x 1.637250 0.000000 0.000000 
#    y 0.000000 1.588660 0.000000 
#    z 0.000000 0.000000 1.597220 
# 
# From -- ./inp_files/8738.got.cif
#   From: 2010.05.17/outbox.cif.g08.bks.cpg/sg57_5_cif.got.tgz:8738.got - 2010.06.03 13:58:18.
