data_PCOD9434163
_publ_section_title
;
Structure prediction by ZEFSAII (Michael W. Deem and Ramdas Pophale) SiO2 
 PCOD9434163
Probable space group: P B C M
;
_chemical_formula_sum "Si O2"
_cell_formula_units_Z 64
_cell_length_a 23.320113
_cell_length_b 9.838398
_cell_length_c 15.084495
_cell_angle_alpha 90.000000
_cell_angle_beta 90.000000
_cell_angle_gamma 90.000000
_cell_volume 3460.874200
_symmetry_space_group_name_H-M "P B C M"
_symmetry_group_IT_number 57
_symmetry_cell_setting 'orthorhombic'
loop_
_space_group_symop_operation_xyz
x,y,z
-x,-y,1/2+z
x,1/2-y,-z
-x,1/2+y,1/2-z
-x,-y,-z
x,y,1/2-z
-x,1/2+y,z
x,1/2-y,1/2+z
loop_
_atom_site_type_symbol
_atom_site_label
_atom_site_fract_x
_atom_site_fract_y
_atom_site_fract_z
Si Si1 0.045375 0.370342 0.072171
Si Si2 0.812127 0.517181 0.350602
Si Si3 0.919736 0.115856 0.945128
Si Si4 0.642322 0.405949 0.983623
Si Si5 0.256009 0.089973 0.986286
Si Si6 0.567617 0.029924 0.853391
Si Si7 0.538527 0.158827 0.146491
Si Si8 0.837048 0.839161 0.154120
O O1 0.095405 0.357734 0.142827
O O2 0.980199 0.364564 0.106335
O O3 0.050909 0.250000 0.000000
O O4 0.061483 0.505389 0.018247
O O5 0.797435 0.477269 0.250000
O O6 0.867447 0.436472 0.386280
O O7 0.761620 0.514151 0.422692
O O8 0.827287 0.677537 0.350752
O O9 0.904232 0.250000 0.000000
O O10 0.588539 0.395093 0.917004
O O11 0.661798 0.250000 0.000000
O O12 0.691764 0.503824 0.947696
O O13 0.618878 0.466816 0.076378
O O14 0.270775 0.250000 0.000000
O O15 0.199711 0.093382 0.923944
O O16 0.585325 0.016518 0.750000
O O17 0.537438 0.177945 0.863028
O O18 0.521464 0.913515 0.874355
O O19 0.551209 0.128949 0.250000
O O20 0.817343 0.888940 0.250000
#
# Coordination Sequence:
#
# PCOD9434163 Si02
#       8
#     8   8   8   8   8   8   8   8
#     4  10  17  34  56  80 108 143 175 213 272 328
#     4  10  20  37  59  78 104 144 182 221 276 333
#     4  10  20  31  56  83 110 139 171 219 271 326
#     4  10  21  35  54  76 106 143 175 214 269 319
#     4  10  21  38  55  76 102 135 187 234 264 309
#     4   9  18  33  53  79 110 141 173 210 256 312
#     4   9  18  33  53  79 110 140 171 209 256 311
#     4  10  19  35  59  79 102 141 185 225 271 326
#
# _framework density 18.492436999999999
#
# number of rings (size 3 to 8) (size 9 to 14) (size 15 to 20)
#    0.000    2.250    2.500    0.750    0.000    3.000 
#    0.000    0.625    0.000    0.000    0.000    0.000 
#    0.000    0.000    0.000    0.000    0.000    0.000 
#
# Total GULP energy -356752.302360 kJ/mol
# GULP energy per Si atom -5574.254724 kJ/mol
# Density = 1.845035 g / cm^3
# Si number density = 18.492437 Si / 1000 Ang^3
#
#
#
# Elastic Constant Matrix: (Units=GPa)
#
#
# Indices 1 2 3 4 5 6 
#
# 1 48.2144 16.8995 10.5956 0.0000 0.0000 0.0000
# 2 16.8995 40.6240 14.0160 0.0000 0.0000 0.0000
# 3 10.5956 14.0160 51.2398 0.0000 0.0000 0.0000
# 4 0.0000 0.0000 0.0000 14.6030 0.0000 0.0000
# 5 0.0000 0.0000 0.0000 0.0000 5.7437 0.0000
# 6 0.0000 0.0000 0.0000 0.0000 0.0000 28.2504
#
#
#
# Elastic Compliance Matrix: (Units=1/GPa)
#
#
# Indices 1 2 3 4 5 6 
#
# 1 0.024573 -0.009352 -0.002523 0.000000 0.000000 0.000000
# 2 -0.009352 0.030740 -0.006475 0.000000 0.000000 0.000000
# 3 -0.002523 -0.006475 0.021809 0.000000 0.000000 0.000000
# 4 0.000000 0.000000 0.000000 0.068479 0.000000 0.000000
# 5 0.000000 0.000000 0.000000 0.000000 0.174102 0.000000
# 6 0.000000 0.000000 0.000000 0.000000 0.000000 0.035398
#
#
# Mechanical properties :
#
#
# Convention : Reuss Voigt Hill
#
# Bulk Modulus (GPa) = 24.73864 24.78892 24.76378
# Shear Modulus (GPa) = 12.33730 16.29059 14.31394
#
# Velocity S-wave (km/s) = 2.58573 2.97127 2.78518
# Velocity P-wave (km/s) = 4.72456 5.02048 4.87477
#
# Compressibility (1/GPa) = 0.04042259
#
# Stress axis : x y z
#
# Youngs Moduli (GPa) = 40.69496 32.53063 45.85272
#
# Poissons Ratio (x) = 0.30422 0.11570
# Poissons Ratio (y) = 0.38057 0.29689
# Poissons Ratio (z) = 0.10268 0.21063
#
# Static dielectric constant tensor:
#      x y z
#    x 1.631100 0.000000 0.000000 
#    y 0.000000 1.630810 0.000000 
#    z 0.000000 0.000000 1.659390 
# 
# From -- ./inp_files/19511.got.cif
#   From: 2010.05.17/outbox.cif.g08.bks.cpg/sg57_10_cif.got.tgz:19511.got - 2010.06.03 13:58:18.
