data_PCOD9434269
_publ_section_title
;
Structure prediction by ZEFSAII (Michael W. Deem and Ramdas Pophale) SiO2 
 PCOD9434269
Probable space group: P B C M
;
_chemical_formula_sum "Si O2"
_cell_formula_units_Z 48
_cell_length_a 7.975578
_cell_length_b 14.614274
_cell_length_c 14.091126
_cell_angle_alpha 90.000000
_cell_angle_beta 90.000000
_cell_angle_gamma 90.000000
_cell_volume 1642.423350
_symmetry_space_group_name_H-M "P B C M"
_symmetry_group_IT_number 57
_symmetry_cell_setting 'orthorhombic'
loop_
_space_group_symop_operation_xyz
x,y,z
-x,-y,1/2+z
x,1/2-y,-z
-x,1/2+y,1/2-z
-x,-y,-z
x,y,1/2-z
-x,1/2+y,z
x,1/2-y,1/2+z
loop_
_atom_site_type_symbol
_atom_site_label
_atom_site_fract_x
_atom_site_fract_y
_atom_site_fract_z
Si Si1 0.556246 0.364402 0.641844
Si Si2 0.787323 0.519994 0.866493
Si Si3 0.620065 0.806771 0.367017
Si Si4 0.109807 0.408659 0.862769
Si Si5 0.887435 0.254453 0.388922
Si Si6 0.692871 0.073444 0.640322
O O1 0.501708 0.380977 0.750000
O O2 0.626025 0.459593 0.603572
O O3 0.415908 0.296516 0.599811
O O4 0.727546 0.303222 0.648991
O O5 0.788375 0.518836 0.750000
O O6 0.768491 0.625123 0.896649
O O7 0.946069 0.462789 0.899824
O O8 0.622258 0.802103 0.250000
O O9 0.455221 0.864105 0.400215
O O10 0.117622 0.424102 0.750000
O O11 0.057389 0.301994 0.868259
O O12 0.259706 0.473854 0.899647
O O13 0.869492 0.250000 0.500000
O O14 0.855692 0.359080 0.359492
O O15 0.643605 0.063316 0.750000
#
# Coordination Sequence:
#
# PCOD9434269 Si02
#       6
#     8   8   8   8   8   8
#     4   8  14  26  43  60  82 112 144 176 212 258
#     4   8  13  23  41  64  85 106 137 176 214 250
#     4   8  13  23  41  64  85 106 137 176 214 250
#     4   9  17  30  47  66  89 116 146 181 220 261
#     4  10  18  28  45  66  88 116 150 182 214 260
#     4   9  17  30  47  66  89 116 146 181 220 261
#
# _framework density 29.225109
#
# number of rings (size 3 to 8) (size 9 to 14) (size 15 to 20)
#    0.000    3.333    0.000    3.500    0.000    0.667 
#    0.000    1.667    0.000   24.000    0.000    9.333 
#    0.000    0.000    0.000    0.000    0.000    0.000 
#
# Total GULP energy -268499.880547 kJ/mol
# GULP energy per Si atom -5593.747511 kJ/mol
# Density = 2.915859 g / cm^3
# Si number density = 29.225109 Si / 1000 Ang^3
#
#
#
# Elastic Constant Matrix: (Units=GPa)
#
#
# Indices 1 2 3 4 5 6 
#
# 1 96.5017 7.9529 -5.5918 0.0000 0.0000 0.0000
# 2 7.9529 234.0277 5.8627 0.0000 0.0000 0.0000
# 3 -5.5918 5.8627 96.9154 0.0000 0.0000 0.0000
# 4 0.0000 0.0000 0.0000 -3.2039 0.0000 0.0000
# 5 0.0000 0.0000 0.0000 0.0000 32.7936 0.0000
# 6 0.0000 0.0000 0.0000 0.0000 0.0000 67.5555
#
#
#
# Elastic Compliance Matrix: (Units=1/GPa)
#
#
# Indices 1 2 3 4 5 6 
#
# 1 0.010429 -0.000370 0.000624 0.000000 0.000000 0.000000
# 2 -0.000370 0.004293 -0.000281 0.000000 0.000000 0.000000
# 3 0.000624 -0.000281 0.010371 0.000000 0.000000 0.000000
# 4 0.000000 0.000000 0.000000 -0.312121 0.000000 0.000000
# 5 0.000000 0.000000 0.000000 0.000000 0.030494 0.000000
# 6 0.000000 0.000000 0.000000 0.000000 0.000000 0.014803
#
#
# Mechanical properties :
#
#
# Convention : Reuss Voigt Hill
#
# Bulk Modulus (GPa) = 39.93741 49.32138 44.62940
# Shear Modulus (GPa) = -21.42881 47.37710 12.97414
#
# Velocity S-wave (km/s) = -2.71076 4.03067 2.10927
# Velocity P-wave (km/s) = 1.97420 6.21086 4.60826
#
# Compressibility (1/GPa) = 0.02503918
#
# Stress axis : x y z
#
# Youngs Moduli (GPa) = 95.88489 232.95827 96.42005
#
# Poissons Ratio (x) = 0.08621 -0.06018
# Poissons Ratio (y) = 0.03548 0.02710
# Poissons Ratio (z) = -0.05984 0.06547
#
# Static dielectric constant tensor:
#      x y z
#    x 2.351710 0.000000 0.000000 
#    y 0.000000 2.259740 0.000000 
#    z 0.000000 0.000000 2.210980 
# 
# From -- ./inp_files/20936.got.cif
#   From: 2010.05.17/outbox.cif.g08.bks.cpg/sg57_11_cif.got.tgz:20936.got - 2010.06.03 13:58:18.
