data_PCOD9434044
_publ_section_title
;
Structure prediction by ZEFSAII (Michael W. Deem and Ramdas Pophale) SiO2 
 PCOD9434044
Probable space group: P B C M
;
_chemical_formula_sum "Si O2"
_cell_formula_units_Z 56
_cell_length_a 14.146777
_cell_length_b 29.569333
_cell_length_c 7.608933
_cell_angle_alpha 90.000000
_cell_angle_beta 90.000000
_cell_angle_gamma 90.000000
_cell_volume 3182.898546
_symmetry_space_group_name_H-M "P B C M"
_symmetry_group_IT_number 57
_symmetry_cell_setting 'orthorhombic'
loop_
_space_group_symop_operation_xyz
x,y,z
-x,-y,1/2+z
x,1/2-y,-z
-x,1/2+y,1/2-z
-x,-y,-z
x,y,1/2-z
-x,1/2+y,z
x,1/2-y,1/2+z
loop_
_atom_site_type_symbol
_atom_site_label
_atom_site_fract_x
_atom_site_fract_y
_atom_site_fract_z
Si Si1 0.604392 0.516937 0.961019
Si Si2 0.210710 0.534352 0.039328
Si Si3 0.231379 0.300620 0.461055
Si Si4 0.897047 0.551963 0.962592
Si Si5 0.925193 0.107933 0.539291
Si Si6 0.295701 0.394618 0.462501
Si Si7 0.014100 0.300515 0.460747
O O1 0.612967 0.518611 0.750000
O O2 0.686983 0.482745 0.024300
O O3 0.630495 0.567503 0.026815
O O4 0.500000 0.500000 0.000000
O O5 0.212080 0.530441 0.250000
O O6 0.133941 0.497427 0.972098
O O7 0.174195 0.584217 0.998383
O O8 0.265492 0.250000 0.500000
O O9 0.226796 0.304641 0.250000
O O10 0.292960 0.342994 0.526714
O O11 0.122621 0.304503 0.527212
O O12 0.905026 0.549323 0.750000
O O13 0.807950 0.584485 0.998589
O O14 0.992171 0.574701 0.030599
O O15 0.933956 0.109149 0.750000
O O16 0.949352 0.158277 0.474591
O O17 0.305814 0.393010 0.250000
O O18 0.979843 0.250000 0.500000
O O19 0.019580 0.304337 0.250000
#
# Coordination Sequence:
#
# PCOD9434044 Si02
#       7
#     8   8   8   8   8   8   8
#     4   9  18  32  49  66  85 111 144 180 221 266
#     4   9  18  29  42  62  86 112 141 173 213 258
#     4   9  15  25  41  60  85 116 148 177 205 244
#     4   8  13  24  40  58  84 116 146 170 198 243
#     4  10  17  26  42  62  85 115 148 177 205 241
#     4   8  13  25  44  62  83 117 149 170 205 260
#     4   9  17  27  40  59  84 117 152 181 208 241
#
# _framework density 17.594024999999998
#
# number of rings (size 3 to 8) (size 9 to 14) (size 15 to 20)
#    0.000    3.143    1.429    2.143    0.000    1.143 
#    0.000    0.714    0.000    1.714    0.000    1.000 
#    0.000    2.286    0.000    0.000    0.000    0.000 
#
# Total GULP energy -311885.841003 kJ/mol
# GULP energy per Si atom -5569.390018 kJ/mol
# Density = 1.755398 g / cm^3
# Si number density = 17.594025 Si / 1000 Ang^3
#
#
#
# Elastic Constant Matrix: (Units=GPa)
#
#
# Indices 1 2 3 4 5 6 
#
# 1 81.7568 84.2212 3.5776 0.0000 0.0000 0.0000
# 2 84.2212 168.6570 5.6164 0.0000 0.0000 0.0000
# 3 3.5776 5.6164 35.7099 0.0000 0.0000 0.0000
# 4 0.0000 0.0000 0.0000 15.3014 0.0000 0.0000
# 5 0.0000 0.0000 0.0000 0.0000 11.0633 0.0000
# 6 0.0000 0.0000 0.0000 0.0000 0.0000 18.5652
#
#
#
# Elastic Compliance Matrix: (Units=1/GPa)
#
#
# Indices 1 2 3 4 5 6 
#
# 1 0.025200 -0.012566 -0.000548 0.000000 0.000000 0.000000
# 2 -0.012566 0.012226 -0.000664 0.000000 0.000000 0.000000
# 3 -0.000548 -0.000664 0.028163 0.000000 0.000000 0.000000
# 4 0.000000 0.000000 0.000000 0.065354 0.000000 0.000000
# 5 0.000000 0.000000 0.000000 0.000000 0.090389 0.000000
# 6 0.000000 0.000000 0.000000 0.000000 0.000000 0.053864
#
#
# Mechanical properties :
#
#
# Convention : Reuss Voigt Hill
#
# Bulk Modulus (GPa) = 26.29312 52.55047 39.42179
# Shear Modulus (GPa) = 15.85143 21.83320 18.84231
#
# Velocity S-wave (km/s) = 3.00485 3.52653 3.27609
# Velocity P-wave (km/s) = 5.19765 6.82019 6.06344
#
# Compressibility (1/GPa) = 0.03803276
#
# Stress axis : x y z
#
# Youngs Moduli (GPa) = 39.68298 81.79226 35.50781
#
# Poissons Ratio (x) = 1.02777 0.01947
# Poissons Ratio (y) = 0.49864 0.02358
# Poissons Ratio (z) = 0.02176 0.05431
#
# Static dielectric constant tensor:
#      x y z
#    x 1.578310 0.000000 0.000000 
#    y 0.000000 1.651740 0.000000 
#    z 0.000000 0.000000 1.670810 
# 
# From -- ./inp_files/5881.got.cif
#   From: 2010.05.17/outbox.cif.g08.bks.cpg/sg57_3_cif.got.tgz:5881.got - 2010.06.03 13:58:18.
