data_PCOD9434483
_publ_section_title
;
Structure prediction by ZEFSAII (Michael W. Deem and Ramdas Pophale) SiO2 
 PCOD9434483
Probable space group: P B C M
;
_chemical_formula_sum "Si O2"
_cell_formula_units_Z 40
_cell_length_a 11.949767
_cell_length_b 21.900205
_cell_length_c 8.903396
_cell_angle_alpha 90.000000
_cell_angle_beta 90.000000
_cell_angle_gamma 90.000000
_cell_volume 2330.039629
_symmetry_space_group_name_H-M "P B C M"
_symmetry_group_IT_number 57
_symmetry_cell_setting 'orthorhombic'
loop_
_space_group_symop_operation_xyz
x,y,z
-x,-y,1/2+z
x,1/2-y,-z
-x,1/2+y,1/2-z
-x,-y,-z
x,y,1/2-z
-x,1/2+y,z
x,1/2-y,1/2+z
loop_
_atom_site_type_symbol
_atom_site_label
_atom_site_fract_x
_atom_site_fract_y
_atom_site_fract_z
Si Si1 0.019988 0.909122 0.417615
Si Si2 0.820932 0.008375 0.079736
Si Si3 0.636086 0.815728 0.431277
Si Si4 0.119386 0.312218 0.926164
Si Si5 0.416299 0.450450 0.430715
O O1 0.027195 0.882499 0.250000
O O2 0.135614 0.939451 0.468964
O O3 0.972837 0.862450 0.538654
O O4 0.923468 0.960761 0.412790
O O5 0.803374 0.031655 0.250000
O O6 0.709133 0.973489 0.031395
O O7 0.599399 0.750000 0.500000
O O8 0.636480 0.811238 0.250000
O O9 0.763328 0.825509 0.489529
O O10 0.572326 0.878697 0.474971
O O11 0.141333 0.305949 0.750000
O O12 0.078151 0.250000 0.000000
O O13 0.500000 0.500000 0.500000
O O14 0.426598 0.451878 0.250000
#
# Coordination Sequence:
#
# PCOD9434483 Si02
#       5
#     8   8   8   8   8
#     4  10  18  31  50  73 103 133 167 208 253 308
#     4   9  18  33  49  71 103 135 166 207 258 306
#     4  10  19  34  52  76 106 137 172 220 268 316
#     4  11  20  30  48  74 104 138 172 210 259 314
#     4  10  21  36  54  77 109 140 177 225 268 314
#
# _framework density 17.167090000000002
#
# number of rings (size 3 to 8) (size 9 to 14) (size 15 to 20)
#    0.000    2.000    2.000    4.200    0.000    3.200 
#    0.000    0.000    0.000    1.200    0.000    2.800 
#    0.000    0.000    0.000    0.000    0.000    0.000 
#
# Total GULP energy -222813.862052 kJ/mol
# GULP energy per Si atom -5570.346551 kJ/mol
# Density = 1.712802 g / cm^3
# Si number density = 17.167090 Si / 1000 Ang^3
#
#
#
# Elastic Constant Matrix: (Units=GPa)
#
#
# Indices 1 2 3 4 5 6 
#
# 1 48.0915 39.0505 18.6842 0.0000 0.0000 0.0000
# 2 39.0505 112.7868 37.6035 0.0000 0.0000 0.0000
# 3 18.6842 37.6035 68.8625 0.0000 0.0000 0.0000
# 4 0.0000 0.0000 0.0000 29.5209 0.0000 0.0000
# 5 0.0000 0.0000 0.0000 0.0000 19.3574 0.0000
# 6 0.0000 0.0000 0.0000 0.0000 0.0000 20.1694
#
#
#
# Elastic Compliance Matrix: (Units=1/GPa)
#
#
# Indices 1 2 3 4 5 6 
#
# 1 0.029411 -0.009197 -0.002958 0.000000 0.000000 0.000000
# 2 -0.009197 0.013716 -0.004994 0.000000 0.000000 0.000000
# 3 -0.002958 -0.004994 0.018051 0.000000 0.000000 0.000000
# 4 0.000000 0.000000 0.000000 0.033874 0.000000 0.000000
# 5 0.000000 0.000000 0.000000 0.000000 0.051660 0.000000
# 6 0.000000 0.000000 0.000000 0.000000 0.000000 0.049580
#
#
# Mechanical properties :
#
#
# Convention : Reuss Voigt Hill
#
# Bulk Modulus (GPa) = 37.20252 46.71302 41.95777
# Shear Modulus (GPa) = 20.87247 22.76970 21.82109
#
# Velocity S-wave (km/s) = 3.49068 3.64587 3.56912
# Velocity P-wave (km/s) = 6.16152 6.70768 6.44039
#
# Compressibility (1/GPa) = 0.02687990
#
# Stress axis : x y z
#
# Youngs Moduli (GPa) = 34.00120 72.90950 55.39714
#
# Poissons Ratio (x) = 0.67053 0.16386
# Poissons Ratio (y) = 0.31270 0.27667
# Poissons Ratio (z) = 0.10057 0.36413
#
# Static dielectric constant tensor:
#      x y z
#    x 1.549450 0.000000 0.000000 
#    y 0.000000 1.674710 0.000000 
#    z 0.000000 0.000000 1.614860 
# 
# From -- ./inp_files/2875.got.cif
#   From: 2010.05.17/outbox.cif.g08.bks.cpg/sg57_2_cif.got.tgz:2875.got - 2010.06.03 13:58:18.
