data_PCOD9434625
_publ_section_title
;
Structure prediction by ZEFSAII (Michael W. Deem and Ramdas Pophale) SiO2 
 PCOD9434625
Probable space group: P B C M
;
_chemical_formula_sum "Si O2"
_cell_formula_units_Z 64
_cell_length_a 15.857785
_cell_length_b 9.218048
_cell_length_c 22.817543
_cell_angle_alpha 90.000000
_cell_angle_beta 90.000000
_cell_angle_gamma 90.000000
_cell_volume 3335.418769
_symmetry_space_group_name_H-M "P B C M"
_symmetry_group_IT_number 57
_symmetry_cell_setting 'orthorhombic'
loop_
_space_group_symop_operation_xyz
x,y,z
-x,-y,1/2+z
x,1/2-y,-z
-x,1/2+y,1/2-z
-x,-y,-z
x,y,1/2-z
-x,1/2+y,z
x,1/2-y,1/2+z
loop_
_atom_site_type_symbol
_atom_site_label
_atom_site_fract_x
_atom_site_fract_y
_atom_site_fract_z
Si Si1 0.896061 0.915018 0.178731
Si Si2 0.561623 0.886512 0.314856
Si Si3 0.772064 0.096991 0.817149
Si Si4 0.631029 0.864377 0.549447
Si Si5 0.944776 0.264403 0.681055
Si Si6 0.307099 0.678509 0.555694
Si Si7 0.268281 0.265575 0.656530
Si Si8 0.542752 0.335793 0.887419
O O1 0.897028 0.917040 0.250000
O O2 0.806005 0.850070 0.161637
O O3 0.970117 0.807543 0.157160
O O4 0.915238 0.078921 0.157801
O O5 0.535813 0.930854 0.250000
O O6 0.646386 0.791103 0.313260
O O7 0.487923 0.792359 0.344361
O O8 0.579939 0.028707 0.352617
O O9 0.743800 0.142789 0.750000
O O10 0.868538 0.149765 0.822032
O O11 0.729922 0.159318 0.877521
O O12 0.760692 0.923085 0.820132
O O13 0.610498 0.750000 0.500000
O O14 0.700706 0.790487 0.590597
O O15 0.543968 0.889764 0.583666
O O16 0.667636 0.019261 0.533585
O O17 0.961765 0.289312 0.750000
O O18 0.258942 0.750000 0.500000
O O19 0.390659 0.773116 0.567308
#
# Coordination Sequence:
#
# PCOD9434625 Si02
#       8
#     8   8   8   8   8   8   8   8
#     4  10  18  32  54  86 121 157 196 241 292 360
#     4  11  23  38  57  85 122 162 199 248 310 368
#     4  10  21  40  60  86 123 160 198 247 306 364
#     4  10  23  42  61  81 112 155 204 256 306 358
#     4   9  19  32  55  86 121 161 198 238 297 356
#     4  11  25  39  61  89 116 157 203 256 305 359
#     4  10  22  37  58  87 117 157 201 249 307 361
#     4  11  23  40  57  84 114 155 206 252 302 362
#
# _framework density 19.187994
#
# number of rings (size 3 to 8) (size 9 to 14) (size 15 to 20)
#    0.000    1.750    1.250    2.625    5.250    4.000 
#    0.000    0.000    0.000    0.750    0.000    5.250 
#    0.000    0.000    0.000    0.000    0.000    0.000 
#
# Total GULP energy -356816.886817 kJ/mol
# GULP energy per Si atom -5575.263857 kJ/mol
# Density = 1.914432 g / cm^3
# Si number density = 19.187994 Si / 1000 Ang^3
#
#
#
# Elastic Constant Matrix: (Units=GPa)
#
#
# Indices 1 2 3 4 5 6 
#
# 1 55.5836 6.8316 14.4406 0.0000 0.0000 0.0000
# 2 6.8316 65.4020 33.0527 0.0000 0.0000 0.0000
# 3 14.4406 33.0527 71.5875 0.0000 0.0000 0.0000
# 4 0.0000 0.0000 0.0000 136.8199 0.0000 0.0000
# 5 0.0000 0.0000 0.0000 0.0000 7.1979 0.0000
# 6 0.0000 0.0000 0.0000 0.0000 0.0000 23.4063
#
#
#
# Elastic Compliance Matrix: (Units=1/GPa)
#
#
# Indices 1 2 3 4 5 6 
#
# 1 0.018986 -0.000062 -0.003801 0.000000 0.000000 0.000000
# 2 -0.000062 0.019944 -0.009196 0.000000 0.000000 0.000000
# 3 -0.003801 -0.009196 0.018981 0.000000 0.000000 0.000000
# 4 0.000000 0.000000 0.000000 0.007309 0.000000 0.000000
# 5 0.000000 0.000000 0.000000 0.000000 0.138929 0.000000
# 6 0.000000 0.000000 0.000000 0.000000 0.000000 0.042723
#
#
# Mechanical properties :
#
#
# Convention : Reuss Voigt Hill
#
# Bulk Modulus (GPa) = 31.45320 33.46921 32.46120
# Shear Modulus (GPa) = 17.63119 42.70139 30.16629
#
# Velocity S-wave (km/s) = 3.03457 4.72256 3.96933
# Velocity P-wave (km/s) = 5.35778 6.87149 6.16130
#
# Compressibility (1/GPa) = 0.03179326
#
# Stress axis : x y z
#
# Youngs Moduli (GPa) = 52.67008 50.14063 52.68292
#
# Poissons Ratio (x) = 0.00312 0.20026
# Poissons Ratio (y) = 0.00327 0.48446
# Poissons Ratio (z) = 0.20021 0.46108
#
# Static dielectric constant tensor:
#      x y z
#    x 1.639030 0.000000 0.000000 
#    y 0.000000 1.684280 0.000000 
#    z 0.000000 0.000000 1.723460 
# 
# From -- ./inp_files/27474.got.cif
#   From: 2010.05.17/outbox.cif.g08.bks.cpg/sg57_14_cif.got.tgz:27474.got - 2010.06.03 13:58:18.
