data_PCOD9434825
_publ_section_title
;
Structure prediction by ZEFSAII (Michael W. Deem and Ramdas Pophale) SiO2 
 PCOD9434825
Probable space group: P B C M
;
_chemical_formula_sum "Si O2"
_cell_formula_units_Z 60
_cell_length_a 6.765130
_cell_length_b 24.114767
_cell_length_c 15.909866
_cell_angle_alpha 90.000000
_cell_angle_beta 90.000000
_cell_angle_gamma 90.000000
_cell_volume 2595.528120
_symmetry_space_group_name_H-M "P B C M"
_symmetry_group_IT_number 57
_symmetry_cell_setting 'orthorhombic'
loop_
_space_group_symop_operation_xyz
x,y,z
-x,-y,1/2+z
x,1/2-y,-z
-x,1/2+y,1/2-z
-x,-y,-z
x,y,1/2-z
-x,1/2+y,z
x,1/2-y,1/2+z
loop_
_atom_site_type_symbol
_atom_site_label
_atom_site_fract_x
_atom_site_fract_y
_atom_site_fract_z
Si Si1 0.162960 0.565329 0.060559
Si Si2 0.210798 0.047078 0.153475
Si Si3 0.117205 0.859510 0.417427
Si Si4 0.301761 0.254064 0.851787
Si Si5 0.566652 0.448354 0.415120
Si Si6 0.012800 0.750000 0.500000
Si Si7 0.288970 0.371406 0.155117
Si Si8 0.516518 0.137063 0.150130
O O1 0.286098 0.609383 0.115023
O O2 0.996033 0.532217 0.109172
O O3 0.335619 0.536355 0.005593
O O4 0.043965 0.601056 0.992889
O O5 0.161818 0.057524 0.250000
O O6 0.326646 0.101177 0.120245
O O7 0.367822 0.997677 0.144547
O O8 0.138511 0.800022 0.460641
O O9 0.945992 0.860645 0.349679
O O10 0.310362 0.892371 0.389597
O O11 0.249935 0.258589 0.750000
O O12 0.365439 0.190465 0.867054
O O13 0.472558 0.299028 0.868498
O O14 0.128691 0.266359 0.920215
O O15 0.352073 0.422775 0.403384
O O16 0.346723 0.385667 0.250000
O O17 0.523589 0.130761 0.250000
#
# Coordination Sequence:
#
# PCOD9434825 Si02
#       8
#     8   8   8   8   8   4   8   8
#     4  10  23  38  60  90 123 157 205 255 309 366
#     4  11  23  41  63  86 124 167 210 259 310 373
#     4   9  23  37  59  92 118 161 204 256 307 381
#     4   9  20  36  61  93 124 162 213 266 312 379
#     4  10  24  39  61  93 121 158 207 261 313 371
#     4  10  18  36  64  86 128 166 210 250 324 378
#     4  10  21  41  62  87 126 167 206 256 319 379
#     4  10  22  40  63  91 122 166 212 257 316 373
#
# _framework density 23.116682000000001
#
# number of rings (size 3 to 8) (size 9 to 14) (size 15 to 20)
#    0.800    1.333    0.000    2.000    5.600    3.733 
#    0.000    0.667    0.000    4.800    0.000    0.000 
#    0.000    0.000    0.000    0.000    0.000    0.000 
#
# Total GULP energy -334355.000701 kJ/mol
# GULP energy per Si atom -5572.583345 kJ/mol
# Density = 2.306407 g / cm^3
# Si number density = 23.116682 Si / 1000 Ang^3
#
#
#
# Elastic Constant Matrix: (Units=GPa)
#
#
# Indices 1 2 3 4 5 6 
#
# 1 53.4180 11.7763 15.6399 0.0000 0.0000 0.0000
# 2 11.7763 65.0898 13.8220 0.0000 0.0000 0.0000
# 3 15.6399 13.8220 57.3247 0.0000 0.0000 0.0000
# 4 0.0000 0.0000 0.0000 29.5318 0.0000 0.0000
# 5 0.0000 0.0000 0.0000 0.0000 24.2643 0.0000
# 6 0.0000 0.0000 0.0000 0.0000 0.0000 33.8086
#
#
#
# Elastic Compliance Matrix: (Units=1/GPa)
#
#
# Indices 1 2 3 4 5 6 
#
# 1 0.020784 -0.002694 -0.005021 0.000000 0.000000 0.000000
# 2 -0.002694 0.016542 -0.003253 0.000000 0.000000 0.000000
# 3 -0.005021 -0.003253 0.019599 0.000000 0.000000 0.000000
# 4 0.000000 0.000000 0.000000 0.033862 0.000000 0.000000
# 5 0.000000 0.000000 0.000000 0.000000 0.041213 0.000000
# 6 0.000000 0.000000 0.000000 0.000000 0.000000 0.029578
#
#
# Mechanical properties :
#
#
# Convention : Reuss Voigt Hill
#
# Bulk Modulus (GPa) = 28.58150 28.70098 28.64124
# Shear Modulus (GPa) = 25.61773 26.49390 26.05581
#
# Velocity S-wave (km/s) = 3.33256 3.38907 3.36094
# Velocity P-wave (km/s) = 5.21525 5.26850 5.24194
#
# Compressibility (1/GPa) = 0.03498766
#
# Stress axis : x y z
#
# Youngs Moduli (GPa) = 48.11328 60.45326 51.02348
#
# Poissons Ratio (x) = 0.16287 0.25619
# Poissons Ratio (y) = 0.12962 0.16600
# Poissons Ratio (z) = 0.24158 0.19668
#
# Static dielectric constant tensor:
#      x y z
#    x 1.877060 0.000000 0.000000 
#    y 0.000000 1.876350 0.000000 
#    z 0.000000 0.000000 1.894720 
# 
# From -- ./inp_files/20269.got.cif
#   From: 2010.05.17/outbox.cif.g08.bks.cpg/sg57_11_cif.got.tgz:20269.got - 2010.06.03 13:58:18.
