data_PCOD9434329
_publ_section_title
;
Structure prediction by ZEFSAII (Michael W. Deem and Ramdas Pophale) SiO2 
 PCOD9434329
Probable space group: P B C M
;
_chemical_formula_sum "Si O2"
_cell_formula_units_Z 56
_cell_length_a 14.454325
_cell_length_b 21.405752
_cell_length_c 8.526366
_cell_angle_alpha 90.000000
_cell_angle_beta 90.000000
_cell_angle_gamma 90.000000
_cell_volume 2638.106209
_symmetry_space_group_name_H-M "P B C M"
_symmetry_group_IT_number 57
_symmetry_cell_setting 'orthorhombic'
loop_
_space_group_symop_operation_xyz
x,y,z
-x,-y,1/2+z
x,1/2-y,-z
-x,1/2+y,1/2-z
-x,-y,-z
x,y,1/2-z
-x,1/2+y,z
x,1/2-y,1/2+z
loop_
_atom_site_type_symbol
_atom_site_label
_atom_site_fract_x
_atom_site_fract_y
_atom_site_fract_z
Si Si1 0.261660 0.142687 0.441088
Si Si2 0.462349 0.183169 0.436766
Si Si3 0.381435 0.602002 0.567116
Si Si4 0.233962 0.813306 0.572902
Si Si5 0.923309 0.081220 0.072880
Si Si6 0.061545 0.183334 0.440226
Si Si7 0.766199 0.999870 0.561185
O O1 0.263591 0.143091 0.250000
O O2 0.357738 0.171961 0.496464
O O3 0.168445 0.177596 0.488951
O O4 0.251524 0.070595 0.490116
O O5 0.496889 0.250000 0.500000
O O6 0.461453 0.186759 0.250000
O O7 0.525005 0.124019 0.484840
O O8 0.399555 0.591756 0.750000
O O9 0.313269 0.660381 0.538925
O O10 0.318851 0.544283 0.505145
O O11 0.197761 0.750000 0.500000
O O12 0.269934 0.804666 0.750000
O O13 0.153708 0.864173 0.580159
O O14 0.947080 0.060860 0.250000
O O15 0.009218 0.120196 0.003741
O O16 0.866702 0.026180 0.989260
O O17 0.025065 0.250000 0.500000
O O18 0.054172 0.182665 0.250000
O O19 0.764302 0.002508 0.750000
#
# Coordination Sequence:
#
# PCOD9434329 Si02
#       7
#     8   8   8   8   8   8   8
#     4   9  20  38  58  79 107 144 181 223 270 314
#     4  11  22  37  57  80 108 141 179 222 270 320
#     4  10  20  34  53  77 105 137 175 218 264 319
#     4  10  18  29  46  71 104 138 173 213 261 314
#     4   9  19  33  51  78 110 141 173 217 267 313
#     4  10  20  36  57  81 111 144 181 223 268 317
#     4   9  19  37  58  80 108 143 181 217 263 324
#
# _framework density 21.227349
#
# number of rings (size 3 to 8) (size 9 to 14) (size 15 to 20)
#    0.000    2.286    0.000    2.571    0.000    2.857 
#    0.000    2.857    0.000    0.000    0.000    0.000 
#    0.000    0.000    0.000    0.000    0.000    0.000 
#
# Total GULP energy -312413.855609 kJ/mol
# GULP energy per Si atom -5578.818850 kJ/mol
# Density = 2.117903 g / cm^3
# Si number density = 21.227349 Si / 1000 Ang^3
#
#
#
# Elastic Constant Matrix: (Units=GPa)
#
#
# Indices 1 2 3 4 5 6 
#
# 1 89.2922 15.4383 -6.1638 0.0000 0.0000 0.0000
# 2 15.4383 97.7842 6.9418 0.0000 0.0000 0.0000
# 3 -6.1638 6.9418 10.0931 0.0000 0.0000 0.0000
# 4 0.0000 0.0000 0.0000 15.5010 0.0000 0.0000
# 5 0.0000 0.0000 0.0000 0.0000 11.6607 0.0000
# 6 0.0000 0.0000 0.0000 0.0000 0.0000 34.3701
#
#
#
# Elastic Compliance Matrix: (Units=1/GPa)
#
#
# Indices 1 2 3 4 5 6 
#
# 1 0.012290 -0.002600 0.009294 0.000000 0.000000 0.000000
# 2 -0.002600 0.011302 -0.009361 0.000000 0.000000 0.000000
# 3 0.009294 -0.009361 0.111191 0.000000 0.000000 0.000000
# 4 0.000000 0.000000 0.000000 0.064512 0.000000 0.000000
# 5 0.000000 0.000000 0.000000 0.000000 0.085758 0.000000
# 6 0.000000 0.000000 0.000000 0.000000 0.000000 0.029095
#
#
# Mechanical properties :
#
#
# Convention : Reuss Voigt Hill
#
# Bulk Modulus (GPa) = 7.72505 25.51135 16.61820
# Shear Modulus (GPa) = 13.78806 24.36991 19.07899
#
# Velocity S-wave (km/s) = 2.55138 3.39195 3.00124
# Velocity P-wave (km/s) = 3.51091 5.23304 4.45596
#
# Compressibility (1/GPa) = 0.12944906
#
# Stress axis : x y z
#
# Youngs Moduli (GPa) = 81.36493 88.48254 8.99350
#
# Poissons Ratio (x) = 0.23007 -0.08358
# Poissons Ratio (y) = 0.21156 0.08419
# Poissons Ratio (z) = -0.75620 0.82828
#
# Static dielectric constant tensor:
#      x y z
#    x 1.803360 0.000000 0.000000 
#    y 0.000000 1.768140 0.000000 
#    z 0.000000 0.000000 1.374810 
# 
# From -- ./inp_files/5148.got.cif
#   From: 2010.05.17/outbox.cif.g08.bks.cpg/sg57_3_cif.got.tgz:5148.got - 2010.06.03 13:58:18.
