data_PCOD9434651
_publ_section_title
;
Structure prediction by ZEFSAII (Michael W. Deem and Ramdas Pophale) SiO2 
 PCOD9434651
Probable space group: P B C M
;
_chemical_formula_sum "Si O2"
_cell_formula_units_Z 64
_cell_length_a 5.246584
_cell_length_b 29.747454
_cell_length_c 20.870986
_cell_angle_alpha 90.000000
_cell_angle_beta 90.000000
_cell_angle_gamma 90.000000
_cell_volume 3257.387301
_symmetry_space_group_name_H-M "P B C M"
_symmetry_group_IT_number 57
_symmetry_cell_setting 'orthorhombic'
loop_
_space_group_symop_operation_xyz
x,y,z
-x,-y,1/2+z
x,1/2-y,-z
-x,1/2+y,1/2-z
-x,-y,-z
x,y,1/2-z
-x,1/2+y,z
x,1/2-y,1/2+z
loop_
_atom_site_type_symbol
_atom_site_label
_atom_site_fract_x
_atom_site_fract_y
_atom_site_fract_z
Si Si1 0.183208 0.306377 0.174703
Si Si2 0.682456 0.223269 0.607608
Si Si3 0.696269 0.368272 0.473359
Si Si4 0.803880 0.601550 0.595011
Si Si5 0.278624 0.149130 0.173816
Si Si6 0.732198 0.990201 0.172147
Si Si7 0.766180 0.954883 0.672611
Si Si8 0.776185 0.177412 0.395744
O O1 0.224531 0.308447 0.250000
O O2 0.407748 0.278420 0.141132
O O3 0.197393 0.355992 0.143538
O O4 0.908097 0.285990 0.158314
O O5 0.695781 0.181238 0.559556
O O6 0.732257 0.272148 0.578785
O O7 0.429826 0.390886 0.453956
O O8 0.739966 0.358519 0.547705
O O9 0.929647 0.395681 0.442567
O O10 0.769070 0.556612 0.635918
O O11 0.236129 0.152432 0.250000
O O12 0.264680 0.096731 0.153412
O O13 0.555430 0.167766 0.155816
O O14 0.052934 0.173549 0.135831
O O15 0.732821 0.983764 0.250000
O O16 0.468828 0.013914 0.152567
O O17 0.965245 0.023180 0.154970
O O18 0.758220 0.954364 0.750000
#
# Coordination Sequence:
#
# PCOD9434651 Si02
#       8
#     8   8   8   8   8   8   8   8
#     4  10  20  34  52  80 119 148 172 221 286 329
#     4  10  22  36  55  80 108 148 191 231 263 314
#     4  10  22  39  56  79 112 148 188 227 268 311
#     4  10  20  35  56  83 113 146 184 225 264 321
#     4  11  24  40  60  87 113 138 177 232 287 328
#     4  10  18  32  59  87 111 144 183 220 270 331
#     4   9  19  35  55  82 113 142 175 223 276 327
#     4  12  23  39  62  80 106 148 190 227 268 329
#
# _framework density 19.647646999999999
#
# number of rings (size 3 to 8) (size 9 to 14) (size 15 to 20)
#    0.000    1.750    0.000    4.500    0.000    5.000 
#    0.000    8.750    0.000   15.000    0.000    0.000 
#    0.000    0.000    0.000    0.000    0.000    0.000 
#
# Total GULP energy -357601.674783 kJ/mol
# GULP energy per Si atom -5587.526168 kJ/mol
# Density = 1.960293 g / cm^3
# Si number density = 19.647647 Si / 1000 Ang^3
#
#
#
# Elastic Constant Matrix: (Units=GPa)
#
#
# Indices 1 2 3 4 5 6 
#
# 1 66.4667 -10.3767 3.4387 0.0000 0.0000 0.0000
# 2 -10.3767 48.8692 -16.1962 0.0000 0.0000 0.0000
# 3 3.4387 -16.1962 37.6499 0.0000 0.0000 0.0000
# 4 0.0000 0.0000 0.0000 24.5560 0.0000 0.0000
# 5 0.0000 0.0000 0.0000 0.0000 13.0415 0.0000
# 6 0.0000 0.0000 0.0000 0.0000 0.0000 23.2187
#
#
#
# Elastic Compliance Matrix: (Units=1/GPa)
#
#
# Indices 1 2 3 4 5 6 
#
# 1 0.015561 0.003304 0.000000 0.000000 0.000000 0.000000
# 2 0.003304 0.024567 0.010266 0.000000 0.000000 0.000000
# 3 0.000000 0.010266 0.030977 0.000000 0.000000 0.000000
# 4 0.000000 0.000000 0.000000 0.040723 0.000000 0.000000
# 5 0.000000 0.000000 0.000000 0.000000 0.076678 0.000000
# 6 0.000000 0.000000 0.000000 0.000000 0.000000 0.043069
#
#
# Mechanical properties :
#
#
# Convention : Reuss Voigt Hill
#
# Bulk Modulus (GPa) = 10.17853 11.85750 11.01802
# Shear Modulus (GPa) = 21.08086 23.90458 22.49272
#
# Velocity S-wave (km/s) = 3.27914 3.49186 3.38717
# Velocity P-wave (km/s) = 4.41914 4.72288 4.57353
#
# Compressibility (1/GPa) = 0.09824601
#
# Stress axis : x y z
#
# Youngs Moduli (GPa) = 64.26337 40.70529 32.28218
#
# Poissons Ratio (x) = -0.13450 0.00000
# Poissons Ratio (y) = -0.21234 -0.33142
# Poissons Ratio (z) = -0.00001 -0.41789
#
# Static dielectric constant tensor:
#      x y z
#    x 1.663630 0.000000 0.000000 
#    y 0.000000 1.679220 0.000000 
#    z 0.000000 0.000000 1.660140 
# 
# From -- ./inp_files/23875.got.cif
#   From: 2010.05.17/outbox.cif.g08.bks.cpg/sg57_12_cif.got.tgz:23875.got - 2010.06.03 13:58:18.
