data_PCOD9434360
_publ_section_title
;
Structure prediction by ZEFSAII (Michael W. Deem and Ramdas Pophale) SiO2 
 PCOD9434360
Probable space group: P B C M
;
_chemical_formula_sum "Si O2"
_cell_formula_units_Z 56
_cell_length_a 19.662541
_cell_length_b 18.769150
_cell_length_c 8.627499
_cell_angle_alpha 90.000000
_cell_angle_beta 90.000000
_cell_angle_gamma 90.000000
_cell_volume 3183.971444
_symmetry_space_group_name_H-M "P B C M"
_symmetry_group_IT_number 57
_symmetry_cell_setting 'orthorhombic'
loop_
_space_group_symop_operation_xyz
x,y,z
-x,-y,1/2+z
x,1/2-y,-z
-x,1/2+y,1/2-z
-x,-y,-z
x,y,1/2-z
-x,1/2+y,z
x,1/2-y,1/2+z
loop_
_atom_site_type_symbol
_atom_site_label
_atom_site_fract_x
_atom_site_fract_y
_atom_site_fract_z
Si Si1 0.846750 0.071537 0.436921
Si Si2 0.760587 0.873978 0.063128
Si Si3 0.711404 0.025873 0.934753
Si Si4 0.379829 0.178134 0.563930
Si Si5 0.030636 0.829455 0.564713
Si Si6 0.426474 0.480265 0.063767
Si Si7 0.096493 0.085522 0.937001
O O1 0.839583 0.069542 0.250000
O O2 0.897702 0.134675 0.481844
O O3 0.771662 0.078011 0.509678
O O4 0.883181 0.995833 0.480838
O O5 0.759990 0.873514 0.250000
O O6 0.698906 0.825317 0.008118
O O7 0.838577 0.865605 0.014937
O O8 0.738115 0.951772 0.006978
O O9 0.709841 0.023108 0.750000
O O10 0.634395 0.029754 0.997850
O O11 0.412409 0.250000 0.500000
O O12 0.380736 0.181067 0.750000
O O13 0.411469 0.102203 0.518067
O O14 0.022020 0.750000 0.500000
O O15 0.028713 0.826443 0.750000
O O16 0.971092 0.882338 0.508753
O O17 0.424608 0.484111 0.250000
O O18 0.500000 0.500000 0.000000
O O19 0.090539 0.086828 0.750000
#
# Coordination Sequence:
#
# PCOD9434360 Si02
#       7
#     8   8   8   8   8   8   8
#     4   9  19  36  55  73  97 132 170 212 259 306
#     4   8  16  31  47  68 100 133 163 201 245 291
#     4  10  18  29  51  80 102 125 160 201 245 297
#     4   9  18  31  48  71 102 137 170 203 243 294
#     4  11  23  36  50  70  99 134 172 215 267 316
#     4  10  20  35  54  78 108 139 171 209 251 296
#     4   9  17  32  53  74  99 130 168 213 259 304
#
# _framework density 17.588097999999999
#
# number of rings (size 3 to 8) (size 9 to 14) (size 15 to 20)
#    0.000    2.571    0.000    4.286    0.000    6.857 
#    0.000    1.429    0.000    0.857    0.000    6.000 
#    0.000    0.000    0.000    0.000    0.000    0.000 
#
# Total GULP energy -311880.767234 kJ/mol
# GULP energy per Si atom -5569.299415 kJ/mol
# Density = 1.754807 g / cm^3
# Si number density = 17.588098 Si / 1000 Ang^3
#
#
#
# Elastic Constant Matrix: (Units=GPa)
#
#
# Indices 1 2 3 4 5 6 
#
# 1 136.0938 21.7866 51.7874 0.0000 0.0000 0.0000
# 2 21.7866 37.5238 15.9903 0.0000 0.0000 0.0000
# 3 51.7874 15.9903 130.8489 0.0000 0.0000 0.0000
# 4 0.0000 0.0000 0.0000 15.2544 0.0000 0.0000
# 5 0.0000 0.0000 0.0000 0.0000 28.2337 0.0000
# 6 0.0000 0.0000 0.0000 0.0000 0.0000 11.8295
#
#
#
# Elastic Compliance Matrix: (Units=1/GPa)
#
#
# Indices 1 2 3 4 5 6 
#
# 1 0.009184 -0.003991 -0.003147 0.000000 0.000000 0.000000
# 2 -0.003991 0.029848 -0.002068 0.000000 0.000000 0.000000
# 3 -0.003147 -0.002068 0.009141 0.000000 0.000000 0.000000
# 4 0.000000 0.000000 0.000000 0.065555 0.000000 0.000000
# 5 0.000000 0.000000 0.000000 0.000000 0.035419 0.000000
# 6 0.000000 0.000000 0.000000 0.000000 0.000000 0.084534
#
#
# Mechanical properties :
#
#
# Convention : Reuss Voigt Hill
#
# Bulk Modulus (GPa) = 33.60158 53.73277 43.66717
# Shear Modulus (GPa) = 19.08289 25.39033 22.23661
#
# Velocity S-wave (km/s) = 3.29749 3.80361 3.55956
# Velocity P-wave (km/s) = 5.80036 7.06448 6.46340
#
# Compressibility (1/GPa) = 0.02976051
#
# Stress axis : x y z
#
# Youngs Moduli (GPa) = 108.87968 33.50262 109.40045
#
# Poissons Ratio (x) = 0.13372 0.34431
# Poissons Ratio (y) = 0.43458 0.22623
# Poissons Ratio (z) = 0.34267 0.06928
#
# Static dielectric constant tensor:
#      x y z
#    x 1.633460 0.000000 0.000000 
#    y 0.000000 1.601720 0.000000 
#    z 0.000000 0.000000 1.568450 
# 
# From -- ./inp_files/7085.got.cif
#   From: 2010.05.17/outbox.cif.g08.bks.cpg/sg57_4_cif.got.tgz:7085.got - 2010.06.03 13:58:18.
