data_PCOD9434201
_publ_section_title
;
Structure prediction by ZEFSAII (Michael W. Deem and Ramdas Pophale) SiO2 
 PCOD9434201
Probable space group: P B C M
;
_chemical_formula_sum "Si O2"
_cell_formula_units_Z 64
_cell_length_a 27.339038
_cell_length_b 18.982333
_cell_length_c 8.660405
_cell_angle_alpha 90.000000
_cell_angle_beta 90.000000
_cell_angle_gamma 90.000000
_cell_volume 4494.392721
_symmetry_space_group_name_H-M "P B C M"
_symmetry_group_IT_number 57
_symmetry_cell_setting 'orthorhombic'
loop_
_space_group_symop_operation_xyz
x,y,z
-x,-y,1/2+z
x,1/2-y,-z
-x,1/2+y,1/2-z
-x,-y,-z
x,y,1/2-z
-x,1/2+y,z
x,1/2-y,1/2+z
loop_
_atom_site_type_symbol
_atom_site_label
_atom_site_fract_x
_atom_site_fract_y
_atom_site_fract_z
Si Si1 0.493143 0.828433 0.565031
Si Si2 0.307469 0.672701 0.565403
Si Si3 0.007727 0.828394 0.064837
Si Si4 0.104245 0.916564 0.437469
Si Si5 0.195575 0.827419 0.063217
Si Si6 0.604750 0.414950 0.564283
Si Si7 0.045409 0.454487 0.935684
Si Si8 0.454472 0.455072 0.064747
O O1 0.495173 0.750000 0.500000
O O2 0.494456 0.827467 0.750000
O O3 0.441833 0.866133 0.518090
O O4 0.537022 0.877854 0.503515
O O5 0.320150 0.750000 0.500000
O O6 0.308835 0.676137 0.750000
O O7 0.251508 0.656709 0.516565
O O8 0.346457 0.616354 0.507286
O O9 0.006955 0.827456 0.250000
O O10 0.058717 0.866447 0.015383
O O11 0.005657 0.750000 0.000000
O O12 0.963573 0.877460 0.004142
O O13 0.104605 0.915506 0.250000
O O14 0.155188 0.883424 0.490650
O O15 0.091680 0.997039 0.481656
O O16 0.194326 0.824868 0.250000
O O17 0.183089 0.750000 0.000000
O O18 0.607995 0.411251 0.750000
O O19 0.591695 0.495795 0.522414
O O20 0.043093 0.451257 0.750000
O O21 0.000000 0.500000 0.000000
O O22 0.457255 0.452032 0.250000
O O23 0.500000 0.500000 0.000000
#
# Coordination Sequence:
#
# PCOD9434201 Si02
#       8
#     8   8   8   8   8   8   8   8
#     4  10  19  29  42  61  83 109 137 167 199 236
#     4  10  19  28  41  58  79 106 136 170 203 233
#     4  10  18  27  40  59  81 107 136 167 200 238
#     4   8  15  27  42  57  77 105 136 166 199 236
#     4   9  17  29  41  57  79 104 135 169 201 234
#     4   9  18  30  43  58  79 107 138 167 199 235
#     4   9  16  27  41  57  78 105 133 165 201 238
#     4   9  17  29  43  59  79 105 134 167 202 238
#
# _framework density 14.239966000000001
#
# number of rings (size 3 to 8) (size 9 to 14) (size 15 to 20)
#    0.000    2.750    0.000    4.125    0.000    4.500 
#    0.000    3.125    0.000    0.000    0.000    0.000 
#    0.000    1.000    0.000    8.750    0.000    3.125 
#
# Total GULP energy -356337.003708 kJ/mol
# GULP energy per Si atom -5567.765683 kJ/mol
# Density = 1.420756 g / cm^3
# Si number density = 14.239966 Si / 1000 Ang^3
#
#
#
# Elastic Constant Matrix: (Units=GPa)
#
#
# Indices 1 2 3 4 5 6 
#
# 1 71.8854 46.4072 18.2228 0.0000 0.0000 0.0000
# 2 46.4072 102.5145 26.9926 0.0000 0.0000 0.0000
# 3 18.2228 26.9926 31.4535 0.0000 0.0000 0.0000
# 4 0.0000 0.0000 0.0000 24.7558 0.0000 0.0000
# 5 0.0000 0.0000 0.0000 0.0000 14.1467 0.0000
# 6 0.0000 0.0000 0.0000 0.0000 0.0000 27.2293
#
#
#
# Elastic Compliance Matrix: (Units=1/GPa)
#
#
# Indices 1 2 3 4 5 6 
#
# 1 0.020244 -0.007850 -0.004992 0.000000 0.000000 0.000000
# 2 -0.007850 0.015646 -0.008879 0.000000 0.000000 0.000000
# 3 -0.004992 -0.008879 0.042305 0.000000 0.000000 0.000000
# 4 0.000000 0.000000 0.000000 0.040395 0.000000 0.000000
# 5 0.000000 0.000000 0.000000 0.000000 0.070688 0.000000
# 6 0.000000 0.000000 0.000000 0.000000 0.000000 0.036725
#
#
# Mechanical properties :
#
#
# Convention : Reuss Voigt Hill
#
# Bulk Modulus (GPa) = 28.77440 43.23315 36.00378
# Shear Modulus (GPa) = 17.79168 20.84173 19.31670
#
# Velocity S-wave (km/s) = 3.53855 3.82986 3.68708
# Velocity P-wave (km/s) = 6.07830 7.06990 6.59277
#
# Compressibility (1/GPa) = 0.03475311
#
# Stress axis : x y z
#
# Youngs Moduli (GPa) = 49.39696 63.91308 23.63778
#
# Poissons Ratio (x) = 0.50171 0.11800
# Poissons Ratio (y) = 0.38776 0.20989
# Poissons Ratio (z) = 0.24659 0.56751
#
# Static dielectric constant tensor:
#      x y z
#    x 1.476240 0.000000 0.000000 
#    y 0.000000 1.454650 0.000000 
#    z 0.000000 0.000000 1.479380 
# 
# From -- ./inp_files/9804.got.cif
#   From: 2010.05.17/outbox.cif.g08.bks.cpg/sg57_5_cif.got.tgz:9804.got - 2010.06.03 13:58:18.
