data_PCOD9434663
_publ_section_title
;
Structure prediction by ZEFSAII (Michael W. Deem and Ramdas Pophale) SiO2 
 PCOD9434663
Probable space group: P B C M
;
_chemical_formula_sum "Si O2"
_cell_formula_units_Z 48
_cell_length_a 9.507092
_cell_length_b 16.637644
_cell_length_c 16.266598
_cell_angle_alpha 90.000000
_cell_angle_beta 90.000000
_cell_angle_gamma 90.000000
_cell_volume 2572.979097
_symmetry_space_group_name_H-M "P B C M"
_symmetry_group_IT_number 57
_symmetry_cell_setting 'orthorhombic'
loop_
_space_group_symop_operation_xyz
x,y,z
-x,-y,1/2+z
x,1/2-y,-z
-x,1/2+y,1/2-z
-x,-y,-z
x,y,1/2-z
-x,1/2+y,z
x,1/2-y,1/2+z
loop_
_atom_site_type_symbol
_atom_site_label
_atom_site_fract_x
_atom_site_fract_y
_atom_site_fract_z
Si Si1 0.307890 0.436300 0.155460
Si Si2 0.858831 0.723785 0.849578
Si Si3 0.419420 0.650469 0.892347
Si Si4 0.172439 0.757011 0.846147
Si Si5 0.414506 0.307129 0.848692
Si Si6 0.647369 0.399384 0.575603
O O1 0.271084 0.455515 0.250000
O O2 0.212733 0.360881 0.126613
O O3 0.470302 0.406852 0.153078
O O4 0.294366 0.513882 0.098941
O O5 0.864767 0.720903 0.750000
O O6 0.748661 0.794930 0.870073
O O7 0.016630 0.738218 0.878507
O O8 0.272984 0.678919 0.852851
O O9 0.505586 0.734480 0.894668
O O10 0.386451 0.613895 0.980682
O O11 0.165446 0.779795 0.750000
O O12 0.245804 0.829999 0.894282
O O13 0.430700 0.295237 0.750000
O O14 0.500045 0.385030 0.875690
#
# Coordination Sequence:
#
# PCOD9434663 Si02
#       6
#     8   8   8   8   8   8
#     4  10  19  35  54  73  97 133 171 208 250 300
#     4   8  17  32  52  72  96 130 171 205 243 299
#     4  10  19  32  49  73 102 132 163 200 248 305
#     4  10  18  33  53  73  97 134 173 207 245 300
#     4   9  16  31  52  74  97 132 174 211 247 297
#     4  11  20  31  50  79 105 127 163 215 258 291
#
# _framework density 18.655418000000001
#
# number of rings (size 3 to 8) (size 9 to 14) (size 15 to 20)
#    0.000    2.333    0.000    7.500    0.000    0.000 
#    0.000    9.167    0.000    4.000    0.000    0.000 
#    0.000    0.000    0.000    0.000    0.000    0.000 
#
# Total GULP energy -267491.601448 kJ/mol
# GULP energy per Si atom -5572.741697 kJ/mol
# Density = 1.861296 g / cm^3
# Si number density = 18.655418 Si / 1000 Ang^3
#
#
#
# Elastic Constant Matrix: (Units=GPa)
#
#
# Indices 1 2 3 4 5 6 
#
# 1 137.8699 28.2517 8.9633 0.0000 0.0000 0.0000
# 2 28.2517 53.0168 2.1791 0.0000 0.0000 0.0000
# 3 8.9633 2.1791 45.4399 0.0000 0.0000 0.0000
# 4 0.0000 0.0000 0.0000 -20.0024 0.0000 0.0000
# 5 0.0000 0.0000 0.0000 0.0000 -161.2031 0.0000
# 6 0.0000 0.0000 0.0000 0.0000 0.0000 11.8562
#
#
#
# Elastic Compliance Matrix: (Units=1/GPa)
#
#
# Indices 1 2 3 4 5 6 
#
# 1 0.008232 -0.004329 -0.001416 0.000000 0.000000 0.000000
# 2 -0.004329 0.021175 -0.000162 0.000000 0.000000 0.000000
# 3 -0.001416 -0.000162 0.022294 0.000000 0.000000 0.000000
# 4 0.000000 0.000000 0.000000 -0.049994 0.000000 0.000000
# 5 0.000000 0.000000 0.000000 0.000000 -0.006203 0.000000
# 6 0.000000 0.000000 0.000000 0.000000 0.000000 0.084344
#
#
# Mechanical properties :
#
#
# Convention : Reuss Voigt Hill
#
# Bulk Modulus (GPa) = 25.06979 35.01276 30.04128
# Shear Modulus (GPa) = 47.63834 -20.74102 13.44866
#
# Velocity S-wave (km/s) = 5.05879 -3.33798 2.68787
# Velocity P-wave (km/s) = 6.89850 1.98816 5.07652
#
# Compressibility (1/GPa) = 0.03988864
#
# Stress axis : x y z
#
# Youngs Moduli (GPa) = 121.47274 47.22492 44.85467
#
# Poissons Ratio (x) = 0.20442 0.06353
# Poissons Ratio (y) = 0.52581 0.00725
# Poissons Ratio (z) = 0.17204 0.00763
#
# Static dielectric constant tensor:
#      x y z
#    x 1.674660 0.000000 0.000000 
#    y 0.000000 1.661880 0.000000 
#    z 0.000000 0.000000 1.679630 
# 
# From -- ./inp_files/16325.got.cif
#   From: 2010.05.17/outbox.cif.g08.bks.cpg/sg57_9_cif.got.tgz:16325.got - 2010.06.03 13:58:18.
