data_PCOD9434289
_publ_section_title
;
Structure prediction by ZEFSAII (Michael W. Deem and Ramdas Pophale) SiO2 
 PCOD9434289
Probable space group: P B C M
;
_chemical_formula_sum "Si O2"
_cell_formula_units_Z 64
_cell_length_a 16.956618
_cell_length_b 24.532872
_cell_length_c 8.745639
_cell_angle_alpha 90.000000
_cell_angle_beta 90.000000
_cell_angle_gamma 90.000000
_cell_volume 3638.138064
_symmetry_space_group_name_H-M "P B C M"
_symmetry_group_IT_number 57
_symmetry_cell_setting 'orthorhombic'
loop_
_space_group_symop_operation_xyz
x,y,z
-x,-y,1/2+z
x,1/2-y,-z
-x,1/2+y,1/2-z
-x,-y,-z
x,y,1/2-z
-x,1/2+y,z
x,1/2-y,1/2+z
loop_
_atom_site_type_symbol
_atom_site_label
_atom_site_fract_x
_atom_site_fract_y
_atom_site_fract_z
Si Si1 0.434529 0.188731 0.433284
Si Si2 0.188963 0.475421 0.067614
Si Si3 0.876651 0.691248 0.067785
Si Si4 0.403727 0.811092 0.433074
Si Si5 0.136989 0.917255 0.066348
Si Si6 0.034940 0.416464 0.566654
Si Si7 0.772612 0.189386 0.933728
Si Si8 0.722894 0.624183 0.065199
O O1 0.424075 0.250000 0.500000
O O2 0.438074 0.193232 0.250000
O O3 0.517029 0.164554 0.495190
O O4 0.360461 0.150936 0.475197
O O5 0.187592 0.476828 0.250000
O O6 0.193676 0.535875 0.999108
O O7 0.106118 0.451071 0.004708
O O8 0.255568 0.433682 0.008532
O O9 0.872990 0.696146 0.250000
O O10 0.942445 0.646276 0.031454
O O11 0.792923 0.665638 0.017182
O O12 0.891419 0.750000 0.000000
O O13 0.403124 0.750000 0.500000
O O14 0.411610 0.809953 0.250000
O O15 0.316108 0.831634 0.472145
O O16 0.136485 0.919883 0.250000
O O17 0.166086 0.857088 0.018206
O O18 0.049845 0.928554 0.002522
O O19 0.035014 0.424211 0.750000
O O20 0.775944 0.194364 0.750000
O O21 0.784787 0.250000 0.000000
O O22 0.727166 0.618576 0.250000
#
# Coordination Sequence:
#
# PCOD9434289 Si02
#       8
#     8   8   8   8   8   8   8   8
#     4  10  18  28  47  76 107 138 171 206 248 295
#     4  11  22  36  55  77  99 129 168 210 254 296
#     4   9  18  31  47  67  97 134 166 199 242 292
#     4   9  16  29  48  72 102 134 168 204 245 293
#     4  11  22  37  56  77 100 129 166 207 253 302
#     4  10  21  37  53  73 101 133 169 210 253 296
#     4   9  20  36  55  78 105 136 166 203 252 301
#     4   9  19  34  49  70 102 137 170 207 249 293
#
# _framework density 17.591415999999999
#
# number of rings (size 3 to 8) (size 9 to 14) (size 15 to 20)
#    0.000    2.250    0.000    4.875    0.000    5.500 
#    0.000    2.500    0.000    0.750    0.000    0.000 
#    0.000    0.000    0.000    0.000    0.000    0.000 
#
# Total GULP energy -356944.012314 kJ/mol
# GULP energy per Si atom -5577.250192 kJ/mol
# Density = 1.755138 g / cm^3
# Si number density = 17.591416 Si / 1000 Ang^3
#
#
#
# Elastic Constant Matrix: (Units=GPa)
#
#
# Indices 1 2 3 4 5 6 
#
# 1 55.5903 12.1996 17.9225 0.0000 0.0000 0.0000
# 2 12.1996 85.4057 23.1105 0.0000 0.0000 0.0000
# 3 17.9225 23.1105 49.1846 0.0000 0.0000 0.0000
# 4 0.0000 0.0000 0.0000 25.6827 0.0000 0.0000
# 5 0.0000 0.0000 0.0000 0.0000 21.6486 0.0000
# 6 0.0000 0.0000 0.0000 0.0000 0.0000 17.6622
#
#
#
# Elastic Compliance Matrix: (Units=1/GPa)
#
#
# Indices 1 2 3 4 5 6 
#
# 1 0.020463 -0.001037 -0.006969 0.000000 0.000000 0.000000
# 2 -0.001037 0.013467 -0.005950 0.000000 0.000000 0.000000
# 3 -0.006969 -0.005950 0.025667 0.000000 0.000000 0.000000
# 4 0.000000 0.000000 0.000000 0.038937 0.000000 0.000000
# 5 0.000000 0.000000 0.000000 0.000000 0.046192 0.000000
# 6 0.000000 0.000000 0.000000 0.000000 0.000000 0.056618
#
#
# Mechanical properties :
#
#
# Convention : Reuss Voigt Hill
#
# Bulk Modulus (GPa) = 31.56127 32.96066 32.26096
# Shear Modulus (GPa) = 20.84909 22.12855 21.48882
#
# Velocity S-wave (km/s) = 3.44639 3.55056 3.49886
# Velocity P-wave (km/s) = 5.81524 5.96541 5.89080
#
# Compressibility (1/GPa) = 0.03168441
#
# Stress axis : x y z
#
# Youngs Moduli (GPa) = 48.86797 74.25571 38.96081
#
# Poissons Ratio (x) = 0.07702 0.27153
# Poissons Ratio (y) = 0.05068 0.23181
# Poissons Ratio (z) = 0.34058 0.44181
#
# Static dielectric constant tensor:
#      x y z
#    x 1.621300 0.000000 0.000000 
#    y 0.000000 1.597360 0.000000 
#    z 0.000000 0.000000 1.588910 
# 
# From -- ./inp_files/7427.got.cif
#   From: 2010.05.17/outbox.cif.g08.bks.cpg/sg57_4_cif.got.tgz:7427.got - 2010.06.03 13:58:18.
