data_PCOD9434600
_publ_section_title
;
Structure prediction by ZEFSAII (Michael W. Deem and Ramdas Pophale) SiO2 
 PCOD9434600
Probable space group: P B C M
;
_chemical_formula_sum "Si O2"
_cell_formula_units_Z 64
_cell_length_a 19.666200
_cell_length_b 10.395686
_cell_length_c 14.348382
_cell_angle_alpha 90.000000
_cell_angle_beta 90.000000
_cell_angle_gamma 90.000000
_cell_volume 2933.435444
_symmetry_space_group_name_H-M "P B C M"
_symmetry_group_IT_number 57
_symmetry_cell_setting 'orthorhombic'
loop_
_space_group_symop_operation_xyz
x,y,z
-x,-y,1/2+z
x,1/2-y,-z
-x,1/2+y,1/2-z
-x,-y,-z
x,y,1/2-z
-x,1/2+y,z
x,1/2-y,1/2+z
loop_
_atom_site_type_symbol
_atom_site_label
_atom_site_fract_x
_atom_site_fract_y
_atom_site_fract_z
Si Si1 0.764756 0.106108 0.862227
Si Si2 0.454239 0.256598 0.363796
Si Si3 0.717670 0.112561 0.136095
Si Si4 0.435814 0.547989 0.363839
Si Si5 0.795846 0.866203 0.141217
Si Si6 0.307748 0.351177 0.863862
Si Si7 0.911119 0.385022 0.446539
Si Si8 0.942808 0.632006 0.927882
O O1 0.763452 0.105214 0.750000
O O2 0.739485 0.245774 0.893606
O O3 0.842273 0.084406 0.892780
O O4 0.715006 0.992428 0.894372
O O5 0.454808 0.257554 0.250000
O O6 0.459021 0.405348 0.393106
O O7 0.514564 0.162503 0.394021
O O8 0.381855 0.196870 0.392908
O O9 0.718021 0.115043 0.250000
O O10 0.641719 0.073987 0.107601
O O11 0.770590 0.003630 0.103299
O O12 0.436412 0.547758 0.250000
O O13 0.779564 0.871748 0.250000
O O14 0.749800 0.749881 0.105122
O O15 0.875756 0.844199 0.131843
O O16 0.308857 0.352742 0.750000
O O17 0.901992 0.250000 0.500000
O O18 0.927001 0.498759 0.519171
O O19 0.981115 0.375660 0.386421
O O20 0.945962 0.750000 0.000000
#
# Coordination Sequence:
#
# PCOD9434600 Si02
#       8
#     8   8   8   8   8   8   8   8
#     4  10  20  32  51  75 103 138 172 210 258 310
#     4   9  16  25  39  62  97 139 172 201 247 305
#     4   9  17  29  44  68 101 135 171 211 256 301
#     4   9  16  25  39  62  97 138 173 203 246 305
#     4  10  18  32  53  75 101 136 172 211 257 305
#     4   9  17  29  44  68 103 135 167 212 257 295
#     4  10  21  38  54  75 106 135 166 214 263 302
#     4  10  21  36  56  77 102 135 170 211 260 309
#
# _framework density 21.817422000000001
#
# number of rings (size 3 to 8) (size 9 to 14) (size 15 to 20)
#    0.000    2.500    1.250    1.500    1.750    0.500 
#    0.000    0.000    0.000    9.000    0.000    0.000 
#    0.000   20.000    0.000    0.000    0.000    0.000 
#
# Total GULP energy -357506.484252 kJ/mol
# GULP energy per Si atom -5586.038816 kJ/mol
# Density = 2.176776 g / cm^3
# Si number density = 21.817422 Si / 1000 Ang^3
#
#
#
# Elastic Constant Matrix: (Units=GPa)
#
#
# Indices 1 2 3 4 5 6 
#
# 1 122.1751 35.8167 -0.6974 0.0000 0.0000 0.0000
# 2 35.8167 137.3297 -1.2335 0.0000 0.0000 0.0000
# 3 -0.6974 -1.2335 52.7825 0.0000 0.0000 0.0000
# 4 0.0000 0.0000 0.0000 -5.1407 0.0000 0.0000
# 5 0.0000 0.0000 0.0000 0.0000 281.3314 0.0000
# 6 0.0000 0.0000 0.0000 0.0000 0.0000 41.2777
#
#
#
# Elastic Compliance Matrix: (Units=1/GPa)
#
#
# Indices 1 2 3 4 5 6 
#
# 1 0.008863 -0.002311 0.000063 0.000000 0.000000 0.000000
# 2 -0.002311 0.007886 0.000154 0.000000 0.000000 0.000000
# 3 0.000063 0.000154 0.018950 0.000000 0.000000 0.000000
# 4 0.000000 0.000000 0.000000 -0.194524 0.000000 0.000000
# 5 0.000000 0.000000 0.000000 0.000000 0.003555 0.000000
# 6 0.000000 0.000000 0.000000 0.000000 0.000000 0.024226
#
#
# Mechanical properties :
#
#
# Convention : Reuss Voigt Hill
#
# Bulk Modulus (GPa) = 31.73536 42.22877 36.98206
# Shear Modulus (GPa) = -42.97254 82.05378 19.54062
#
# Velocity S-wave (km/s) = -4.44288 6.13929 2.99598
# Velocity P-wave (km/s) = 3.42658 8.34579 5.38102
#
# Compressibility (1/GPa) = 0.03151060
#
# Stress axis : x y z
#
# Youngs Moduli (GPa) = 112.83117 126.80967 52.77015
#
# Poissons Ratio (x) = 0.29305 -0.00333
# Poissons Ratio (y) = 0.26074 -0.00811
# Poissons Ratio (z) = -0.00712 -0.01950
#
# Static dielectric constant tensor:
#      x y z
#    x 1.769290 0.000000 0.000000 
#    y 0.000000 1.771390 0.000000 
#    z 0.000000 0.000000 1.822180 
# 
# From -- ./inp_files/25629.got.cif
#   From: 2010.05.17/outbox.cif.g08.bks.cpg/sg57_13_cif.got.tgz:25629.got - 2010.06.03 13:58:18.
