data_PCOD9434506
_publ_section_title
;
Structure prediction by ZEFSAII (Michael W. Deem and Ramdas Pophale) SiO2 
 PCOD9434506
Probable space group: P B C M
;
_chemical_formula_sum "Si O2"
_cell_formula_units_Z 64
_cell_length_a 22.198730
_cell_length_b 19.275967
_cell_length_c 8.359069
_cell_angle_alpha 90.000000
_cell_angle_beta 90.000000
_cell_angle_gamma 90.000000
_cell_volume 3576.862234
_symmetry_space_group_name_H-M "P B C M"
_symmetry_group_IT_number 57
_symmetry_cell_setting 'orthorhombic'
loop_
_space_group_symop_operation_xyz
x,y,z
-x,-y,1/2+z
x,1/2-y,-z
-x,1/2+y,1/2-z
-x,-y,-z
x,y,1/2-z
-x,1/2+y,z
x,1/2-y,1/2+z
loop_
_atom_site_type_symbol
_atom_site_label
_atom_site_fract_x
_atom_site_fract_y
_atom_site_fract_z
Si Si1 0.033474 0.171491 0.943207
Si Si2 0.723144 0.641986 0.935617
Si Si3 0.195793 0.941933 0.941176
Si Si4 0.402061 0.176433 0.435842
Si Si5 0.311127 0.504704 0.936435
Si Si6 0.151889 0.094429 0.944977
Si Si7 0.435821 0.474254 0.061301
Si Si8 0.102313 0.828633 0.057897
O O1 0.034297 0.170909 0.750000
O O2 0.087709 0.122725 0.000365
O O3 0.965866 0.150997 0.994087
O O4 0.043930 0.250000 0.000000
O O5 0.718138 0.663155 0.750000
O O6 0.670383 0.676083 0.037315
O O7 0.792256 0.644499 0.992331
O O8 0.707900 0.560110 0.951954
O O9 0.202711 0.943824 0.750000
O O10 0.166422 0.015673 0.995231
O O11 0.261763 0.937684 0.021431
O O12 0.151620 0.880421 0.989075
O O13 0.425188 0.250000 0.500000
O O14 0.415360 0.330722 0.750000
O O15 0.426348 0.107592 0.522966
O O16 0.305488 0.485220 0.750000
O O17 0.381055 0.515163 0.975589
O O18 0.152501 0.094437 0.750000
O O19 0.430928 0.484569 0.250000
O O20 0.500000 0.500000 0.000000
O O21 0.104567 0.830330 0.250000
O O22 0.112051 0.750000 0.000000
#
# Coordination Sequence:
#
# PCOD9434506 Si02
#       8
#     8   8   8   8   8   8   8   8
#     4   9  18  33  48  65  93 129 168 210 257 311
#     4   9  16  29  47  69  99 134 168 206 253 303
#     4  10  19  33  53  75 100 131 166 210 261 308
#     4  11  21  34  51  75 106 142 182 224 264 305
#     4  10  18  31  51  77 105 132 165 205 247 295
#     4   8  16  30  48  70  99 133 167 206 256 308
#     4  11  21  36  57  83 112 145 181 216 257 306
#     4  10  20  34  52  72  95 126 166 213 264 319
#
# _framework density 17.892778
#
# number of rings (size 3 to 8) (size 9 to 14) (size 15 to 20)
#    0.000    2.250    0.000    6.750    0.000    1.500 
#    0.000    5.000    0.000    0.750    0.000    5.250 
#    0.000    0.000    0.000    0.000    0.000    0.000 
#
# Total GULP energy -356853.917039 kJ/mol
# GULP energy per Si atom -5575.842454 kJ/mol
# Density = 1.785205 g / cm^3
# Si number density = 17.892778 Si / 1000 Ang^3
#
#
#
# Elastic Constant Matrix: (Units=GPa)
#
#
# Indices 1 2 3 4 5 6 
#
# 1 144.5706 57.2025 20.2895 0.0000 0.0000 0.0000
# 2 57.2025 56.4614 9.4890 0.0000 0.0000 0.0000
# 3 20.2895 9.4890 57.9172 0.0000 0.0000 0.0000
# 4 0.0000 0.0000 0.0000 22.7811 0.0000 0.0000
# 5 0.0000 0.0000 0.0000 0.0000 23.0376 0.0000
# 6 0.0000 0.0000 0.0000 0.0000 0.0000 13.4519
#
#
#
# Elastic Compliance Matrix: (Units=1/GPa)
#
#
# Indices 1 2 3 4 5 6 
#
# 1 0.011821 -0.011600 -0.002241 0.000000 0.000000 0.000000
# 2 -0.011600 0.029595 -0.000785 0.000000 0.000000 0.000000
# 3 -0.002241 -0.000785 0.018180 0.000000 0.000000 0.000000
# 4 0.000000 0.000000 0.000000 0.043896 0.000000 0.000000
# 5 0.000000 0.000000 0.000000 0.000000 0.043407 0.000000
# 6 0.000000 0.000000 0.000000 0.000000 0.000000 0.074339
#
#
# Mechanical properties :
#
#
# Convention : Reuss Voigt Hill
#
# Bulk Modulus (GPa) = 32.95469 48.10125 40.52797
# Shear Modulus (GPa) = 19.18616 23.31868 21.25242
#
# Velocity S-wave (km/s) = 3.27813 3.61397 3.45014
# Velocity P-wave (km/s) = 5.72591 6.66001 6.21055
#
# Compressibility (1/GPa) = 0.03034469
#
# Stress axis : x y z
#
# Youngs Moduli (GPa) = 84.59363 33.78924 55.00665
#
# Poissons Ratio (x) = 0.39195 0.12325
# Poissons Ratio (y) = 0.98127 0.04319
# Poissons Ratio (z) = 0.18955 0.02653
#
# Static dielectric constant tensor:
#      x y z
#    x 1.645560 0.000000 0.000000 
#    y 0.000000 1.611320 0.000000 
#    z 0.000000 0.000000 1.599690 
# 
# From -- ./inp_files/8560.got.cif
#   From: 2010.05.17/outbox.cif.g08.bks.cpg/sg57_5_cif.got.tgz:8560.got - 2010.06.03 13:58:18.
