data_PCOD9434653
_publ_section_title
;
Structure prediction by ZEFSAII (Michael W. Deem and Ramdas Pophale) SiO2 
 PCOD9434653
Probable space group: P B C M
;
_chemical_formula_sum "Si O2"
_cell_formula_units_Z 48
_cell_length_a 5.485553
_cell_length_b 14.747479
_cell_length_c 25.240734
_cell_angle_alpha 90.000000
_cell_angle_beta 90.000000
_cell_angle_gamma 90.000000
_cell_volume 2041.926860
_symmetry_space_group_name_H-M "P B C M"
_symmetry_group_IT_number 57
_symmetry_cell_setting 'orthorhombic'
loop_
_space_group_symop_operation_xyz
x,y,z
-x,-y,1/2+z
x,1/2-y,-z
-x,1/2+y,1/2-z
-x,-y,-z
x,y,1/2-z
-x,1/2+y,z
x,1/2-y,1/2+z
loop_
_atom_site_type_symbol
_atom_site_label
_atom_site_fract_x
_atom_site_fract_y
_atom_site_fract_z
Si Si1 1.000000 0.260616 0.383607
Si Si2 0.500000 0.514512 0.569709
Si Si3 0.000000 0.589575 0.328873
Si Si4 0.500000 0.796652 0.557342
Si Si5 0.500000 0.995163 0.306119
Si Si6 1.000000 0.550218 0.580518
O O1 1.000000 0.197257 0.332450
O O2 0.750106 0.235568 0.414217
O O3 0.249894 0.235568 0.414217
O O4 0.000000 0.368379 0.377248
O O5 0.500000 0.406436 0.562030
O O6 0.500000 0.540828 0.632967
O O7 0.750551 0.555779 0.548611
O O8 0.249449 0.555779 0.548611
O O9 0.251669 0.553341 0.305654
O O10 0.000000 0.544931 0.388280
O O11 0.748331 0.553341 0.305654
O O12 0.500000 0.750000 0.500000
O O13 0.500000 0.941104 0.250000
#
# Coordination Sequence:
#
# PCOD9434653 Si02
#       6
#     8   8   8   8   8   8
#     4  12  21  40  63  87 113 164 197 234 302 350
#     4  10  19  40  56  85 120 150 190 247 284 345
#     4  10  19  37  58  82 121 150 189 242 285 347
#     4  12  23  40  62  86 121 157 196 249 300 347
#     4  10  18  32  61  87 110 154 194 229 295 352
#     4  10  20  35  64  83 111 156 192 234 288 344
#
# _framework density 23.507207999999999
#
# number of rings (size 3 to 8) (size 9 to 14) (size 15 to 20)
#    0.000    1.333    6.667    2.000    0.000    0.000 
#    0.000    5.000    0.000   24.000    0.000    0.000 
#    0.000    0.000    0.000    0.000    0.000    0.000 
#
# Total GULP energy -267766.188218 kJ/mol
# GULP energy per Si atom -5578.462255 kJ/mol
# Density = 2.345370 g / cm^3
# Si number density = 23.507208 Si / 1000 Ang^3
#
#
#
# Elastic Constant Matrix: (Units=GPa)
#
#
# Indices 1 2 3 4 5 6 
#
# 1 252.5433 18.5050 14.4460 0.0000 0.0000 0.0000
# 2 18.5050 88.5427 -25.9429 0.0000 0.0000 0.0000
# 3 14.4460 -25.9429 79.5585 0.0000 0.0000 0.0000
# 4 0.0000 0.0000 0.0000 8.5243 0.0000 0.0000
# 5 0.0000 0.0000 0.0000 0.0000 16.5167 0.0000
# 6 0.0000 0.0000 0.0000 0.0000 0.0000 22.7956
#
#
#
# Elastic Compliance Matrix: (Units=1/GPa)
#
#
# Indices 1 2 3 4 5 6 
#
# 1 0.004112 -0.001192 -0.001135 0.000000 0.000000 0.000000
# 2 -0.001192 0.012833 0.004401 0.000000 0.000000 0.000000
# 3 -0.001135 0.004401 0.014211 0.000000 0.000000 0.000000
# 4 0.000000 0.000000 0.000000 0.117312 0.000000 0.000000
# 5 0.000000 0.000000 0.000000 0.000000 0.060545 0.000000
# 6 0.000000 0.000000 0.000000 0.000000 0.000000 0.043868
#
#
# Mechanical properties :
#
#
# Convention : Reuss Voigt Hill
#
# Bulk Modulus (GPa) = 28.32674 48.29566 38.31120
# Shear Modulus (GPa) = 19.19381 37.14306 28.16844
#
# Velocity S-wave (km/s) = 2.86056 3.97932 3.46539
# Velocity P-wave (km/s) = 4.79445 6.45779 5.68726
#
# Compressibility (1/GPa) = 0.03530234
#
# Stress axis : x y z
#
# Youngs Moduli (GPa) = 243.19017 77.92654 70.36998
#
# Poissons Ratio (x) = 0.09289 0.07990
# Poissons Ratio (y) = 0.28989 -0.30970
# Poissons Ratio (z) = 0.27611 -0.34295
#
# Static dielectric constant tensor:
#      x y z
#    x 1.957120 0.000000 0.000000 
#    y 0.000000 1.872580 0.000000 
#    z 0.000000 0.000000 1.951430 
# 
# From -- ./inp_files/29106.got.cif
#   From: 2010.05.17/outbox.cif.g08.bks.cpg/sg57_15_cif.got.tgz:29106.got - 2010.06.03 13:58:18.
