data_PCOD9434841
_publ_section_title
;
Structure prediction by ZEFSAII (Michael W. Deem and Ramdas Pophale) SiO2 
 PCOD9434841
Probable space group: P B C M
;
_chemical_formula_sum "Si O2"
_cell_formula_units_Z 64
_cell_length_a 7.792587
_cell_length_b 22.809867
_cell_length_c 15.878876
_cell_angle_alpha 90.000000
_cell_angle_beta 90.000000
_cell_angle_gamma 90.000000
_cell_volume 2822.436436
_symmetry_space_group_name_H-M "P B C M"
_symmetry_group_IT_number 57
_symmetry_cell_setting 'orthorhombic'
loop_
_space_group_symop_operation_xyz
x,y,z
-x,-y,1/2+z
x,1/2-y,-z
-x,1/2+y,1/2-z
-x,-y,-z
x,y,1/2-z
-x,1/2+y,z
x,1/2-y,1/2+z
loop_
_atom_site_type_symbol
_atom_site_label
_atom_site_fract_x
_atom_site_fract_y
_atom_site_fract_z
Si Si1 0.460747 0.608291 0.161262
Si Si2 0.302517 0.477792 0.343325
Si Si3 0.059922 0.469434 0.847885
Si Si4 0.322240 0.689886 0.556601
Si Si5 0.721124 0.807809 0.441185
Si Si6 0.020907 0.737909 0.655417
Si Si7 0.135398 0.853721 0.592074
Si Si8 0.292786 0.423150 0.983220
O O1 0.552097 0.618239 0.250000
O O2 0.378460 0.543390 0.161107
O O3 0.303809 0.652502 0.151307
O O4 0.580239 0.608803 0.081388
O O5 0.337347 0.451179 0.250000
O O6 0.366229 0.450979 0.431166
O O7 0.095885 0.484411 0.353677
O O8 0.121873 0.470332 0.750000
O O9 0.197882 0.470896 0.923629
O O10 0.971025 0.407115 0.869882
O O11 0.324522 0.750000 0.500000
O O12 0.520713 0.678818 0.578910
O O13 0.189836 0.700892 0.632006
O O14 0.228581 0.641013 0.498266
O O15 0.719124 0.750000 0.500000
O O16 0.806512 0.866013 0.482313
O O17 0.843307 0.794252 0.363143
O O18 0.026904 0.758574 0.750000
O O19 0.029184 0.794686 0.596209
#
# Coordination Sequence:
#
# PCOD9434841 Si02
#       8
#     8   8   8   8   8   8   8   8
#     4  10  20  36  61  91 119 145 193 258 315 373
#     4   9  21  39  58  83 119 163 200 243 305 376
#     4  10  20  34  57  90 122 149 193 256 316 372
#     4   9  19  36  56  79 112 155 203 246 301 363
#     4  11  23  39  57  87 121 159 207 255 301 362
#     4  11  22  36  57  82 115 161 205 250 305 363
#     4  10  18  38  59  82 113 154 194 245 318 370
#     4  12  21  36  61  89 120 160 206 248 317 371
#
# _framework density 22.675443999999999
#
# number of rings (size 3 to 8) (size 9 to 14) (size 15 to 20)
#    0.000    1.750    1.250    5.625    0.000    1.000 
#    0.000    0.625    0.000    0.000    0.000    0.000 
#    0.000    0.000    0.000    0.000    0.000    0.000 
#
# Total GULP energy -356735.434388 kJ/mol
# GULP energy per Si atom -5573.991162 kJ/mol
# Density = 2.262383 g / cm^3
# Si number density = 22.675444 Si / 1000 Ang^3
#
#
#
# Elastic Constant Matrix: (Units=GPa)
#
#
# Indices 1 2 3 4 5 6 
#
# 1 80.2607 -8.0723 33.1169 0.0000 0.0000 0.0000
# 2 -8.0723 28.5895 13.2741 0.0000 0.0000 0.0000
# 3 33.1169 13.2741 80.8021 0.0000 0.0000 0.0000
# 4 0.0000 0.0000 0.0000 21.7147 0.0000 0.0000
# 5 0.0000 0.0000 0.0000 0.0000 19.7378 0.0000
# 6 0.0000 0.0000 0.0000 0.0000 0.0000 17.6022
#
#
#
# Elastic Compliance Matrix: (Units=1/GPa)
#
#
# Indices 1 2 3 4 5 6 
#
# 1 0.016730 0.008560 -0.008263 0.000000 0.000000 0.000000
# 2 0.008560 0.042246 -0.010449 0.000000 0.000000 0.000000
# 3 -0.008263 -0.010449 0.017479 0.000000 0.000000 0.000000
# 4 0.000000 0.000000 0.000000 0.046052 0.000000 0.000000
# 5 0.000000 0.000000 0.000000 0.000000 0.050664 0.000000
# 6 0.000000 0.000000 0.000000 0.000000 0.000000 0.056811
#
#
# Mechanical properties :
#
#
# Convention : Reuss Voigt Hill
#
# Bulk Modulus (GPa) = 17.80875 29.58775 23.69825
# Shear Modulus (GPa) = 18.58723 21.89987 20.24355
#
# Velocity S-wave (km/s) = 2.86616 3.11110 2.99114
# Velocity P-wave (km/s) = 4.33866 5.09725 4.73318
#
# Compressibility (1/GPa) = 0.05615216
#
# Stress axis : x y z
#
# Youngs Moduli (GPa) = 59.77363 23.67081 57.21150
#
# Poissons Ratio (x) = -0.20263 0.47274
# Poissons Ratio (y) = -0.51167 0.59778
# Poissons Ratio (z) = 0.49391 0.24733
#
# Static dielectric constant tensor:
#      x y z
#    x 1.922300 0.000000 0.000000 
#    y 0.000000 1.842050 0.000000 
#    z 0.000000 0.000000 1.849320 
# 
# From -- ./inp_files/16963.got.cif
#   From: 2010.05.17/outbox.cif.g08.bks.cpg/sg57_9_cif.got.tgz:16963.got - 2010.06.03 13:58:18.
