data_PCOD9434068
_publ_section_title
;
Structure prediction by ZEFSAII (Michael W. Deem and Ramdas Pophale) SiO2 
 PCOD9434068
Probable space group: P B C M
;
_chemical_formula_sum "Si O2"
_cell_formula_units_Z 48
_cell_length_a 16.262767
_cell_length_b 19.073543
_cell_length_c 8.672766
_cell_angle_alpha 90.000000
_cell_angle_beta 90.000000
_cell_angle_gamma 90.000000
_cell_volume 2690.193019
_symmetry_space_group_name_H-M "P B C M"
_symmetry_group_IT_number 57
_symmetry_cell_setting 'orthorhombic'
loop_
_space_group_symop_operation_xyz
x,y,z
-x,-y,1/2+z
x,1/2-y,-z
-x,1/2+y,1/2-z
-x,-y,-z
x,y,1/2-z
-x,1/2+y,z
x,1/2-y,1/2+z
loop_
_atom_site_type_symbol
_atom_site_label
_atom_site_fract_x
_atom_site_fract_y
_atom_site_fract_z
Si Si1 0.260905 0.328540 0.066797
Si Si2 0.410451 0.415781 0.566580
Si Si3 0.413623 0.580986 0.935455
Si Si4 0.091090 0.329662 0.566139
Si Si5 0.257482 0.671375 0.564094
Si Si6 0.076566 0.670509 0.934988
O O1 0.252453 0.324390 0.250000
O O2 0.270364 0.250000 0.000000
O O3 0.339751 0.373009 0.018291
O O4 0.176699 0.360171 0.995844
O O5 0.402141 0.406488 0.750000
O O6 0.501782 0.394424 0.512958
O O7 0.402540 0.498574 0.530191
O O8 0.421911 0.587622 0.750000
O O9 0.333959 0.624322 0.986788
O O10 0.091221 0.250000 0.500000
O O11 0.091191 0.327398 0.750000
O O12 0.005847 0.362594 0.505847
O O13 0.264861 0.750000 0.500000
O O14 0.259403 0.675245 0.750000
O O15 0.166824 0.641379 0.523422
O O16 0.068377 0.672482 0.750000
O O17 0.079333 0.750000 0.000000
#
# Coordination Sequence:
#
# PCOD9434068 Si02
#       6
#     8   8   8   8   8   8
#     4  11  21  34  52  75 102 129 162 204 249 295
#     4  10  20  35  54  74  97 129 168 207 249 298
#     4   9  19  36  54  72  98 133 170 205 246 297
#     4  10  17  27  44  68  98 129 161 196 238 287
#     4   9  18  31  49  74 102 131 163 203 245 286
#     4   9  15  25  42  66  96 128 161 195 236 283
#
# _framework density 17.842586000000001
#
# number of rings (size 3 to 8) (size 9 to 14) (size 15 to 20)
#    0.000    2.333    0.000    6.000    0.000    2.667 
#    0.000    1.667    0.000    1.000    0.000    0.000 
#    0.000    0.000    0.000    0.000    0.000    0.000 
#
# Total GULP energy -267588.911936 kJ/mol
# GULP energy per Si atom -5574.768999 kJ/mol
# Density = 1.780198 g / cm^3
# Si number density = 17.842586 Si / 1000 Ang^3
#
#
#
# Elastic Constant Matrix: (Units=GPa)
#
#
# Indices 1 2 3 4 5 6 
#
# 1 201.9367 50.2656 71.9863 0.0000 0.0000 0.0000
# 2 50.2656 25.4446 24.1422 0.0000 0.0000 0.0000
# 3 71.9863 24.1422 97.0232 0.0000 0.0000 0.0000
# 4 0.0000 0.0000 0.0000 16.7823 0.0000 0.0000
# 5 0.0000 0.0000 0.0000 0.0000 9.2439 0.0000
# 6 0.0000 0.0000 0.0000 0.0000 0.0000 -19.8814
#
#
#
# Elastic Compliance Matrix: (Units=1/GPa)
#
#
# Indices 1 2 3 4 5 6 
#
# 1 0.010563 -0.017581 -0.003462 0.000000 0.000000 0.000000
# 2 -0.017581 0.080712 -0.007039 0.000000 0.000000 0.000000
# 3 -0.003462 -0.007039 0.014627 0.000000 0.000000 0.000000
# 4 0.000000 0.000000 0.000000 0.059587 0.000000 0.000000
# 5 0.000000 0.000000 0.000000 0.000000 0.108179 0.000000
# 6 0.000000 0.000000 0.000000 0.000000 0.000000 -0.050298
#
#
# Mechanical properties :
#
#
# Convention : Reuss Voigt Hill
#
# Bulk Modulus (GPa) = 20.10604 68.57696 44.34150
# Shear Modulus (GPa) = 16.88552 13.09633 14.99092
#
# Velocity S-wave (km/s) = 3.07963 2.71217 2.90172
# Velocity P-wave (km/s) = 4.89270 6.95167 6.01100
#
# Compressibility (1/GPa) = 0.04973630
#
# Stress axis : x y z
#
# Youngs Moduli (GPa) = 94.67455 12.38980 68.36656
#
# Poissons Ratio (x) = 0.21783 0.23669
# Poissons Ratio (y) = 1.66450 0.48123
# Poissons Ratio (z) = 0.32777 0.08721
#
# Static dielectric constant tensor:
#      x y z
#    x 1.664800 0.000000 0.000000 
#    y 0.000000 1.580610 0.000000 
#    z 0.000000 0.000000 1.593810 
# 
# From -- ./inp_files/4878.got.cif
#   From: 2010.05.17/outbox.cif.g08.bks.cpg/sg57_3_cif.got.tgz:4878.got - 2010.06.03 13:58:18.
