data_PCOD9434861
_publ_section_title
;
Structure prediction by ZEFSAII (Michael W. Deem and Ramdas Pophale) SiO2 
 PCOD9434861
Probable space group: P B C M
;
_chemical_formula_sum "Si O2"
_cell_formula_units_Z 40
_cell_length_a 8.961870
_cell_length_b 13.410563
_cell_length_c 16.630507
_cell_angle_alpha 90.000000
_cell_angle_beta 90.000000
_cell_angle_gamma 90.000000
_cell_volume 1998.716234
_symmetry_space_group_name_H-M "P B C M"
_symmetry_group_IT_number 57
_symmetry_cell_setting 'orthorhombic'
loop_
_space_group_symop_operation_xyz
x,y,z
-x,-y,1/2+z
x,1/2-y,-z
-x,1/2+y,1/2-z
-x,-y,-z
x,y,1/2-z
-x,1/2+y,z
x,1/2-y,1/2+z
loop_
_atom_site_type_symbol
_atom_site_label
_atom_site_fract_x
_atom_site_fract_y
_atom_site_fract_z
Si Si1 0.960006 0.491190 0.750000
Si Si2 0.456217 0.329608 0.110983
Si Si3 0.874650 0.316215 0.250000
Si Si4 0.041587 0.826934 0.887468
Si Si5 0.374463 0.472387 0.250000
Si Si6 0.293303 0.750000 0.000000
Si Si7 0.793137 0.750000 0.500000
Si Si8 0.557676 0.295540 0.750000
O O1 0.097748 0.566805 0.750000
O O2 0.960095 0.421142 0.671350
O O3 0.802727 0.549777 0.750000
O O4 0.445669 0.422958 0.170683
O O5 0.312980 0.317675 0.055065
O O6 0.465988 0.234860 0.171294
O O7 0.600992 0.319303 0.054732
O O8 0.950846 0.268572 0.328451
O O9 0.705698 0.274618 0.250000
O O10 0.899540 0.816787 0.944343
O O11 0.187902 0.816646 0.943071
O O12 0.393419 0.590788 0.250000
#
# Coordination Sequence:
#
# PCOD9434861 Si02
#       8
#     4   8   4   8   4   4   4   4
#     4  11  22  39  66  92 119 165 220 259 310 377
#     4  10  22  40  65  92 128 167 211 255 315 370
#     4  11  20  40  69  87 120 165 216 255 307 370
#     4  10  21  41  66  90 129 167 209 255 318 374
#     4  11  21  41  66  96 122 164 220 258 307 373
#     4  10  18  40  66  88 136 172 194 256 318 380
#     4  10  22  42  60  98 136 164 200 274 316 360
#     4  11  21  44  67  87 123 174 208 262 308 380
#
# _framework density 20.012844000000001
#
# number of rings (size 3 to 8) (size 9 to 14) (size 15 to 20)
#    0.000    1.600    4.000    1.200    0.000    2.400 
#    7.200   22.000    0.000    0.000    0.000    0.000 
#    0.000    0.000    0.000    0.000    0.000    0.000 
#
# Total GULP energy -223469.811714 kJ/mol
# GULP energy per Si atom -5586.745293 kJ/mol
# Density = 1.996729 g / cm^3
# Si number density = 20.012844 Si / 1000 Ang^3
#
#
#
# Elastic Constant Matrix: (Units=GPa)
#
#
# Indices 1 2 3 4 5 6 
#
# 1 119.9337 46.9325 76.5921 0.0000 0.0000 0.0000
# 2 46.9325 90.6048 49.5934 0.0000 0.0000 0.0000
# 3 76.5921 49.5934 154.9596 0.0000 0.0000 0.0000
# 4 0.0000 0.0000 0.0000 6.3237 0.0000 0.0000
# 5 0.0000 0.0000 0.0000 0.0000 33.0999 0.0000
# 6 0.0000 0.0000 0.0000 0.0000 0.0000 15.9152
#
#
#
# Elastic Compliance Matrix: (Units=1/GPa)
#
#
# Indices 1 2 3 4 5 6 
#
# 1 0.013271 -0.003981 -0.005285 0.000000 0.000000 0.000000
# 2 -0.003981 0.014575 -0.002697 0.000000 0.000000 0.000000
# 3 -0.005285 -0.002697 0.009929 0.000000 0.000000 0.000000
# 4 0.000000 0.000000 0.000000 0.158135 0.000000 0.000000
# 5 0.000000 0.000000 0.000000 0.000000 0.030212 0.000000
# 6 0.000000 0.000000 0.000000 0.000000 0.000000 0.062833
#
#
# Mechanical properties :
#
#
# Convention : Reuss Voigt Hill
#
# Bulk Modulus (GPa) = 72.21137 79.08158 75.64647
# Shear Modulus (GPa) = 15.74812 23.89311 19.82061
#
# Velocity S-wave (km/s) = 2.80822 3.45902 3.15047
# Velocity P-wave (km/s) = 6.83196 7.45347 7.14947
#
# Compressibility (1/GPa) = 0.01384824
#
# Stress axis : x y z
#
# Youngs Moduli (GPa) = 75.35048 68.60870 100.71683
#
# Poissons Ratio (x) = 0.27316 0.53233
# Poissons Ratio (y) = 0.30000 0.27162
# Poissons Ratio (z) = 0.39826 0.18503
#
# Static dielectric constant tensor:
#      x y z
#    x 1.723500 0.000000 0.000000 
#    y 0.000000 1.673550 0.000000 
#    z 0.000000 0.000000 1.716220 
# 
# From -- ./inp_files/20622.got.cif
#   From: 2010.05.17/outbox.cif.g08.bks.cpg/sg57_11_cif.got.tgz:20622.got - 2010.06.03 13:58:18.
