data_PCOD9434914
_publ_section_title
;
Structure prediction by ZEFSAII (Michael W. Deem and Ramdas Pophale) SiO2 
 PCOD9434914
Probable space group: P B C M
;
_chemical_formula_sum "Si O2"
_cell_formula_units_Z 56
_cell_length_a 18.394679
_cell_length_b 22.117913
_cell_length_c 8.969016
_cell_angle_alpha 90.000000
_cell_angle_beta 90.000000
_cell_angle_gamma 90.000000
_cell_volume 3649.061288
_symmetry_space_group_name_H-M "P B C M"
_symmetry_group_IT_number 57
_symmetry_cell_setting 'orthorhombic'
loop_
_space_group_symop_operation_xyz
x,y,z
-x,-y,1/2+z
x,1/2-y,-z
-x,1/2+y,1/2-z
-x,-y,-z
x,y,1/2-z
-x,1/2+y,z
x,1/2-y,1/2+z
loop_
_atom_site_type_symbol
_atom_site_label
_atom_site_fract_x
_atom_site_fract_y
_atom_site_fract_z
Si Si1 0.542799 0.409776 0.427259
Si Si2 0.399641 0.454482 0.573299
Si Si3 0.347563 0.815930 0.929323
Si Si4 0.064056 0.918835 0.426947
Si Si5 0.208491 0.894353 0.571607
Si Si6 0.089279 0.450034 0.071134
Si Si7 0.248535 0.033456 0.572049
O O1 0.542575 0.399692 0.250000
O O2 0.461278 0.416316 0.489340
O O3 0.580955 0.474859 0.456223
O O4 0.588407 0.358526 0.509869
O O5 0.404701 0.444677 0.750000
O O6 0.318821 0.443519 0.513652
O O7 0.350633 0.813070 0.750000
O O8 0.271319 0.847957 0.972692
O O9 0.352335 0.750000 0.000000
O O10 0.072491 0.915579 0.250000
O O11 0.129449 0.882415 0.502138
O O12 0.979045 0.906797 0.463720
O O13 0.076334 0.987595 0.483277
O O14 0.201370 0.893540 0.750000
O O15 0.234126 0.962725 0.531822
O O16 0.085838 0.463090 0.250000
O O17 0.172494 0.432275 0.040174
O O18 0.261948 0.035543 0.750000
#
# Coordination Sequence:
#
# PCOD9434914 Si02
#       7
#     8   8   8   8   8   8   8
#     4  10  20  33  48  66  89 118 152 188 232 280
#     4  10  19  29  45  68  92 117 151 191 228 274
#     4  11  22  36  51  67  90 119 154 195 235 276
#     4   9  15  23  38  57  80 111 149 184 211 251
#     4   9  18  30  43  59  85 118 149 183 227 270
#     4   8  15  25  35  54  84 117 146 176 216 257
#     4   9  15  26  42  60  87 120 151 181 222 272
#
# _framework density 15.346412000000001
#
# number of rings (size 3 to 8) (size 9 to 14) (size 15 to 20)
#    0.000    2.571    1.429    2.571    0.000    5.143 
#    0.000    0.000    0.000    0.000    0.000    0.000 
#    0.000    1.143    0.000    7.429    0.000    6.571 
#
# Total GULP energy -311849.340606 kJ/mol
# GULP energy per Si atom -5568.738225 kJ/mol
# Density = 1.531148 g / cm^3
# Si number density = 15.346412 Si / 1000 Ang^3
#
#
#
# Elastic Constant Matrix: (Units=GPa)
#
#
# Indices 1 2 3 4 5 6 
#
# 1 158.8712 44.5259 51.6287 0.0000 0.0000 0.0000
# 2 44.5259 49.2497 28.1881 0.0000 0.0000 0.0000
# 3 51.6287 28.1881 36.2405 0.0000 0.0000 0.0000
# 4 0.0000 0.0000 0.0000 15.3170 0.0000 0.0000
# 5 0.0000 0.0000 0.0000 0.0000 30.6750 0.0000
# 6 0.0000 0.0000 0.0000 0.0000 0.0000 9.4229
#
#
#
# Elastic Compliance Matrix: (Units=1/GPa)
#
#
# Indices 1 2 3 4 5 6 
#
# 1 0.011817 -0.001889 -0.015365 0.000000 0.000000 0.000000
# 2 -0.001889 0.036899 -0.026008 0.000000 0.000000 0.000000
# 3 -0.015365 -0.026008 0.069713 0.000000 0.000000 0.000000
# 4 0.000000 0.000000 0.000000 0.065287 0.000000 0.000000
# 5 0.000000 0.000000 0.000000 0.000000 0.032600 0.000000
# 6 0.000000 0.000000 0.000000 0.000000 0.000000 0.106124
#
#
# Mechanical properties :
#
#
# Convention : Reuss Voigt Hill
#
# Bulk Modulus (GPa) = 31.34578 54.78299 43.06438
# Shear Modulus (GPa) = 11.91610 19.08423 15.50017
#
# Velocity S-wave (km/s) = 2.78955 3.53024 3.18153
# Velocity P-wave (km/s) = 5.55385 7.23823 6.45125
#
# Compressibility (1/GPa) = 0.03190222
#
# Stress axis : x y z
#
# Youngs Moduli (GPa) = 84.62185 27.10119 14.34459
#
# Poissons Ratio (x) = 0.05120 0.22041
# Poissons Ratio (y) = 0.15988 0.37308
# Poissons Ratio (z) = 1.30025 0.70486
#
# Static dielectric constant tensor:
#      x y z
#    x 1.552450 0.000000 0.000000 
#    y 0.000000 1.474210 0.000000 
#    z 0.000000 0.000000 1.509250 
# 
# From -- ./inp_files/7029.got.cif
#   From: 2010.05.17/outbox.cif.g08.bks.cpg/sg57_4_cif.got.tgz:7029.got - 2010.06.03 13:58:18.
