data_PCOD9434081
_publ_section_title
;
Structure prediction by ZEFSAII (Michael W. Deem and Ramdas Pophale) SiO2 
 PCOD9434081
Probable space group: P B C M
;
_chemical_formula_sum "Si O2"
_cell_formula_units_Z 32
_cell_length_a 15.168168
_cell_length_b 17.771379
_cell_length_c 5.506213
_cell_angle_alpha 90.000000
_cell_angle_beta 90.000000
_cell_angle_gamma 90.000000
_cell_volume 1484.250714
_symmetry_space_group_name_H-M "P B C M"
_symmetry_group_IT_number 57
_symmetry_cell_setting 'orthorhombic'
loop_
_space_group_symop_operation_xyz
x,y,z
-x,-y,1/2+z
x,1/2-y,-z
-x,1/2+y,1/2-z
-x,-y,-z
x,y,1/2-z
-x,1/2+y,z
x,1/2-y,1/2+z
loop_
_atom_site_type_symbol
_atom_site_label
_atom_site_fract_x
_atom_site_fract_y
_atom_site_fract_z
Si Si1 0.815030 0.570939 0.750000
Si Si2 0.392245 0.207932 0.250000
Si Si3 0.460737 0.596893 0.250000
Si Si4 0.392429 0.589302 0.750000
Si Si5 0.200427 0.265425 0.250000
Si Si6 0.201477 0.976051 0.250000
Si Si7 0.662103 0.246269 0.250000
Si Si8 0.008702 0.952453 0.250000
O O1 0.763909 0.649366 0.750000
O O2 0.798514 0.525047 0.500610
O O3 0.918938 0.595288 0.750000
O O4 0.418669 0.250000 0.500000
O O5 0.439924 0.127691 0.250000
O O6 0.285928 0.210773 0.250000
O O7 0.434344 0.559130 0.502765
O O8 0.397003 0.671584 0.250000
O O9 0.289140 0.572565 0.750000
O O10 0.400575 0.680248 0.750000
O O11 0.151324 0.250000 0.500000
O O12 0.110653 0.927952 0.250000
O O13 0.714411 0.250000 0.500000
O O14 0.000000 0.000000 0.500000
#
# Coordination Sequence:
#
# PCOD9434081 Si02
#       8
#     4   4   4   4   4   4   4   4
#     4  10  19  35  55  77 108 137 173 223 266 314
#     4  10  18  30  49  76  96 119 168 221 268 310
#     4  10  17  28  45  70  97 131 170 214 256 297
#     4  10  18  27  44  72 103 130 167 209 249 305
#     4  10  21  35  55  83 103 128 173 227 276 319
#     4  10  19  32  52  80 107 143 179 211 253 316
#     4   8  14  23  37  57  84 119 157 197 235 274
#     4   8  16  30  51  75 100 133 171 202 241 297
#
# _framework density 21.559701
#
# number of rings (size 3 to 8) (size 9 to 14) (size 15 to 20)
#    0.000    2.500    0.000    4.500    0.000    0.000 
#    0.000    0.000    0.000    4.500    0.000   92.750 
#    0.000    0.000    0.000    0.000    0.000    0.000 
#
# Total GULP energy -178201.476209 kJ/mol
# GULP energy per Si atom -5568.796132 kJ/mol
# Density = 2.151063 g / cm^3
# Si number density = 21.559701 Si / 1000 Ang^3
#
#
#
# Elastic Constant Matrix: (Units=GPa)
#
#
# Indices 1 2 3 4 5 6 
#
# 1 78.1143 28.5802 20.1012 0.0000 0.0000 0.0000
# 2 28.5802 29.5359 11.3407 0.0000 0.0000 0.0000
# 3 20.1012 11.3407 236.0960 0.0000 0.0000 0.0000
# 4 0.0000 0.0000 0.0000 -2.1857 0.0000 0.0000
# 5 0.0000 0.0000 0.0000 0.0000 22.2983 0.0000
# 6 0.0000 0.0000 0.0000 0.0000 0.0000 14.3491
#
#
#
# Elastic Compliance Matrix: (Units=1/GPa)
#
#
# Indices 1 2 3 4 5 6 
#
# 1 0.019960 -0.019013 -0.000786 0.000000 0.000000 0.000000
# 2 -0.019013 0.052603 -0.000908 0.000000 0.000000 0.000000
# 3 -0.000786 -0.000908 0.004346 0.000000 0.000000 0.000000
# 4 0.000000 0.000000 0.000000 -0.457520 0.000000 0.000000
# 5 0.000000 0.000000 0.000000 0.000000 0.044846 0.000000
# 6 0.000000 0.000000 0.000000 0.000000 0.000000 0.069691
#
#
# Mechanical properties :
#
#
# Convention : Reuss Voigt Hill
#
# Bulk Modulus (GPa) = 28.17216 51.53226 39.85221
# Shear Modulus (GPa) = -23.49319 25.80727 1.15704
#
# Velocity S-wave (km/s) = -3.30461 3.46354 0.73337
# Velocity P-wave (km/s) = 1.21046 6.32051 4.38655
#
# Compressibility (1/GPa) = 0.03549603
#
# Stress axis : x y z
#
# Youngs Moduli (GPa) = 50.09937 19.01026 230.09048
#
# Poissons Ratio (x) = 0.36143 0.18089
# Poissons Ratio (y) = 0.95252 0.20893
# Poissons Ratio (z) = 0.03939 0.01726
#
# Static dielectric constant tensor:
#      x y z
#    x 1.771360 0.000000 0.000000 
#    y 0.000000 1.818580 0.000000 
#    z 0.000000 0.000000 1.905680 
# 
# From -- ./inp_files/459.got.cif
#   From: 2010.05.17/outbox.cif.g08.bks.cpg/sg57_1_cif.got.tgz:459.got - 2010.06.03 13:58:18.
