data_PCOD9434811
_publ_section_title
;
Structure prediction by ZEFSAII (Michael W. Deem and Ramdas Pophale) SiO2 
 PCOD9434811
Probable space group: P B C M
;
_chemical_formula_sum "Si O2"
_cell_formula_units_Z 48
_cell_length_a 9.054642
_cell_length_b 16.830191
_cell_length_c 17.596840
_cell_angle_alpha 90.000000
_cell_angle_beta 90.000000
_cell_angle_gamma 90.000000
_cell_volume 2681.606279
_symmetry_space_group_name_H-M "P B C M"
_symmetry_group_IT_number 57
_symmetry_cell_setting 'orthorhombic'
loop_
_space_group_symop_operation_xyz
x,y,z
-x,-y,1/2+z
x,1/2-y,-z
-x,1/2+y,1/2-z
-x,-y,-z
x,y,1/2-z
-x,1/2+y,z
x,1/2-y,1/2+z
loop_
_atom_site_type_symbol
_atom_site_label
_atom_site_fract_x
_atom_site_fract_y
_atom_site_fract_z
Si Si1 0.377357 0.797494 0.080433
Si Si2 0.094627 0.222619 0.923045
Si Si3 0.666749 0.637754 0.838679
Si Si4 0.139160 0.511003 0.109426
Si Si5 0.880949 0.423373 0.441611
Si Si6 0.158059 0.813208 0.663276
O O1 0.528838 0.834040 0.111150
O O2 0.262753 0.871744 0.077963
O O3 0.304929 0.733032 0.137228
O O4 0.387555 0.750000 0.000000
O O5 0.205443 0.201645 0.856301
O O6 0.006390 0.144226 0.949710
O O7 0.971194 0.282244 0.892113
O O8 0.173824 0.250000 0.000000
O O9 0.628757 0.634029 0.750000
O O10 0.743728 0.555289 0.864763
O O11 0.168899 0.592726 0.152577
O O12 0.967832 0.481151 0.117122
O O13 0.151749 0.530475 0.019499
O O14 0.123975 0.792735 0.750000
#
# Coordination Sequence:
#
# PCOD9434811 Si02
#       6
#     8   8   8   8   8   8
#     4  11  21  40  58  83 111 155 196 227 276 342
#     4  10  18  36  59  83 107 145 191 232 276 335
#     4  11  24  37  52  81 120 152 181 225 289 344
#     4  10  19  36  59  84 112 140 186 236 285 331
#     4   9  18  35  61  87 105 138 189 236 276 332
#     4  11  20  35  60  85 113 145 188 240 283 328
#
# _framework density 17.899719000000001
#
# number of rings (size 3 to 8) (size 9 to 14) (size 15 to 20)
#    0.000    1.667    3.333    3.000    0.000    0.667 
#    0.000    2.500    0.000    0.000    0.000    0.000 
#    0.000    0.000    0.000    0.000    0.000    0.000 
#
# Total GULP energy -267356.209689 kJ/mol
# GULP energy per Si atom -5569.921035 kJ/mol
# Density = 1.785898 g / cm^3
# Si number density = 17.899719 Si / 1000 Ang^3
#
#
#
# Elastic Constant Matrix: (Units=GPa)
#
#
# Indices 1 2 3 4 5 6 
#
# 1 84.0125 39.7858 17.4735 0.0000 0.0000 0.0000
# 2 39.7858 85.2333 27.0674 0.0000 0.0000 0.0000
# 3 17.4735 27.0674 83.3034 0.0000 0.0000 0.0000
# 4 0.0000 0.0000 0.0000 13.2242 0.0000 0.0000
# 5 0.0000 0.0000 0.0000 0.0000 18.1291 0.0000
# 6 0.0000 0.0000 0.0000 0.0000 0.0000 13.6597
#
#
#
# Elastic Compliance Matrix: (Units=1/GPa)
#
#
# Indices 1 2 3 4 5 6 
#
# 1 0.015354 -0.006851 -0.000995 0.000000 0.000000 0.000000
# 2 -0.006851 0.016140 -0.003807 0.000000 0.000000 0.000000
# 3 -0.000995 -0.003807 0.013450 0.000000 0.000000 0.000000
# 4 0.000000 0.000000 0.000000 0.075619 0.000000 0.000000
# 5 0.000000 0.000000 0.000000 0.000000 0.055160 0.000000
# 6 0.000000 0.000000 0.000000 0.000000 0.000000 0.073208
#
#
# Mechanical properties :
#
#
# Convention : Reuss Voigt Hill
#
# Bulk Modulus (GPa) = 46.21484 46.80028 46.50756
# Shear Modulus (GPa) = 17.89230 20.21743 19.05486
#
# Velocity S-wave (km/s) = 3.16505 3.36442 3.26626
# Velocity P-wave (km/s) = 6.26351 6.42612 6.34534
#
# Compressibility (1/GPa) = 0.02163807
#
# Stress axis : x y z
#
# Youngs Moduli (GPa) = 65.12759 61.95919 74.34987
#
# Poissons Ratio (x) = 0.42451 0.07394
# Poissons Ratio (y) = 0.44622 0.28305
# Poissons Ratio (z) = 0.06477 0.23588
#
# Static dielectric constant tensor:
#      x y z
#    x 1.600920 0.000000 0.000000 
#    y 0.000000 1.648390 0.000000 
#    z 0.000000 0.000000 1.608470 
# 
# From -- ./inp_files/16392.got.cif
#   From: 2010.05.17/outbox.cif.g08.bks.cpg/sg57_9_cif.got.tgz:16392.got - 2010.06.03 13:58:18.
