data_PCOD9434959
_publ_section_title
;
Structure prediction by ZEFSAII (Michael W. Deem and Ramdas Pophale) SiO2 
 PCOD9434959
Probable space group: P B C M
;
_chemical_formula_sum "Si O2"
_cell_formula_units_Z 64
_cell_length_a 28.900942
_cell_length_b 15.011320
_cell_length_c 8.319308
_cell_angle_alpha 90.000000
_cell_angle_beta 90.000000
_cell_angle_gamma 90.000000
_cell_volume 3609.259304
_symmetry_space_group_name_H-M "P B C M"
_symmetry_group_IT_number 57
_symmetry_cell_setting 'orthorhombic'
loop_
_space_group_symop_operation_xyz
x,y,z
-x,-y,1/2+z
x,1/2-y,-z
-x,1/2+y,1/2-z
-x,-y,-z
x,y,1/2-z
-x,1/2+y,z
x,1/2-y,1/2+z
loop_
_atom_site_type_symbol
_atom_site_label
_atom_site_fract_x
_atom_site_fract_y
_atom_site_fract_z
Si Si1 0.258484 0.348887 0.944445
Si Si2 0.931805 0.967696 0.944526
Si Si3 0.513768 0.097418 0.940710
Si Si4 0.384405 0.847256 0.055871
Si Si5 0.418160 0.159192 0.058582
Si Si6 0.339858 0.023800 0.446065
Si Si7 0.847386 0.849171 0.555846
Si Si8 0.019540 0.852870 0.057282
O O1 0.258818 0.349636 0.750000
O O2 0.294747 0.423106 0.001795
O O3 0.205540 0.364347 0.998551
O O4 0.272158 0.250000 0.000000
O O5 0.932775 0.967957 0.750000
O O6 0.883184 0.925073 0.997972
O O7 0.943667 0.069550 0.995984
O O8 0.971429 0.898737 0.001965
O O9 0.517823 0.094840 0.750000
O O10 0.563375 0.130269 0.004007
O O11 0.469373 0.154397 0.988047
O O12 0.500000 0.000000 0.000000
O O13 0.385818 0.849228 0.250000
O O14 0.348773 0.923211 0.001513
O O15 0.371264 0.750000 0.000000
O O16 0.421561 0.157489 0.250000
O O17 0.385941 0.077927 0.006722
O O18 0.395291 0.250000 0.000000
O O19 0.338503 0.024625 0.250000
O O20 0.861582 0.750000 0.500000
O O21 0.847427 0.848759 0.750000
O O22 0.020287 0.849800 0.250000
O O23 0.025020 0.750000 0.000000
#
# Coordination Sequence:
#
# PCOD9434959 Si02
#       8
#     8   8   8   8   8   8   8   8
#     4   9  17  31  52  74  98 126 154 190 238 291
#     4   9  18  31  46  67  96 128 166 207 244 290
#     4  11  21  35  53  72  97 127 158 193 234 280
#     4  10  21  37  53  71  93 123 158 194 232 273
#     4  11  21  34  50  72 100 128 157 190 229 280
#     4   9  18  34  52  70  97 126 154 191 235 282
#     4   9  17  29  47  72  97 124 158 195 239 287
#     4  10  19  30  45  66  95 131 168 206 245 289
#
# _framework density 17.732171000000001
#
# number of rings (size 3 to 8) (size 9 to 14) (size 15 to 20)
#    0.000    2.250    1.250    2.250    0.000    4.000 
#    0.000    1.250    0.000    0.750    0.000    0.000 
#    0.000    0.000    0.000    0.000    0.000    0.000 
#
# Total GULP energy -356802.449738 kJ/mol
# GULP energy per Si atom -5575.038277 kJ/mol
# Density = 1.769181 g / cm^3
# Si number density = 17.732171 Si / 1000 Ang^3
#
#
#
# Elastic Constant Matrix: (Units=GPa)
#
#
# Indices 1 2 3 4 5 6 
#
# 1 104.6442 80.2363 11.3561 0.0000 0.0000 0.0000
# 2 80.2363 181.9371 15.3662 0.0000 0.0000 0.0000
# 3 11.3561 15.3662 13.1603 0.0000 0.0000 0.0000
# 4 0.0000 0.0000 0.0000 27.7062 0.0000 0.0000
# 5 0.0000 0.0000 0.0000 0.0000 14.3643 0.0000
# 6 0.0000 0.0000 0.0000 0.0000 0.0000 30.8537
#
#
#
# Elastic Compliance Matrix: (Units=1/GPa)
#
#
# Indices 1 2 3 4 5 6 
#
# 1 0.014817 -0.006051 -0.005720 0.000000 0.000000 0.000000
# 2 -0.006051 0.008569 -0.004784 0.000000 0.000000 0.000000
# 3 -0.005720 -0.004784 0.086508 0.000000 0.000000 0.000000
# 4 0.000000 0.000000 0.000000 0.036093 0.000000 0.000000
# 5 0.000000 0.000000 0.000000 0.000000 0.069617 0.000000
# 6 0.000000 0.000000 0.000000 0.000000 0.000000 0.032411
#
#
# Mechanical properties :
#
#
# Convention : Reuss Voigt Hill
#
# Bulk Modulus (GPa) = 13.02363 57.07320 35.04842
# Shear Modulus (GPa) = 16.30157 27.43703 21.86930
#
# Velocity S-wave (km/s) = 3.03532 3.93784 3.51566
# Velocity P-wave (km/s) = 4.43225 7.27541 6.02397
#
# Compressibility (1/GPa) = 0.07678351
#
# Stress axis : x y z
#
# Youngs Moduli (GPa) = 67.49118 116.69816 11.55969
#
# Poissons Ratio (x) = 0.70617 0.06612
# Poissons Ratio (y) = 0.40841 0.05530
# Poissons Ratio (z) = 0.38604 0.55826
#
# Static dielectric constant tensor:
#      x y z
#    x 1.611800 0.000000 0.000000 
#    y 0.000000 1.637980 0.000000 
#    z 0.000000 0.000000 1.634480 
# 
# From -- ./inp_files/10352.got.cif
#   From: 2010.05.17/outbox.cif.g08.bks.cpg/sg57_6_cif.got.tgz:10352.got - 2010.06.03 13:58:18.
