data_PCOD9434760
_publ_section_title
;
Structure prediction by ZEFSAII (Michael W. Deem and Ramdas Pophale) SiO2 
 PCOD9434760
Probable space group: P B C M
;
_chemical_formula_sum "Si O2"
_cell_formula_units_Z 64
_cell_length_a 15.834934
_cell_length_b 24.258714
_cell_length_c 8.531916
_cell_angle_alpha 90.000000
_cell_angle_beta 90.000000
_cell_angle_gamma 90.000000
_cell_volume 3277.408705
_symmetry_space_group_name_H-M "P B C M"
_symmetry_group_IT_number 57
_symmetry_cell_setting 'orthorhombic'
loop_
_space_group_symop_operation_xyz
x,y,z
-x,-y,1/2+z
x,1/2-y,-z
-x,1/2+y,1/2-z
-x,-y,-z
x,y,1/2-z
-x,1/2+y,z
x,1/2-y,1/2+z
loop_
_atom_site_type_symbol
_atom_site_label
_atom_site_fract_x
_atom_site_fract_y
_atom_site_fract_z
Si Si1 0.594608 0.875849 0.439711
Si Si2 0.850190 0.003741 0.440544
Si Si3 0.091580 0.384544 0.437978
Si Si4 0.245530 0.311653 0.936345
Si Si5 0.406657 0.886829 0.438752
Si Si6 0.911114 0.123640 0.437952
Si Si7 0.346050 0.001825 0.561193
Si Si8 0.249996 0.811699 0.061754
O O1 0.600867 0.871976 0.250000
O O2 0.664282 0.836326 0.512864
O O3 0.498254 0.864550 0.488113
O O4 0.616692 0.938985 0.484009
O O5 0.851480 0.003546 0.250000
O O6 0.896005 0.947955 0.493170
O O7 0.891155 0.060974 0.493017
O O8 0.752055 0.001591 0.488507
O O9 0.088632 0.384332 0.250000
O O10 0.172257 0.350001 0.492486
O O11 0.004256 0.361378 0.504420
O O12 0.238380 0.311852 0.750000
O O13 0.236489 0.250000 0.000000
O O14 0.405726 0.886693 0.250000
O O15 0.394561 0.949493 0.493660
O O16 0.327715 0.850201 0.493943
O O17 0.908329 0.124747 0.250000
O O18 0.837564 0.162426 0.502679
O O19 0.348448 0.998575 0.750000
O O20 0.250055 0.811417 0.250000
O O21 0.260195 0.750000 0.000000
#
# Coordination Sequence:
#
# PCOD9434760 Si02
#       8
#     8   8   8   8   8   8   8   8
#     4  10  21  40  63  90 127 164 200 249 303 358
#     4   9  18  34  60  91 124 162 197 240 298 355
#     4  11  22  41  65  92 126 161 198 244 301 358
#     4  12  26  44  65  90 119 158 206 254 303 359
#     4  10  22  38  60  92 126 159 201 252 304 358
#     4  11  22  39  62  92 125 159 201 245 297 359
#     4  10  18  34  61  90 124 165 201 241 300 360
#     4  11  24  42  61  85 116 157 205 254 305 355
#
# _framework density 19.527622999999998
#
# number of rings (size 3 to 8) (size 9 to 14) (size 15 to 20)
#    0.000    1.500    2.500    3.000    0.000    2.500 
#    0.000    5.625    0.000    0.000    0.000    0.000 
#    0.000    0.000    0.000    0.000    0.000    0.000 
#
# Total GULP energy -357767.789020 kJ/mol
# GULP energy per Si atom -5590.121703 kJ/mol
# Density = 1.948318 g / cm^3
# Si number density = 19.527623 Si / 1000 Ang^3
#
#
#
# Elastic Constant Matrix: (Units=GPa)
#
#
# Indices 1 2 3 4 5 6 
#
# 1 80.8815 -13.9472 11.7134 0.0000 0.0000 0.0000
# 2 -13.9472 63.2951 10.6089 0.0000 0.0000 0.0000
# 3 11.7134 10.6089 41.1965 0.0000 0.0000 0.0000
# 4 0.0000 0.0000 0.0000 27.9827 0.0000 0.0000
# 5 0.0000 0.0000 0.0000 0.0000 20.8046 0.0000
# 6 0.0000 0.0000 0.0000 0.0000 0.0000 2.4553
#
#
#
# Elastic Compliance Matrix: (Units=1/GPa)
#
#
# Indices 1 2 3 4 5 6 
#
# 1 0.013736 0.003848 -0.004896 0.000000 0.000000 0.000000
# 2 0.003848 0.017589 -0.005624 0.000000 0.000000 0.000000
# 3 -0.004896 -0.005624 0.027114 0.000000 0.000000 0.000000
# 4 0.000000 0.000000 0.000000 0.035736 0.000000 0.000000
# 5 0.000000 0.000000 0.000000 0.000000 0.048066 0.000000
# 6 0.000000 0.000000 0.000000 0.000000 0.000000 0.407288
#
#
# Mechanical properties :
#
#
# Convention : Reuss Voigt Hill
#
# Bulk Modulus (GPa) = 22.17540 22.45814 22.31677
# Shear Modulus (GPa) = 8.65190 22.04838 15.35014
#
# Velocity S-wave (km/s) = 2.10718 3.36383 2.80674
# Velocity P-wave (km/s) = 4.15943 5.15876 4.68581
#
# Compressibility (1/GPa) = 0.04509501
#
# Stress axis : x y z
#
# Youngs Moduli (GPa) = 72.79953 56.85250 36.88090
#
# Poissons Ratio (x) = -0.21874 0.18059
# Poissons Ratio (y) = -0.28010 0.20740
# Poissons Ratio (z) = 0.35646 0.31971
#
# Static dielectric constant tensor:
#      x y z
#    x 1.676230 0.000000 0.000000 
#    y 0.000000 1.657850 0.000000 
#    z 0.000000 0.000000 1.658170 
# 
# From -- ./inp_files/5719.got.cif
#   From: 2010.05.17/outbox.cif.g08.bks.cpg/sg57_3_cif.got.tgz:5719.got - 2010.06.03 13:58:18.
