data_PCOD9434205
_publ_section_title
;
Structure prediction by ZEFSAII (Michael W. Deem and Ramdas Pophale) SiO2 
 PCOD9434205
Probable space group: P B C M
;
_chemical_formula_sum "Si O2"
_cell_formula_units_Z 64
_cell_length_a 19.003685
_cell_length_b 25.508103
_cell_length_c 9.058405
_cell_angle_alpha 90.000000
_cell_angle_beta 90.000000
_cell_angle_gamma 90.000000
_cell_volume 4391.043294
_symmetry_space_group_name_H-M "P B C M"
_symmetry_group_IT_number 57
_symmetry_cell_setting 'orthorhombic'
loop_
_space_group_symop_operation_xyz
x,y,z
-x,-y,1/2+z
x,1/2-y,-z
-x,1/2+y,1/2-z
-x,-y,-z
x,y,1/2-z
-x,1/2+y,z
x,1/2-y,1/2+z
loop_
_atom_site_type_symbol
_atom_site_label
_atom_site_fract_x
_atom_site_fract_y
_atom_site_fract_z
Si Si1 0.268187 0.491573 0.073627
Si Si2 0.687136 0.399474 0.428792
Si Si3 0.894858 0.512409 0.926939
Si Si4 0.537399 0.425038 0.078681
Si Si5 0.402439 0.044620 0.079138
Si Si6 0.049974 0.805583 0.072550
Si Si7 0.215735 0.803433 0.074000
Si Si8 0.989038 0.085639 0.426685
O O1 0.274930 0.493208 0.250000
O O2 0.187059 0.479394 0.037170
O O3 0.284934 0.548303 0.005407
O O4 0.328999 0.454290 0.007991
O O5 0.689597 0.406475 0.250000
O O6 0.605050 0.391291 0.467973
O O7 0.736688 0.351871 0.472506
O O8 0.904348 0.519598 0.750000
O O9 0.922645 0.453242 0.960398
O O10 0.944424 0.552733 0.013635
O O11 0.521151 0.415301 0.250000
O O12 0.567982 0.484656 0.068758
O O13 0.466241 0.421557 0.986506
O O14 0.390408 0.056116 0.250000
O O15 0.040831 0.803676 0.250000
O O16 0.133458 0.811180 0.038712
O O17 0.027280 0.750000 0.000000
O O18 0.015931 0.857971 0.004707
O O19 0.220918 0.798639 0.250000
O O20 0.239692 0.750000 0.000000
O O21 0.992266 0.092211 0.250000
#
# Coordination Sequence:
#
# PCOD9434205 Si02
#       8
#     8   8   8   8   8   8   8   8
#     4  10  18  27  41  60  82 109 141 173 206 247
#     4   9  17  28  41  58  81 109 141 174 208 246
#     4   9  19  32  44  62  88 117 146 177 215 261
#     4   8  14  24  37  53  75 104 135 165 197 235
#     4   9  16  25  37  54  78 105 133 166 200 235
#     4  10  19  31  47  65  87 114 145 181 219 258
#     4   9  18  30  43  60  82 109 139 173 211 247
#     4  10  19  31  47  65  86 113 146 181 217 258
#
# _framework density 14.575124000000001
#
# number of rings (size 3 to 8) (size 9 to 14) (size 15 to 20)
#    0.000    2.750    0.000    3.000    0.000    5.500 
#    0.000    0.000    0.000    0.000    0.000    0.000 
#    0.000    1.000    0.000    6.750    0.000    5.000 
#
# Total GULP energy -356409.785194 kJ/mol
# GULP energy per Si atom -5568.902894 kJ/mol
# Density = 1.454195 g / cm^3
# Si number density = 14.575124 Si / 1000 Ang^3
#
#
#
# Elastic Constant Matrix: (Units=GPa)
#
#
# Indices 1 2 3 4 5 6 
#
# 1 92.0693 30.9548 43.8091 0.0000 0.0000 0.0000
# 2 30.9548 71.7759 32.2511 0.0000 0.0000 0.0000
# 3 43.8091 32.2511 46.8726 0.0000 0.0000 0.0000
# 4 0.0000 0.0000 0.0000 20.3367 0.0000 0.0000
# 5 0.0000 0.0000 0.0000 0.0000 22.5588 0.0000
# 6 0.0000 0.0000 0.0000 0.0000 0.0000 17.9719
#
#
#
# Elastic Compliance Matrix: (Units=1/GPa)
#
#
# Indices 1 2 3 4 5 6 
#
# 1 0.019566 -0.000320 -0.018066 0.000000 0.000000 0.000000
# 2 -0.000320 0.020173 -0.013581 0.000000 0.000000 0.000000
# 3 -0.018066 -0.013581 0.047564 0.000000 0.000000 0.000000
# 4 0.000000 0.000000 0.000000 0.049172 0.000000 0.000000
# 5 0.000000 0.000000 0.000000 0.000000 0.044329 0.000000
# 6 0.000000 0.000000 0.000000 0.000000 0.000000 0.055642
#
#
# Mechanical properties :
#
#
# Convention : Reuss Voigt Hill
#
# Bulk Modulus (GPa) = 42.79379 47.19419 44.99399
# Shear Modulus (GPa) = 16.22484 19.08699 17.65592
#
# Velocity S-wave (km/s) = 3.34007 3.62271 3.48425
# Velocity P-wave (km/s) = 6.65577 7.06746 6.86470
#
# Compressibility (1/GPa) = 0.02336788
#
# Stress axis : x y z
#
# Youngs Moduli (GPa) = 51.11030 49.57229 21.02417
#
# Poissons Ratio (x) = 0.01587 0.37983
# Poissons Ratio (y) = 0.01637 0.28552
# Poissons Ratio (z) = 0.92338 0.67322
#
# Static dielectric constant tensor:
#      x y z
#    x 1.493730 0.000000 0.000000 
#    y 0.000000 1.463300 0.000000 
#    z 0.000000 0.000000 1.484960 
# 
# From -- ./inp_files/7392.got.cif
#   From: 2010.05.17/outbox.cif.g08.bks.cpg/sg57_4_cif.got.tgz:7392.got - 2010.06.03 13:58:18.
