data_PCOD9434987
_publ_section_title
;
Structure prediction by ZEFSAII (Michael W. Deem and Ramdas Pophale) SiO2 
 PCOD9434987
Probable space group: P B C M
;
_chemical_formula_sum "Si O2"
_cell_formula_units_Z 64
_cell_length_a 16.171382
_cell_length_b 29.423307
_cell_length_c 8.560432
_cell_angle_alpha 90.000000
_cell_angle_beta 90.000000
_cell_angle_gamma 90.000000
_cell_volume 4073.186551
_symmetry_space_group_name_H-M "P B C M"
_symmetry_group_IT_number 57
_symmetry_cell_setting 'orthorhombic'
loop_
_space_group_symop_operation_xyz
x,y,z
-x,-y,1/2+z
x,1/2-y,-z
-x,1/2+y,1/2-z
-x,-y,-z
x,y,1/2-z
-x,1/2+y,z
x,1/2-y,1/2+z
loop_
_atom_site_type_symbol
_atom_site_label
_atom_site_fract_x
_atom_site_fract_y
_atom_site_fract_z
Si Si1 0.000828 0.051455 0.061885
Si Si2 0.500891 0.448834 0.437572
Si Si3 0.406846 0.798721 0.562052
Si Si4 0.182270 0.052532 0.437705
Si Si5 0.599216 0.799160 0.562895
Si Si6 0.341051 0.894333 0.939228
Si Si7 0.819890 0.050794 0.439395
Si Si8 0.661905 0.892550 0.062934
O O1 0.001549 0.051070 0.250000
O O2 0.090490 0.070098 0.012650
O O3 0.910679 0.069772 0.013699
O O4 0.000000 0.000000 0.000000
O O5 0.500000 0.500000 0.500000
O O6 0.502560 0.449514 0.250000
O O7 0.581408 0.423112 0.500313
O O8 0.418354 0.421860 0.488358
O O9 0.378583 0.750000 0.500000
O O10 0.406229 0.797340 0.750000
O O11 0.502861 0.805319 0.512500
O O12 0.354400 0.842237 0.510168
O O13 0.186367 0.052440 0.250000
O O14 0.255782 0.082879 0.503717
O O15 0.190233 0.000394 0.496187
O O16 0.626282 0.750000 0.500000
O O17 0.601430 0.798927 0.750000
O O18 0.650465 0.841646 0.499951
O O19 0.342902 0.895145 0.750000
O O20 0.255733 0.917583 0.990439
O O21 0.817866 0.047864 0.250000
O O22 0.662364 0.891677 0.250000
#
# Coordination Sequence:
#
# PCOD9434987 Si02
#       8
#     8   8   8   8   8   8   8   8
#     4   8  15  28  45  66  90 119 153 192 235 278
#     4  11  23  34  45  62  91 128 161 191 224 268
#     4   9  18  31  48  68  90 117 150 189 230 270
#     4  10  19  30  46  68  95 124 158 196 236 279
#     4  10  19  33  52  71  93 120 153 195 237 278
#     4  10  19  32  48  68  92 121 155 190 228 273
#     4   9  17  30  48  68  94 124 156 192 232 280
#     4  11  22  34  47  67  93 125 162 195 233 277
#
# _framework density 15.712514000000001
#
# number of rings (size 3 to 8) (size 9 to 14) (size 15 to 20)
#    0.000    2.250    1.250    2.250    0.000    6.500 
#    0.000    0.000    0.000    0.000    0.000    0.875 
#    0.000    2.000    0.000    0.000    0.000    0.000 
#
# Total GULP energy -356777.781601 kJ/mol
# GULP energy per Si atom -5574.652838 kJ/mol
# Density = 1.567675 g / cm^3
# Si number density = 15.712514 Si / 1000 Ang^3
#
#
#
# Elastic Constant Matrix: (Units=GPa)
#
#
# Indices 1 2 3 4 5 6 
#
# 1 155.6063 80.1353 27.5088 0.0000 0.0000 0.0000
# 2 80.1353 126.4457 23.2546 0.0000 0.0000 0.0000
# 3 27.5088 23.2546 18.1981 0.0000 0.0000 0.0000
# 4 0.0000 0.0000 0.0000 23.5812 0.0000 0.0000
# 5 0.0000 0.0000 0.0000 0.0000 13.9942 0.0000
# 6 0.0000 0.0000 0.0000 0.0000 0.0000 6.2102
#
#
#
# Elastic Compliance Matrix: (Units=1/GPa)
#
#
# Indices 1 2 3 4 5 6 
#
# 1 0.010741 -0.004995 -0.009853 0.000000 0.000000 0.000000
# 2 -0.004995 0.012661 -0.008629 0.000000 0.000000 0.000000
# 3 -0.009853 -0.008629 0.080871 0.000000 0.000000 0.000000
# 4 0.000000 0.000000 0.000000 0.042407 0.000000 0.000000
# 5 0.000000 0.000000 0.000000 0.000000 0.071458 0.000000
# 6 0.000000 0.000000 0.000000 0.000000 0.000000 0.161026
#
#
# Mechanical properties :
#
#
# Convention : Reuss Voigt Hill
#
# Bulk Modulus (GPa) = 17.44597 62.44970 39.94784
# Shear Modulus (GPa) = 11.23033 20.04722 15.63877
#
# Velocity S-wave (km/s) = 2.67636 3.57582 3.15827
# Velocity P-wave (km/s) = 4.54729 7.54189 6.22728
#
# Compressibility (1/GPa) = 0.05731981
#
# Stress axis : x y z
#
# Youngs Moduli (GPa) = 93.10447 78.98349 12.36531
#
# Poissons Ratio (x) = 0.39451 0.12184
# Poissons Ratio (y) = 0.46504 0.10669
# Poissons Ratio (z) = 0.91738 0.68151
#
# Static dielectric constant tensor:
#      x y z
#    x 1.547740 0.000000 0.000000 
#    y 0.000000 1.496310 0.000000 
#    z 0.000000 0.000000 1.531260 
# 
# From -- ./inp_files/6008.got.cif
#   From: 2010.05.17/outbox.cif.g08.bks.cpg/sg57_4_cif.got.tgz:6008.got - 2010.06.03 13:58:18.
