data_PCOD9434268
_publ_section_title
;
Structure prediction by ZEFSAII (Michael W. Deem and Ramdas Pophale) SiO2 
 PCOD9434268
Probable space group: P B C M
;
_chemical_formula_sum "Si O2"
_cell_formula_units_Z 48
_cell_length_a 11.814552
_cell_length_b 27.585712
_cell_length_c 8.586163
_cell_angle_alpha 90.000000
_cell_angle_beta 90.000000
_cell_angle_gamma 90.000000
_cell_volume 2798.340673
_symmetry_space_group_name_H-M "P B C M"
_symmetry_group_IT_number 57
_symmetry_cell_setting 'orthorhombic'
loop_
_space_group_symop_operation_xyz
x,y,z
-x,-y,1/2+z
x,1/2-y,-z
-x,1/2+y,1/2-z
-x,-y,-z
x,y,1/2-z
-x,1/2+y,z
x,1/2-y,1/2+z
loop_
_atom_site_type_symbol
_atom_site_label
_atom_site_fract_x
_atom_site_fract_y
_atom_site_fract_z
Si Si1 0.121520 0.557383 0.935827
Si Si2 0.857771 0.547899 0.938637
Si Si3 0.534966 0.049845 0.574030
Si Si4 0.510467 0.304295 0.437718
Si Si5 0.697639 0.124424 0.069177
Si Si6 0.674791 0.877516 0.073754
O O1 0.129351 0.556536 0.750000
O O2 0.988767 0.557469 0.979758
O O3 0.170620 0.506021 0.999174
O O4 0.185085 0.605175 0.997645
O O5 0.846816 0.546326 0.750000
O O6 0.778943 0.592163 0.997447
O O7 0.582291 0.045496 0.750000
O O8 0.619391 0.077603 0.461162
O O9 0.423378 0.082393 0.585519
O O10 0.500000 0.000000 0.500000
O O11 0.512695 0.250000 0.500000
O O12 0.506996 0.305643 0.250000
O O13 0.623906 0.333075 0.489567
O O14 0.396524 0.332523 0.496198
O O15 0.710747 0.135404 0.250000
O O16 0.709706 0.863028 0.250000
#
# Coordination Sequence:
#
# PCOD9434268 Si02
#       6
#     8   8   8   8   8   8
#     4  10  19  30  47  73 104 137 173 211 247 289
#     4   9  17  31  50  72 101 138 173 203 244 297
#     4  10  18  28  44  69 100 130 161 199 245 297
#     4  10  20  36  56  77  99 122 157 205 259 313
#     4  11  21  33  49  69  97 133 171 208 248 294
#     4   8  16  30  48  69  94 125 159 196 240 296
#
# _framework density 17.153022
#
# number of rings (size 3 to 8) (size 9 to 14) (size 15 to 20)
#    0.000    2.333    0.000    5.000    0.000    2.000 
#    0.000    4.167    0.000    1.000    0.000    2.333 
#    0.000    0.000    0.000    0.000    0.000    0.000 
#
# Total GULP energy -267301.682584 kJ/mol
# GULP energy per Si atom -5568.785054 kJ/mol
# Density = 1.711398 g / cm^3
# Si number density = 17.153022 Si / 1000 Ang^3
#
#
#
# Elastic Constant Matrix: (Units=GPa)
#
#
# Indices 1 2 3 4 5 6 
#
# 1 85.3468 49.6236 17.1182 0.0000 0.0000 0.0000
# 2 49.6236 123.7803 26.5986 0.0000 0.0000 0.0000
# 3 17.1182 26.5986 42.4998 0.0000 0.0000 0.0000
# 4 0.0000 0.0000 0.0000 23.3120 0.0000 0.0000
# 5 0.0000 0.0000 0.0000 0.0000 17.8655 0.0000
# 6 0.0000 0.0000 0.0000 0.0000 0.0000 25.0013
#
#
#
# Elastic Compliance Matrix: (Units=1/GPa)
#
#
# Indices 1 2 3 4 5 6 
#
# 1 0.015547 -0.005647 -0.002728 0.000000 0.000000 0.000000
# 2 -0.005647 0.011385 -0.004851 0.000000 0.000000 0.000000
# 3 -0.002728 -0.004851 0.027664 0.000000 0.000000 0.000000
# 4 0.000000 0.000000 0.000000 0.042896 0.000000 0.000000
# 5 0.000000 0.000000 0.000000 0.000000 0.055974 0.000000
# 6 0.000000 0.000000 0.000000 0.000000 0.000000 0.039998
#
#
# Mechanical properties :
#
#
# Convention : Reuss Voigt Hill
#
# Bulk Modulus (GPa) = 35.53026 48.70084 42.11555
# Shear Modulus (GPa) = 21.80569 23.78820 22.79695
#
# Velocity S-wave (km/s) = 3.56932 3.72805 3.64955
# Velocity P-wave (km/s) = 6.14373 6.85454 6.50885
#
# Compressibility (1/GPa) = 0.02814503
#
# Stress axis : x y z
#
# Youngs Moduli (GPa) = 64.32003 87.83514 36.14759
#
# Poissons Ratio (x) = 0.49597 0.09862
# Poissons Ratio (y) = 0.36319 0.17535
# Poissons Ratio (z) = 0.17548 0.42608
#
# Static dielectric constant tensor:
#      x y z
#    x 1.623360 0.000000 0.000000 
#    y 0.000000 1.535690 0.000000 
#    z 0.000000 0.000000 1.608100 
# 
# From -- ./inp_files/3271.got.cif
#   From: 2010.05.17/outbox.cif.g08.bks.cpg/sg57_2_cif.got.tgz:3271.got - 2010.06.03 13:58:18.
