data_PCOD9434930
_publ_section_title
;
Structure prediction by ZEFSAII (Michael W. Deem and Ramdas Pophale) SiO2 
 PCOD9434930
Probable space group: P B C M
;
_chemical_formula_sum "Si O2"
_cell_formula_units_Z 64
_cell_length_a 15.244799
_cell_length_b 30.383103
_cell_length_c 8.673814
_cell_angle_alpha 90.000000
_cell_angle_beta 90.000000
_cell_angle_gamma 90.000000
_cell_volume 4017.574451
_symmetry_space_group_name_H-M "P B C M"
_symmetry_group_IT_number 57
_symmetry_cell_setting 'orthorhombic'
loop_
_space_group_symop_operation_xyz
x,y,z
-x,-y,1/2+z
x,1/2-y,-z
-x,1/2+y,1/2-z
-x,-y,-z
x,y,1/2-z
-x,1/2+y,z
x,1/2-y,1/2+z
loop_
_atom_site_type_symbol
_atom_site_label
_atom_site_fract_x
_atom_site_fract_y
_atom_site_fract_z
Si Si1 0.962804 0.111270 0.934854
Si Si2 0.205749 0.204108 0.932352
Si Si3 0.625878 0.026393 0.564073
Si Si4 0.129817 0.060098 0.435003
Si Si5 0.174511 0.537991 0.562557
Si Si6 0.703398 0.621007 0.068203
Si Si7 0.555382 0.565371 0.567057
Si Si8 0.009966 0.202778 0.433669
O O1 0.961110 0.114933 0.750000
O O2 0.884719 0.078864 0.987419
O O3 0.053086 0.087509 0.984964
O O4 0.959448 0.159919 0.005923
O O5 0.193260 0.207606 0.750000
O O6 0.240066 0.250000 0.000000
O O7 0.267621 0.163850 0.975632
O O8 0.110551 0.196773 0.009701
O O9 0.625952 0.018832 0.750000
O O10 0.723479 0.040318 0.517298
O O11 0.547893 0.060721 0.530499
O O12 0.598448 0.980996 0.483509
O O13 0.115257 0.061160 0.250000
O O14 0.223275 0.083447 0.463987
O O15 0.135266 0.009287 0.486625
O O16 0.172751 0.537512 0.750000
O O17 0.706939 0.630276 0.250000
O O18 0.609283 0.602692 0.019877
O O19 0.565136 0.571003 0.750000
O O20 0.980095 0.250000 0.500000
O O21 0.008628 0.204273 0.250000
#
# Coordination Sequence:
#
# PCOD9434930 Si02
#       8
#     8   8   8   8   8   8   8   8
#     4  11  21  32  49  72  98 130 169 208 246 291
#     4  11  21  34  52  74 100 127 164 203 245 295
#     4   9  17  33  50  67  96 131 166 206 250 293
#     4  10  19  32  48  66  96 137 174 202 238 287
#     4   9  18  33  50  68  95 135 174 207 247 292
#     4  11  20  32  51  71 100 136 168 201 246 296
#     4  10  19  29  48  74  97 125 165 209 249 292
#     4  11  21  35  52  71  97 127 162 202 249 294
#
# _framework density 15.930009999999999
#
# number of rings (size 3 to 8) (size 9 to 14) (size 15 to 20)
#    0.000    1.750    2.500    4.500    0.000    1.000 
#    0.000    1.875    0.000    0.000    0.000    0.875 
#    0.000    4.000    0.000    0.000    0.000    0.000 
#
# Total GULP energy -357218.594686 kJ/mol
# GULP energy per Si atom -5581.540542 kJ/mol
# Density = 1.589375 g / cm^3
# Si number density = 15.930010 Si / 1000 Ang^3
#
#
#
# Elastic Constant Matrix: (Units=GPa)
#
#
# Indices 1 2 3 4 5 6 
#
# 1 62.9362 40.4084 24.7743 0.0000 0.0000 0.0000
# 2 40.4084 119.9161 40.8634 0.0000 0.0000 0.0000
# 3 24.7743 40.8634 67.5905 0.0000 0.0000 0.0000
# 4 0.0000 0.0000 0.0000 24.3336 0.0000 0.0000
# 5 0.0000 0.0000 0.0000 0.0000 15.7137 0.0000
# 6 0.0000 0.0000 0.0000 0.0000 0.0000 17.4152
#
#
#
# Elastic Compliance Matrix: (Units=1/GPa)
#
#
# Indices 1 2 3 4 5 6 
#
# 1 0.021248 -0.005675 -0.004357 0.000000 0.000000 0.000000
# 2 -0.005675 0.012019 -0.005186 0.000000 0.000000 0.000000
# 3 -0.004357 -0.005186 0.019527 0.000000 0.000000 0.000000
# 4 0.000000 0.000000 0.000000 0.041095 0.000000 0.000000
# 5 0.000000 0.000000 0.000000 0.000000 0.063639 0.000000
# 6 0.000000 0.000000 0.000000 0.000000 0.000000 0.057421
#
#
# Mechanical properties :
#
#
# Convention : Reuss Voigt Hill
#
# Bulk Modulus (GPa) = 44.72783 51.39278 48.06031
# Shear Modulus (GPa) = 19.77545 21.11894 20.44719
#
# Velocity S-wave (km/s) = 3.52717 3.64501 3.58657
# Velocity P-wave (km/s) = 6.68779 7.07435 6.88379
#
# Compressibility (1/GPa) = 0.02235744
#
# Stress axis : x y z
#
# Youngs Moduli (GPa) = 47.06312 83.20292 51.21030
#
# Poissons Ratio (x) = 0.47220 0.22313
# Poissons Ratio (y) = 0.26710 0.26558
# Poissons Ratio (z) = 0.20506 0.43149
#
# Static dielectric constant tensor:
#      x y z
#    x 1.523690 0.000000 0.000000 
#    y 0.000000 1.539780 0.000000 
#    z 0.000000 0.000000 1.536910 
# 
# From -- ./inp_files/5963.got.cif
#   From: 2010.05.17/outbox.cif.g08.bks.cpg/sg57_3_cif.got.tgz:5963.got - 2010.06.03 13:58:18.
