data_PCOD9434389
_publ_section_title
;
Structure prediction by ZEFSAII (Michael W. Deem and Ramdas Pophale) SiO2 
 PCOD9434389
Probable space group: P B C M
;
_chemical_formula_sum "Si O2"
_cell_formula_units_Z 48
_cell_length_a 12.450005
_cell_length_b 26.447947
_cell_length_c 8.403468
_cell_angle_alpha 90.000000
_cell_angle_beta 90.000000
_cell_angle_gamma 90.000000
_cell_volume 2767.069341
_symmetry_space_group_name_H-M "P B C M"
_symmetry_group_IT_number 57
_symmetry_cell_setting 'orthorhombic'
loop_
_space_group_symop_operation_xyz
x,y,z
-x,-y,1/2+z
x,1/2-y,-z
-x,1/2+y,1/2-z
-x,-y,-z
x,y,1/2-z
-x,1/2+y,z
x,1/2-y,1/2+z
loop_
_atom_site_type_symbol
_atom_site_label
_atom_site_fract_x
_atom_site_fract_y
_atom_site_fract_z
Si Si1 0.650053 0.530358 0.938122
Si Si2 0.178607 0.109603 0.440854
Si Si3 0.034400 0.944417 0.561245
Si Si4 0.270806 0.925505 0.063551
Si Si5 0.331152 0.307117 0.441406
Si Si6 0.513966 0.385366 0.443940
O O1 0.641839 0.518850 0.750000
O O2 0.547021 0.562841 0.991589
O O3 0.748460 0.568627 0.968297
O O4 0.676393 0.480438 0.035125
O O5 0.190758 0.103037 0.250000
O O6 0.227899 0.163342 0.489750
O O7 0.056439 0.096416 0.485058
O O8 0.033624 0.948284 0.750000
O O9 0.153066 0.927991 0.510156
O O10 0.000000 0.000000 0.500000
O O11 0.257079 0.916490 0.250000
O O12 0.362761 0.887165 0.001010
O O13 0.336633 0.250000 0.500000
O O14 0.326384 0.308831 0.250000
O O15 0.436796 0.339363 0.493041
O O16 0.514853 0.385499 0.250000
#
# Coordination Sequence:
#
# PCOD9434389 Si02
#       6
#     8   8   8   8   8   8
#     4  10  18  30  48  71 103 139 176 215 257 304
#     4  10  20  34  52  76 104 137 178 221 262 309
#     4  11  22  34  50  73 106 144 183 220 258 307
#     4  11  20  31  48  71 104 143 180 212 254 309
#     4  10  20  37  60  83 105 130 166 216 271 321
#     4   8  18  33  49  73 103 135 171 214 259 309
#
# _framework density 17.346872000000001
#
# number of rings (size 3 to 8) (size 9 to 14) (size 15 to 20)
#    0.000    2.000    1.667    4.000    0.000    2.000 
#    0.000    9.167    0.000    1.000    0.000    4.667 
#    0.000    0.000    0.000    0.000    0.000    0.000 
#
# Total GULP energy -267695.634090 kJ/mol
# GULP energy per Si atom -5576.992377 kJ/mol
# Density = 1.730739 g / cm^3
# Si number density = 17.346872 Si / 1000 Ang^3
#
#
#
# Elastic Constant Matrix: (Units=GPa)
#
#
# Indices 1 2 3 4 5 6 
#
# 1 178.6776 59.9806 27.4367 0.0000 0.0000 0.0000
# 2 59.9806 79.0883 2.4410 0.0000 0.0000 0.0000
# 3 27.4367 2.4410 30.8148 0.0000 0.0000 0.0000
# 4 0.0000 0.0000 0.0000 13.7045 0.0000 0.0000
# 5 0.0000 0.0000 0.0000 0.0000 20.6943 0.0000
# 6 0.0000 0.0000 0.0000 0.0000 0.0000 8.5740
#
#
#
# Elastic Compliance Matrix: (Units=1/GPa)
#
#
# Indices 1 2 3 4 5 6 
#
# 1 0.008937 -0.006548 -0.007439 0.000000 0.000000 0.000000
# 2 -0.006548 0.017473 0.004446 0.000000 0.000000 0.000000
# 3 -0.007439 0.004446 0.038723 0.000000 0.000000 0.000000
# 4 0.000000 0.000000 0.000000 0.072969 0.000000 0.000000
# 5 0.000000 0.000000 0.000000 0.000000 0.048322 0.000000
# 6 0.000000 0.000000 0.000000 0.000000 0.000000 0.116632
#
#
# Mechanical properties :
#
#
# Convention : Reuss Voigt Hill
#
# Bulk Modulus (GPa) = 21.71470 52.03306 36.87388
# Shear Modulus (GPa) = 14.81533 21.84271 18.32902
#
# Velocity S-wave (km/s) = 2.92561 3.55233 3.25409
# Velocity P-wave (km/s) = 4.89462 6.84735 5.95162
#
# Compressibility (1/GPa) = 0.04605175
#
# Stress axis : x y z
#
# Youngs Moduli (GPa) = 111.89275 57.23077 25.82454
#
# Poissons Ratio (x) = 0.37477 0.19210
# Poissons Ratio (y) = 0.73271 -0.11482
# Poissons Ratio (z) = 0.83233 -0.25447
#
# Static dielectric constant tensor:
#      x y z
#    x 1.638480 0.000000 0.000000 
#    y 0.000000 1.577590 0.000000 
#    z 0.000000 0.000000 1.602940 
# 
# From -- ./inp_files/3260.got.cif
#   From: 2010.05.17/outbox.cif.g08.bks.cpg/sg57_2_cif.got.tgz:3260.got - 2010.06.03 13:58:18.
