data_PCOD9434235
_publ_section_title
;
Structure prediction by ZEFSAII (Michael W. Deem and Ramdas Pophale) SiO2 
 PCOD9434235
Probable space group: P B C M
;
_chemical_formula_sum "Si O2"
_cell_formula_units_Z 64
_cell_length_a 17.729322
_cell_length_b 27.136303
_cell_length_c 8.846780
_cell_angle_alpha 90.000000
_cell_angle_beta 90.000000
_cell_angle_gamma 90.000000
_cell_volume 4256.258877
_symmetry_space_group_name_H-M "P B C M"
_symmetry_group_IT_number 57
_symmetry_cell_setting 'orthorhombic'
loop_
_space_group_symop_operation_xyz
x,y,z
-x,-y,1/2+z
x,1/2-y,-z
-x,1/2+y,1/2-z
-x,-y,-z
x,y,1/2-z
-x,1/2+y,z
x,1/2-y,1/2+z
loop_
_atom_site_type_symbol
_atom_site_label
_atom_site_fract_x
_atom_site_fract_y
_atom_site_fract_z
Si Si1 0.332639 0.936869 0.932516
Si Si2 0.594309 0.696057 0.068118
Si Si3 0.403440 0.040499 0.574078
Si Si4 0.990357 0.054566 0.931509
Si Si5 0.143251 0.425523 0.931413
Si Si6 0.718108 0.628296 0.573552
Si Si7 0.520312 0.388594 0.931345
Si Si8 0.175467 0.960164 0.431138
O O1 0.327754 0.937201 0.750000
O O2 0.393079 0.895371 0.980149
O O3 0.370382 0.988832 0.980403
O O4 0.248995 0.935963 0.997560
O O5 0.595158 0.697815 0.250000
O O6 0.526307 0.659393 0.017746
O O7 0.584914 0.750000 0.000000
O O8 0.671472 0.671224 0.008705
O O9 0.425192 0.035173 0.750000
O O10 0.336443 0.080508 0.564946
O O11 0.472546 0.063928 0.483970
O O12 0.997429 0.052972 0.750000
O O13 0.903479 0.066897 0.969048
O O14 0.059942 0.084049 0.002130
O O15 0.000000 0.000000 0.000000
O O16 0.141066 0.424359 0.750000
O O17 0.167385 0.481831 0.977011
O O18 0.204458 0.387728 0.995330
O O19 0.729376 0.640097 0.750000
O O20 0.519844 0.388048 0.750000
O O21 0.182839 0.960178 0.250000
#
# Coordination Sequence:
#
# PCOD9434235 Si02
#       8
#     8   8   8   8   8   8   8   8
#     4  10  18  28  41  60  86 116 149 183 219 259
#     4  10  20  35  51  67  88 114 145 185 229 274
#     4   9  17  27  40  60  85 114 147 178 213 258
#     4   9  17  28  40  57  82 115 154 189 220 255
#     4  10  18  28  42  62  87 117 153 187 219 258
#     4  10  18  29  46  68  90 116 148 184 223 264
#     4   9  19  31  44  62  84 111 144 182 223 265
#     4   9  18  28  39  58  85 119 154 186 220 254
#
# _framework density 15.03668
#
# number of rings (size 3 to 8) (size 9 to 14) (size 15 to 20)
#    0.000    2.500    1.250    2.625    0.000    4.500 
#    0.000    0.000    0.000    0.000    0.000    0.000 
#    0.000    1.000    0.000    5.250    0.000    4.875 
#
# Total GULP energy -356556.528721 kJ/mol
# GULP energy per Si atom -5571.195761 kJ/mol
# Density = 1.500246 g / cm^3
# Si number density = 15.036680 Si / 1000 Ang^3
#
#
#
# Elastic Constant Matrix: (Units=GPa)
#
#
# Indices 1 2 3 4 5 6 
#
# 1 155.1496 45.9957 43.8179 0.0000 0.0000 0.0000
# 2 45.9957 50.1815 23.2741 0.0000 0.0000 0.0000
# 3 43.8179 23.2741 38.8058 0.0000 0.0000 0.0000
# 4 0.0000 0.0000 0.0000 15.6721 0.0000 0.0000
# 5 0.0000 0.0000 0.0000 0.0000 27.3492 0.0000
# 6 0.0000 0.0000 0.0000 0.0000 0.0000 12.0021
#
#
#
# Elastic Compliance Matrix: (Units=1/GPa)
#
#
# Indices 1 2 3 4 5 6 
#
# 1 0.010533 -0.005733 -0.008455 0.000000 0.000000 0.000000
# 2 -0.005733 0.030727 -0.011956 0.000000 0.000000 0.000000
# 3 -0.008455 -0.011956 0.042487 0.000000 0.000000 0.000000
# 4 0.000000 0.000000 0.000000 0.063808 0.000000 0.000000
# 5 0.000000 0.000000 0.000000 0.000000 0.036564 0.000000
# 6 0.000000 0.000000 0.000000 0.000000 0.000000 0.083319
#
#
# Mechanical properties :
#
#
# Convention : Reuss Voigt Hill
#
# Bulk Modulus (GPa) = 31.78629 52.25693 42.02161
# Shear Modulus (GPa) = 15.14184 19.74130 17.44157
#
# Velocity S-wave (km/s) = 3.17676 3.62729 3.40948
# Velocity P-wave (km/s) = 5.88564 7.23681 6.59592
#
# Compressibility (1/GPa) = 0.03146010
#
# Stress axis : x y z
#
# Youngs Moduli (GPa) = 94.94127 32.54432 23.53678
#
# Poissons Ratio (x) = 0.18657 0.19900
# Poissons Ratio (y) = 0.54429 0.28140
# Poissons Ratio (z) = 0.80272 0.38909
#
# Static dielectric constant tensor:
#      x y z
#    x 1.531790 0.000000 0.000000 
#    y 0.000000 1.477680 0.000000 
#    z 0.000000 0.000000 1.508530 
# 
# From -- ./inp_files/7456.got.cif
#   From: 2010.05.17/outbox.cif.g08.bks.cpg/sg57_4_cif.got.tgz:7456.got - 2010.06.03 13:58:18.
