data_PCOD9434063
_publ_section_title
;
Structure prediction by ZEFSAII (Michael W. Deem and Ramdas Pophale) SiO2 
 PCOD9434063
Probable space group: P B C M
;
_chemical_formula_sum "Si O2"
_cell_formula_units_Z 56
_cell_length_a 14.478811
_cell_length_b 28.603775
_cell_length_c 7.890167
_cell_angle_alpha 90.000000
_cell_angle_beta 90.000000
_cell_angle_gamma 90.000000
_cell_volume 3267.702028
_symmetry_space_group_name_H-M "P B C M"
_symmetry_group_IT_number 57
_symmetry_cell_setting 'orthorhombic'
loop_
_space_group_symop_operation_xyz
x,y,z
-x,-y,1/2+z
x,1/2-y,-z
-x,1/2+y,1/2-z
-x,-y,-z
x,y,1/2-z
-x,1/2+y,z
x,1/2-y,1/2+z
loop_
_atom_site_type_symbol
_atom_site_label
_atom_site_fract_x
_atom_site_fract_y
_atom_site_fract_z
Si Si1 0.604343 0.511022 0.046077
Si Si2 0.222862 0.544352 0.946403
Si Si3 0.246520 0.301347 0.451753
Si Si4 0.888383 0.544375 0.946296
Si Si5 0.938609 0.103785 0.541527
Si Si6 0.283164 0.400098 0.950144
Si Si7 0.034377 0.301636 0.453839
O O1 0.610591 0.509995 0.250000
O O2 0.680339 0.473763 0.978545
O O3 0.639922 0.562494 0.992696
O O4 0.500000 0.500000 0.000000
O O5 0.240400 0.555752 0.750000
O O6 0.161481 0.586431 0.018764
O O7 0.155588 0.499074 0.955721
O O8 0.281410 0.250000 0.500000
O O9 0.243472 0.304375 0.250000
O O10 0.302084 0.345937 0.517599
O O11 0.140371 0.305078 0.518279
O O12 0.899148 0.530730 0.750000
O O13 0.983852 0.565888 0.010634
O O14 0.811740 0.585284 0.958180
O O15 0.938534 0.103267 0.750000
O O16 0.973084 0.154790 0.486480
O O17 0.268233 0.406988 0.750000
O O18 0.999613 0.250000 0.500000
O O19 0.038315 0.304609 0.250000
#
# Coordination Sequence:
#
# PCOD9434063 Si02
#       7
#     8   8   8   8   8   8   8
#     4   9  19  33  49  68  89 115 150 191 238 285
#     4   9  18  31  45  64  88 116 149 185 225 274
#     4  10  18  29  45  67  95 126 160 190 224 266
#     4  10  17  27  42  63  91 122 152 182 218 262
#     4   9  16  28  44  61  89 122 152 184 218 259
#     4  10  19  31  46  67  93 123 157 191 230 275
#     4   9  17  29  42  61  88 122 157 186 216 253
#
# _framework density 17.137425
#
# number of rings (size 3 to 8) (size 9 to 14) (size 15 to 20)
#    0.000    2.571    1.429    2.571    0.000    3.429 
#    0.000    1.429    0.000    0.000    0.000    1.000 
#    0.000    4.571    0.000    0.000    0.000    0.000 
#
# Total GULP energy -312108.328184 kJ/mol
# GULP energy per Si atom -5573.363003 kJ/mol
# Density = 1.709842 g / cm^3
# Si number density = 17.137425 Si / 1000 Ang^3
#
#
#
# Elastic Constant Matrix: (Units=GPa)
#
#
# Indices 1 2 3 4 5 6 
#
# 1 108.1144 52.0827 4.9323 0.0000 0.0000 0.0000
# 2 52.0827 72.6266 -1.3566 0.0000 0.0000 0.0000
# 3 4.9323 -1.3566 26.6849 0.0000 0.0000 0.0000
# 4 0.0000 0.0000 0.0000 19.8302 0.0000 0.0000
# 5 0.0000 0.0000 0.0000 0.0000 10.6338 0.0000
# 6 0.0000 0.0000 0.0000 0.0000 0.0000 15.8452
#
#
#
# Elastic Compliance Matrix: (Units=1/GPa)
#
#
# Indices 1 2 3 4 5 6 
#
# 1 0.014398 -0.010384 -0.003189 0.000000 0.000000 0.000000
# 2 -0.010384 0.021272 0.003001 0.000000 0.000000 0.000000
# 3 -0.003189 0.003001 0.038216 0.000000 0.000000 0.000000
# 4 0.000000 0.000000 0.000000 0.050428 0.000000 0.000000
# 5 0.000000 0.000000 0.000000 0.000000 0.094040 0.000000
# 6 0.000000 0.000000 0.000000 0.000000 0.000000 0.063111
#
#
# Mechanical properties :
#
#
# Convention : Reuss Voigt Hill
#
# Bulk Modulus (GPa) = 18.96075 35.41587 27.18831
# Shear Modulus (GPa) = 15.61570 19.37966 17.49768
#
# Velocity S-wave (km/s) = 3.02189 3.36644 3.19881
# Velocity P-wave (km/s) = 4.82325 5.98509 5.43530
#
# Compressibility (1/GPa) = 0.05274053
#
# Stress axis : x y z
#
# Youngs Moduli (GPa) = 69.45633 47.00985 26.16683
#
# Poissons Ratio (x) = 0.48817 0.08345
# Poissons Ratio (y) = 0.72127 -0.07852
# Poissons Ratio (z) = 0.22150 -0.14107
#
# Static dielectric constant tensor:
#      x y z
#    x 1.574950 0.000000 0.000000 
#    y 0.000000 1.615370 0.000000 
#    z 0.000000 0.000000 1.619480 
# 
# From -- ./inp_files/5883.got.cif
#   From: 2010.05.17/outbox.cif.g08.bks.cpg/sg57_3_cif.got.tgz:5883.got - 2010.06.03 13:58:18.
