data_PCOD9434195
_publ_section_title
;
Structure prediction by ZEFSAII (Michael W. Deem and Ramdas Pophale) SiO2 
 PCOD9434195
Probable space group: P B C M
;
_chemical_formula_sum "Si O2"
_cell_formula_units_Z 56
_cell_length_a 14.822801
_cell_length_b 26.835188
_cell_length_c 9.378722
_cell_angle_alpha 90.000000
_cell_angle_beta 90.000000
_cell_angle_gamma 90.000000
_cell_volume 3730.599118
_symmetry_space_group_name_H-M "P B C M"
_symmetry_group_IT_number 57
_symmetry_cell_setting 'orthorhombic'
loop_
_space_group_symop_operation_xyz
x,y,z
-x,-y,1/2+z
x,1/2-y,-z
-x,1/2+y,1/2-z
-x,-y,-z
x,y,1/2-z
-x,1/2+y,z
x,1/2-y,1/2+z
loop_
_atom_site_type_symbol
_atom_site_label
_atom_site_fract_x
_atom_site_fract_y
_atom_site_fract_z
Si Si1 0.483715 0.107711 0.421141
Si Si2 0.700084 0.566280 0.417537
Si Si3 0.625424 0.455210 0.082009
Si Si4 0.940140 0.431971 0.581699
Si Si5 0.615824 0.301675 0.580725
Si Si6 0.118276 0.454230 0.419185
Si Si7 0.240756 0.882693 0.580297
O O1 0.492022 0.100029 0.250000
O O2 0.377820 0.105889 0.455908
O O3 0.536490 0.063621 0.501261
O O4 0.537131 0.158486 0.456556
O O5 0.723070 0.571735 0.250000
O O6 0.651206 0.512742 0.434925
O O7 0.790373 0.565248 0.509402
O O8 0.617414 0.444749 0.250000
O O9 0.705153 0.423004 0.011437
O O10 0.962893 0.430757 0.750000
O O11 0.894181 0.486170 0.554091
O O12 0.864836 0.390211 0.551795
O O13 0.030058 0.429453 0.489047
O O14 0.608072 0.250000 0.500000
O O15 0.610775 0.293183 0.750000
O O16 0.710353 0.330303 0.550923
O O17 0.120103 0.447004 0.250000
O O18 0.254437 0.893124 0.750000
#
# Coordination Sequence:
#
# PCOD9434195 Si02
#       7
#     8   8   8   8   8   8   8
#     4   9  19  33  46  61  87 123 154 182 223 277
#     4  10  19  30  43  62  90 124 158 187 218 262
#     4  10  18  26  41  66  91 117 151 191 222 253
#     4   9  17  30  45  62  88 123 157 185 217 261
#     4   9  18  32  50  69  90 114 146 186 230 277
#     4  10  19  28  43  65  91 123 156 189 221 254
#     4   9  17  31  48  65  89 124 155 181 222 277
#
# _framework density 15.010994
#
# number of rings (size 3 to 8) (size 9 to 14) (size 15 to 20)
#    0.000    2.571    1.429    2.143    0.000    4.571 
#    0.000    0.000    0.000    0.000    0.000    1.000 
#    0.000    0.000    0.000    0.000    0.000    0.000 
#
# Total GULP energy -312013.252044 kJ/mol
# GULP energy per Si atom -5571.665215 kJ/mol
# Density = 1.497683 g / cm^3
# Si number density = 15.010994 Si / 1000 Ang^3
#
#
#
# Elastic Constant Matrix: (Units=GPa)
#
#
# Indices 1 2 3 4 5 6 
#
# 1 146.8012 45.8593 66.1185 0.0000 0.0000 0.0000
# 2 45.8593 60.1337 33.3249 0.0000 0.0000 0.0000
# 3 66.1185 33.3249 47.0461 0.0000 0.0000 0.0000
# 4 0.0000 0.0000 0.0000 19.1935 0.0000 0.0000
# 5 0.0000 0.0000 0.0000 0.0000 25.9860 0.0000
# 6 0.0000 0.0000 0.0000 0.0000 0.0000 10.1094
#
#
#
# Elastic Compliance Matrix: (Units=1/GPa)
#
#
# Indices 1 2 3 4 5 6 
#
# 1 0.018569 0.000496 -0.026449 0.000000 0.000000 0.000000
# 2 0.000496 0.027389 -0.020098 0.000000 0.000000 0.000000
# 3 -0.026449 -0.020098 0.072663 0.000000 0.000000 0.000000
# 4 0.000000 0.000000 0.000000 0.052101 0.000000 0.000000
# 5 0.000000 0.000000 0.000000 0.000000 0.038482 0.000000
# 6 0.000000 0.000000 0.000000 0.000000 0.000000 0.098918
#
#
# Mechanical properties :
#
#
# Convention : Reuss Voigt Hill
#
# Bulk Modulus (GPa) = 37.70717 60.50962 49.10839
# Shear Modulus (GPa) = 12.22300 18.30298 15.26299
#
# Velocity S-wave (km/s) = 2.85664 3.49564 3.19217
# Velocity P-wave (km/s) = 6.00456 7.52930 6.80974
#
# Compressibility (1/GPa) = 0.02652016
#
# Stress axis : x y z
#
# Youngs Moduli (GPa) = 53.85216 36.51054 13.76216
#
# Poissons Ratio (x) = -0.01810 0.36399
# Poissons Ratio (y) = -0.02670 0.27659
# Poissons Ratio (z) = 1.42432 0.73379
#
# Static dielectric constant tensor:
#      x y z
#    x 1.511580 0.000000 0.000000 
#    y 0.000000 1.478060 0.000000 
#    z 0.000000 0.000000 1.495460 
# 
# From -- ./inp_files/5890.got.cif
#   From: 2010.05.17/outbox.cif.g08.bks.cpg/sg57_3_cif.got.tgz:5890.got - 2010.06.03 13:58:18.
