data_PCOD9434756
_publ_section_title
;
Structure prediction by ZEFSAII (Michael W. Deem and Ramdas Pophale) SiO2 
 PCOD9434756
Probable space group: P B C M
;
_chemical_formula_sum "Si O2"
_cell_formula_units_Z 40
_cell_length_a 7.270355
_cell_length_b 13.695606
_cell_length_c 19.281433
_cell_angle_alpha 90.000000
_cell_angle_beta 90.000000
_cell_angle_gamma 90.000000
_cell_volume 1919.889257
_symmetry_space_group_name_H-M "P B C M"
_symmetry_group_IT_number 57
_symmetry_cell_setting 'orthorhombic'
loop_
_space_group_symop_operation_xyz
x,y,z
-x,-y,1/2+z
x,1/2-y,-z
-x,1/2+y,1/2-z
-x,-y,-z
x,y,1/2-z
-x,1/2+y,z
x,1/2-y,1/2+z
loop_
_atom_site_type_symbol
_atom_site_label
_atom_site_fract_x
_atom_site_fract_y
_atom_site_fract_z
Si Si1 0.404387 0.117980 0.565845
Si Si2 0.992316 0.387322 0.020230
Si Si3 0.280950 0.226078 0.330306
Si Si4 0.119090 0.735592 0.113356
Si Si5 0.459250 0.889316 0.913324
O O1 0.198304 0.137860 0.540353
O O2 0.398520 0.186471 0.633401
O O3 0.524309 0.137280 0.495862
O O4 0.422220 0.004637 0.586129
O O5 0.864952 0.346538 0.083240
O O6 0.000000 0.500000 0.000000
O O7 0.942564 0.327855 0.952619
O O8 0.327274 0.217005 0.250000
O O9 0.349241 0.134085 0.375569
O O10 0.058789 0.236571 0.337054
O O11 0.306384 0.675797 0.127498
#
# Coordination Sequence:
#
# PCOD9434756 Si02
#       5
#     8   8   8   8   8
#     4  10  22  38  64  94 124 153 206 264 315 355
#     4  10  18  34  59  94 121 150 194 261 310 354
#     4  11  25  43  58  85 132 168 200 246 309 381
#     4  10  22  36  61  87 122 157 202 247 310 363
#     4  11  22  39  67  95 117 158 211 266 307 366
#
# _framework density 20.834536
#
# number of rings (size 3 to 8) (size 9 to 14) (size 15 to 20)
#    0.000    1.600    4.000    0.600    5.600    1.600 
#    0.000    0.000    0.000    0.000    0.000    0.000 
#    0.000    0.000    0.000    0.000    0.000    0.000 
#
# Total GULP energy -222716.910152 kJ/mol
# GULP energy per Si atom -5567.922754 kJ/mol
# Density = 2.078712 g / cm^3
# Si number density = 20.834536 Si / 1000 Ang^3
#
#
#
# Elastic Constant Matrix: (Units=GPa)
#
#
# Indices 1 2 3 4 5 6 
#
# 1 70.9843 11.9704 25.3491 0.0000 0.0000 0.0000
# 2 11.9704 87.4211 13.9506 0.0000 0.0000 0.0000
# 3 25.3491 13.9506 93.0911 0.0000 0.0000 0.0000
# 4 0.0000 0.0000 0.0000 6.4756 0.0000 0.0000
# 5 0.0000 0.0000 0.0000 0.0000 23.6130 0.0000
# 6 0.0000 0.0000 0.0000 0.0000 0.0000 24.8936
#
#
#
# Elastic Compliance Matrix: (Units=1/GPa)
#
#
# Indices 1 2 3 4 5 6 
#
# 1 0.015798 -0.001513 -0.004075 0.000000 0.000000 0.000000
# 2 -0.001513 0.011864 -0.001366 0.000000 0.000000 0.000000
# 3 -0.004075 -0.001366 0.012057 0.000000 0.000000 0.000000
# 4 0.000000 0.000000 0.000000 0.154425 0.000000 0.000000
# 5 0.000000 0.000000 0.000000 0.000000 0.042349 0.000000
# 6 0.000000 0.000000 0.000000 0.000000 0.000000 0.040171
#
#
# Mechanical properties :
#
#
# Convention : Reuss Voigt Hill
#
# Bulk Modulus (GPa) = 38.74380 39.33741 39.04061
# Shear Modulus (GPa) = 16.71258 24.34487 20.52873
#
# Velocity S-wave (km/s) = 2.83531 3.42202 3.14239
# Velocity P-wave (km/s) = 5.41802 5.87669 5.65201
#
# Compressibility (1/GPa) = 0.02581058
#
# Stress axis : x y z
#
# Youngs Moduli (GPa) = 63.29909 84.28841 82.94242
#
# Poissons Ratio (x) = 0.12752 0.33800
# Poissons Ratio (y) = 0.09576 0.11330
# Poissons Ratio (z) = 0.25795 0.11514
#
# Static dielectric constant tensor:
#      x y z
#    x 1.853920 0.000000 0.000000 
#    y 0.000000 1.847800 0.000000 
#    z 0.000000 0.000000 1.739100 
# 
# From -- ./inp_files/20720.got.cif
#   From: 2010.05.17/outbox.cif.g08.bks.cpg/sg57_11_cif.got.tgz:20720.got - 2010.06.03 13:58:18.
