data_PCOD9434192
_publ_section_title
;
Structure prediction by ZEFSAII (Michael W. Deem and Ramdas Pophale) SiO2 
 PCOD9434192
Probable space group: P B C M
;
_chemical_formula_sum "Si O2"
_cell_formula_units_Z 56
_cell_length_a 14.770388
_cell_length_b 26.970074
_cell_length_c 9.320697
_cell_angle_alpha 90.000000
_cell_angle_beta 90.000000
_cell_angle_gamma 90.000000
_cell_volume 3712.978479
_symmetry_space_group_name_H-M "P B C M"
_symmetry_group_IT_number 57
_symmetry_cell_setting 'orthorhombic'
loop_
_space_group_symop_operation_xyz
x,y,z
-x,-y,1/2+z
x,1/2-y,-z
-x,1/2+y,1/2-z
-x,-y,-z
x,y,1/2-z
-x,1/2+y,z
x,1/2-y,1/2+z
loop_
_atom_site_type_symbol
_atom_site_label
_atom_site_fract_x
_atom_site_fract_y
_atom_site_fract_z
Si Si1 0.944116 0.569763 0.420304
Si Si2 0.383437 0.197743 0.079239
Si Si3 0.484460 0.624897 0.582308
Si Si4 0.880874 0.457595 0.421239
Si Si5 0.762091 0.614611 0.079482
Si Si6 0.673951 0.441425 0.422712
Si Si7 0.632488 0.960058 0.082427
O O1 0.961395 0.570770 0.250000
O O2 0.898981 0.515896 0.453481
O O3 0.868322 0.610864 0.454763
O O4 0.038281 0.571948 0.503292
O O5 0.393558 0.203769 0.250000
O O6 0.292214 0.165315 0.053022
O O7 0.378682 0.250000 0.000000
O O8 0.466227 0.165452 0.014940
O O9 0.487349 0.640325 0.750000
O O10 0.383243 0.607882 0.542997
O O11 0.544297 0.574677 0.570753
O O12 0.887892 0.452045 0.250000
O O13 0.779717 0.441809 0.464142
O O14 0.752964 0.603153 0.250000
O O15 0.711193 0.572600 0.989523
O O16 0.668836 0.448162 0.250000
O O17 0.628716 0.488489 0.499128
O O18 0.650141 0.968826 0.250000
#
# Coordination Sequence:
#
# PCOD9434192 Si02
#       7
#     8   8   8   8   8   8   8
#     4   9  16  28  43  61  87 119 156 190 221 260
#     4  10  20  34  53  72  93 116 145 186 232 281
#     4   9  19  32  46  65  90 120 154 189 228 270
#     4   9  17  27  41  61  88 123 158 187 219 257
#     4   9  17  31  48  65  88 123 155 183 227 278
#     4  10  18  30  44  60  90 129 159 187 222 268
#     4  10  18  26  40  65  92 119 154 193 223 259
#
# _framework density 15.082231
#
# number of rings (size 3 to 8) (size 9 to 14) (size 15 to 20)
#    0.000    2.571    1.429    1.286    0.000    2.857 
#    0.000    0.000    0.000    0.000    0.000    1.000 
#    0.000    4.571    0.000    0.000    0.000    0.000 
#
# Total GULP energy -311985.225601 kJ/mol
# GULP energy per Si atom -5571.164743 kJ/mol
# Density = 1.504790 g / cm^3
# Si number density = 15.082231 Si / 1000 Ang^3
#
#
#
# Elastic Constant Matrix: (Units=GPa)
#
#
# Indices 1 2 3 4 5 6 
#
# 1 86.8839 40.0497 39.8836 0.0000 0.0000 0.0000
# 2 40.0497 76.4110 46.3493 0.0000 0.0000 0.0000
# 3 39.8836 46.3493 43.5651 0.0000 0.0000 0.0000
# 4 0.0000 0.0000 0.0000 21.0612 0.0000 0.0000
# 5 0.0000 0.0000 0.0000 0.0000 21.3763 0.0000
# 6 0.0000 0.0000 0.0000 0.0000 0.0000 10.3536
#
#
#
# Elastic Compliance Matrix: (Units=1/GPa)
#
#
# Indices 1 2 3 4 5 6 
#
# 1 0.019936 0.001753 -0.020116 0.000000 0.000000 0.000000
# 2 0.001753 0.037055 -0.041028 0.000000 0.000000 0.000000
# 3 -0.020116 -0.041028 0.085021 0.000000 0.000000 0.000000
# 4 0.000000 0.000000 0.000000 0.047481 0.000000 0.000000
# 5 0.000000 0.000000 0.000000 0.000000 0.046781 0.000000
# 6 0.000000 0.000000 0.000000 0.000000 0.000000 0.096585
#
#
# Mechanical properties :
#
#
# Convention : Reuss Voigt Hill
#
# Bulk Modulus (GPa) = 43.04973 51.04723 47.04848
# Shear Modulus (GPa) = 10.88417 15.93006 13.40711
#
# Velocity S-wave (km/s) = 2.68928 3.25347 2.98473
# Velocity P-wave (km/s) = 6.18452 6.93057 6.56815
#
# Compressibility (1/GPa) = 0.02322895
#
# Stress axis : x y z
#
# Youngs Moduli (GPa) = 50.16112 26.98682 11.76186
#
# Poissons Ratio (x) = -0.04731 0.23660
# Poissons Ratio (y) = -0.08793 0.48257
# Poissons Ratio (z) = 1.00905 1.10722
#
# Static dielectric constant tensor:
#      x y z
#    x 1.526260 0.000000 0.000000 
#    y 0.000000 1.475450 0.000000 
#    z 0.000000 0.000000 1.500650 
# 
# From -- ./inp_files/5920.got.cif
#   From: 2010.05.17/outbox.cif.g08.bks.cpg/sg57_3_cif.got.tgz:5920.got - 2010.06.03 13:58:18.
