data_PCOD9434980
_publ_section_title
;
Structure prediction by ZEFSAII (Michael W. Deem and Ramdas Pophale) SiO2 
 PCOD9434980
Probable space group: P B C M
;
_chemical_formula_sum "Si O2"
_cell_formula_units_Z 64
_cell_length_a 27.959691
_cell_length_b 15.262040
_cell_length_c 8.616447
_cell_angle_alpha 90.000000
_cell_angle_beta 90.000000
_cell_angle_gamma 90.000000
_cell_volume 3676.826828
_symmetry_space_group_name_H-M "P B C M"
_symmetry_group_IT_number 57
_symmetry_cell_setting 'orthorhombic'
loop_
_space_group_symop_operation_xyz
x,y,z
-x,-y,1/2+z
x,1/2-y,-z
-x,1/2+y,1/2-z
-x,-y,-z
x,y,1/2-z
-x,1/2+y,z
x,1/2-y,1/2+z
loop_
_atom_site_type_symbol
_atom_site_label
_atom_site_fract_x
_atom_site_fract_y
_atom_site_fract_z
Si Si1 0.030556 0.844766 0.436896
Si Si2 0.113450 0.975856 0.436191
Si Si3 0.578154 0.655934 0.563351
Si Si4 0.192169 0.654244 0.436383
Si Si5 0.302915 0.655057 0.436984
Si Si6 0.613516 0.028029 0.062248
Si Si7 0.466994 0.654665 0.936132
Si Si8 0.080020 0.344925 0.435975
O O1 0.046133 0.750000 0.500000
O O2 0.031386 0.841446 0.250000
O O3 0.066292 0.921127 0.487866
O O4 0.975565 0.858782 0.486508
O O5 0.113880 0.978545 0.250000
O O6 0.158380 0.920625 0.496297
O O7 0.110047 0.073624 0.501491
O O8 0.593493 0.750000 0.500000
O O9 0.579219 0.659568 0.750000
O O10 0.608698 0.572499 0.510727
O O11 0.522503 0.641247 0.517601
O O12 0.177767 0.750000 0.500000
O O13 0.189100 0.655064 0.250000
O O14 0.247705 0.640276 0.482677
O O15 0.317958 0.750000 0.500000
O O16 0.304294 0.658350 0.250000
O O17 0.339264 0.579917 0.490054
O O18 0.613070 0.028540 0.250000
O O19 0.567562 0.081521 0.004467
O O20 0.464157 0.654530 0.750000
O O21 0.452445 0.750000 0.000000
O O22 0.094870 0.250000 0.500000
O O23 0.081326 0.343398 0.250000
#
# Coordination Sequence:
#
# PCOD9434980 Si02
#       8
#     8   8   8   8   8   8   8   8
#     4   9  19  32  48  72 103 135 167 202 243 290
#     4  11  21  33  51  76 102 132 169 207 245 293
#     4   9  19  33  48  67  96 130 164 200 240 283
#     4  10  20  35  53  75 101 130 161 199 247 298
#     4   9  19  34  52  73  99 127 157 195 244 295
#     4  10  19  32  50  72  96 126 163 204 245 289
#     4  10  19  30  45  69  99 131 162 196 237 287
#     4  10  20  35  52  72 100 135 170 207 247 289
#
# _framework density 17.406312
#
# number of rings (size 3 to 8) (size 9 to 14) (size 15 to 20)
#    0.000    2.250    0.000    3.000    0.000    5.500 
#    0.000    0.000    0.000    0.750    0.000    1.750 
#    0.000    0.000    0.000    0.000    0.000    0.000 
#
# Total GULP energy -357262.453150 kJ/mol
# GULP energy per Si atom -5582.225830 kJ/mol
# Density = 1.736669 g / cm^3
# Si number density = 17.406312 Si / 1000 Ang^3
#
#
#
# Elastic Constant Matrix: (Units=GPa)
#
#
# Indices 1 2 3 4 5 6 
#
# 1 72.1412 84.2485 23.2658 0.0000 0.0000 0.0000
# 2 84.2485 182.6392 34.6943 0.0000 0.0000 0.0000
# 3 23.2658 34.6943 24.8139 0.0000 0.0000 0.0000
# 4 0.0000 0.0000 0.0000 30.3797 0.0000 0.0000
# 5 0.0000 0.0000 0.0000 0.0000 15.6753 0.0000
# 6 0.0000 0.0000 0.0000 0.0000 0.0000 28.8322
#
#
#
# Elastic Compliance Matrix: (Units=1/GPa)
#
#
# Indices 1 2 3 4 5 6 
#
# 1 0.032911 -0.012690 -0.013115 0.000000 0.000000 0.000000
# 2 -0.012690 0.012349 -0.005367 0.000000 0.000000 0.000000
# 3 -0.013115 -0.005367 0.060101 0.000000 0.000000 0.000000
# 4 0.000000 0.000000 0.000000 0.032917 0.000000 0.000000
# 5 0.000000 0.000000 0.000000 0.000000 0.063795 0.000000
# 6 0.000000 0.000000 0.000000 0.000000 0.000000 0.034683
#
#
# Mechanical properties :
#
#
# Convention : Reuss Voigt Hill
#
# Bulk Modulus (GPa) = 23.24700 62.66795 42.95747
# Shear Modulus (GPa) = 15.95211 24.13648 20.04430
#
# Velocity S-wave (km/s) = 3.03059 3.72782 3.39714
# Velocity P-wave (km/s) = 5.06265 7.38986 6.33405
#
# Compressibility (1/GPa) = 0.04301631
#
# Stress axis : x y z
#
# Youngs Moduli (GPa) = 30.38493 80.98149 16.63872
#
# Poissons Ratio (x) = 1.02766 0.21822
# Poissons Ratio (y) = 0.38558 0.08930
# Poissons Ratio (z) = 0.39850 0.43463
#
# Static dielectric constant tensor:
#      x y z
#    x 1.593060 0.000000 0.000000 
#    y 0.000000 1.579200 0.000000 
#    z 0.000000 0.000000 1.588030 
# 
# From -- ./inp_files/9276.got.cif
#   From: 2010.05.17/outbox.cif.g08.bks.cpg/sg57_5_cif.got.tgz:9276.got - 2010.06.03 13:58:18.
