data_PCOD9434521
_publ_section_title
;
Structure prediction by ZEFSAII (Michael W. Deem and Ramdas Pophale) SiO2 
 PCOD9434521
Probable space group: P B C M
;
_chemical_formula_sum "Si O2"
_cell_formula_units_Z 64
_cell_length_a 16.821672
_cell_length_b 24.174599
_cell_length_c 8.585823
_cell_angle_alpha 90.000000
_cell_angle_beta 90.000000
_cell_angle_gamma 90.000000
_cell_volume 3491.486527
_symmetry_space_group_name_H-M "P B C M"
_symmetry_group_IT_number 57
_symmetry_cell_setting 'orthorhombic'
loop_
_space_group_symop_operation_xyz
x,y,z
-x,-y,1/2+z
x,1/2-y,-z
-x,1/2+y,1/2-z
-x,-y,-z
x,y,1/2-z
-x,1/2+y,z
x,1/2-y,1/2+z
loop_
_atom_site_type_symbol
_atom_site_label
_atom_site_fract_x
_atom_site_fract_y
_atom_site_fract_z
Si Si1 0.894557 0.187214 0.064165
Si Si2 0.273324 0.687486 0.564179
Si Si3 0.060091 0.187573 0.936195
Si Si4 0.305598 0.022742 0.064535
Si Si5 0.776208 0.873250 0.063633
Si Si6 0.634083 0.086179 0.064441
Si Si7 0.539960 0.584725 0.564920
Si Si8 0.623139 0.688504 0.064232
O O1 0.889453 0.187377 0.250000
O O2 0.897525 0.250000 0.000000
O O3 0.812740 0.165048 0.992958
O O4 0.978827 0.163516 0.008580
O O5 0.282822 0.750000 0.500000
O O6 0.275156 0.689330 0.750000
O O7 0.338642 0.645556 0.499149
O O8 0.050629 0.191324 0.750000
O O9 0.136826 0.150447 0.971483
O O10 0.072760 0.250000 0.000000
O O11 0.299222 0.021793 0.250000
O O12 0.390476 0.049375 0.015477
O O13 0.240792 0.064530 0.993105
O O14 0.306447 0.961274 0.996180
O O15 0.763258 0.870214 0.250000
O O16 0.709953 0.835364 0.980426
O O17 0.632114 0.086407 0.250000
O O18 0.547002 0.071985 0.998697
O O19 0.543700 0.576530 0.750000
O O20 0.561295 0.647687 0.519505
O O21 0.612696 0.686380 0.250000
O O22 0.615545 0.750000 0.000000
#
# Coordination Sequence:
#
# PCOD9434521 Si02
#       8
#     8   8   8   8   8   8   8   8
#     4  10  18  31  52  78 109 144 179 217 264 314
#     4  11  22  39  60  85 114 143 176 216 267 322
#     4  10  19  30  49  78 111 145 183 223 265 314
#     4  11  22  38  58  81 108 142 181 223 270 317
#     4  10  20  34  52  77 108 144 183 225 269 315
#     4  12  24  40  60  83 108 138 178 222 267 317
#     4  11  22  38  57  80 107 139 180 226 272 317
#     4  11  21  34  51  74 106 145 182 220 269 323
#
# _framework density 18.330300999999999
#
# number of rings (size 3 to 8) (size 9 to 14) (size 15 to 20)
#    0.000    1.250    0.000   11.250    0.000    3.500 
#    0.000    2.500    0.000    0.750    0.000    0.000 
#    0.000    0.000    0.000    0.000    0.000    0.000 
#
# Total GULP energy -357645.841011 kJ/mol
# GULP energy per Si atom -5588.216266 kJ/mol
# Density = 1.828858 g / cm^3
# Si number density = 18.330301 Si / 1000 Ang^3
#
#
#
# Elastic Constant Matrix: (Units=GPa)
#
#
# Indices 1 2 3 4 5 6 
#
# 1 51.0414 1.3336 13.4179 0.0000 0.0000 0.0000
# 2 1.3336 67.9591 3.9898 0.0000 0.0000 0.0000
# 3 13.4179 3.9898 109.0187 0.0000 0.0000 0.0000
# 4 0.0000 0.0000 0.0000 28.7989 0.0000 0.0000
# 5 0.0000 0.0000 0.0000 0.0000 29.8309 0.0000
# 6 0.0000 0.0000 0.0000 0.0000 0.0000 16.2389
#
#
#
# Elastic Compliance Matrix: (Units=1/GPa)
#
#
# Indices 1 2 3 4 5 6 
#
# 1 0.020251 -0.000252 -0.002483 0.000000 0.000000 0.000000
# 2 -0.000252 0.014750 -0.000509 0.000000 0.000000 0.000000
# 3 -0.002483 -0.000509 0.009497 0.000000 0.000000 0.000000
# 4 0.000000 0.000000 0.000000 0.034724 0.000000 0.000000
# 5 0.000000 0.000000 0.000000 0.000000 0.033522 0.000000
# 6 0.000000 0.000000 0.000000 0.000000 0.000000 0.061580
#
#
# Mechanical properties :
#
#
# Convention : Reuss Voigt Hill
#
# Bulk Modulus (GPa) = 26.30860 29.50021 27.90440
# Shear Modulus (GPa) = 25.84222 28.92560 27.38391
#
# Velocity S-wave (km/s) = 3.75882 3.97674 3.86931
# Velocity P-wave (km/s) = 5.76385 6.10038 5.93450
#
# Compressibility (1/GPa) = 0.03801039
#
# Stress axis : x y z
#
# Youngs Moduli (GPa) = 49.37951 67.79871 105.29633
#
# Poissons Ratio (x) = 0.01706 0.26148
# Poissons Ratio (y) = 0.01242 0.05358
# Poissons Ratio (z) = 0.12262 0.03450
#
# Static dielectric constant tensor:
#      x y z
#    x 1.652040 0.000000 0.000000 
#    y 0.000000 1.621850 0.000000 
#    z 0.000000 0.000000 1.606100 
# 
# From -- ./inp_files/7432.got.cif
#   From: 2010.05.17/outbox.cif.g08.bks.cpg/sg57_4_cif.got.tgz:7432.got - 2010.06.03 13:58:18.
