data_PCOD9434988
_publ_section_title
;
Structure prediction by ZEFSAII (Michael W. Deem and Ramdas Pophale) SiO2 
 PCOD9434988
Probable space group: P B C M
;
_chemical_formula_sum "Si O2"
_cell_formula_units_Z 64
_cell_length_a 17.233923
_cell_length_b 24.513665
_cell_length_c 8.468647
_cell_angle_alpha 90.000000
_cell_angle_beta 90.000000
_cell_angle_gamma 90.000000
_cell_volume 3577.720632
_symmetry_space_group_name_H-M "P B C M"
_symmetry_group_IT_number 57
_symmetry_cell_setting 'orthorhombic'
loop_
_space_group_symop_operation_xyz
x,y,z
-x,-y,1/2+z
x,1/2-y,-z
-x,1/2+y,1/2-z
-x,-y,-z
x,y,1/2-z
-x,1/2+y,z
x,1/2-y,1/2+z
loop_
_atom_site_type_symbol
_atom_site_label
_atom_site_fract_x
_atom_site_fract_y
_atom_site_fract_z
Si Si1 0.899410 0.187944 0.440159
Si Si2 0.271709 0.687952 0.060287
Si Si3 0.069084 0.312400 0.941399
Si Si4 0.310892 0.023248 0.561220
Si Si5 0.779597 0.876733 0.940337
Si Si6 0.636923 0.086714 0.938841
Si Si7 0.537311 0.588102 0.560174
Si Si8 0.625419 0.689043 0.060994
O O1 0.900338 0.250000 0.500000
O O2 0.899173 0.187161 0.250000
O O3 0.814752 0.167142 0.490837
O O4 0.983634 0.165900 0.491165
O O5 0.274660 0.688916 0.250000
O O6 0.281906 0.750000 0.000000
O O7 0.333817 0.645340 0.996153
O O8 0.071028 0.310677 0.750000
O O9 0.139635 0.350560 0.995306
O O10 0.078614 0.250000 0.000000
O O11 0.311824 0.023223 0.750000
O O12 0.243718 0.063984 0.504193
O O13 0.392686 0.049607 0.501479
O O14 0.308670 0.961799 0.500324
O O15 0.780965 0.879503 0.750000
O O16 0.708902 0.836410 0.986260
O O17 0.636224 0.085993 0.750000
O O18 0.549026 0.075499 0.997920
O O19 0.536980 0.584445 0.750000
O O20 0.561311 0.648901 0.510462
O O21 0.620515 0.687877 0.250000
O O22 0.617969 0.750000 0.000000
#
# Coordination Sequence:
#
# PCOD9434988 Si02
#       8
#     8   8   8   8   8   8   8   8
#     4   8  15  28  47  71  99 130 161 196 238 284
#     4  10  20  35  54  77 104 131 161 198 243 292
#     4   9  16  27  46  73 103 133 165 200 239 284
#     4  10  20  35  54  74  97 126 161 202 245 287
#     4   9  18  31  47  70 100 133 166 200 239 283
#     4  11  22  36  55  76  97 124 160 201 245 293
#     4   9  20  36  52  71  95 125 162 203 245 290
#     4  10  19  30  46  68  98 134 166 198 239 287
#
# _framework density 17.888483999999998
#
# number of rings (size 3 to 8) (size 9 to 14) (size 15 to 20)
#    0.000    2.500    0.000    2.250    0.000    3.500 
#    0.000    0.000    0.000    0.750    0.000    0.000 
#    0.000    0.000    0.000    0.000    0.000    0.000 
#
# Total GULP energy -356730.106967 kJ/mol
# GULP energy per Si atom -5573.907921 kJ/mol
# Density = 1.784777 g / cm^3
# Si number density = 17.888484 Si / 1000 Ang^3
#
#
#
# Elastic Constant Matrix: (Units=GPa)
#
#
# Indices 1 2 3 4 5 6 
#
# 1 58.7871 9.5426 7.0558 0.0000 0.0000 0.0000
# 2 9.5426 74.8842 5.2484 0.0000 0.0000 0.0000
# 3 7.0558 5.2484 10.6964 0.0000 0.0000 0.0000
# 4 0.0000 0.0000 0.0000 25.4716 0.0000 0.0000
# 5 0.0000 0.0000 0.0000 0.0000 14.8227 0.0000
# 6 0.0000 0.0000 0.0000 0.0000 0.0000 15.6704
#
#
#
# Elastic Compliance Matrix: (Units=1/GPa)
#
#
# Indices 1 2 3 4 5 6 
#
# 1 0.018649 -0.001568 -0.011532 0.000000 0.000000 0.000000
# 2 -0.001568 0.013961 -0.005816 0.000000 0.000000 0.000000
# 3 -0.011532 -0.005816 0.103950 0.000000 0.000000 0.000000
# 4 0.000000 0.000000 0.000000 0.039259 0.000000 0.000000
# 5 0.000000 0.000000 0.000000 0.000000 0.067464 0.000000
# 6 0.000000 0.000000 0.000000 0.000000 0.000000 0.063815
#
#
# Mechanical properties :
#
#
# Convention : Reuss Voigt Hill
#
# Bulk Modulus (GPa) = 10.12886 20.89571 15.51228
# Shear Modulus (GPa) = 13.23306 19.36101 16.29703
#
# Velocity S-wave (km/s) = 2.72279 3.29343 3.02161
# Velocity P-wave (km/s) = 3.94453 5.11553 4.56771
#
# Compressibility (1/GPa) = 0.09872778
#
# Stress axis : x y z
#
# Youngs Moduli (GPa) = 53.62147 71.62591 9.61997
#
# Poissons Ratio (x) = 0.11233 0.11094
# Poissons Ratio (y) = 0.08409 0.05595
# Poissons Ratio (z) = 0.61839 0.41658
#
# Static dielectric constant tensor:
#      x y z
#    x 1.659840 0.000000 0.000000 
#    y 0.000000 1.574280 0.000000 
#    z 0.000000 0.000000 1.591410 
# 
# From -- ./inp_files/7434.got.cif
#   From: 2010.05.17/outbox.cif.g08.bks.cpg/sg57_4_cif.got.tgz:7434.got - 2010.06.03 13:58:18.
