data_PCOD9434421
_publ_section_title
;
Structure prediction by ZEFSAII (Michael W. Deem and Ramdas Pophale) SiO2 
 PCOD9434421
Probable space group: P B C M
;
_chemical_formula_sum "Si O2"
_cell_formula_units_Z 56
_cell_length_a 17.565178
_cell_length_b 22.879779
_cell_length_c 8.104634
_cell_angle_alpha 90.000000
_cell_angle_beta 90.000000
_cell_angle_gamma 90.000000
_cell_volume 3257.150211
_symmetry_space_group_name_H-M "P B C M"
_symmetry_group_IT_number 57
_symmetry_cell_setting 'orthorhombic'
loop_
_space_group_symop_operation_xyz
x,y,z
-x,-y,1/2+z
x,1/2-y,-z
-x,1/2+y,1/2-z
-x,-y,-z
x,y,1/2-z
-x,1/2+y,z
x,1/2-y,1/2+z
loop_
_atom_site_type_symbol
_atom_site_label
_atom_site_fract_x
_atom_site_fract_y
_atom_site_fract_z
Si Si1 0.769485 0.463646 0.448129
Si Si2 0.627395 0.971816 0.940183
Si Si3 0.250553 0.665749 0.442393
Si Si4 0.475413 0.925693 0.559038
Si Si5 0.588690 0.188924 0.936876
Si Si6 0.059001 0.550788 0.448472
Si Si7 0.922700 0.185227 0.448584
O O1 0.758881 0.456545 0.250000
O O2 0.711507 0.514421 0.506812
O O3 0.746043 0.404166 0.538799
O O4 0.858605 0.469489 0.484573
O O5 0.638714 0.955077 0.750000
O O6 0.562121 0.928801 0.007591
O O7 0.580841 0.032731 0.956945
O O8 0.259460 0.681652 0.250000
O O9 0.319923 0.689593 0.547569
O O10 0.166360 0.683485 0.500917
O O11 0.475164 0.946103 0.750000
O O12 0.442381 0.861845 0.550390
O O13 0.567070 0.176756 0.750000
O O14 0.558596 0.250000 0.000000
O O15 0.062227 0.552403 0.250000
O O16 0.046018 0.619937 0.501574
O O17 0.000000 0.500000 0.500000
O O18 0.953497 0.250000 0.500000
O O19 0.924917 0.184420 0.250000
#
# Coordination Sequence:
#
# PCOD9434421 Si02
#       7
#     8   8   8   8   8   8   8
#     4  10  18  30  50  74 100 131 164 201 246 298
#     4   9  18  31  48  71  96 124 160 199 241 289
#     4  10  19  31  45  67  97 130 167 205 238 284
#     4  10  19  31  47  67  94 125 160 204 245 282
#     4  12  23  33  44  62  90 127 168 207 249 298
#     4  10  21  36  52  75 105 136 171 212 256 307
#     4   9  19  32  48  71  99 129 166 202 241 295
#
# _framework density 17.192944000000001
#
# number of rings (size 3 to 8) (size 9 to 14) (size 15 to 20)
#    0.000    2.000    1.429    4.286    0.000    5.714 
#    0.000    0.000    0.000    0.000    0.000    1.000 
#    0.000    4.571    0.000    0.000    0.000    0.000 
#
# Total GULP energy -311740.668978 kJ/mol
# GULP energy per Si atom -5566.797660 kJ/mol
# Density = 1.715381 g / cm^3
# Si number density = 17.192944 Si / 1000 Ang^3
#
#
#
# Elastic Constant Matrix: (Units=GPa)
#
#
# Indices 1 2 3 4 5 6 
#
# 1 67.5835 36.9330 4.0464 0.0000 0.0000 0.0000
# 2 36.9330 86.4415 5.8542 0.0000 0.0000 0.0000
# 3 4.0464 5.8542 39.5067 0.0000 0.0000 0.0000
# 4 0.0000 0.0000 0.0000 21.2557 0.0000 0.0000
# 5 0.0000 0.0000 0.0000 0.0000 18.5474 0.0000
# 6 0.0000 0.0000 0.0000 0.0000 0.0000 -21.4082
#
#
#
# Elastic Compliance Matrix: (Units=1/GPa)
#
#
# Indices 1 2 3 4 5 6 
#
# 1 0.019326 -0.008206 -0.000764 0.000000 0.000000 0.000000
# 2 -0.008206 0.015170 -0.001407 0.000000 0.000000 0.000000
# 3 -0.000764 -0.001407 0.025599 0.000000 0.000000 0.000000
# 4 0.000000 0.000000 0.000000 0.047046 0.000000 0.000000
# 5 0.000000 0.000000 0.000000 0.000000 0.053916 0.000000
# 6 0.000000 0.000000 0.000000 0.000000 0.000000 -0.046711
#
#
# Mechanical properties :
#
#
# Convention : Reuss Voigt Hill
#
# Bulk Modulus (GPa) = 25.41827 31.91100 28.66463
# Shear Modulus (GPa) = 33.73512 13.45886 23.59699
#
# Velocity S-wave (km/s) = 4.43442 2.80092 3.70872
# Velocity P-wave (km/s) = 6.40586 5.39082 5.92013
#
# Compressibility (1/GPa) = 0.03934179
#
# Stress axis : x y z
#
# Youngs Moduli (GPa) = 51.74249 65.92039 39.06419
#
# Poissons Ratio (x) = 0.54092 0.02983
# Poissons Ratio (y) = 0.42458 0.05498
# Poissons Ratio (z) = 0.03951 0.09278
#
# Static dielectric constant tensor:
#      x y z
#    x 1.607420 0.000000 0.000000 
#    y 0.000000 1.620590 0.000000 
#    z 0.000000 0.000000 1.657110 
# 
# From -- ./inp_files/7031.got.cif
#   From: 2010.05.17/outbox.cif.g08.bks.cpg/sg57_4_cif.got.tgz:7031.got - 2010.06.03 13:58:18.
