data_PCOD9434297
_publ_section_title
;
Structure prediction by ZEFSAII (Michael W. Deem and Ramdas Pophale) SiO2 
 PCOD9434297
Probable space group: P B C M
;
_chemical_formula_sum "Si O2"
_cell_formula_units_Z 40
_cell_length_a 12.805200
_cell_length_b 21.448474
_cell_length_c 9.178608
_cell_angle_alpha 90.000000
_cell_angle_beta 90.000000
_cell_angle_gamma 90.000000
_cell_volume 2520.923038
_symmetry_space_group_name_H-M "P B C M"
_symmetry_group_IT_number 57
_symmetry_cell_setting 'orthorhombic'
loop_
_space_group_symop_operation_xyz
x,y,z
-x,-y,1/2+z
x,1/2-y,-z
-x,1/2+y,1/2-z
-x,-y,-z
x,y,1/2-z
-x,1/2+y,z
x,1/2-y,1/2+z
loop_
_atom_site_type_symbol
_atom_site_label
_atom_site_fract_x
_atom_site_fract_y
_atom_site_fract_z
Si Si1 0.249802 0.316590 0.575170
Si Si2 0.932062 0.587513 0.423634
Si Si3 0.648481 0.046290 0.077217
Si Si4 0.140313 0.945634 0.077138
Si Si5 0.417905 0.081502 0.423485
O O1 0.248765 0.250000 0.500000
O O2 0.248331 0.309080 0.750000
O O3 0.149594 0.358899 0.535089
O O4 0.352033 0.357534 0.537750
O O5 0.951475 0.591151 0.250000
O O6 0.880335 0.519590 0.450865
O O7 0.040613 0.589021 0.509367
O O8 0.665827 0.041923 0.250000
O O9 0.542064 0.085122 0.051777
O O10 0.751192 0.071614 0.998690
O O11 0.624276 0.977934 0.011505
O O12 0.145679 0.936722 0.250000
O O13 0.401334 0.069416 0.250000
#
# Coordination Sequence:
#
# PCOD9434297 Si02
#       5
#     8   8   8   8   8
#     4  10  20  35  52  71 100 133 165 203 243 287
#     4   9  18  32  48  69  99 131 163 200 245 292
#     4  10  18  28  49  75 100 129 162 201 249 301
#     4  10  18  30  49  72 102 130 158 202 251 297
#     4   9  18  33  48  69 101 132 162 201 248 291
#
# _framework density 15.867203999999999
#
# number of rings (size 3 to 8) (size 9 to 14) (size 15 to 20)
#    0.000    2.400    2.000    1.200    0.000    3.200 
#    0.000    0.000    0.000    1.200    0.000    2.800 
#    0.000    0.000    0.000    0.000    0.000    0.000 
#
# Total GULP energy -223041.397860 kJ/mol
# GULP energy per Si atom -5576.034947 kJ/mol
# Density = 1.583109 g / cm^3
# Si number density = 15.867204 Si / 1000 Ang^3
#
#
#
# Elastic Constant Matrix: (Units=GPa)
#
#
# Indices 1 2 3 4 5 6 
#
# 1 163.7694 66.8327 73.2259 0.0000 0.0000 0.0000
# 2 66.8327 93.7346 37.8229 0.0000 0.0000 0.0000
# 3 73.2259 37.8229 48.6227 0.0000 0.0000 0.0000
# 4 0.0000 0.0000 0.0000 24.4480 0.0000 0.0000
# 5 0.0000 0.0000 0.0000 0.0000 27.9507 0.0000
# 6 0.0000 0.0000 0.0000 0.0000 0.0000 18.0767
#
#
#
# Elastic Compliance Matrix: (Units=1/GPa)
#
#
# Indices 1 2 3 4 5 6 
#
# 1 0.019240 -0.002953 -0.026678 0.000000 0.000000 0.000000
# 2 -0.002953 0.016002 -0.008001 0.000000 0.000000 0.000000
# 3 -0.026678 -0.008001 0.066967 0.000000 0.000000 0.000000
# 4 0.000000 0.000000 0.000000 0.040903 0.000000 0.000000
# 5 0.000000 0.000000 0.000000 0.000000 0.035777 0.000000
# 6 0.000000 0.000000 0.000000 0.000000 0.000000 0.055320
#
#
# Mechanical properties :
#
#
# Convention : Reuss Voigt Hill
#
# Bulk Modulus (GPa) = 37.11140 73.54329 55.32735
# Shear Modulus (GPa) = 15.70084 22.64477 19.17280
#
# Velocity S-wave (km/s) = 3.14907 3.78185 3.47987
# Velocity P-wave (km/s) = 6.05489 8.09443 7.14778
#
# Compressibility (1/GPa) = 0.02694590
#
# Stress axis : x y z
#
# Youngs Moduli (GPa) = 51.97587 62.49111 14.93272
#
# Poissons Ratio (x) = 0.18454 0.39837
# Poissons Ratio (y) = 0.15349 0.11947
# Poissons Ratio (z) = 1.38661 0.49997
#
# Static dielectric constant tensor:
#      x y z
#    x 1.546890 0.000000 0.000000 
#    y 0.000000 1.491480 0.000000 
#    z 0.000000 0.000000 1.527330 
# 
# From -- ./inp_files/2688.got.cif
#   From: 2010.05.17/outbox.cif.g08.bks.cpg/sg57_2_cif.got.tgz:2688.got - 2010.06.03 13:58:18.
