data_PCOD9434012
_publ_section_title
;
Structure prediction by ZEFSAII (Michael W. Deem and Ramdas Pophale) SiO2 
 PCOD9434012
Probable space group: P B C M
;
_chemical_formula_sum "Si O2"
_cell_formula_units_Z 64
_cell_length_a 12.422660
_cell_length_b 17.105467
_cell_length_c 17.656810
_cell_angle_alpha 90.000000
_cell_angle_beta 90.000000
_cell_angle_gamma 90.000000
_cell_volume 3751.990916
_symmetry_space_group_name_H-M "P B C M"
_symmetry_group_IT_number 57
_symmetry_cell_setting 'orthorhombic'
loop_
_space_group_symop_operation_xyz
x,y,z
-x,-y,1/2+z
x,1/2-y,-z
-x,1/2+y,1/2-z
-x,-y,-z
x,y,1/2-z
-x,1/2+y,z
x,1/2-y,1/2+z
loop_
_atom_site_type_symbol
_atom_site_label
_atom_site_fract_x
_atom_site_fract_y
_atom_site_fract_z
Si Si1 0.310073 0.819148 0.891174
Si Si2 0.745868 0.486150 0.832952
Si Si3 0.465463 0.621719 0.511055
Si Si4 0.649600 0.349225 0.336108
Si Si5 0.327527 0.037322 0.989312
Si Si6 0.921733 0.166527 0.470655
Si Si7 0.161342 0.954984 0.406584
Si Si8 0.007306 0.933164 0.664996
O O1 0.306806 0.900089 0.844831
O O2 0.316111 0.741358 0.842201
O O3 0.198741 0.819052 0.938055
O O4 0.407300 0.821942 0.951327
O O5 0.718025 0.516476 0.750000
O O6 0.710652 0.538969 0.902769
O O7 0.873722 0.471327 0.837780
O O8 0.440614 0.639971 0.598796
O O9 0.590557 0.607329 0.494201
O O10 0.399978 0.540989 0.497058
O O11 0.618187 0.368346 0.250000
O O12 0.750586 0.402659 0.362498
O O13 0.227396 0.018616 0.043472
O O14 0.962376 0.250000 0.500000
O O15 0.903986 0.102156 0.536436
O O16 0.990431 0.130492 0.402032
O O17 0.080790 0.001376 0.352854
O O18 0.993023 0.900949 0.750000
#
# Coordination Sequence:
#
# PCOD9434012 Si02
#       8
#     8   8   8   8   8   8   8   8
#     4  10  16  32  48  73 103 132 170 213 259 309
#     4   9  17  29  47  72 103 134 167 207 260 311
#     4   9  17  30  46  67  99 126 165 204 251 305
#     4  11  20  29  49  77 106 132 164 216 271 308
#     4   9  17  29  48  70  92 132 166 205 250 303
#     4  11  18  33  54  78 104 140 176 219 260 314
#     4  11  19  34  52  78 108 137 177 219 260 314
#     4  10  21  34  51  79 112 140 170 218 272 316
#
# _framework density 17.057611000000001
#
# number of rings (size 3 to 8) (size 9 to 14) (size 15 to 20)
#    0.000    2.000    6.250    1.500    0.000    1.000 
#    0.000    0.000    0.000    3.750    0.000    0.000 
#    0.000    0.000    0.000    0.000    0.000    0.000 
#
# Total GULP energy -356555.595433 kJ/mol
# GULP energy per Si atom -5571.181179 kJ/mol
# Density = 1.701879 g / cm^3
# Si number density = 17.057611 Si / 1000 Ang^3
#
#
#
# Elastic Constant Matrix: (Units=GPa)
#
#
# Indices 1 2 3 4 5 6 
#
# 1 47.0196 27.3089 28.8467 0.0000 0.0000 0.0000
# 2 27.3089 42.0973 20.3701 0.0000 0.0000 0.0000
# 3 28.8467 20.3701 102.8160 0.0000 0.0000 0.0000
# 4 0.0000 0.0000 0.0000 22.5574 0.0000 0.0000
# 5 0.0000 0.0000 0.0000 0.0000 11.7793 0.0000
# 6 0.0000 0.0000 0.0000 0.0000 0.0000 10.0578
#
#
#
# Elastic Compliance Matrix: (Units=1/GPa)
#
#
# Indices 1 2 3 4 5 6 
#
# 1 0.037488 -0.021268 -0.006304 0.000000 0.000000 0.000000
# 2 -0.021268 0.038340 -0.001629 0.000000 0.000000 0.000000
# 3 -0.006304 -0.001629 0.011818 0.000000 0.000000 0.000000
# 4 0.000000 0.000000 0.000000 0.044331 0.000000 0.000000
# 5 0.000000 0.000000 0.000000 0.000000 0.084895 0.000000
# 6 0.000000 0.000000 0.000000 0.000000 0.000000 0.099425
#
#
# Mechanical properties :
#
#
# Convention : Reuss Voigt Hill
#
# Bulk Modulus (GPa) = 34.19665 38.33161 36.26413
# Shear Modulus (GPa) = 13.00574 16.57273 14.78923
#
# Velocity S-wave (km/s) = 2.76426 3.12039 2.94771
# Velocity P-wave (km/s) = 5.50268 5.95845 5.73509
#
# Compressibility (1/GPa) = 0.02924263
#
# Stress axis : x y z
#
# Youngs Moduli (GPa) = 26.67527 26.08276 84.62001
#
# Poissons Ratio (x) = 0.55474 0.53346
# Poissons Ratio (y) = 0.56734 0.13782
# Poissons Ratio (z) = 0.16816 0.04248
#
# Static dielectric constant tensor:
#      x y z
#    x 1.578230 0.000000 0.000000 
#    y 0.000000 1.605070 0.000000 
#    z 0.000000 0.000000 1.597870 
# 
# From -- ./inp_files/22133.got.cif
#   From: 2010.05.17/outbox.cif.g08.bks.cpg/sg57_12_cif.got.tgz:22133.got - 2010.06.03 13:58:18.
