data_PCOD9434919
_publ_section_title
;
Structure prediction by ZEFSAII (Michael W. Deem and Ramdas Pophale) SiO2 
 PCOD9434919
Probable space group: P B C M
;
_chemical_formula_sum "Si O2"
_cell_formula_units_Z 56
_cell_length_a 18.327678
_cell_length_b 21.808145
_cell_length_c 9.031858
_cell_angle_alpha 90.000000
_cell_angle_beta 90.000000
_cell_angle_gamma 90.000000
_cell_volume 3609.967343
_symmetry_space_group_name_H-M "P B C M"
_symmetry_group_IT_number 57
_symmetry_cell_setting 'orthorhombic'
loop_
_space_group_symop_operation_xyz
x,y,z
-x,-y,1/2+z
x,1/2-y,-z
-x,1/2+y,1/2-z
-x,-y,-z
x,y,1/2-z
-x,1/2+y,z
x,1/2-y,1/2+z
loop_
_atom_site_type_symbol
_atom_site_label
_atom_site_fract_x
_atom_site_fract_y
_atom_site_fract_z
Si Si1 0.105582 0.463676 0.575123
Si Si2 0.050602 0.911301 0.574785
Si Si3 0.717554 0.395043 0.572235
Si Si4 0.845024 0.316713 0.072903
Si Si5 0.557729 0.416790 0.576223
Si Si6 0.587069 0.563120 0.576046
Si Si7 0.253983 0.040341 0.927227
O O1 0.111694 0.477291 0.750000
O O2 0.085925 0.525999 0.487558
O O3 0.181631 0.439400 0.511613
O O4 0.036259 0.419130 0.555002
O O5 0.066619 0.906175 0.750000
O O6 0.086332 0.855632 0.487084
O O7 0.722886 0.384322 0.750000
O O8 0.773976 0.353347 0.484991
O O9 0.633144 0.385807 0.524967
O O10 0.736788 0.466881 0.548798
O O11 0.845458 0.313238 0.250000
O O12 0.845429 0.250000 0.000000
O O13 0.550507 0.404661 0.750000
O O14 0.572669 0.489911 0.559749
O O15 0.480935 0.403525 0.499392
O O16 0.585720 0.576478 0.750000
O O17 0.670164 0.571772 0.522654
O O18 0.246618 0.048925 0.750000
#
# Coordination Sequence:
#
# PCOD9434919 Si02
#       7
#     8   8   8   8   8   8   8
#     4  10  19  29  46  70  92 119 155 191 229 279
#     4  10  20  34  48  65  92 120 150 192 236 277
#     4   9  17  30  45  62  87 119 153 189 230 269
#     4  12  24  36  51  69  89 118 157 195 236 280
#     4   8  14  24  38  56  81 115 148 180 217 255
#     4   8  14  23  35  56  84 117 150 178 214 255
#     4   9  16  26  42  62  91 125 152 186 228 269
#
# _framework density 15.512606
#
# number of rings (size 3 to 8) (size 9 to 14) (size 15 to 20)
#    0.000    2.571    1.429    3.857    0.000    2.857 
#    0.000    2.857    0.000    0.000    0.000    0.000 
#    0.000    1.143    0.000    3.714    0.000    5.429 
#
# Total GULP energy -311926.688179 kJ/mol
# GULP energy per Si atom -5570.119432 kJ/mol
# Density = 1.547730 g / cm^3
# Si number density = 15.512606 Si / 1000 Ang^3
#
#
#
# Elastic Constant Matrix: (Units=GPa)
#
#
# Indices 1 2 3 4 5 6 
#
# 1 155.0236 25.2173 65.9145 0.0000 0.0000 0.0000
# 2 25.2173 36.0202 28.7811 0.0000 0.0000 0.0000
# 3 65.9145 28.7811 75.8003 0.0000 0.0000 0.0000
# 4 0.0000 0.0000 0.0000 16.1797 0.0000 0.0000
# 5 0.0000 0.0000 0.0000 0.0000 31.2653 0.0000
# 6 0.0000 0.0000 0.0000 0.0000 0.0000 7.7333
#
#
#
# Elastic Compliance Matrix: (Units=1/GPa)
#
#
# Indices 1 2 3 4 5 6 
#
# 1 0.010235 -0.000077 -0.008871 0.000000 0.000000 0.000000
# 2 -0.000077 0.039854 -0.015065 0.000000 0.000000 0.000000
# 3 -0.008871 -0.015065 0.026627 0.000000 0.000000 0.000000
# 4 0.000000 0.000000 0.000000 0.061806 0.000000 0.000000
# 5 0.000000 0.000000 0.000000 0.000000 0.031984 0.000000
# 6 0.000000 0.000000 0.000000 0.000000 0.000000 0.129310
#
#
# Mechanical properties :
#
#
# Convention : Reuss Voigt Hill
#
# Bulk Modulus (GPa) = 34.85670 56.29666 45.57668
# Shear Modulus (GPa) = 13.98972 20.83106 17.41039
#
# Velocity S-wave (km/s) = 3.00630 3.66846 3.35377
# Velocity P-wave (km/s) = 5.87956 7.36975 6.66642
#
# Compressibility (1/GPa) = 0.02868889
#
# Stress axis : x y z
#
# Youngs Moduli (GPa) = 97.70408 25.09178 37.55648
#
# Poissons Ratio (x) = 0.00194 0.33316
# Poissons Ratio (y) = 0.00756 0.56579
# Poissons Ratio (z) = 0.86671 0.37801
#
# Static dielectric constant tensor:
#      x y z
#    x 1.563870 0.000000 0.000000 
#    y 0.000000 1.481700 0.000000 
#    z 0.000000 0.000000 1.516530 
# 
# From -- ./inp_files/7329.got.cif
#   From: 2010.05.17/outbox.cif.g08.bks.cpg/sg57_4_cif.got.tgz:7329.got - 2010.06.03 13:58:18.
