data_PCOD9434552
_publ_section_title
;
Structure prediction by ZEFSAII (Michael W. Deem and Ramdas Pophale) SiO2 
 PCOD9434552
Probable space group: P B C M
;
_chemical_formula_sum "Si O2"
_cell_formula_units_Z 48
_cell_length_a 17.723007
_cell_length_b 15.757898
_cell_length_c 8.570703
_cell_angle_alpha 90.000000
_cell_angle_beta 90.000000
_cell_angle_gamma 90.000000
_cell_volume 2393.603106
_symmetry_space_group_name_H-M "P B C M"
_symmetry_group_IT_number 57
_symmetry_cell_setting 'orthorhombic'
loop_
_space_group_symop_operation_xyz
x,y,z
-x,-y,1/2+z
x,1/2-y,-z
-x,1/2+y,1/2-z
-x,-y,-z
x,y,1/2-z
-x,1/2+y,z
x,1/2-y,1/2+z
loop_
_atom_site_type_symbol
_atom_site_label
_atom_site_fract_x
_atom_site_fract_y
_atom_site_fract_z
Si Si1 0.676946 0.840319 0.064977
Si Si2 0.165444 0.101829 0.437140
Si Si3 0.676770 0.159648 0.436648
Si Si4 0.415378 0.999976 0.064228
Si Si5 0.001299 0.403456 0.937931
Si Si6 0.162245 0.908983 0.560958
O O1 0.670211 0.842491 0.250000
O O2 0.650702 0.750000 0.000000
O O3 0.764303 0.853274 0.017321
O O4 0.629630 0.917425 0.993594
O O5 0.172658 0.109653 0.250000
O O6 0.082004 0.133815 0.488519
O O7 0.168596 0.002208 0.484352
O O8 0.650920 0.250000 0.500000
O O9 0.672609 0.158510 0.250000
O O10 0.764144 0.143770 0.483334
O O11 0.628197 0.082629 0.502783
O O12 0.416448 0.999227 0.250000
O O13 0.500000 0.000000 0.000000
O O14 0.003829 0.405320 0.750000
O O15 0.918924 0.368835 0.983915
O O16 0.000000 0.500000 0.000000
O O17 0.162935 0.919951 0.750000
#
# Coordination Sequence:
#
# PCOD9434552 Si02
#       6
#     8   8   8   8   8   8
#     4  12  25  43  66  95 129 167 211 258 314 374
#     4  10  18  31  55  86 122 164 212 260 313 369
#     4  11  23  40  64  95 130 170 213 259 311 368
#     4  12  26  47  73 100 129 161 201 250 311 378
#     4   8  15  27  47  79 116 159 210 260 307 361
#     4   9  17  32  55  82 120 166 213 261 311 366
#
# _framework density 20.053449000000001
#
# number of rings (size 3 to 8) (size 9 to 14) (size 15 to 20)
#    0.000    1.667    1.667    4.000    0.000    2.000 
#    0.000    4.167    0.000    2.000    0.000    0.000 
#    0.000    0.000    0.000    0.000    0.000    0.000 
#
# Total GULP energy -268114.027867 kJ/mol
# GULP energy per Si atom -5585.708914 kJ/mol
# Density = 2.000781 g / cm^3
# Si number density = 20.053449 Si / 1000 Ang^3
#
#
#
# Elastic Constant Matrix: (Units=GPa)
#
#
# Indices 1 2 3 4 5 6 
#
# 1 164.9463 74.0694 51.3886 0.0000 0.0000 0.0000
# 2 74.0694 134.4586 45.1604 0.0000 0.0000 0.0000
# 3 51.3886 45.1604 88.0870 0.0000 0.0000 0.0000
# 4 0.0000 0.0000 0.0000 26.6985 0.0000 0.0000
# 5 0.0000 0.0000 0.0000 0.0000 26.2401 0.0000
# 6 0.0000 0.0000 0.0000 0.0000 0.0000 -11.9020
#
#
#
# Elastic Compliance Matrix: (Units=1/GPa)
#
#
# Indices 1 2 3 4 5 6 
#
# 1 0.008733 -0.003744 -0.003175 0.000000 0.000000 0.000000
# 2 -0.003744 0.010590 -0.003245 0.000000 0.000000 0.000000
# 3 -0.003175 -0.003245 0.014868 0.000000 0.000000 0.000000
# 4 0.000000 0.000000 0.000000 0.037455 0.000000 0.000000
# 5 0.000000 0.000000 0.000000 0.000000 0.038110 0.000000
# 6 0.000000 0.000000 0.000000 0.000000 0.000000 -0.084019
#
#
# Mechanical properties :
#
#
# Convention : Reuss Voigt Hill
#
# Bulk Modulus (GPa) = 72.13628 80.96985 76.55306
# Shear Modulus (GPa) = 98.64654 22.66557 60.65606
#
# Velocity S-wave (km/s) = 7.02130 3.36558 5.50571
# Velocity P-wave (km/s) = 10.08868 7.45436 8.86987
#
# Compressibility (1/GPa) = 0.01386265
#
# Stress axis : x y z
#
# Youngs Moduli (GPa) = 114.50514 94.43110 67.25754
#
# Poissons Ratio (x) = 0.35359 0.21355
# Poissons Ratio (y) = 0.42876 0.21823
# Poissons Ratio (z) = 0.36357 0.30640
#
# Static dielectric constant tensor:
#      x y z
#    x 1.742080 0.000000 0.000000 
#    y 0.000000 1.668290 0.000000 
#    z 0.000000 0.000000 1.675440 
# 
# From -- ./inp_files/6521.got.cif
#   From: 2010.05.17/outbox.cif.g08.bks.cpg/sg57_4_cif.got.tgz:6521.got - 2010.06.03 13:58:18.
