data_PCOD9434510
_publ_section_title
;
Structure prediction by ZEFSAII (Michael W. Deem and Ramdas Pophale) SiO2 
 PCOD9434510
Probable space group: P B C M
;
_chemical_formula_sum "Si O2"
_cell_formula_units_Z 56
_cell_length_a 15.227340
_cell_length_b 23.319943
_cell_length_c 8.280536
_cell_angle_alpha 90.000000
_cell_angle_beta 90.000000
_cell_angle_gamma 90.000000
_cell_volume 2940.424137
_symmetry_space_group_name_H-M "P B C M"
_symmetry_group_IT_number 57
_symmetry_cell_setting 'orthorhombic'
loop_
_space_group_symop_operation_xyz
x,y,z
-x,-y,1/2+z
x,1/2-y,-z
-x,1/2+y,1/2-z
-x,-y,-z
x,y,1/2-z
-x,1/2+y,z
x,1/2-y,1/2+z
loop_
_atom_site_type_symbol
_atom_site_label
_atom_site_fract_x
_atom_site_fract_y
_atom_site_fract_z
Si Si1 0.427824 0.187743 0.056973
Si Si2 0.915159 0.423863 0.943604
Si Si3 0.295326 0.089255 0.447240
Si Si4 0.595771 0.019729 0.555284
Si Si5 0.618721 0.149615 0.945174
Si Si6 0.191056 0.687802 0.943101
Si Si7 0.887897 0.949459 0.944918
O O1 0.428784 0.185445 0.250000
O O2 0.360509 0.139145 0.996291
O O3 0.398735 0.250000 0.000000
O O4 0.527143 0.176901 0.998857
O O5 0.914287 0.423602 0.750000
O O6 0.016997 0.427225 0.000688
O O7 0.865214 0.367282 0.002757
O O8 0.875246 0.484431 0.002413
O O9 0.296265 0.091064 0.250000
O O10 0.194181 0.089010 0.499233
O O11 0.336178 0.028526 0.498079
O O12 0.596722 0.020908 0.750000
O O13 0.617703 0.083488 0.498261
O O14 0.500000 0.000000 0.500000
O O15 0.619987 0.150248 0.750000
O O16 0.708235 0.179284 0.002987
O O17 0.192465 0.687727 0.750000
O O18 0.158148 0.750000 0.000000
O O19 0.889052 0.949367 0.750000
#
# Coordination Sequence:
#
# PCOD9434510 Si02
#       7
#     8   8   8   8   8   8   8
#     4  11  22  36  54  74 103 142 183 223 264 314
#     4  10  20  35  58  88 115 142 179 225 278 333
#     4   9  18  34  55  78 106 143 179 215 267 322
#     4  10  18  31  51  78 108 138 173 215 264 314
#     4  10  21  36  56  80 108 142 182 223 271 326
#     4  11  23  39  58  80 111 150 188 231 278 332
#     4   9  18  36  61  84 111 145 181 223 275 332
#
# _framework density 19.044871000000001
#
# number of rings (size 3 to 8) (size 9 to 14) (size 15 to 20)
#    0.000    2.000    1.429    2.571    0.000    5.143 
#    0.000    4.286    0.000    1.714    0.000    0.000 
#    0.000    0.000    0.000    0.000    0.000    0.000 
#
# Total GULP energy -312602.169872 kJ/mol
# GULP energy per Si atom -5582.181605 kJ/mol
# Density = 1.900152 g / cm^3
# Si number density = 19.044871 Si / 1000 Ang^3
#
#
#
# Elastic Constant Matrix: (Units=GPa)
#
#
# Indices 1 2 3 4 5 6 
#
# 1 120.1454 57.2736 10.7994 0.0000 0.0000 0.0000
# 2 57.2736 118.3311 11.4445 0.0000 0.0000 0.0000
# 3 10.7994 11.4445 17.3025 0.0000 0.0000 0.0000
# 4 0.0000 0.0000 0.0000 27.4111 0.0000 0.0000
# 5 0.0000 0.0000 0.0000 0.0000 20.8401 0.0000
# 6 0.0000 0.0000 0.0000 0.0000 0.0000 17.0660
#
#
#
# Elastic Compliance Matrix: (Units=1/GPa)
#
#
# Indices 1 2 3 4 5 6 
#
# 1 0.011023 -0.004989 -0.003580 0.000000 0.000000 0.000000
# 2 -0.004989 0.011287 -0.004351 0.000000 0.000000 0.000000
# 3 -0.003580 -0.004351 0.062908 0.000000 0.000000 0.000000
# 4 0.000000 0.000000 0.000000 0.036482 0.000000 0.000000
# 5 0.000000 0.000000 0.000000 0.000000 0.047984 0.000000
# 6 0.000000 0.000000 0.000000 0.000000 0.000000 0.058596
#
#
# Mechanical properties :
#
#
# Convention : Reuss Voigt Hill
#
# Bulk Modulus (GPa) = 16.84175 46.09046 31.46610
# Shear Modulus (GPa) = 18.25395 24.81421 21.53408
#
# Velocity S-wave (km/s) = 3.09928 3.61353 3.36624
# Velocity P-wave (km/s) = 4.65508 6.45474 5.62732
#
# Compressibility (1/GPa) = 0.05937624
#
# Stress axis : x y z
#
# Youngs Moduli (GPa) = 90.71589 88.60122 15.89628
#
# Poissons Ratio (x) = 0.44205 0.05691
# Poissons Ratio (y) = 0.45260 0.06917
# Poissons Ratio (z) = 0.32479 0.38553
#
# Static dielectric constant tensor:
#      x y z
#    x 1.677680 0.000000 0.000000 
#    y 0.000000 1.626110 0.000000 
#    z 0.000000 0.000000 1.663350 
# 
# From -- ./inp_files/5204.got.cif
#   From: 2010.05.17/outbox.cif.g08.bks.cpg/sg57_3_cif.got.tgz:5204.got - 2010.06.03 13:58:18.
