data_PCOD9434986
_publ_section_title
;
Structure prediction by ZEFSAII (Michael W. Deem and Ramdas Pophale) SiO2 
 PCOD9434986
Probable space group: P B C M
;
_chemical_formula_sum "Si O2"
_cell_formula_units_Z 48
_cell_length_a 24.387879
_cell_length_b 14.074427
_cell_length_c 8.818510
_cell_angle_alpha 90.000000
_cell_angle_beta 90.000000
_cell_angle_gamma 90.000000
_cell_volume 3026.913192
_symmetry_space_group_name_H-M "P B C M"
_symmetry_group_IT_number 57
_symmetry_cell_setting 'orthorhombic'
loop_
_space_group_symop_operation_xyz
x,y,z
-x,-y,1/2+z
x,1/2-y,-z
-x,1/2+y,1/2-z
-x,-y,-z
x,y,1/2-z
-x,1/2+y,z
x,1/2-y,1/2+z
loop_
_atom_site_type_symbol
_atom_site_label
_atom_site_fract_x
_atom_site_fract_y
_atom_site_fract_z
Si Si1 0.684290 0.854625 0.432186
Si Si2 0.021305 0.851889 0.931385
Si Si3 0.475329 0.645640 0.068710
Si Si4 0.917975 0.957706 0.432879
Si Si5 0.585687 0.970225 0.931270
Si Si6 0.190423 0.353646 0.432383
O O1 0.673052 0.750000 0.500000
O O2 0.680136 0.850593 0.250000
O O3 0.640670 0.928089 0.497767
O O4 0.747188 0.879494 0.474761
O O5 0.018821 0.845491 0.750000
O O6 0.064179 0.935284 0.973575
O O7 0.034990 0.750000 0.000000
O O8 0.962752 0.887862 0.993969
O O9 0.469695 0.648684 0.250000
O O10 0.535418 0.601875 0.032987
O O11 0.470017 0.750000 0.000000
O O12 0.432102 0.571322 0.999415
O O13 0.922278 0.949552 0.250000
O O14 0.857054 0.926547 0.478873
O O15 0.590271 0.976702 0.750000
O O16 0.178362 0.250000 0.500000
O O17 0.189135 0.346373 0.250000
#
# Coordination Sequence:
#
# PCOD9434986 Si02
#       6
#     8   8   8   8   8   8
#     4  10  19  31  48  70  96 125 157 193 235 280
#     4  10  19  30  46  68  94 122 152 189 232 278
#     4  10  20  33  50  72  98 127 158 194 235 279
#     4   9  18  32  48  67  92 122 156 192 231 275
#     4  10  20  33  50  72  98 127 159 194 233 278
#     4   9  18  31  47  68  93 122 154 190 232 276
#
# _framework density 15.85774
#
# number of rings (size 3 to 8) (size 9 to 14) (size 15 to 20)
#    0.000    2.333    0.000    3.000    0.000    6.667 
#    0.000    0.000    0.000    1.000    0.000    2.333 
#    0.000    0.000    0.000    0.000    0.000    0.000 
#
# Total GULP energy -267782.514921 kJ/mol
# GULP energy per Si atom -5578.802394 kJ/mol
# Density = 1.582165 g / cm^3
# Si number density = 15.857740 Si / 1000 Ang^3
#
#
#
# Elastic Constant Matrix: (Units=GPa)
#
#
# Indices 1 2 3 4 5 6 
#
# 1 118.4459 85.8629 41.8588 0.0000 0.0000 0.0000
# 2 85.8629 139.1241 47.6709 0.0000 0.0000 0.0000
# 3 41.8588 47.6709 38.3602 0.0000 0.0000 0.0000
# 4 0.0000 0.0000 0.0000 30.2529 0.0000 0.0000
# 5 0.0000 0.0000 0.0000 0.0000 21.3925 0.0000
# 6 0.0000 0.0000 0.0000 0.0000 0.0000 23.4158
#
#
#
# Elastic Compliance Matrix: (Units=1/GPa)
#
#
# Indices 1 2 3 4 5 6 
#
# 1 0.017114 -0.007251 -0.009664 0.000000 0.000000 0.000000
# 2 -0.007251 0.015590 -0.011462 0.000000 0.000000 0.000000
# 3 -0.009664 -0.011462 0.050859 0.000000 0.000000 0.000000
# 4 0.000000 0.000000 0.000000 0.033055 0.000000 0.000000
# 5 0.000000 0.000000 0.000000 0.000000 0.046745 0.000000
# 6 0.000000 0.000000 0.000000 0.000000 0.000000 0.042706
#
#
# Mechanical properties :
#
#
# Convention : Reuss Voigt Hill
#
# Bulk Modulus (GPa) = 37.30169 71.85727 54.57948
# Shear Modulus (GPa) = 18.39854 23.04809 20.72332
#
# Velocity S-wave (km/s) = 3.40990 3.81652 3.61893
# Velocity P-wave (km/s) = 6.25116 8.05191 7.20799
#
# Compressibility (1/GPa) = 0.02680844
#
# Stress axis : x y z
#
# Youngs Moduli (GPa) = 58.43051 64.14206 19.66233
#
# Poissons Ratio (x) = 0.46509 0.19002
# Poissons Ratio (y) = 0.42368 0.22537
# Poissons Ratio (z) = 0.56469 0.73521
#
# Static dielectric constant tensor:
#      x y z
#    x 1.527710 0.000000 0.000000 
#    y 0.000000 1.504610 0.000000 
#    z 0.000000 0.000000 1.528440 
# 
# From -- ./inp_files/7851.got.cif
#   From: 2010.05.17/outbox.cif.g08.bks.cpg/sg57_4_cif.got.tgz:7851.got - 2010.06.03 13:58:18.
