data_PCOD9434829
_publ_section_title
;
Structure prediction by ZEFSAII (Michael W. Deem and Ramdas Pophale) SiO2 
 PCOD9434829
Probable space group: P B C M
;
_chemical_formula_sum "Si O2"
_cell_formula_units_Z 40
_cell_length_a 23.714554
_cell_length_b 8.605994
_cell_length_c 10.096907
_cell_angle_alpha 90.000000
_cell_angle_beta 90.000000
_cell_angle_gamma 90.000000
_cell_volume 2060.650583
_symmetry_space_group_name_H-M "P B C M"
_symmetry_group_IT_number 57
_symmetry_cell_setting 'orthorhombic'
loop_
_space_group_symop_operation_xyz
x,y,z
-x,-y,1/2+z
x,1/2-y,-z
-x,1/2+y,1/2-z
-x,-y,-z
x,y,1/2-z
-x,1/2+y,z
x,1/2-y,1/2+z
loop_
_atom_site_type_symbol
_atom_site_label
_atom_site_fract_x
_atom_site_fract_y
_atom_site_fract_z
Si Si1 0.328671 0.061352 0.012180
Si Si2 0.547242 0.909898 0.585330
Si Si3 0.936486 0.563882 0.996429
Si Si4 0.873054 0.063562 0.750000
Si Si5 0.134686 0.565642 0.250000
Si Si6 0.750133 0.919482 0.750000
Si Si7 0.264117 0.455964 0.250000
O O1 0.302803 0.002325 0.875531
O O2 0.330136 0.250000 0.000000
O O3 0.391160 0.014507 0.058693
O O4 0.283542 0.022435 0.123240
O O5 0.549320 0.750000 0.500000
O O6 0.539113 0.896153 0.750000
O O7 0.500000 0.000000 0.500000
O O8 0.906180 0.496105 0.123808
O O9 0.937616 0.750000 0.000000
O O10 0.898883 0.505128 0.874232
O O11 0.000000 0.500000 0.000000
O O12 0.869705 0.248818 0.750000
O O13 0.812425 0.983126 0.750000
O O14 0.201287 0.525281 0.250000
O O15 0.746551 0.731303 0.750000
#
# Coordination Sequence:
#
# PCOD9434829 Si02
#       7
#     8   8   8   4   4   4   4
#     4   9  19  34  60  87 117 156 215 265 320 378
#     4  11  23  40  64  94 131 173 223 278 336 402
#     4  12  25  44  67  94 127 170 219 271 326 394
#     4  12  25  41  66  93 132 172 206 270 329 396
#     4  12  25  43  62  97 134 168 218 262 339 396
#     4  10  18  37  58  87 115 156 210 260 319 386
#     4  10  20  35  60  87 117 160 208 270 315 396
#
# _framework density 19.411346999999999
#
# number of rings (size 3 to 8) (size 9 to 14) (size 15 to 20)
#    0.000    1.200    1.000    6.000    5.600    1.600 
#    0.000    2.000    0.000    0.000    0.000    0.000 
#    0.000    0.000    0.000    0.000    0.000    0.000 
#
# Total GULP energy -223153.867288 kJ/mol
# GULP energy per Si atom -5578.846682 kJ/mol
# Density = 1.936717 g / cm^3
# Si number density = 19.411347 Si / 1000 Ang^3
#
#
#
# Elastic Constant Matrix: (Units=GPa)
#
#
# Indices 1 2 3 4 5 6 
#
# 1 197.2704 44.1195 104.9161 0.0000 0.0000 0.0000
# 2 44.1195 86.0957 45.5713 0.0000 0.0000 0.0000
# 3 104.9161 45.5713 228.8304 0.0000 0.0000 0.0000
# 4 0.0000 0.0000 0.0000 20.2075 0.0000 0.0000
# 5 0.0000 0.0000 0.0000 0.0000 41.9596 0.0000
# 6 0.0000 0.0000 0.0000 0.0000 0.0000 33.8242
#
#
#
# Elastic Compliance Matrix: (Units=1/GPa)
#
#
# Indices 1 2 3 4 5 6 
#
# 1 0.007034 -0.002121 -0.002803 0.000000 0.000000 0.000000
# 2 -0.002121 0.013623 -0.001741 0.000000 0.000000 0.000000
# 3 -0.002803 -0.001741 0.006002 0.000000 0.000000 0.000000
# 4 0.000000 0.000000 0.000000 0.049487 0.000000 0.000000
# 5 0.000000 0.000000 0.000000 0.000000 0.023832 0.000000
# 6 0.000000 0.000000 0.000000 0.000000 0.000000 0.029565
#
#
# Mechanical properties :
#
#
# Convention : Reuss Voigt Hill
#
# Bulk Modulus (GPa) = 75.01662 100.15670 87.58666
# Shear Modulus (GPa) = 33.94091 40.37088 37.15589
#
# Velocity S-wave (km/s) = 4.18605 4.56538 4.37983
# Velocity P-wave (km/s) = 7.87996 8.91624 8.41407
#
# Compressibility (1/GPa) = 0.01333038
#
# Stress axis : x y z
#
# Youngs Moduli (GPa) = 142.16384 73.40396 166.62073
#
# Poissons Ratio (x) = 0.15570 0.46698
# Poissons Ratio (y) = 0.30155 0.29001
# Poissons Ratio (z) = 0.39844 0.12776
#
# Static dielectric constant tensor:
#      x y z
#    x 2.225400 0.000000 0.000000 
#    y 0.000000 1.708240 0.000000 
#    z 0.000000 0.000000 1.772250 
# 
# From -- ./inp_files/9050.got.cif
#   From: 2010.05.17/outbox.cif.g08.bks.cpg/sg57_5_cif.got.tgz:9050.got - 2010.06.03 13:58:18.
