data_PCOD9434221
_publ_section_title
;
Structure prediction by ZEFSAII (Michael W. Deem and Ramdas Pophale) SiO2 
 PCOD9434221
Probable space group: P B C M
;
_chemical_formula_sum "Si O2"
_cell_formula_units_Z 56
_cell_length_a 21.000263
_cell_length_b 18.927881
_cell_length_c 8.760582
_cell_angle_alpha 90.000000
_cell_angle_beta 90.000000
_cell_angle_gamma 90.000000
_cell_volume 3482.247936
_symmetry_space_group_name_H-M "P B C M"
_symmetry_group_IT_number 57
_symmetry_cell_setting 'orthorhombic'
loop_
_space_group_symop_operation_xyz
x,y,z
-x,-y,1/2+z
x,1/2-y,-z
-x,1/2+y,1/2-z
-x,-y,-z
x,y,1/2-z
-x,1/2+y,z
x,1/2-y,1/2+z
loop_
_atom_site_type_symbol
_atom_site_label
_atom_site_fract_x
_atom_site_fract_y
_atom_site_fract_z
Si Si1 0.558603 0.954783 0.566885
Si Si2 0.491723 0.828200 0.432794
Si Si3 0.933806 0.971305 0.433438
Si Si4 0.251427 0.825810 0.932418
Si Si5 0.885313 0.383101 0.565369
Si Si6 0.981548 0.825837 0.433135
Si Si7 0.636827 0.084844 0.566911
O O1 0.553683 0.951760 0.750000
O O2 0.548238 0.877554 0.497681
O O3 0.500000 0.000000 0.500000
O O4 0.619277 0.003660 0.528133
O O5 0.493280 0.750000 0.500000
O O6 0.495340 0.826487 0.250000
O O7 0.424669 0.866627 0.474024
O O8 0.937071 0.971444 0.250000
O O9 0.933146 0.889194 0.479917
O O10 0.884495 0.033116 0.475952
O O11 0.000000 0.000000 0.500000
O O12 0.252054 0.821981 0.750000
O O13 0.179827 0.845871 0.982688
O O14 0.269692 0.750000 0.000000
O O15 0.301476 0.884042 0.987302
O O16 0.890857 0.377609 0.750000
O O17 0.948135 0.348078 0.493028
O O18 0.964568 0.750000 0.500000
O O19 0.983783 0.822002 0.250000
O O20 0.644090 0.089374 0.750000
#
# Coordination Sequence:
#
# PCOD9434221 Si02
#       7
#     8   8   8   8   8   8   8
#     4   9  17  30  47  66  88 116 148 184 225 268
#     4  10  19  30  46  69  94 120 148 182 224 266
#     4   8  15  28  44  61  83 110 142 178 217 259
#     4  11  22  32  45  64  88 119 152 183 216 254
#     4   9  18  32  46  62  86 116 149 184 218 257
#     4  10  18  27  43  66  89 115 142 175 219 263
#     4   9  19  33  47  64  89 120 152 184 218 257
#
# _framework density 16.081565999999999
#
# number of rings (size 3 to 8) (size 9 to 14) (size 15 to 20)
#    0.000    2.571    0.000    3.429    0.000    7.429 
#    0.000    0.000    0.000    0.000    0.000    1.000 
#    0.000    4.571    0.000    0.000    0.000    0.000 
#
# Total GULP energy -311866.747411 kJ/mol
# GULP energy per Si atom -5569.049061 kJ/mol
# Density = 1.604496 g / cm^3
# Si number density = 16.081566 Si / 1000 Ang^3
#
#
#
# Elastic Constant Matrix: (Units=GPa)
#
#
# Indices 1 2 3 4 5 6 
#
# 1 16.8810 -3.6286 5.8383 0.0000 0.0000 0.0000
# 2 -3.6286 87.5363 16.8555 0.0000 0.0000 0.0000
# 3 5.8383 16.8555 23.9885 0.0000 0.0000 0.0000
# 4 0.0000 0.0000 0.0000 26.8366 0.0000 0.0000
# 5 0.0000 0.0000 0.0000 0.0000 15.9395 0.0000
# 6 0.0000 0.0000 0.0000 0.0000 0.0000 25.8952
#
#
#
# Elastic Compliance Matrix: (Units=1/GPa)
#
#
# Indices 1 2 3 4 5 6 
#
# 1 0.068164 0.006962 -0.021482 0.000000 0.000000 0.000000
# 2 0.006962 0.013922 -0.011477 0.000000 0.000000 0.000000
# 3 -0.021482 -0.011477 0.054979 0.000000 0.000000 0.000000
# 4 0.000000 0.000000 0.000000 0.037263 0.000000 0.000000
# 5 0.000000 0.000000 0.000000 0.000000 0.062737 0.000000
# 6 0.000000 0.000000 0.000000 0.000000 0.000000 0.038617
#
#
# Mechanical properties :
#
#
# Convention : Reuss Voigt Hill
#
# Bulk Modulus (GPa) = 11.75470 18.50404 15.12937
# Shear Modulus (GPa) = 14.04364 21.02362 17.53363
#
# Velocity S-wave (km/s) = 2.95833 3.61960 3.30554
# Velocity P-wave (km/s) = 4.35824 5.38517 4.89869
#
# Compressibility (1/GPa) = 0.08507236
#
# Stress axis : x y z
#
# Youngs Moduli (GPa) = 14.67050 71.82689 18.18875
#
# Poissons Ratio (x) = -0.50005 0.39072
# Poissons Ratio (y) = -0.10213 0.20875
# Poissons Ratio (z) = 0.31514 0.82435
#
# Static dielectric constant tensor:
#      x y z
#    x 1.521480 0.000000 0.000000 
#    y 0.000000 1.577020 0.000000 
#    z 0.000000 0.000000 1.540040 
# 
# From -- ./inp_files/8295.got.cif
#   From: 2010.05.17/outbox.cif.g08.bks.cpg/sg57_5_cif.got.tgz:8295.got - 2010.06.03 13:58:18.
