data_PCOD9434478
_publ_section_title
;
Structure prediction by ZEFSAII (Michael W. Deem and Ramdas Pophale) SiO2 
 PCOD9434478
Probable space group: P B C M
;
_chemical_formula_sum "Si O2"
_cell_formula_units_Z 48
_cell_length_a 12.300802
_cell_length_b 26.664128
_cell_length_c 8.606928
_cell_angle_alpha 90.000000
_cell_angle_beta 90.000000
_cell_angle_gamma 90.000000
_cell_volume 2822.987683
_symmetry_space_group_name_H-M "P B C M"
_symmetry_group_IT_number 57
_symmetry_cell_setting 'orthorhombic'
loop_
_space_group_symop_operation_xyz
x,y,z
-x,-y,1/2+z
x,1/2-y,-z
-x,1/2+y,1/2-z
-x,-y,-z
x,y,1/2-z
-x,1/2+y,z
x,1/2-y,1/2+z
loop_
_atom_site_type_symbol
_atom_site_label
_atom_site_fract_x
_atom_site_fract_y
_atom_site_fract_z
Si Si1 0.830606 0.617190 0.430812
Si Si2 0.484110 0.615610 0.934224
Si Si3 0.642489 0.966239 0.569643
Si Si4 0.720349 0.429398 0.934596
Si Si5 0.345721 0.306066 0.562597
Si Si6 0.968721 0.055218 0.060952
O O1 0.852139 0.629333 0.250000
O O2 0.746176 0.570848 0.434272
O O3 0.761974 0.663877 0.496020
O O4 0.942772 0.595797 0.497074
O O5 0.492687 0.617946 0.750000
O O6 0.545444 0.565650 0.995596
O O7 0.359418 0.610521 0.985984
O O8 0.550387 0.661752 0.007638
O O9 0.618170 0.977821 0.750000
O O10 0.673872 0.016033 0.479363
O O11 0.715424 0.422584 0.750000
O O12 0.846384 0.429825 0.984049
O O13 0.348631 0.250000 0.500000
O O14 0.344325 0.306603 0.750000
O O15 0.973746 0.053266 0.250000
O O16 0.000000 0.000000 0.000000
#
# Coordination Sequence:
#
# PCOD9434478 Si02
#       6
#     8   8   8   8   8   8
#     4   8  16  31  51  75 104 136 171 212 260 305
#     4  11  22  35  51  73 103 136 176 219 264 315
#     4  10  18  31  50  71 103 140 176 216 260 311
#     4  11  21  31  47  73 106 143 182 217 257 309
#     4  10  20  37  60  83 105 130 166 215 271 323
#     4  10  19  32  50  74 105 144 183 218 255 305
#
# _framework density 17.003261999999999
#
# number of rings (size 3 to 8) (size 9 to 14) (size 15 to 20)
#    0.000    2.000    1.667    4.500    0.000    0.667 
#    0.000    0.833    0.000    1.000    0.000    2.333 
#    0.000    0.000    0.000    0.000    0.000    0.000 
#
# Total GULP energy -267771.954667 kJ/mol
# GULP energy per Si atom -5578.582389 kJ/mol
# Density = 1.696456 g / cm^3
# Si number density = 17.003262 Si / 1000 Ang^3
#
#
#
# Elastic Constant Matrix: (Units=GPa)
#
#
# Indices 1 2 3 4 5 6 
#
# 1 152.2966 65.0528 35.3581 0.0000 0.0000 0.0000
# 2 65.0528 80.5343 6.9837 0.0000 0.0000 0.0000
# 3 35.3581 6.9837 43.5598 0.0000 0.0000 0.0000
# 4 0.0000 0.0000 0.0000 23.3163 0.0000 0.0000
# 5 0.0000 0.0000 0.0000 0.0000 17.9045 0.0000
# 6 0.0000 0.0000 0.0000 0.0000 0.0000 7.4968
#
#
#
# Elastic Compliance Matrix: (Units=1/GPa)
#
#
# Indices 1 2 3 4 5 6 
#
# 1 0.012628 -0.009443 -0.008736 0.000000 0.000000 0.000000
# 2 -0.009443 0.019653 0.004514 0.000000 0.000000 0.000000
# 3 -0.008736 0.004514 0.029325 0.000000 0.000000 0.000000
# 4 0.000000 0.000000 0.000000 0.042888 0.000000 0.000000
# 5 0.000000 0.000000 0.000000 0.000000 0.055852 0.000000
# 6 0.000000 0.000000 0.000000 0.000000 0.000000 0.133391
#
#
# Mechanical properties :
#
#
# Convention : Reuss Voigt Hill
#
# Bulk Modulus (GPa) = 29.17549 54.57555 41.87552
# Shear Modulus (GPa) = 15.03796 21.00993 18.02394
#
# Velocity S-wave (km/s) = 2.97714 3.51898 3.25934
# Velocity P-wave (km/s) = 5.38645 6.97695 6.23264
#
# Compressibility (1/GPa) = 0.03427535
#
# Stress axis : x y z
#
# Youngs Moduli (GPa) = 79.19030 50.88251 34.10108
#
# Poissons Ratio (x) = 0.48047 0.29792
# Poissons Ratio (y) = 0.74777 -0.15393
# Poissons Ratio (z) = 0.69183 -0.22968
#
# Static dielectric constant tensor:
#      x y z
#    x 1.612500 0.000000 0.000000 
#    y 0.000000 1.551620 0.000000 
#    z 0.000000 0.000000 1.579230 
# 
# From -- ./inp_files/3277.got.cif
#   From: 2010.05.17/outbox.cif.g08.bks.cpg/sg57_2_cif.got.tgz:3277.got - 2010.06.03 13:58:18.
