data_PCOD9434902
_publ_section_title
;
Structure prediction by ZEFSAII (Michael W. Deem and Ramdas Pophale) SiO2 
 PCOD9434902
Probable space group: P B C M
;
_chemical_formula_sum "Si O2"
_cell_formula_units_Z 64
_cell_length_a 16.526007
_cell_length_b 23.439345
_cell_length_c 9.128006
_cell_angle_alpha 90.000000
_cell_angle_beta 90.000000
_cell_angle_gamma 90.000000
_cell_volume 3535.813264
_symmetry_space_group_name_H-M "P B C M"
_symmetry_group_IT_number 57
_symmetry_cell_setting 'orthorhombic'
loop_
_space_group_symop_operation_xyz
x,y,z
-x,-y,1/2+z
x,1/2-y,-z
-x,1/2+y,1/2-z
-x,-y,-z
x,y,1/2-z
-x,1/2+y,z
x,1/2-y,1/2+z
loop_
_atom_site_type_symbol
_atom_site_label
_atom_site_fract_x
_atom_site_fract_y
_atom_site_fract_z
Si Si1 0.563453 0.807610 0.583510
Si Si2 0.538244 0.396111 0.081235
Si Si3 0.231141 0.074268 0.574585
Si Si4 0.662405 0.486464 0.427192
Si Si5 0.084180 0.987447 0.923992
Si Si6 0.211043 0.601366 0.073854
Si Si7 0.309964 0.808498 0.079734
Si Si8 0.241134 0.192096 0.080452
O O1 0.537235 0.750000 0.500000
O O2 0.535007 0.803365 0.750000
O O3 0.529157 0.865415 0.514249
O O4 0.660686 0.808205 0.580345
O O5 0.511513 0.399539 0.250000
O O6 0.575973 0.457325 0.037847
O O7 0.614027 0.351823 0.073871
O O8 0.242784 0.075198 0.750000
O O9 0.153549 0.034236 0.541077
O O10 0.215969 0.136425 0.509273
O O11 0.309757 0.046031 0.496756
O O12 0.669909 0.487507 0.250000
O O13 0.726391 0.442849 0.499735
O O14 0.072580 0.989401 0.750000
O O15 0.123700 0.925839 0.959681
O O16 0.000000 0.000000 0.000000
O O17 0.221956 0.601567 0.250000
O O18 0.235500 0.661236 0.003798
O O19 0.290955 0.799276 0.250000
O O20 0.330612 0.750000 0.000000
O O21 0.214987 0.190203 0.250000
O O22 0.214914 0.250000 0.000000
#
# Coordination Sequence:
#
# PCOD9434902 Si02
#       8
#     8   8   8   8   8   8   8   8
#     4  10  20  32  48  69  95 128 170 216 263 308
#     4   9  18  30  45  67  96 129 169 213 257 300
#     4  10  20  35  55  80 106 133 166 205 247 298
#     4   9  17  30  48  71  98 131 168 206 249 298
#     4   9  19  33  53  81 107 129 156 190 235 288
#     4   9  17  30  46  68  98 129 162 200 237 282
#     4  10  19  29  43  66  94 130 171 208 246 291
#     4  10  21  37  56  78 101 131 170 212 256 303
#
# _framework density 18.100503
#
# number of rings (size 3 to 8) (size 9 to 14) (size 15 to 20)
#    0.000    2.500    0.000    4.125    0.000    8.500 
#    0.000    0.625    0.000    0.750    0.000    5.250 
#    0.000    0.000    0.000    0.000    0.000    0.000 
#
# Total GULP energy -356851.920909 kJ/mol
# GULP energy per Si atom -5575.811264 kJ/mol
# Density = 1.805931 g / cm^3
# Si number density = 18.100503 Si / 1000 Ang^3
#
#
#
# Elastic Constant Matrix: (Units=GPa)
#
#
# Indices 1 2 3 4 5 6 
#
# 1 37.1031 12.4677 28.5872 0.0000 0.0000 0.0000
# 2 12.4677 74.3888 34.8157 0.0000 0.0000 0.0000
# 3 28.5872 34.8157 85.3759 0.0000 0.0000 0.0000
# 4 0.0000 0.0000 0.0000 31.7933 0.0000 0.0000
# 5 0.0000 0.0000 0.0000 0.0000 23.9283 0.0000
# 6 0.0000 0.0000 0.0000 0.0000 0.0000 18.0390
#
#
#
# Elastic Compliance Matrix: (Units=1/GPa)
#
#
# Indices 1 2 3 4 5 6 
#
# 1 0.036337 -0.000489 -0.011968 0.000000 0.000000 0.000000
# 2 -0.000489 0.016620 -0.006614 0.000000 0.000000 0.000000
# 3 -0.011968 -0.006614 0.018417 0.000000 0.000000 0.000000
# 4 0.000000 0.000000 0.000000 0.031453 0.000000 0.000000
# 5 0.000000 0.000000 0.000000 0.000000 0.041791 0.000000
# 6 0.000000 0.000000 0.000000 0.000000 0.000000 0.055435
#
#
# Mechanical properties :
#
#
# Convention : Reuss Voigt Hill
#
# Bulk Modulus (GPa) = 30.09014 38.73435 34.41225
# Shear Modulus (GPa) = 20.05826 22.81860 21.43843
#
# Velocity S-wave (km/s) = 3.33252 3.55443 3.44526
# Velocity P-wave (km/s) = 5.60960 6.18800 5.90588
#
# Compressibility (1/GPa) = 0.03323347
#
# Stress axis : x y z
#
# Youngs Moduli (GPa) = 27.52007 60.16741 54.29690
#
# Poissons Ratio (x) = 0.02942 0.64981
# Poissons Ratio (y) = 0.01346 0.35911
# Poissons Ratio (z) = 0.32935 0.39794
#
# Static dielectric constant tensor:
#      x y z
#    x 1.625570 0.000000 0.000000 
#    y 0.000000 1.680050 0.000000 
#    z 0.000000 0.000000 1.610440 
# 
# From -- ./inp_files/7352.got.cif
#   From: 2010.05.17/outbox.cif.g08.bks.cpg/sg57_4_cif.got.tgz:7352.got - 2010.06.03 13:58:18.
