data_PCOD9434364
_publ_section_title
;
Structure prediction by ZEFSAII (Michael W. Deem and Ramdas Pophale) SiO2 
 PCOD9434364
Probable space group: P B C M
;
_chemical_formula_sum "Si O2"
_cell_formula_units_Z 40
_cell_length_a 9.275775
_cell_length_b 11.863837
_cell_length_c 16.717032
_cell_angle_alpha 90.000000
_cell_angle_beta 90.000000
_cell_angle_gamma 90.000000
_cell_volume 1839.647229
_symmetry_space_group_name_H-M "P B C M"
_symmetry_group_IT_number 57
_symmetry_cell_setting 'orthorhombic'
loop_
_space_group_symop_operation_xyz
x,y,z
-x,-y,1/2+z
x,1/2-y,-z
-x,1/2+y,1/2-z
-x,-y,-z
x,y,1/2-z
-x,1/2+y,z
x,1/2-y,1/2+z
loop_
_atom_site_type_symbol
_atom_site_label
_atom_site_fract_x
_atom_site_fract_y
_atom_site_fract_z
Si Si1 0.362066 0.609999 0.080942
Si Si2 0.397743 0.829528 0.159081
Si Si3 0.685214 0.535026 0.421645
Si Si4 0.932712 0.627011 0.508488
Si Si5 0.728896 0.602150 0.841107
O O1 0.331370 0.738560 0.099425
O O2 0.534947 0.599457 0.083122
O O3 0.293705 0.532313 0.149585
O O4 0.319488 0.548206 0.999006
O O5 0.393828 0.788512 0.250000
O O6 0.313989 0.947535 0.150779
O O7 0.566997 0.852332 0.138593
O O8 0.813432 0.619918 0.437782
O O9 0.009578 0.750000 0.500000
O O10 0.848129 0.631066 0.593060
O O11 0.000000 0.500000 0.500000
O O12 0.762882 0.633948 0.750000
#
# Coordination Sequence:
#
# PCOD9434364 Si02
#       5
#     8   8   8   8   8
#     4   9  16  29  53  82 113 146 180 224 281 348
#     4  10  18  29  52  87 120 147 179 226 289 355
#     4   9  19  33  52  77 110 147 186 229 283 344
#     4  11  24  42  61  81 109 152 203 244 281 332
#     4   9  19  35  55  82 115 148 183 230 288 343
#
# _framework density 21.743299
#
# number of rings (size 3 to 8) (size 9 to 14) (size 15 to 20)
#    0.000    2.400    0.000    3.600    0.000    4.000 
#    0.000    3.000    0.000    0.000    0.000    0.000 
#    0.000    0.000    0.000    0.000    0.000    0.000 
#
# Total GULP energy -222803.716372 kJ/mol
# GULP energy per Si atom -5570.092909 kJ/mol
# Density = 2.169381 g / cm^3
# Si number density = 21.743299 Si / 1000 Ang^3
#
#
#
# Elastic Constant Matrix: (Units=GPa)
#
#
# Indices 1 2 3 4 5 6 
#
# 1 44.0461 26.2164 14.4539 0.0000 0.0000 0.0000
# 2 26.2164 136.3265 30.7223 0.0000 0.0000 0.0000
# 3 14.4539 30.7223 70.1855 0.0000 0.0000 0.0000
# 4 0.0000 0.0000 0.0000 18.7647 0.0000 0.0000
# 5 0.0000 0.0000 0.0000 0.0000 21.4069 0.0000
# 6 0.0000 0.0000 0.0000 0.0000 0.0000 11.7298
#
#
#
# Elastic Compliance Matrix: (Units=1/GPa)
#
#
# Indices 1 2 3 4 5 6 
#
# 1 0.026420 -0.004276 -0.003569 0.000000 0.000000 0.000000
# 2 -0.004276 0.008830 -0.002985 0.000000 0.000000 0.000000
# 3 -0.003569 -0.002985 0.016289 0.000000 0.000000 0.000000
# 4 0.000000 0.000000 0.000000 0.053291 0.000000 0.000000
# 5 0.000000 0.000000 0.000000 0.000000 0.046714 0.000000
# 6 0.000000 0.000000 0.000000 0.000000 0.000000 0.085253
#
#
# Mechanical properties :
#
#
# Convention : Reuss Voigt Hill
#
# Bulk Modulus (GPa) = 33.46754 43.70480 38.58617
# Shear Modulus (GPa) = 18.62767 22.32465 20.47616
#
# Velocity S-wave (km/s) = 2.93013 3.20775 3.07208
# Velocity P-wave (km/s) = 5.18393 5.81924 5.51075
#
# Compressibility (1/GPa) = 0.02987969
#
# Stress axis : x y z
#
# Youngs Moduli (GPa) = 37.85016 113.24618 61.38963
#
# Poissons Ratio (x) = 0.48429 0.21910
# Poissons Ratio (y) = 0.16186 0.18322
# Poissons Ratio (z) = 0.13509 0.33800
#
# Static dielectric constant tensor:
#      x y z
#    x 1.843240 0.000000 0.000000 
#    y 0.000000 1.839110 0.000000 
#    z 0.000000 0.000000 1.842180 
# 
# From -- ./inp_files/20551.got.cif
#   From: 2010.05.17/outbox.cif.g08.bks.cpg/sg57_11_cif.got.tgz:20551.got - 2010.06.03 13:58:18.
