data_PCOD9434905
_publ_section_title
;
Structure prediction by ZEFSAII (Michael W. Deem and Ramdas Pophale) SiO2 
 PCOD9434905
Probable space group: P B C M
;
_chemical_formula_sum "Si O2"
_cell_formula_units_Z 56
_cell_length_a 14.171419
_cell_length_b 29.388564
_cell_length_c 8.095670
_cell_angle_alpha 90.000000
_cell_angle_beta 90.000000
_cell_angle_gamma 90.000000
_cell_volume 3371.665651
_symmetry_space_group_name_H-M "P B C M"
_symmetry_group_IT_number 57
_symmetry_cell_setting 'orthorhombic'
loop_
_space_group_symop_operation_xyz
x,y,z
-x,-y,1/2+z
x,1/2-y,-z
-x,1/2+y,1/2-z
-x,-y,-z
x,y,1/2-z
-x,1/2+y,z
x,1/2-y,1/2+z
loop_
_atom_site_type_symbol
_atom_site_label
_atom_site_fract_x
_atom_site_fract_y
_atom_site_fract_z
Si Si1 0.600159 0.518695 0.944683
Si Si2 0.219066 0.535652 0.942599
Si Si3 0.229312 0.300088 0.449617
Si Si4 0.892343 0.549370 0.946047
Si Si5 0.925203 0.105935 0.547447
Si Si6 0.298477 0.393730 0.447366
Si Si7 0.011012 0.300156 0.449019
O O1 0.595265 0.524782 0.750000
O O2 0.630913 0.568024 0.017488
O O3 0.500000 0.500000 0.000000
O O4 0.686069 0.483913 0.978119
O O5 0.239415 0.541548 0.750000
O O6 0.171227 0.581832 0.007968
O O7 0.139695 0.496407 0.964220
O O8 0.262002 0.250000 0.500000
O O9 0.227357 0.302312 0.250000
O O10 0.291253 0.342433 0.512468
O O11 0.120058 0.305255 0.506654
O O12 0.900191 0.539390 0.750000
O O13 0.805670 0.584501 0.965167
O O14 0.987173 0.573846 0.003065
O O15 0.924732 0.105681 0.750000
O O16 0.948628 0.157174 0.493515
O O17 0.316378 0.390278 0.250000
O O18 0.978020 0.250000 0.500000
O O19 0.013173 0.301956 0.250000
#
# Coordination Sequence:
#
# PCOD9434905 Si02
#       7
#     8   8   8   8   8   8   8
#     4  10  20  35  53  69  88 115 147 185 232 280
#     4  10  19  29  43  67  92 116 150 187 221 266
#     4   9  15  25  41  61  87 119 153 182 210 252
#     4   9  15  27  43  60  87 125 158 182 215 257
#     4   9  16  27  44  62  88 126 159 184 219 267
#     4   8  14  26  45  64  85 119 152 174 212 271
#     4   9  16  27  42  60  86 122 160 191 219 255
#
# _framework density 16.609000999999999
#
# number of rings (size 3 to 8) (size 9 to 14) (size 15 to 20)
#    0.000    2.857    1.429    2.143    0.000    0.000 
#    0.000    6.429    0.000    0.000    0.000    1.000 
#    0.000    0.000    0.000    0.000    0.000    0.000 
#
# Total GULP energy -311888.543232 kJ/mol
# GULP energy per Si atom -5569.438272 kJ/mol
# Density = 1.657120 g / cm^3
# Si number density = 16.609001 Si / 1000 Ang^3
#
#
#
# Elastic Constant Matrix: (Units=GPa)
#
#
# Indices 1 2 3 4 5 6 
#
# 1 73.1517 75.5327 7.7802 0.0000 0.0000 0.0000
# 2 75.5327 143.8901 9.8559 0.0000 0.0000 0.0000
# 3 7.7802 9.8559 10.3604 0.0000 0.0000 0.0000
# 4 0.0000 0.0000 0.0000 20.2428 0.0000 0.0000
# 5 0.0000 0.0000 0.0000 0.0000 15.5577 0.0000
# 6 0.0000 0.0000 0.0000 0.0000 0.0000 18.1354
#
#
#
# Elastic Compliance Matrix: (Units=1/GPa)
#
#
# Indices 1 2 3 4 5 6 
#
# 1 0.030487 -0.015442 -0.008205 0.000000 0.000000 0.000000
# 2 -0.015442 0.015255 -0.002916 0.000000 0.000000 0.000000
# 3 -0.008205 -0.002916 0.105458 0.000000 0.000000 0.000000
# 4 0.000000 0.000000 0.000000 0.049400 0.000000 0.000000
# 5 0.000000 0.000000 0.000000 0.000000 0.064277 0.000000
# 6 0.000000 0.000000 0.000000 0.000000 0.000000 0.055141
#
#
# Mechanical properties :
#
#
# Convention : Reuss Voigt Hill
#
# Bulk Modulus (GPa) = 10.19638 45.97110 28.08374
# Shear Modulus (GPa) = 12.32026 19.73606 16.02816
#
# Velocity S-wave (km/s) = 2.72652 3.45088 3.10986
# Velocity P-wave (km/s) = 4.00803 6.60428 5.46264
#
# Compressibility (1/GPa) = 0.09807407
#
# Stress axis : x y z
#
# Youngs Moduli (GPa) = 32.80063 65.55056 9.48249
#
# Poissons Ratio (x) = 1.01222 0.07780
# Poissons Ratio (y) = 0.50650 0.02765
# Poissons Ratio (z) = 0.26913 0.19117
#
# Static dielectric constant tensor:
#      x y z
#    x 1.553700 0.000000 0.000000 
#    y 0.000000 1.613260 0.000000 
#    z 0.000000 0.000000 1.594440 
# 
# From -- ./inp_files/5880.got.cif
#   From: 2010.05.17/outbox.cif.g08.bks.cpg/sg57_3_cif.got.tgz:5880.got - 2010.06.03 13:58:18.
