data_PCOD9434964
_publ_section_title
;
Structure prediction by ZEFSAII (Michael W. Deem and Ramdas Pophale) SiO2 
 PCOD9434964
Probable space group: P B C M
;
_chemical_formula_sum "Si O2"
_cell_formula_units_Z 64
_cell_length_a 12.293385
_cell_length_b 34.739086
_cell_length_c 7.680673
_cell_angle_alpha 90.000000
_cell_angle_beta 90.000000
_cell_angle_gamma 90.000000
_cell_volume 3280.115575
_symmetry_space_group_name_H-M "P B C M"
_symmetry_group_IT_number 57
_symmetry_cell_setting 'orthorhombic'
loop_
_space_group_symop_operation_xyz
x,y,z
-x,-y,1/2+z
x,1/2-y,-z
-x,1/2+y,1/2-z
-x,-y,-z
x,y,1/2-z
-x,1/2+y,z
x,1/2-y,1/2+z
loop_
_atom_site_type_symbol
_atom_site_label
_atom_site_fract_x
_atom_site_fract_y
_atom_site_fract_z
Si Si1 0.813806 0.131028 0.545903
Si Si2 0.054016 0.706755 0.043380
Si Si3 0.586678 0.395755 0.545202
Si Si4 0.855363 0.661446 0.037952
Si Si5 0.383101 0.518656 0.459506
Si Si6 0.988947 0.915590 0.046345
Si Si7 0.220677 0.045912 0.961589
Si Si8 0.353178 0.123844 0.042763
O O1 0.804187 0.123395 0.750000
O O2 0.869915 0.172528 0.524823
O O3 0.693707 0.129690 0.470512
O O4 0.894599 0.097680 0.470516
O O5 0.055807 0.702830 0.250000
O O6 0.930420 0.697087 0.983235
O O7 0.086277 0.750000 0.000000
O O8 0.565012 0.401923 0.750000
O O9 0.614530 0.437919 0.471424
O O10 0.474978 0.378614 0.470342
O O11 0.855373 0.659730 0.250000
O O12 0.731874 0.655866 0.976049
O O13 0.919683 0.623898 0.970459
O O14 0.500000 0.500000 0.500000
O O15 0.371763 0.519619 0.250000
O O16 0.284461 0.491850 0.523837
O O17 0.005693 0.924508 0.250000
O O18 0.903371 0.946990 0.974585
O O19 0.216578 0.045616 0.750000
O O20 0.294655 0.082609 0.013527
O O21 0.360683 0.130209 0.250000
#
# Coordination Sequence:
#
# PCOD9434964 Si02
#       8
#     8   8   8   8   8   8   8   8
#     4  10  20  34  51  71  97 130 170 208 241 289
#     4  10  19  33  55  81 105 126 152 189 235 285
#     4  10  20  32  46  67  98 135 171 209 252 297
#     4   8  15  27  46  72  97 121 151 188 230 281
#     4  10  19  30  45  67  95 127 166 213 260 305
#     4   8  15  28  45  65  90 121 157 201 249 290
#     4   9  16  27  45  67  91 120 158 207 260 302
#     4   9  16  28  46  68  95 126 160 197 241 293
#
# _framework density 19.511507000000002
#
# number of rings (size 3 to 8) (size 9 to 14) (size 15 to 20)
#    0.000    2.750    1.250    0.750    0.000    2.000 
#    0.000    0.625    0.000    0.750    0.000    1.750 
#    0.000    0.000    0.000    0.000    0.000    0.000 
#
# Total GULP energy -356417.378940 kJ/mol
# GULP energy per Si atom -5569.021546 kJ/mol
# Density = 1.946710 g / cm^3
# Si number density = 19.511507 Si / 1000 Ang^3
#
#
#
# Elastic Constant Matrix: (Units=GPa)
#
#
# Indices 1 2 3 4 5 6 
#
# 1 108.6797 23.2023 -7.1105 0.0000 0.0000 0.0000
# 2 23.2023 45.3224 -9.7912 0.0000 0.0000 0.0000
# 3 -7.1105 -9.7912 28.8569 0.0000 0.0000 0.0000
# 4 0.0000 0.0000 0.0000 11.8180 0.0000 0.0000
# 5 0.0000 0.0000 0.0000 0.0000 20.1366 0.0000
# 6 0.0000 0.0000 0.0000 0.0000 0.0000 21.4025
#
#
#
# Elastic Compliance Matrix: (Units=1/GPa)
#
#
# Indices 1 2 3 4 5 6 
#
# 1 0.010348 -0.005122 0.000812 0.000000 0.000000 0.000000
# 2 -0.005122 0.026345 0.007677 0.000000 0.000000 0.000000
# 3 0.000812 0.007677 0.037458 0.000000 0.000000 0.000000
# 4 0.000000 0.000000 0.000000 0.084617 0.000000 0.000000
# 5 0.000000 0.000000 0.000000 0.000000 0.049661 0.000000
# 6 0.000000 0.000000 0.000000 0.000000 0.000000 0.046724
#
#
# Mechanical properties :
#
#
# Convention : Reuss Voigt Hill
#
# Bulk Modulus (GPa) = 12.36336 21.71780 17.04058
# Shear Modulus (GPa) = 18.15667 22.44199 20.29933
#
# Velocity S-wave (km/s) = 3.05382 3.39513 3.22899
# Velocity P-wave (km/s) = 4.33412 5.15016 4.75966
#
# Compressibility (1/GPa) = 0.08088414
#
# Stress axis : x y z
#
# Youngs Moduli (GPa) = 96.63695 37.95814 26.69622
#
# Poissons Ratio (x) = 0.19443 -0.02167
# Poissons Ratio (y) = 0.49499 -0.20494
# Poissons Ratio (z) = -0.07846 -0.29139
#
# Static dielectric constant tensor:
#      x y z
#    x 1.750650 0.000000 0.000000 
#    y 0.000000 1.662800 0.000000 
#    z 0.000000 0.000000 1.702770 
# 
# From -- ./inp_files/3828.got.cif
#   From: 2010.05.17/outbox.cif.g08.bks.cpg/sg57_2_cif.got.tgz:3828.got - 2010.06.03 13:58:18.
