data_PCOD9434551
_publ_section_title
;
Structure prediction by ZEFSAII (Michael W. Deem and Ramdas Pophale) SiO2 
 PCOD9434551
Probable space group: P B C M
;
_chemical_formula_sum "Si O2"
_cell_formula_units_Z 40
_cell_length_a 26.716206
_cell_length_b 9.205131
_cell_length_c 8.600429
_cell_angle_alpha 90.000000
_cell_angle_beta 90.000000
_cell_angle_gamma 90.000000
_cell_volume 2115.070616
_symmetry_space_group_name_H-M "P B C M"
_symmetry_group_IT_number 57
_symmetry_cell_setting 'orthorhombic'
loop_
_space_group_symop_operation_xyz
x,y,z
-x,-y,1/2+z
x,1/2-y,-z
-x,1/2+y,1/2-z
-x,-y,-z
x,y,1/2-z
-x,1/2+y,z
x,1/2-y,1/2+z
loop_
_atom_site_type_symbol
_atom_site_label
_atom_site_fract_x
_atom_site_fract_y
_atom_site_fract_z
Si Si1 0.251741 0.084586 0.564149
Si Si2 0.547917 0.413389 0.936492
Si Si3 0.047420 0.587488 0.563741
Si Si4 0.147460 0.414130 0.936735
Si Si5 0.643449 0.915142 0.936274
O O1 0.250707 0.250000 0.500000
O O2 0.253821 0.085908 0.750000
O O3 0.199054 0.021767 0.505708
O O4 0.303190 0.022880 0.495107
O O5 0.547398 0.413414 0.750000
O O6 0.546198 0.250000 0.000000
O O7 0.500000 0.500000 0.000000
O O8 0.597714 0.492198 0.998156
O O9 0.046799 0.750000 0.500000
O O10 0.044848 0.590116 0.750000
O O11 0.098928 0.506818 0.519194
O O12 0.000000 0.500000 0.500000
O O13 0.151691 0.407941 0.750000
O O14 0.141341 0.250000 0.000000
O O15 0.642677 0.911412 0.750000
O O16 0.639003 0.750000 0.000000
#
# Coordination Sequence:
#
# PCOD9434551 Si02
#       5
#     8   8   8   8   8
#     4  10  18  31  54  84 115 151 191 235 282 337
#     4  12  25  43  63  88 118 153 194 239 290 345
#     4  11  24  40  60  84 114 149 190 236 288 343
#     4  10  20  35  56  84 114 149 189 234 283 338
#     4  11  21  37  60  88 120 156 195 240 287 339
#
# _framework density 18.911898000000001
#
# number of rings (size 3 to 8) (size 9 to 14) (size 15 to 20)
#    0.000    1.200    0.000   10.200    0.000    4.800 
#    0.000    1.000    0.000    2.400    0.000    0.000 
#    0.000    0.000    0.000    0.000    0.000    0.000 
#
# Total GULP energy -223621.285078 kJ/mol
# GULP energy per Si atom -5590.532127 kJ/mol
# Density = 1.886885 g / cm^3
# Si number density = 18.911898 Si / 1000 Ang^3
#
#
#
# Elastic Constant Matrix: (Units=GPa)
#
#
# Indices 1 2 3 4 5 6 
#
# 1 238.4319 96.7654 94.7197 0.0000 0.0000 0.0000
# 2 96.7654 109.1476 52.6805 0.0000 0.0000 0.0000
# 3 94.7197 52.6805 171.9839 0.0000 0.0000 0.0000
# 4 0.0000 0.0000 0.0000 29.8384 0.0000 0.0000
# 5 0.0000 0.0000 0.0000 0.0000 34.7913 0.0000
# 6 0.0000 0.0000 0.0000 0.0000 0.0000 31.0692
#
#
#
# Elastic Compliance Matrix: (Units=1/GPa)
#
#
# Indices 1 2 3 4 5 6 
#
# 1 0.007304 -0.005320 -0.002393 0.000000 0.000000 0.000000
# 2 -0.005320 0.014627 -0.001550 0.000000 0.000000 0.000000
# 3 -0.002393 -0.001550 0.007607 0.000000 0.000000 0.000000
# 4 0.000000 0.000000 0.000000 0.033514 0.000000 0.000000
# 5 0.000000 0.000000 0.000000 0.000000 0.028743 0.000000
# 6 0.000000 0.000000 0.000000 0.000000 0.000000 0.032186
#
#
# Mechanical properties :
#
#
# Convention : Reuss Voigt Hill
#
# Bulk Modulus (GPa) = 90.81762 111.98829 101.40295
# Shear Modulus (GPa) = 34.20480 37.49963 35.85222
#
# Velocity S-wave (km/s) = 4.25742 4.45776 4.35874
# Velocity P-wave (km/s) = 8.50254 9.26498 8.89194
#
# Compressibility (1/GPa) = 0.01101108
#
# Stress axis : x y z
#
# Youngs Moduli (GPa) = 136.91294 68.36706 131.45381
#
# Poissons Ratio (x) = 0.36374 0.31456
# Poissons Ratio (y) = 0.72843 0.20378
# Poissons Ratio (z) = 0.32762 0.10598
#
# Static dielectric constant tensor:
#      x y z
#    x 1.682410 0.000000 0.000000 
#    y 0.000000 1.643860 0.000000 
#    z 0.000000 0.000000 1.630690 
# 
# From -- ./inp_files/9646.got.cif
#   From: 2010.05.17/outbox.cif.g08.bks.cpg/sg57_5_cif.got.tgz:9646.got - 2010.06.03 13:58:18.
