data_PCOD9434447
_publ_section_title
;
Structure prediction by ZEFSAII (Michael W. Deem and Ramdas Pophale) SiO2 
 PCOD9434447
Probable space group: P B C M
;
_chemical_formula_sum "Si O2"
_cell_formula_units_Z 64
_cell_length_a 10.466177
_cell_length_b 19.019075
_cell_length_c 19.839063
_cell_angle_alpha 90.000000
_cell_angle_beta 90.000000
_cell_angle_gamma 90.000000
_cell_volume 3949.104469
_symmetry_space_group_name_H-M "P B C M"
_symmetry_group_IT_number 57
_symmetry_cell_setting 'orthorhombic'
loop_
_space_group_symop_operation_xyz
x,y,z
-x,-y,1/2+z
x,1/2-y,-z
-x,1/2+y,1/2-z
-x,-y,-z
x,y,1/2-z
-x,1/2+y,z
x,1/2-y,1/2+z
loop_
_atom_site_type_symbol
_atom_site_label
_atom_site_fract_x
_atom_site_fract_y
_atom_site_fract_z
Si Si1 0.717272 0.849177 0.170226
Si Si2 0.716911 0.782011 0.574258
Si Si3 0.979555 0.348009 0.170941
Si Si4 0.978148 0.218783 0.425736
Si Si5 0.876817 0.067557 0.433479
Si Si6 0.628312 0.979923 0.088395
Si Si7 0.371480 0.437670 0.931076
Si Si8 0.876556 0.026094 0.589501
O O1 0.696920 0.841288 0.250000
O O2 0.687417 0.777898 0.129237
O O3 0.641884 0.915130 0.139438
O O4 0.869229 0.863033 0.158557
O O5 0.691766 0.750000 0.500000
O O6 0.643337 0.855168 0.583776
O O7 0.869598 0.797652 0.577310
O O8 0.961743 0.337624 0.250000
O O9 0.949489 0.278206 0.128922
O O10 0.897834 0.412562 0.142949
O O11 0.954011 0.250000 0.500000
O O12 0.898338 0.148304 0.415364
O O13 0.872361 0.060434 0.514835
O O14 0.750189 0.031034 0.405439
O O15 0.000152 0.024030 0.409810
O O16 0.500238 0.025509 0.094347
O O17 0.632346 0.947957 0.012442
O O18 0.250029 0.479972 0.902476
#
# Coordination Sequence:
#
# PCOD9434447 Si02
#       8
#     8   8   8   8   8   8   8   8
#     4  10  20  35  55  79 108 147 184 217 273 340
#     4  10  18  31  55  80 108 139 178 229 272 317
#     4  10  20  34  52  80 113 143 178 227 281 328
#     4  10  18  30  52  82 107 140 181 228 271 322
#     4  10  18  30  55  80 105 134 179 224 268 313
#     4  10  20  35  53  81 114 141 179 226 268 325
#     4  10  20  34  55  84 110 139 180 231 273 307
#     4  10  18  31  53  81 105 134 177 223 269 321
#
# _framework density 16.206206999999999
#
# number of rings (size 3 to 8) (size 9 to 14) (size 15 to 20)
#    0.000    2.000    5.000    0.000    0.000    0.000 
#    0.000    5.000    0.000    0.000    0.000    0.000 
#    0.000    0.000    0.000    0.000    0.000    0.000 
#
# Total GULP energy -357005.708909 kJ/mol
# GULP energy per Si atom -5578.214202 kJ/mol
# Density = 1.616932 g / cm^3
# Si number density = 16.206207 Si / 1000 Ang^3
#
#
#
# Elastic Constant Matrix: (Units=GPa)
#
#
# Indices 1 2 3 4 5 6 
#
# 1 95.4130 68.1149 40.8129 0.0000 0.0000 0.0000
# 2 68.1149 161.4123 69.6194 0.0000 0.0000 0.0000
# 3 40.8129 69.6194 72.7537 0.0000 0.0000 0.0000
# 4 0.0000 0.0000 0.0000 25.0089 0.0000 0.0000
# 5 0.0000 0.0000 0.0000 0.0000 12.9009 0.0000
# 6 0.0000 0.0000 0.0000 0.0000 0.0000 24.5909
#
#
#
# Elastic Compliance Matrix: (Units=1/GPa)
#
#
# Indices 1 2 3 4 5 6 
#
# 1 0.015721 -0.004820 -0.004207 0.000000 0.000000 0.000000
# 2 -0.004820 0.012027 -0.008805 0.000000 0.000000 0.000000
# 3 -0.004207 -0.008805 0.024531 0.000000 0.000000 0.000000
# 4 0.000000 0.000000 0.000000 0.039986 0.000000 0.000000
# 5 0.000000 0.000000 0.000000 0.000000 0.077514 0.000000
# 6 0.000000 0.000000 0.000000 0.000000 0.000000 0.040665
#
#
# Mechanical properties :
#
#
# Convention : Reuss Voigt Hill
#
# Bulk Modulus (GPa) = 60.18603 76.29705 68.24154
# Shear Modulus (GPa) = 19.86916 22.56892 21.21904
#
# Velocity S-wave (km/s) = 3.50526 3.73582 3.62237
# Velocity P-wave (km/s) = 7.32125 8.11108 7.72626
#
# Compressibility (1/GPa) = 0.01661515
#
# Stress axis : x y z
#
# Youngs Moduli (GPa) = 63.60907 83.14677 40.76490
#
# Poissons Ratio (x) = 0.40073 0.17150
# Poissons Ratio (y) = 0.30657 0.35894
# Poissons Ratio (z) = 0.26761 0.73212
#
# Static dielectric constant tensor:
#      x y z
#    x 1.534920 0.000000 0.000000 
#    y 0.000000 1.524880 0.000000 
#    z 0.000000 0.000000 1.527100 
# 
# From -- ./inp_files/21399.got.cif
#   From: 2010.05.17/outbox.cif.g08.bks.cpg/sg57_11_cif.got.tgz:21399.got - 2010.06.03 13:58:18.
