data_PCOD9434789
_publ_section_title
;
Structure prediction by ZEFSAII (Michael W. Deem and Ramdas Pophale) SiO2 
 PCOD9434789
Probable space group: P B C M
;
_chemical_formula_sum "Si O2"
_cell_formula_units_Z 64
_cell_length_a 8.818838
_cell_length_b 10.465299
_cell_length_c 29.650718
_cell_angle_alpha 90.000000
_cell_angle_beta 90.000000
_cell_angle_gamma 90.000000
_cell_volume 2736.517439
_symmetry_space_group_name_H-M "P B C M"
_symmetry_group_IT_number 57
_symmetry_cell_setting 'orthorhombic'
loop_
_space_group_symop_operation_xyz
x,y,z
-x,-y,1/2+z
x,1/2-y,-z
-x,1/2+y,1/2-z
-x,-y,-z
x,y,1/2-z
-x,1/2+y,z
x,1/2-y,1/2+z
loop_
_atom_site_type_symbol
_atom_site_label
_atom_site_fract_x
_atom_site_fract_y
_atom_site_fract_z
Si Si1 0.520294 0.010015 0.926255
Si Si2 0.893732 0.299898 0.628989
Si Si3 0.669902 0.238098 0.451020
Si Si4 0.921674 0.871397 0.300079
Si Si5 0.625382 0.842944 0.350318
Si Si6 0.345412 0.724591 0.198383
Si Si7 0.209184 0.011878 0.297462
Si Si8 0.206724 0.132387 0.392967
O O1 0.407073 0.901425 0.944578
O O2 0.687885 0.948075 0.925716
O O3 0.544731 0.148450 0.948932
O O4 0.464252 0.045374 0.875747
O O5 0.787276 0.241275 0.590101
O O6 0.770532 0.348566 0.665355
O O7 0.998206 0.207707 0.659832
O O8 0.025165 0.379832 0.603529
O O9 0.744008 0.250000 0.500000
O O10 0.938792 0.812536 0.250000
O O11 0.746872 0.881923 0.312655
O O12 0.026657 0.996402 0.297707
O O13 0.502103 0.749818 0.327469
O O14 0.723593 0.774321 0.389852
O O15 0.357559 0.676621 0.250000
O O16 0.276325 0.869074 0.201455
O O17 0.259226 0.070556 0.250000
O O18 0.243833 0.083653 0.342542
#
# Coordination Sequence:
#
# PCOD9434789 Si02
#       8
#     8   8   8   8   8   8   8   8
#     4  12  23  48  74 108 140 187 231 295 372 439
#     4  10  21  40  65  98 136 190 232 295 353 427
#     4  12  27  50  79 110 143 183 240 306 372 439
#     4   9  19  36  62  97 143 192 243 293 353 425
#     4  11  21  37  67  97 137 185 237 289 350 418
#     4  10  18  35  60  89 134 184 235 287 347 414
#     4   9  18  32  52  85 131 183 231 283 338 405
#     4  11  22  38  66  96 134 186 233 287 357 424
#
# _framework density 23.387388000000001
#
# number of rings (size 3 to 8) (size 9 to 14) (size 15 to 20)
#    0.000    1.500    3.750    2.625    1.750    3.000 
#    0.000    1.250    0.000    0.000    0.000    0.000 
#    0.000    0.000    0.000    0.000    0.000    0.000 
#
# Total GULP energy -357009.666235 kJ/mol
# GULP energy per Si atom -5578.276035 kJ/mol
# Density = 2.333416 g / cm^3
# Si number density = 23.387388 Si / 1000 Ang^3
#
#
#
# Elastic Constant Matrix: (Units=GPa)
#
#
# Indices 1 2 3 4 5 6 
#
# 1 124.3877 14.5502 18.0331 0.0000 0.0000 0.0000
# 2 14.5502 62.3928 3.5894 0.0000 0.0000 0.0000
# 3 18.0331 3.5894 86.1521 0.0000 0.0000 0.0000
# 4 0.0000 0.0000 0.0000 13.0900 0.0000 0.0000
# 5 0.0000 0.0000 0.0000 0.0000 19.4547 0.0000
# 6 0.0000 0.0000 0.0000 0.0000 0.0000 39.4484
#
#
#
# Elastic Compliance Matrix: (Units=1/GPa)
#
#
# Indices 1 2 3 4 5 6 
#
# 1 0.008507 -0.001886 -0.001702 0.000000 0.000000 0.000000
# 2 -0.001886 0.016484 -0.000292 0.000000 0.000000 0.000000
# 3 -0.001702 -0.000292 0.011976 0.000000 0.000000 0.000000
# 4 0.000000 0.000000 0.000000 0.076394 0.000000 0.000000
# 5 0.000000 0.000000 0.000000 0.000000 0.051401 0.000000
# 6 0.000000 0.000000 0.000000 0.000000 0.000000 0.025350
#
#
# Mechanical properties :
#
#
# Convention : Reuss Voigt Hill
#
# Bulk Modulus (GPa) = 34.23868 38.36422 36.30145
# Shear Modulus (GPa) = 24.08395 30.18262 27.13328
#
# Velocity S-wave (km/s) = 3.21251 3.59632 3.40982
# Velocity P-wave (km/s) = 5.33215 5.80380 5.57297
#
# Compressibility (1/GPa) = 0.02920673
#
# Stress axis : x y z
#
# Youngs Moduli (GPa) = 117.55394 60.66455 83.50170
#
# Poissons Ratio (x) = 0.11441 0.14212
# Poissons Ratio (y) = 0.22169 0.02439
# Poissons Ratio (z) = 0.20008 0.01772
#
# Static dielectric constant tensor:
#      x y z
#    x 1.921590 0.000000 0.000000 
#    y 0.000000 2.015090 0.000000 
#    z 0.000000 0.000000 1.900750 
# 
# From -- ./inp_files/29611.got.cif
#   From: 2010.05.17/outbox.cif.g08.bks.cpg/sg57_15_cif.got.tgz:29611.got - 2010.06.03 13:58:18.
