data_PCOD9434248
_publ_section_title
;
Structure prediction by ZEFSAII (Michael W. Deem and Ramdas Pophale) SiO2 
 PCOD9434248
Probable space group: P B C M
;
_chemical_formula_sum "Si O2"
_cell_formula_units_Z 64
_cell_length_a 18.859872
_cell_length_b 24.977102
_cell_length_c 9.211321
_cell_angle_alpha 90.000000
_cell_angle_beta 90.000000
_cell_angle_gamma 90.000000
_cell_volume 4339.130435
_symmetry_space_group_name_H-M "P B C M"
_symmetry_group_IT_number 57
_symmetry_cell_setting 'orthorhombic'
loop_
_space_group_symop_operation_xyz
x,y,z
-x,-y,1/2+z
x,1/2-y,-z
-x,1/2+y,1/2-z
-x,-y,-z
x,y,1/2-z
-x,1/2+y,z
x,1/2-y,1/2+z
loop_
_atom_site_type_symbol
_atom_site_label
_atom_site_fract_x
_atom_site_fract_y
_atom_site_fract_z
Si Si1 0.488336 0.086132 0.423445
Si Si2 0.042378 0.422713 0.417126
Si Si3 0.906528 0.047318 0.083285
Si Si4 0.556899 0.694189 0.921476
Si Si5 0.393521 0.515171 0.923910
Si Si6 0.179652 0.107776 0.419840
Si Si7 0.770788 0.015468 0.919886
Si Si8 0.726965 0.805045 0.420382
O O1 0.494168 0.092896 0.250000
O O2 0.476769 0.142606 0.501598
O O3 0.556363 0.055498 0.488521
O O4 0.422801 0.044993 0.451605
O O5 0.040593 0.405309 0.250000
O O6 0.067433 0.485128 0.418089
O O7 0.101878 0.392124 0.508856
O O8 0.965331 0.421534 0.490422
O O9 0.905737 0.064976 0.250000
O O10 0.828719 0.047146 0.013154
O O11 0.539950 0.696148 0.750000
O O12 0.642178 0.688183 0.935555
O O13 0.537392 0.750000 0.000000
O O14 0.401232 0.524111 0.750000
O O15 0.311158 0.521634 0.962684
O O16 0.176471 0.121443 0.250000
O O17 0.231613 0.146956 0.504442
O O18 0.209303 0.047285 0.431770
O O19 0.778125 0.029969 0.750000
O O20 0.746328 0.750000 0.500000
O O21 0.743442 0.802309 0.250000
#
# Coordination Sequence:
#
# PCOD9434248 Si02
#       8
#     8   8   8   8   8   8   8   8
#     4  10  19  31  47  66  89 117 150 187 226 268
#     4   9  16  26  39  56  80 110 142 172 205 246
#     4   9  16  25  38  57  81 108 139 175 210 244
#     4  10  20  33  49  67  88 115 148 186 226 268
#     4   9  18  31  45  63  89 121 153 184 222 269
#     4  10  18  28  43  62  85 113 145 180 216 255
#     4   9  17  28  42  60  84 115 147 178 215 259
#     4  10  20  32  45  62  84 111 143 179 218 257
#
# _framework density 14.749499
#
# number of rings (size 3 to 8) (size 9 to 14) (size 15 to 20)
#    0.000    2.500    0.000    3.000    0.000    7.000 
#    0.000    0.000    0.000    0.000    0.000    0.000 
#    0.000    1.000    0.000    5.500    0.000    6.125 
#
# Total GULP energy -356785.494200 kJ/mol
# GULP energy per Si atom -5574.773347 kJ/mol
# Density = 1.471593 g / cm^3
# Si number density = 14.749499 Si / 1000 Ang^3
#
#
#
# Elastic Constant Matrix: (Units=GPa)
#
#
# Indices 1 2 3 4 5 6 
#
# 1 94.2712 26.5247 58.1904 0.0000 0.0000 0.0000
# 2 26.5247 64.9318 49.9221 0.0000 0.0000 0.0000
# 3 58.1904 49.9221 110.6589 0.0000 0.0000 0.0000
# 4 0.0000 0.0000 0.0000 22.9576 0.0000 0.0000
# 5 0.0000 0.0000 0.0000 0.0000 26.7951 0.0000
# 6 0.0000 0.0000 0.0000 0.0000 0.0000 15.8009
#
#
#
# Elastic Compliance Matrix: (Units=1/GPa)
#
#
# Indices 1 2 3 4 5 6 
#
# 1 0.015706 -0.000101 -0.008213 0.000000 0.000000 0.000000
# 2 -0.000101 0.023580 -0.010585 0.000000 0.000000 0.000000
# 3 -0.008213 -0.010585 0.018131 0.000000 0.000000 0.000000
# 4 0.000000 0.000000 0.000000 0.043559 0.000000 0.000000
# 5 0.000000 0.000000 0.000000 0.000000 0.037320 0.000000
# 6 0.000000 0.000000 0.000000 0.000000 0.000000 0.063288
#
#
# Mechanical properties :
#
#
# Convention : Reuss Voigt Hill
#
# Bulk Modulus (GPa) = 50.97198 59.90405 55.43801
# Shear Modulus (GPa) = 20.33172 22.12568 21.22870
#
# Velocity S-wave (km/s) = 3.71680 3.87731 3.79790
# Velocity P-wave (km/s) = 7.28375 7.79405 7.54321
#
# Compressibility (1/GPa) = 0.01961862
#
# Stress axis : x y z
#
# Youngs Moduli (GPa) = 63.66977 42.40897 55.15432
#
# Poissons Ratio (x) = 0.00429 0.45301
# Poissons Ratio (y) = 0.00644 0.58379
# Poissons Ratio (z) = 0.52295 0.44888
#
# Static dielectric constant tensor:
#      x y z
#    x 1.477140 0.000000 0.000000 
#    y 0.000000 1.460080 0.000000 
#    z 0.000000 0.000000 1.492050 
# 
# From -- ./inp_files/7397.got.cif
#   From: 2010.05.17/outbox.cif.g08.bks.cpg/sg57_4_cif.got.tgz:7397.got - 2010.06.03 13:58:18.
