data_PCOD9434802
_publ_section_title
;
Structure prediction by ZEFSAII (Michael W. Deem and Ramdas Pophale) SiO2 
 PCOD9434802
Probable space group: P B C M
;
_chemical_formula_sum "Si O2"
_cell_formula_units_Z 64
_cell_length_a 21.660555
_cell_length_b 8.648067
_cell_length_c 17.004258
_cell_angle_alpha 90.000000
_cell_angle_beta 90.000000
_cell_angle_gamma 90.000000
_cell_volume 3185.270442
_symmetry_space_group_name_H-M "P B C M"
_symmetry_group_IT_number 57
_symmetry_cell_setting 'orthorhombic'
loop_
_space_group_symop_operation_xyz
x,y,z
-x,-y,1/2+z
x,1/2-y,-z
-x,1/2+y,1/2-z
-x,-y,-z
x,y,1/2-z
-x,1/2+y,z
x,1/2-y,1/2+z
loop_
_atom_site_type_symbol
_atom_site_label
_atom_site_fract_x
_atom_site_fract_y
_atom_site_fract_z
Si Si1 0.086856 0.064712 0.888909
Si Si2 0.987266 0.235001 0.159517
Si Si3 0.228502 0.407040 0.106586
Si Si4 0.893991 0.095686 0.952529
Si Si5 0.568145 0.932376 0.011276
Si Si6 0.226955 0.051746 0.083539
Si Si7 0.642193 0.044210 0.160708
Si Si8 0.659864 0.349736 0.079303
O O1 0.159109 0.048245 0.866690
O O2 0.057668 0.229756 0.866295
O O3 0.043581 0.933012 0.850710
O O4 0.085106 0.027752 0.981982
O O5 0.981216 0.279340 0.250000
O O6 0.948387 0.343375 0.101302
O O7 0.234275 0.222724 0.117245
O O8 0.286598 0.493659 0.144318
O O9 0.231520 0.435596 0.012192
O O10 0.839252 0.023414 0.902474
O O11 0.871504 0.250000 0.000000
O O12 0.598260 0.965166 0.096344
O O13 0.568084 0.750000 0.000000
O O14 0.500000 0.000000 0.000000
O O15 0.611337 0.022230 0.949061
O O16 0.280127 0.936834 0.109405
O O17 0.626212 0.007430 0.250000
O O18 0.636637 0.226213 0.141959
O O19 0.674411 0.250000 0.000000
#
# Coordination Sequence:
#
# PCOD9434802 Si02
#       8
#     8   8   8   8   8   8   8   8
#     4  10  23  40  59  82 115 158 207 266 325 393
#     4  11  23  39  57  78 110 153 200 256 328 396
#     4  10  21  38  62  91 124 163 214 274 331 394
#     4   9  20  36  59  85 113 147 202 263 317 380
#     4  11  22  43  74 104 134 185 233 267 313 383
#     4  10  18  35  64  92 115 159 218 265 312 384
#     4  11  24  41  64 101 144 178 215 280 339 384
#     4  10  19  35  65  94 133 170 216 260 310 387
#
# _framework density 20.092485
#
# number of rings (size 3 to 8) (size 9 to 14) (size 15 to 20)
#    0.000    1.750    2.500    3.000    5.250    1.000 
#    4.500    5.625    0.000    0.000    0.000    0.000 
#    0.000    0.000    0.000    0.000    0.000    0.000 
#
# Total GULP energy -357507.862834 kJ/mol
# GULP energy per Si atom -5586.060357 kJ/mol
# Density = 2.004675 g / cm^3
# Si number density = 20.092485 Si / 1000 Ang^3
#
#
#
# Elastic Constant Matrix: (Units=GPa)
#
#
# Indices 1 2 3 4 5 6 
#
# 1 118.9559 56.9904 40.5706 0.0000 0.0000 0.0000
# 2 56.9904 114.0287 27.6027 0.0000 0.0000 0.0000
# 3 40.5706 27.6027 60.6442 0.0000 0.0000 0.0000
# 4 0.0000 0.0000 0.0000 12.0770 0.0000 0.0000
# 5 0.0000 0.0000 0.0000 0.0000 4.8348 0.0000
# 6 0.0000 0.0000 0.0000 0.0000 0.0000 42.0388
#
#
#
# Elastic Compliance Matrix: (Units=1/GPa)
#
#
# Indices 1 2 3 4 5 6 
#
# 1 0.012955 -0.004919 -0.006428 0.000000 0.000000 0.000000
# 2 -0.004919 0.011723 -0.002045 0.000000 0.000000 0.000000
# 3 -0.006428 -0.002045 0.021721 0.000000 0.000000 0.000000
# 4 0.000000 0.000000 0.000000 0.082802 0.000000 0.000000
# 5 0.000000 0.000000 0.000000 0.000000 0.206833 0.000000
# 6 0.000000 0.000000 0.000000 0.000000 0.000000 0.023788
#
#
# Mechanical properties :
#
#
# Convention : Reuss Voigt Hill
#
# Bulk Modulus (GPa) = 50.98156 60.43959 55.71057
# Shear Modulus (GPa) = 12.71794 23.02114 17.86954
#
# Velocity S-wave (km/s) = 2.51862 3.38858 2.98546
# Velocity P-wave (km/s) = 5.82121 6.74210 6.29851
#
# Compressibility (1/GPa) = 0.01961494
#
# Stress axis : x y z
#
# Youngs Moduli (GPa) = 77.18753 85.30069 46.03850
#
# Poissons Ratio (x) = 0.41959 0.29595
# Poissons Ratio (y) = 0.37968 0.09416
# Poissons Ratio (z) = 0.49618 0.17446
#
# Static dielectric constant tensor:
#      x y z
#    x 1.717220 0.000000 0.000000 
#    y 0.000000 1.751010 0.000000 
#    z 0.000000 0.000000 1.699050 
# 
# From -- ./inp_files/23020.got.cif
#   From: 2010.05.17/outbox.cif.g08.bks.cpg/sg57_12_cif.got.tgz:23020.got - 2010.06.03 13:58:18.
