data_PCOD9434508
_publ_section_title
;
Structure prediction by ZEFSAII (Michael W. Deem and Ramdas Pophale) SiO2 
 PCOD9434508
Probable space group: P B C M
;
_chemical_formula_sum "Si O2"
_cell_formula_units_Z 56
_cell_length_a 15.294651
_cell_length_b 23.271141
_cell_length_c 7.695435
_cell_angle_alpha 90.000000
_cell_angle_beta 90.000000
_cell_angle_gamma 90.000000
_cell_volume 2738.989853
_symmetry_space_group_name_H-M "P B C M"
_symmetry_group_IT_number 57
_symmetry_cell_setting 'orthorhombic'
loop_
_space_group_symop_operation_xyz
x,y,z
-x,-y,1/2+z
x,1/2-y,-z
-x,1/2+y,1/2-z
-x,-y,-z
x,y,1/2-z
-x,1/2+y,z
x,1/2-y,1/2+z
loop_
_atom_site_type_symbol
_atom_site_label
_atom_site_fract_x
_atom_site_fract_y
_atom_site_fract_z
Si Si1 0.921892 0.686072 0.544240
Si Si2 0.098037 0.980316 0.041188
Si Si3 0.603256 0.555317 0.038664
Si Si4 0.407701 0.575664 0.546224
Si Si5 0.112913 0.650739 0.537226
Si Si6 0.697883 0.186494 0.541044
Si Si7 0.210686 0.085313 0.456782
O O1 0.892842 0.750000 0.500000
O O2 0.927691 0.679962 0.750000
O O3 0.853064 0.638646 0.484620
O O4 0.020491 0.676106 0.474644
O O5 0.106227 0.978889 0.250000
O O6 0.115585 0.915821 0.981378
O O7 0.163897 0.028250 0.971377
O O8 0.000000 0.000000 0.000000
O O9 0.597103 0.554870 0.250000
O O10 0.612701 0.488644 0.978157
O O11 0.689765 0.589084 0.981043
O O12 0.512134 0.580695 0.972902
O O13 0.384687 0.572996 0.750000
O O14 0.356990 0.631314 0.474943
O O15 0.112400 0.652450 0.750000
O O16 0.201629 0.681198 0.478136
O O17 0.662960 0.250000 0.500000
O O18 0.699326 0.182295 0.750000
O O19 0.217490 0.077259 0.250000
#
# Coordination Sequence:
#
# PCOD9434508 Si02
#       7
#     8   8   8   8   8   8   8
#     4  11  22  36  53  73 102 140 181 220 258 304
#     4  10  18  31  51  77 107 137 172 213 260 308
#     4   9  18  34  57  82 106 135 171 214 266 320
#     4   9  18  34  56  81 107 137 171 213 266 318
#     4   9  18  33  53  76 105 141 175 212 260 312
#     4  10  20  35  54  77 107 142 179 215 259 314
#     4  10  20  34  54  79 107 139 174 215 262 314
#
# _framework density 20.445495000000001
#
# number of rings (size 3 to 8) (size 9 to 14) (size 15 to 20)
#    0.000    2.286    1.429    1.714    0.000    4.571 
#    0.000    2.143    0.000    5.143    0.000    0.000 
#    0.000    0.000    0.000    0.000    0.000    0.000 
#
# Total GULP energy -312560.030674 kJ/mol
# GULP energy per Si atom -5581.429119 kJ/mol
# Density = 2.039896 g / cm^3
# Si number density = 20.445495 Si / 1000 Ang^3
#
#
#
# Elastic Constant Matrix: (Units=GPa)
#
#
# Indices 1 2 3 4 5 6 
#
# 1 114.2044 42.0586 -6.4580 0.0000 0.0000 0.0000
# 2 42.0586 94.5880 -9.1558 0.0000 0.0000 0.0000
# 3 -6.4580 -9.1558 29.5425 0.0000 0.0000 0.0000
# 4 0.0000 0.0000 0.0000 13.8284 0.0000 0.0000
# 5 0.0000 0.0000 0.0000 0.0000 19.1978 0.0000
# 6 0.0000 0.0000 0.0000 0.0000 0.0000 22.0175
#
#
#
# Elastic Compliance Matrix: (Units=1/GPa)
#
#
# Indices 1 2 3 4 5 6 
#
# 1 0.010493 -0.004581 0.000874 0.000000 0.000000 0.000000
# 2 -0.004581 0.012899 0.002996 0.000000 0.000000 0.000000
# 3 0.000874 0.002996 0.034969 0.000000 0.000000 0.000000
# 4 0.000000 0.000000 0.000000 0.072315 0.000000 0.000000
# 5 0.000000 0.000000 0.000000 0.000000 0.052089 0.000000
# 6 0.000000 0.000000 0.000000 0.000000 0.000000 0.045419
#
#
# Mechanical properties :
#
#
# Convention : Reuss Voigt Hill
#
# Bulk Modulus (GPa) = 17.56248 32.35830 24.96039
# Shear Modulus (GPa) = 20.11381 25.13472 22.62426
#
# Velocity S-wave (km/s) = 3.13992 3.51002 3.33012
# Velocity P-wave (km/s) = 4.66412 5.68225 5.19817
#
# Compressibility (1/GPa) = 0.05693956
#
# Stress axis : x y z
#
# Youngs Moduli (GPa) = 95.30416 77.52453 28.59659
#
# Poissons Ratio (x) = 0.35514 -0.02499
# Poissons Ratio (y) = 0.43659 -0.08568
# Poissons Ratio (z) = -0.08329 -0.23228
#
# Static dielectric constant tensor:
#      x y z
#    x 1.731550 0.000000 0.000000 
#    y 0.000000 1.734240 0.000000 
#    z 0.000000 0.000000 1.771870 
# 
# From -- ./inp_files/5281.got.cif
#   From: 2010.05.17/outbox.cif.g08.bks.cpg/sg57_3_cif.got.tgz:5281.got - 2010.06.03 13:58:18.
