data_PCOD9434458
_publ_section_title
;
Structure prediction by ZEFSAII (Michael W. Deem and Ramdas Pophale) SiO2 
 PCOD9434458
Probable space group: P B C M
;
_chemical_formula_sum "Si O2"
_cell_formula_units_Z 36
_cell_length_a 11.331177
_cell_length_b 11.029852
_cell_length_c 16.444949
_cell_angle_alpha 90.000000
_cell_angle_beta 90.000000
_cell_angle_gamma 90.000000
_cell_volume 2055.309547
_symmetry_space_group_name_H-M "P B C M"
_symmetry_group_IT_number 57
_symmetry_cell_setting 'orthorhombic'
loop_
_space_group_symop_operation_xyz
x,y,z
-x,-y,1/2+z
x,1/2-y,-z
-x,1/2+y,1/2-z
-x,-y,-z
x,y,1/2-z
-x,1/2+y,z
x,1/2-y,1/2+z
loop_
_atom_site_type_symbol
_atom_site_label
_atom_site_fract_x
_atom_site_fract_y
_atom_site_fract_z
Si Si1 0.759816 0.065901 0.340648
Si Si2 0.215680 0.250000 0.000000
Si Si3 0.360446 0.484392 0.994944
Si Si4 0.795923 0.184789 0.913559
Si Si5 0.963962 0.929214 0.416805
O O1 0.724488 0.031754 0.250000
O O2 0.753721 0.209770 0.354551
O O3 0.684781 0.007387 0.413108
O O4 0.892717 0.020684 0.359629
O O5 0.303023 0.356090 0.968430
O O6 0.125926 0.319756 0.060775
O O7 0.500000 0.500000 0.000000
O O8 0.302022 0.586839 0.938009
O O9 0.914390 0.121650 0.882523
O O10 0.827562 0.250000 0.000000
O O11 0.000000 0.000000 0.500000
#
# Coordination Sequence:
#
# PCOD9434458 Si02
#       5
#     8   4   8   8   8
#     4  10  22  36  55  84 119 149 184 246 301 327
#     4  10  18  30  56  86 108 134 192 250 266 324
#     4  10  22  36  60  84 107 152 207 227 276 351
#     4  10  18  33  58  83 107 151 194 229 275 348
#     4  11  16  33  57  87 111 146 191 231 285 350
#
# _framework density 17.515609000000001
#
# number of rings (size 3 to 8) (size 9 to 14) (size 15 to 20)
#    0.000    1.778    7.778    0.000    4.667    0.889 
#    0.000    1.111    0.000    1.333    0.000    0.000 
#    0.000    0.000    0.000    0.000    0.000    0.000 
#
# Total GULP energy -200538.753618 kJ/mol
# GULP energy per Si atom -5570.520934 kJ/mol
# Density = 1.747574 g / cm^3
# Si number density = 17.515609 Si / 1000 Ang^3
#
#
#
# Elastic Constant Matrix: (Units=GPa)
#
#
# Indices 1 2 3 4 5 6 
#
# 1 134.7761 46.8062 6.6484 0.0000 0.0000 0.0000
# 2 46.8062 109.6214 14.6735 0.0000 0.0000 0.0000
# 3 6.6484 14.6735 49.5300 0.0000 0.0000 0.0000
# 4 0.0000 0.0000 0.0000 7.1459 0.0000 0.0000
# 5 0.0000 0.0000 0.0000 0.0000 10.3530 0.0000
# 6 0.0000 0.0000 0.0000 0.0000 0.0000 22.1841
#
#
#
# Elastic Compliance Matrix: (Units=1/GPa)
#
#
# Indices 1 2 3 4 5 6 
#
# 1 0.008712 -0.003710 -0.000070 0.000000 0.000000 0.000000
# 2 -0.003710 0.011079 -0.002784 0.000000 0.000000 0.000000
# 3 -0.000070 -0.002784 0.021024 0.000000 0.000000 0.000000
# 4 0.000000 0.000000 0.000000 0.139940 0.000000 0.000000
# 5 0.000000 0.000000 0.000000 0.000000 0.096591 0.000000
# 6 0.000000 0.000000 0.000000 0.000000 0.000000 0.045077
#
#
# Mechanical properties :
#
#
# Convention : Reuss Voigt Hill
#
# Bulk Modulus (GPa) = 36.11996 47.79820 41.95908
# Shear Modulus (GPa) = 14.50195 22.98988 18.74592
#
# Velocity S-wave (km/s) = 2.88052 3.62683 3.27500
# Velocity P-wave (km/s) = 5.63290 6.69975 6.18935
#
# Compressibility (1/GPa) = 0.02768552
#
# Stress axis : x y z
#
# Youngs Moduli (GPa) = 114.78766 90.25887 47.56454
#
# Poissons Ratio (x) = 0.33489 0.00334
# Poissons Ratio (y) = 0.42590 0.13243
# Poissons Ratio (z) = 0.00805 0.25130
#
# Static dielectric constant tensor:
#      x y z
#    x 1.601170 0.000000 0.000000 
#    y 0.000000 1.643020 0.000000 
#    z 0.000000 0.000000 1.587290 
# 
# From -- ./inp_files/21701.got.cif
#   From: 2010.05.17/outbox.cif.g08.bks.cpg/sg57_11_cif.got.tgz:21701.got - 2010.06.03 13:58:18.
