data_PCOD9434892
_publ_section_title
;
Structure prediction by ZEFSAII (Michael W. Deem and Ramdas Pophale) SiO2 
 PCOD9434892
Probable space group: P B C M
;
_chemical_formula_sum "Si O2"
_cell_formula_units_Z 56
_cell_length_a 13.363374
_cell_length_b 29.648355
_cell_length_c 7.568784
_cell_angle_alpha 90.000000
_cell_angle_beta 90.000000
_cell_angle_gamma 90.000000
_cell_volume 2998.767785
_symmetry_space_group_name_H-M "P B C M"
_symmetry_group_IT_number 57
_symmetry_cell_setting 'orthorhombic'
loop_
_space_group_symop_operation_xyz
x,y,z
-x,-y,1/2+z
x,1/2-y,-z
-x,1/2+y,1/2-z
-x,-y,-z
x,y,1/2-z
-x,1/2+y,z
x,1/2-y,1/2+z
loop_
_atom_site_type_symbol
_atom_site_label
_atom_site_fract_x
_atom_site_fract_y
_atom_site_fract_z
Si Si1 0.129839 0.548173 0.954074
Si Si2 0.812312 0.855104 0.462902
Si Si3 0.380051 0.197720 0.537876
Si Si4 0.098200 0.449256 0.539899
Si Si5 0.795263 0.142127 0.967530
Si Si6 0.009386 0.802964 0.461589
Si Si7 0.395221 0.802259 0.038081
O O1 0.161124 0.544662 0.750000
O O2 0.136543 0.497651 0.029931
O O3 0.188539 0.590824 0.029588
O O4 0.011550 0.560024 0.960707
O O5 0.811437 0.851120 0.250000
O O6 0.708757 0.833940 0.529448
O O7 0.830403 0.907248 0.506238
O O8 0.908472 0.826893 0.529138
O O9 0.356239 0.250000 0.500000
O O10 0.383770 0.192758 0.750000
O O11 0.492425 0.188649 0.469701
O O12 0.082643 0.453934 0.750000
O O13 0.795981 0.141810 0.750000
O O14 0.890642 0.171866 0.025089
O O15 0.692682 0.165346 0.026531
O O16 0.010786 0.750000 0.500000
O O17 0.008686 0.808159 0.250000
O O18 0.398333 0.806985 0.250000
O O19 0.371102 0.750000 0.000000
#
# Coordination Sequence:
#
# PCOD9434892 Si02
#       7
#     8   8   8   8   8   8   8
#     4   9  17  32  49  66  93 124 152 185 230 279
#     4  10  19  32  47  63  92 127 152 181 228 278
#     4   9  18  31  48  69  91 121 157 192 227 264
#     4  10  19  29  47  72  92 116 154 195 229 268
#     4   9  16  29  48  66  89 122 151 180 224 277
#     4  10  19  29  42  62  89 121 148 176 221 270
#     4   9  17  30  48  69  91 118 156 191 222 265
#
# _framework density 18.674337000000001
#
# number of rings (size 3 to 8) (size 9 to 14) (size 15 to 20)
#    0.000    2.571    1.429    1.286    0.000    1.714 
#    0.000    0.714    0.000    0.857    0.000    0.000 
#    0.000    0.000    0.000    0.000    0.000    0.429 
#
# Total GULP energy -312397.751638 kJ/mol
# GULP energy per Si atom -5578.531279 kJ/mol
# Density = 1.863183 g / cm^3
# Si number density = 18.674337 Si / 1000 Ang^3
#
#
#
# Elastic Constant Matrix: (Units=GPa)
#
#
# Indices 1 2 3 4 5 6 
#
# 1 134.7205 107.9627 3.4380 0.0000 0.0000 0.0000
# 2 107.9627 163.2665 -5.3566 0.0000 0.0000 0.0000
# 3 3.4380 -5.3566 43.8772 0.0000 0.0000 0.0000
# 4 0.0000 0.0000 0.0000 15.9183 0.0000 0.0000
# 5 0.0000 0.0000 0.0000 0.0000 -1.4722 0.0000
# 6 0.0000 0.0000 0.0000 0.0000 0.0000 18.0143
#
#
#
# Elastic Compliance Matrix: (Units=1/GPa)
#
#
# Indices 1 2 3 4 5 6 
#
# 1 0.016074 -0.010713 -0.002567 0.000000 0.000000 0.000000
# 2 -0.010713 0.013290 0.002462 0.000000 0.000000 0.000000
# 3 -0.002567 0.002462 0.023293 0.000000 0.000000 0.000000
# 4 0.000000 0.000000 0.000000 0.062821 0.000000 0.000000
# 5 0.000000 0.000000 0.000000 0.000000 -0.679271 0.000000
# 6 0.000000 0.000000 0.000000 0.000000 0.000000 0.055512
#
#
# Mechanical properties :
#
#
# Convention : Reuss Voigt Hill
#
# Bulk Modulus (GPa) = 32.23835 61.55028 46.89432
# Shear Modulus (GPa) = -10.49746 22.21343 5.85798
#
# Velocity S-wave (km/s) = -2.37351 3.45268 1.77306
# Velocity P-wave (km/s) = 3.12883 6.99471 5.41828
#
# Compressibility (1/GPa) = 0.03101896
#
# Stress axis : x y z
#
# Youngs Moduli (GPa) = 62.21349 75.24440 42.93213
#
# Poissons Ratio (x) = 0.80611 0.11022
# Poissons Ratio (y) = 0.66651 -0.10569
# Poissons Ratio (z) = 0.15972 -0.18524
#
# Static dielectric constant tensor:
#      x y z
#    x 1.637870 0.000000 0.000000 
#    y 0.000000 1.639040 0.000000 
#    z 0.000000 0.000000 1.696870 
# 
# From -- ./inp_files/5924.got.cif
#   From: 2010.05.17/outbox.cif.g08.bks.cpg/sg57_3_cif.got.tgz:5924.got - 2010.06.03 13:58:18.
