data_PCOD9434005
_publ_section_title
;
Structure prediction by ZEFSAII (Michael W. Deem and Ramdas Pophale) SiO2 
 PCOD9434005
Probable space group: P B C M
;
_chemical_formula_sum "Si O2"
_cell_formula_units_Z 48
_cell_length_a 22.145466
_cell_length_b 5.556481
_cell_length_c 18.347947
_cell_angle_alpha 90.000000
_cell_angle_beta 90.000000
_cell_angle_gamma 90.000000
_cell_volume 2257.730677
_symmetry_space_group_name_H-M "P B C M"
_symmetry_group_IT_number 57
_symmetry_cell_setting 'orthorhombic'
loop_
_space_group_symop_operation_xyz
x,y,z
-x,-y,1/2+z
x,1/2-y,-z
-x,1/2+y,1/2-z
-x,-y,-z
x,y,1/2-z
-x,1/2+y,z
x,1/2-y,1/2+z
loop_
_atom_site_type_symbol
_atom_site_label
_atom_site_fract_x
_atom_site_fract_y
_atom_site_fract_z
Si Si1 0.965447 0.515230 0.662441
Si Si2 0.657905 0.499507 0.456071
Si Si3 0.243966 0.641240 0.750000
Si Si4 0.208652 0.887074 0.091635
Si Si5 0.166071 0.387630 0.396241
Si Si6 0.753099 0.859044 0.250000
Si Si7 0.523896 0.509427 0.085256
O O1 0.955683 0.519070 0.750000
O O2 0.901794 0.541884 0.622474
O O3 0.995886 0.256838 0.645020
O O4 0.647959 0.250000 0.500000
O O5 0.721279 0.454654 0.416992
O O6 0.595969 0.531436 0.412715
O O7 0.665178 0.750000 0.500000
O O8 0.201251 0.642665 0.820687
O O9 0.280698 0.393761 0.750000
O O10 0.281138 0.888119 0.750000
O O11 0.195998 0.617074 0.063416
O O12 0.170082 0.120526 0.070233
O O13 0.205198 0.359940 0.321747
O O14 0.504040 0.253279 0.116990
O O15 0.500000 0.500000 0.000000
#
# Coordination Sequence:
#
# PCOD9434005 Si02
#       7
#     8   8   4   8   8   4   8
#     4  10  19  28  44  71  99 132 170 211 259 304
#     4  12  21  33  51  77 112 127 167 215 256 306
#     4   8  16  30  44  63  92 123 182 190 222 296
#     4  10  21  31  50  72  96 144 169 207 248 301
#     4  10  17  32  44  65 100 131 176 192 254 308
#     4   8  14  24  44  59  82 131 156 204 216 282
#     4  10  16  30  49  73  98 132 161 192 253 320
#
# _framework density 21.260287000000002
#
# number of rings (size 3 to 8) (size 9 to 14) (size 15 to 20)
#    0.000    2.000    4.167    2.000    0.000    0.000 
#    0.000    0.000    0.000    0.000    0.000    1.167 
#    0.000   46.667    0.000    0.000    0.000    0.000 
#
# Total GULP energy -267502.031768 kJ/mol
# GULP energy per Si atom -5572.958995 kJ/mol
# Density = 2.121190 g / cm^3
# Si number density = 21.260287 Si / 1000 Ang^3
#
#
#
# Elastic Constant Matrix: (Units=GPa)
#
#
# Indices 1 2 3 4 5 6 
#
# 1 109.6294 26.8591 -0.7456 0.0000 0.0000 0.0000
# 2 26.8591 229.9512 19.3847 0.0000 0.0000 0.0000
# 3 -0.7456 19.3847 23.3225 0.0000 0.0000 0.0000
# 4 0.0000 0.0000 0.0000 24.4818 0.0000 0.0000
# 5 0.0000 0.0000 0.0000 0.0000 99.9866 0.0000
# 6 0.0000 0.0000 0.0000 0.0000 0.0000 36.7648
#
#
#
# Elastic Compliance Matrix: (Units=1/GPa)
#
#
# Indices 1 2 3 4 5 6 
#
# 1 0.009427 -0.001211 0.001308 0.000000 0.000000 0.000000
# 2 -0.001211 0.004832 -0.004055 0.000000 0.000000 0.000000
# 3 0.001308 -0.004055 0.046289 0.000000 0.000000 0.000000
# 4 0.000000 0.000000 0.000000 0.040847 0.000000 0.000000
# 5 0.000000 0.000000 0.000000 0.000000 0.010001 0.000000
# 6 0.000000 0.000000 0.000000 0.000000 0.000000 0.027200
#
#
# Mechanical properties :
#
#
# Convention : Reuss Voigt Hill
#
# Bulk Modulus (GPa) = 18.99969 50.43328 34.71649
# Shear Modulus (GPa) = 30.47721 53.40695 41.94208
#
# Velocity S-wave (km/s) = 3.79030 5.01748 4.44643
# Velocity P-wave (km/s) = 5.30201 7.57232 6.53649
#
# Compressibility (1/GPa) = 0.05263243
#
# Stress axis : x y z
#
# Youngs Moduli (GPa) = 106.07449 206.95033 21.60329
#
# Poissons Ratio (x) = 0.25071 -0.02826
# Poissons Ratio (y) = 0.12850 0.08760
# Poissons Ratio (z) = -0.13877 0.83917
#
# Static dielectric constant tensor:
#      x y z
#    x 1.707250 0.000000 0.000000 
#    y 0.000000 1.813790 0.000000 
#    z 0.000000 0.000000 1.833710 
# 
# From -- ./inp_files/25722.got.cif
#   From: 2010.05.17/outbox.cif.g08.bks.cpg/sg57_13_cif.got.tgz:25722.got - 2010.06.03 13:58:18.
