data_PCOD9434007
_publ_section_title
;
Structure prediction by ZEFSAII (Michael W. Deem and Ramdas Pophale) SiO2 
 PCOD9434007
Probable space group: P B C M
;
_chemical_formula_sum "Si O2"
_cell_formula_units_Z 40
_cell_length_a 22.829046
_cell_length_b 5.396608
_cell_length_c 14.574069
_cell_angle_alpha 90.000000
_cell_angle_beta 90.000000
_cell_angle_gamma 90.000000
_cell_volume 1795.516735
_symmetry_space_group_name_H-M "P B C M"
_symmetry_group_IT_number 57
_symmetry_cell_setting 'orthorhombic'
loop_
_space_group_symop_operation_xyz
x,y,z
-x,-y,1/2+z
x,1/2-y,-z
-x,1/2+y,1/2-z
-x,-y,-z
x,y,1/2-z
-x,1/2+y,z
x,1/2-y,1/2+z
loop_
_atom_site_type_symbol
_atom_site_label
_atom_site_fract_x
_atom_site_fract_y
_atom_site_fract_z
Si Si1 0.477498 0.697789 0.895005
Si Si2 0.024402 0.985195 0.893972
Si Si3 0.845048 0.999995 0.057692
Si Si4 0.343789 0.603469 0.638295
Si Si5 0.280068 0.103253 0.640035
O O1 0.515516 0.473329 0.853716
O O2 0.411044 0.604508 0.891756
O O3 0.496113 0.750000 0.000000
O O4 0.007049 0.247523 0.853256
O O5 0.093890 0.948032 0.891575
O O6 0.000000 0.000000 0.000000
O O7 0.787515 0.933996 0.114869
O O8 0.832809 0.250000 0.000000
O O9 0.857278 0.750000 0.000000
O O10 0.343370 0.601323 0.750000
O O11 0.307629 0.362445 0.606334
O O12 0.315039 0.861249 0.607112
O O13 0.285121 0.108152 0.750000
#
# Coordination Sequence:
#
# PCOD9434007 Si02
#       5
#     8   8   8   8   8
#     4  10  21  36  56  84 114 143 175 226 287 327
#     4  10  16  30  49  77 108 139 169 228 277 322
#     4  12  21  33  57  87 107 140 193 232 271 333
#     4  10  21  39  59  78 108 152 191 226 272 334
#     4  10  23  40  55  78 116 153 183 231 292 331
#
# _framework density 22.277709000000002
#
# number of rings (size 3 to 8) (size 9 to 14) (size 15 to 20)
#    0.000    1.600    4.000    2.400    0.000    3.200 
#    0.000    0.000    0.000    1.200    0.000    0.000 
#    0.000    0.000    0.000    0.000    0.000    0.000 
#
# Total GULP energy -223471.790248 kJ/mol
# GULP energy per Si atom -5586.794756 kJ/mol
# Density = 2.222700 g / cm^3
# Si number density = 22.277709 Si / 1000 Ang^3
#
#
#
# Elastic Constant Matrix: (Units=GPa)
#
#
# Indices 1 2 3 4 5 6 
#
# 1 149.1362 55.8582 -3.3860 0.0000 0.0000 0.0000
# 2 55.8582 216.6176 24.5718 0.0000 0.0000 0.0000
# 3 -3.3860 24.5718 51.8189 0.0000 0.0000 0.0000
# 4 0.0000 0.0000 0.0000 -3.5631 0.0000 0.0000
# 5 0.0000 0.0000 0.0000 0.0000 20.8701 0.0000
# 6 0.0000 0.0000 0.0000 0.0000 0.0000 49.6750
#
#
#
# Elastic Compliance Matrix: (Units=1/GPa)
#
#
# Indices 1 2 3 4 5 6 
#
# 1 0.007530 -0.002111 0.001493 0.000000 0.000000 0.000000
# 2 -0.002111 0.005471 -0.002732 0.000000 0.000000 0.000000
# 3 0.001493 -0.002732 0.020691 0.000000 0.000000 0.000000
# 4 0.000000 0.000000 0.000000 -0.280654 0.000000 0.000000
# 5 0.000000 0.000000 0.000000 0.000000 0.047915 0.000000
# 6 0.000000 0.000000 0.000000 0.000000 0.000000 0.020131
#
#
# Mechanical properties :
#
#
# Convention : Reuss Voigt Hill
#
# Bulk Modulus (GPa) = 37.04874 63.51788 50.28331
# Shear Modulus (GPa) = -30.63372 36.09832 2.73230
#
# Velocity S-wave (km/s) = -3.71224 4.02976 1.10866
# Velocity P-wave (km/s) = 1.30681 7.08701 4.92534
#
# Compressibility (1/GPa) = 0.02699147
#
# Stress axis : x y z
#
# Youngs Moduli (GPa) = 132.80453 182.79161 48.33005
#
# Poissons Ratio (x) = 0.38588 -0.07216
# Poissons Ratio (y) = 0.28036 0.13204
# Poissons Ratio (z) = -0.19828 0.49940
#
# Static dielectric constant tensor:
#      x y z
#    x 1.783250 0.000000 0.000000 
#    y 0.000000 1.797540 0.000000 
#    z 0.000000 0.000000 1.819670 
# 
# From -- ./inp_files/22755.got.cif
#   From: 2010.05.17/outbox.cif.g08.bks.cpg/sg57_12_cif.got.tgz:22755.got - 2010.06.03 13:58:18.
