data_PCOD9434564
_publ_section_title
;
Structure prediction by ZEFSAII (Michael W. Deem and Ramdas Pophale) SiO2 
 PCOD9434564
Probable space group: P B C M
;
_chemical_formula_sum "Si O2"
_cell_formula_units_Z 48
_cell_length_a 15.766968
_cell_length_b 21.652643
_cell_length_c 8.705771
_cell_angle_alpha 90.000000
_cell_angle_beta 90.000000
_cell_angle_gamma 90.000000
_cell_volume 2972.120004
_symmetry_space_group_name_H-M "P B C M"
_symmetry_group_IT_number 57
_symmetry_cell_setting 'orthorhombic'
loop_
_space_group_symop_operation_xyz
x,y,z
-x,-y,1/2+z
x,1/2-y,-z
-x,1/2+y,1/2-z
-x,-y,-z
x,y,1/2-z
-x,1/2+y,z
x,1/2-y,1/2+z
loop_
_atom_site_type_symbol
_atom_site_label
_atom_site_fract_x
_atom_site_fract_y
_atom_site_fract_z
Si Si1 0.386547 0.051038 0.934116
Si Si2 0.016864 0.068671 0.565174
Si Si3 0.198814 0.041654 0.936321
Si Si4 0.440960 0.909337 0.568306
Si Si5 0.695758 0.318278 0.432392
Si Si6 0.154644 0.599554 0.065591
O O1 0.392610 0.060407 0.750000
O O2 0.290838 0.064382 0.988096
O O3 0.403889 0.978108 0.962237
O O4 0.461534 0.088074 0.015509
O O5 0.011030 0.068080 0.750000
O O6 0.115003 0.080337 0.520600
O O7 0.940789 0.108766 0.496315
O O8 0.000000 0.000000 0.500000
O O9 0.201639 0.040840 0.750000
O O10 0.184167 0.969939 0.982288
O O11 0.434318 0.898369 0.750000
O O12 0.384766 0.859552 0.480849
O O13 0.688081 0.250000 0.500000
O O14 0.702519 0.315655 0.250000
O O15 0.778499 0.352106 0.500813
O O16 0.154493 0.601218 0.250000
#
# Coordination Sequence:
#
# PCOD9434564 Si02
#       6
#     8   8   8   8   8   8
#     4   9  16  29  48  70  99 134 165 199 247 297
#     4   9  16  26  42  67  96 130 164 197 238 285
#     4   8  14  26  45  68  98 131 161 195 238 286
#     4  10  19  32  48  70  99 129 164 207 249 294
#     4  12  24  37  53  72  95 129 169 208 250 300
#     4  10  18  32  48  67  97 130 162 204 246 290
#
# _framework density 16.150088
#
# number of rings (size 3 to 8) (size 9 to 14) (size 15 to 20)
#    0.000    2.333    1.667    4.000    0.000    0.667 
#    0.000    1.667    0.000    0.000    0.000    1.167 
#    0.000    0.000    0.000    0.000    0.000    0.000 
#
# Total GULP energy -267507.018257 kJ/mol
# GULP energy per Si atom -5573.062880 kJ/mol
# Density = 1.611333 g / cm^3
# Si number density = 16.150088 Si / 1000 Ang^3
#
#
#
# Elastic Constant Matrix: (Units=GPa)
#
#
# Indices 1 2 3 4 5 6 
#
# 1 164.0545 36.7571 48.6763 0.0000 0.0000 0.0000
# 2 36.7571 48.8717 33.0736 0.0000 0.0000 0.0000
# 3 48.6763 33.0736 70.7921 0.0000 0.0000 0.0000
# 4 0.0000 0.0000 0.0000 18.9141 0.0000 0.0000
# 5 0.0000 0.0000 0.0000 0.0000 27.0216 0.0000
# 6 0.0000 0.0000 0.0000 0.0000 0.0000 10.0642
#
#
#
# Elastic Compliance Matrix: (Units=1/GPa)
#
#
# Indices 1 2 3 4 5 6 
#
# 1 0.008019 -0.003363 -0.003943 0.000000 0.000000 0.000000
# 2 -0.003363 0.031333 -0.012326 0.000000 0.000000 0.000000
# 3 -0.003943 -0.012326 0.022595 0.000000 0.000000 0.000000
# 4 0.000000 0.000000 0.000000 0.052871 0.000000 0.000000
# 5 0.000000 0.000000 0.000000 0.000000 0.037007 0.000000
# 6 0.000000 0.000000 0.000000 0.000000 0.000000 0.099362
#
#
# Mechanical properties :
#
#
# Convention : Reuss Voigt Hill
#
# Bulk Modulus (GPa) = 44.08443 57.85914 50.97179
# Shear Modulus (GPa) = 16.77787 22.21407 19.49597
#
# Velocity S-wave (km/s) = 3.22665 3.71277 3.47821
# Velocity P-wave (km/s) = 6.42166 7.36771 6.91089
#
# Compressibility (1/GPa) = 0.02268374
#
# Stress axis : x y z
#
# Youngs Moduli (GPa) = 124.70689 31.91560 44.25680
#
# Poissons Ratio (x) = 0.10733 0.17448
# Poissons Ratio (y) = 0.41938 0.54551
# Poissons Ratio (z) = 0.49166 0.39339
#
# Static dielectric constant tensor:
#      x y z
#    x 1.587840 0.000000 0.000000 
#    y 0.000000 1.530530 0.000000 
#    z 0.000000 0.000000 1.538440 
# 
# From -- ./inp_files/4891.got.cif
#   From: 2010.05.17/outbox.cif.g08.bks.cpg/sg57_3_cif.got.tgz:4891.got - 2010.06.03 13:58:18.
