data_PCOD9434679
_publ_section_title
;
Structure prediction by ZEFSAII (Michael W. Deem and Ramdas Pophale) SiO2 
 PCOD9434679
Probable space group: P B C M
;
_chemical_formula_sum "Si O2"
_cell_formula_units_Z 56
_cell_length_a 20.917948
_cell_length_b 16.027447
_cell_length_c 8.483699
_cell_angle_alpha 90.000000
_cell_angle_beta 90.000000
_cell_angle_gamma 90.000000
_cell_volume 2844.255980
_symmetry_space_group_name_H-M "P B C M"
_symmetry_group_IT_number 57
_symmetry_cell_setting 'orthorhombic'
loop_
_space_group_symop_operation_xyz
x,y,z
-x,-y,1/2+z
x,1/2-y,-z
-x,1/2+y,1/2-z
-x,-y,-z
x,y,1/2-z
-x,1/2+y,z
x,1/2-y,1/2+z
loop_
_atom_site_type_symbol
_atom_site_label
_atom_site_fract_x
_atom_site_fract_y
_atom_site_fract_z
Si Si1 0.107613 0.665345 0.929250
Si Si2 0.205114 0.064642 0.562157
Si Si3 0.667666 0.843894 0.060217
Si Si4 0.632713 0.332029 0.436845
Si Si5 0.767309 0.129995 0.431481
Si Si6 0.428643 0.486954 0.936490
Si Si7 0.928920 0.993853 0.067692
O O1 0.087261 0.650486 0.750000
O O2 0.080103 0.750000 0.000000
O O3 0.184127 0.668181 0.942144
O O4 0.093301 0.588612 0.042771
O O5 0.199264 0.080051 0.750000
O O6 0.261384 0.125141 0.501977
O O7 0.131157 0.060739 0.499685
O O8 0.231228 0.970211 0.544517
O O9 0.669279 0.842942 0.250000
O O10 0.654759 0.750000 0.000000
O O11 0.614551 0.912684 0.010002
O O12 0.596159 0.250000 0.500000
O O13 0.643895 0.323726 0.250000
O O14 0.697686 0.336494 0.535595
O O15 0.602074 0.422147 0.463278
O O16 0.786849 0.146341 0.250000
O O17 0.430710 0.470919 0.750000
O O18 0.500000 0.500000 0.000000
O O19 0.934382 0.971495 0.250000
O O20 0.000000 0.000000 0.000000
#
# Coordination Sequence:
#
# PCOD9434679 Si02
#       7
#     8   8   8   8   8   8   8
#     4  11  21  34  52  79 112 149 190 239 291 352
#     4   8  17  34  59  85 116 157 202 250 305 363
#     4  11  22  41  67  96 126 166 214 270 326 384
#     4  11  23  37  57  87 120 154 195 240 296 361
#     4  10  18  33  56  83 115 152 189 233 290 353
#     4  11  25  44  65  91 123 164 209 262 316 381
#     4  10  20  37  58  85 117 159 206 251 309 373
#
# _framework density 19.688804999999999
#
# number of rings (size 3 to 8) (size 9 to 14) (size 15 to 20)
#    0.000    1.714    1.429    4.714    0.000    2.286 
#    0.000    4.286    0.000    1.714    0.000    0.000 
#    0.000    0.000    0.000    0.000    0.000    0.000 
#
# Total GULP energy -312017.516765 kJ/mol
# GULP energy per Si atom -5571.741371 kJ/mol
# Density = 1.964399 g / cm^3
# Si number density = 19.688805 Si / 1000 Ang^3
#
#
#
# Elastic Constant Matrix: (Units=GPa)
#
#
# Indices 1 2 3 4 5 6 
#
# 1 126.8551 50.5728 35.6050 0.0000 0.0000 0.0000
# 2 50.5728 110.9024 37.5438 0.0000 0.0000 0.0000
# 3 35.6050 37.5438 55.0582 0.0000 0.0000 0.0000
# 4 0.0000 0.0000 0.0000 27.8997 0.0000 0.0000
# 5 0.0000 0.0000 0.0000 0.0000 27.7662 0.0000
# 6 0.0000 0.0000 0.0000 0.0000 0.0000 1.2785
#
#
#
# Elastic Compliance Matrix: (Units=1/GPa)
#
#
# Indices 1 2 3 4 5 6 
#
# 1 0.010447 -0.003220 -0.004560 0.000000 0.000000 0.000000
# 2 -0.003220 0.012716 -0.006588 0.000000 0.000000 0.000000
# 3 -0.004560 -0.006588 0.025604 0.000000 0.000000 0.000000
# 4 0.000000 0.000000 0.000000 0.035843 0.000000 0.000000
# 5 0.000000 0.000000 0.000000 0.000000 0.036015 0.000000
# 6 0.000000 0.000000 0.000000 0.000000 0.000000 0.782185
#
#
# Mechanical properties :
#
#
# Convention : Reuss Voigt Hill
#
# Bulk Modulus (GPa) = 49.92613 60.02876 54.97744
# Shear Modulus (GPa) = 5.32923 22.66183 13.99553
#
# Velocity S-wave (km/s) = 1.64700 3.39632 2.66904
# Velocity P-wave (km/s) = 5.38790 6.77753 6.12227
#
# Compressibility (1/GPa) = 0.02002959
#
# Stress axis : x y z
#
# Youngs Moduli (GPa) = 95.72500 78.64287 39.05656
#
# Poissons Ratio (x) = 0.25324 0.17809
# Poissons Ratio (y) = 0.30825 0.25732
# Poissons Ratio (z) = 0.43649 0.51813
#
# Static dielectric constant tensor:
#      x y z
#    x 1.798760 0.000000 0.000000 
#    y 0.000000 1.756880 0.000000 
#    z 0.000000 0.000000 1.623370 
# 
# From -- ./inp_files/8180.got.cif
#   From: 2010.05.17/outbox.cif.g08.bks.cpg/sg57_5_cif.got.tgz:8180.got - 2010.06.03 13:58:18.
