data_PCOD9434557
_publ_section_title
;
Structure prediction by ZEFSAII (Michael W. Deem and Ramdas Pophale) SiO2 
 PCOD9434557
Probable space group: P B C M
;
_chemical_formula_sum "Si O2"
_cell_formula_units_Z 40
_cell_length_a 9.032696
_cell_length_b 12.346013
_cell_length_c 18.979289
_cell_angle_alpha 90.000000
_cell_angle_beta 90.000000
_cell_angle_gamma 90.000000
_cell_volume 2116.528218
_symmetry_space_group_name_H-M "P B C M"
_symmetry_group_IT_number 57
_symmetry_cell_setting 'orthorhombic'
loop_
_space_group_symop_operation_xyz
x,y,z
-x,-y,1/2+z
x,1/2-y,-z
-x,1/2+y,1/2-z
-x,-y,-z
x,y,1/2-z
-x,1/2+y,z
x,1/2-y,1/2+z
loop_
_atom_site_type_symbol
_atom_site_label
_atom_site_fract_x
_atom_site_fract_y
_atom_site_fract_z
Si Si1 0.656233 0.366939 0.992206
Si Si2 0.050998 0.580338 0.562274
Si Si3 0.243193 0.216359 0.582478
Si Si4 0.467192 0.476675 0.390704
Si Si5 0.755057 0.940166 0.669076
O O1 0.632604 0.421721 0.916461
O O2 0.584158 0.250000 0.000000
O O3 0.819375 0.356188 0.022651
O O4 0.580654 0.448587 0.046430
O O5 0.128252 0.515589 0.626498
O O6 0.000000 0.500000 0.500000
O O7 0.915598 0.655836 0.585272
O O8 0.263738 0.250000 0.500000
O O9 0.361813 0.128365 0.611931
O O10 0.249624 0.325792 0.627856
O O11 0.587534 0.509936 0.332666
O O12 0.800372 0.926710 0.750000
#
# Coordination Sequence:
#
# PCOD9434557 Si02
#       5
#     8   8   8   8   8
#     4  10  18  31  57  91 120 151 195 258 310 361
#     4  11  21  38  63  95 125 157 208 267 316 378
#     4  12  21  38  71  97 123 165 220 269 322 379
#     4  10  20  36  57  86 126 159 204 256 313 369
#     4  11  26  43  59  90 133 173 214 264 323 391
#
# _framework density 18.898875
#
# number of rings (size 3 to 8) (size 9 to 14) (size 15 to 20)
#    0.000    1.200    4.000    4.800    0.000    1.600 
#    0.000    0.000    0.000    0.000    0.000    0.000 
#    0.000    0.000    0.000    0.000    0.000    0.000 
#
# Total GULP energy -222780.617848 kJ/mol
# GULP energy per Si atom -5569.515446 kJ/mol
# Density = 1.885586 g / cm^3
# Si number density = 18.898875 Si / 1000 Ang^3
#
#
#
# Elastic Constant Matrix: (Units=GPa)
#
#
# Indices 1 2 3 4 5 6 
#
# 1 133.8351 47.8198 38.4472 0.0000 0.0000 0.0000
# 2 47.8198 116.8145 53.5979 0.0000 0.0000 0.0000
# 3 38.4472 53.5979 121.5675 0.0000 0.0000 0.0000
# 4 0.0000 0.0000 0.0000 17.9599 0.0000 0.0000
# 5 0.0000 0.0000 0.0000 0.0000 27.7708 0.0000
# 6 0.0000 0.0000 0.0000 0.0000 0.0000 36.3962
#
#
#
# Elastic Compliance Matrix: (Units=1/GPa)
#
#
# Indices 1 2 3 4 5 6 
#
# 1 0.008973 -0.002972 -0.001527 0.000000 0.000000 0.000000
# 2 -0.002972 0.011716 -0.004225 0.000000 0.000000 0.000000
# 3 -0.001527 -0.004225 0.010572 0.000000 0.000000 0.000000
# 4 0.000000 0.000000 0.000000 0.055679 0.000000 0.000000
# 5 0.000000 0.000000 0.000000 0.000000 0.036009 0.000000
# 6 0.000000 0.000000 0.000000 0.000000 0.000000 0.027475
#
#
# Mechanical properties :
#
#
# Convention : Reuss Voigt Hill
#
# Bulk Modulus (GPa) = 72.40862 72.43855 72.42358
# Shear Modulus (GPa) = 28.98918 31.91554 30.45236
#
# Velocity S-wave (km/s) = 3.92077 4.11390 4.01849
# Velocity P-wave (km/s) = 7.67421 7.80886 7.74183
#
# Compressibility (1/GPa) = 0.01381051
#
# Stress axis : x y z
#
# Youngs Moduli (GPa) = 111.44983 85.35235 94.59075
#
# Poissons Ratio (x) = 0.25370 0.14446
# Poissons Ratio (y) = 0.33127 0.39969
# Poissons Ratio (z) = 0.17021 0.36066
#
# Static dielectric constant tensor:
#      x y z
#    x 0.739320 0.000000 0.000000 
#    y 0.000000 1.756660 0.000000 
#    z 0.000000 0.000000 1.781210 
# 
# From -- ./inp_files/20523.got.cif
#   From: 2010.05.17/outbox.cif.g08.bks.cpg/sg57_11_cif.got.tgz:20523.got - 2010.06.03 13:58:18.
