data_PCOD9434955
_publ_section_title
;
Structure prediction by ZEFSAII (Michael W. Deem and Ramdas Pophale) SiO2 
 PCOD9434955
Probable space group: P B C M
;
_chemical_formula_sum "Si O2"
_cell_formula_units_Z 48
_cell_length_a 14.223248
_cell_length_b 24.650692
_cell_length_c 8.404763
_cell_angle_alpha 90.000000
_cell_angle_beta 90.000000
_cell_angle_gamma 90.000000
_cell_volume 2946.818377
_symmetry_space_group_name_H-M "P B C M"
_symmetry_group_IT_number 57
_symmetry_cell_setting 'orthorhombic'
loop_
_space_group_symop_operation_xyz
x,y,z
-x,-y,1/2+z
x,1/2-y,-z
-x,1/2+y,1/2-z
-x,-y,-z
x,y,1/2-z
-x,1/2+y,z
x,1/2-y,1/2+z
loop_
_atom_site_type_symbol
_atom_site_label
_atom_site_fract_x
_atom_site_fract_y
_atom_site_fract_z
Si Si1 0.641393 0.190833 0.940815
Si Si2 0.539348 0.083030 0.557676
Si Si3 0.854513 0.190582 0.440943
Si Si4 0.354721 0.022542 0.557655
Si Si5 0.962671 0.083945 0.441891
Si Si6 0.142125 0.474127 0.057886
O O1 0.643381 0.191396 0.750000
O O2 0.575300 0.141654 0.995891
O O3 0.610903 0.250000 0.000000
O O4 0.747727 0.181687 0.000977
O O5 0.540236 0.082547 0.750000
O O6 0.434899 0.065095 0.505082
O O7 0.609673 0.036226 0.498619
O O8 0.884685 0.250000 0.500000
O O9 0.853672 0.191011 0.250000
O O10 0.919727 0.140981 0.496744
O O11 0.353821 0.022362 0.750000
O O12 0.248914 0.033865 0.502367
O O13 0.962421 0.084234 0.250000
O O14 0.067162 0.069914 0.499313
O O15 0.897311 0.033185 0.493879
O O16 0.141876 0.473671 0.250000
#
# Coordination Sequence:
#
# PCOD9434955 Si02
#       6
#     8   8   8   8   8   8
#     4  10  19  30  45  66  91 118 148 181 219 261
#     4   9  18  30  45  67  92 117 146 182 221 262
#     4  10  19  31  47  67  91 118 148 182 221 263
#     4   9  17  30  47  67  91 118 148 180 218 264
#     4   9  18  30  44  65  91 116 144 180 219 260
#     4   9  17  29  46  66  88 117 148 178 216 260
#
# _framework density 16.288754999999998
#
# number of rings (size 3 to 8) (size 9 to 14) (size 15 to 20)
#    0.000    2.667    0.000    3.000    0.000    4.667 
#    0.000    3.333    0.000    1.000    0.000    4.667 
#    0.000    0.000    0.000    0.000    0.000    0.000 
#
# Total GULP energy -267576.685795 kJ/mol
# GULP energy per Si atom -5574.514287 kJ/mol
# Density = 1.625168 g / cm^3
# Si number density = 16.288755 Si / 1000 Ang^3
#
#
#
# Elastic Constant Matrix: (Units=GPa)
#
#
# Indices 1 2 3 4 5 6 
#
# 1 135.6526 95.3750 16.8286 0.0000 0.0000 0.0000
# 2 95.3750 157.1304 21.3923 0.0000 0.0000 0.0000
# 3 16.8286 21.3923 15.0357 0.0000 0.0000 0.0000
# 4 0.0000 0.0000 0.0000 20.8316 0.0000 0.0000
# 5 0.0000 0.0000 0.0000 0.0000 19.3314 0.0000
# 6 0.0000 0.0000 0.0000 0.0000 0.0000 32.9928
#
#
#
# Elastic Compliance Matrix: (Units=1/GPa)
#
#
# Indices 1 2 3 4 5 6 
#
# 1 0.013065 -0.007366 -0.004142 0.000000 0.000000 0.000000
# 2 -0.007366 0.012046 -0.008894 0.000000 0.000000 0.000000
# 3 -0.004142 -0.008894 0.083799 0.000000 0.000000 0.000000
# 4 0.000000 0.000000 0.000000 0.048004 0.000000 0.000000
# 5 0.000000 0.000000 0.000000 0.000000 0.051729 0.000000
# 6 0.000000 0.000000 0.000000 0.000000 0.000000 0.030310
#
#
# Mechanical properties :
#
#
# Convention : Reuss Voigt Hill
#
# Bulk Modulus (GPa) = 14.68332 63.89007 39.28669
# Shear Modulus (GPa) = 16.53112 26.24602 21.38857
#
# Velocity S-wave (km/s) = 3.18917 4.01845 3.62759
# Velocity P-wave (km/s) = 4.75343 7.79995 6.45888
#
# Compressibility (1/GPa) = 0.06810450
#
# Stress axis : x y z
#
# Youngs Moduli (GPa) = 76.54313 83.01475 11.93326
#
# Poissons Ratio (x) = 0.61148 0.04943
# Poissons Ratio (y) = 0.56381 0.10614
# Poissons Ratio (z) = 0.31707 0.73837
#
# Static dielectric constant tensor:
#      x y z
#    x 1.541140 0.000000 0.000000 
#    y 0.000000 1.542440 0.000000 
#    z 0.000000 0.000000 1.548290 
# 
# From -- ./inp_files/5345.got.cif
#   From: 2010.05.17/outbox.cif.g08.bks.cpg/sg57_3_cif.got.tgz:5345.got - 2010.06.03 13:58:18.
