data_PCOD9434969
_publ_section_title
;
Structure prediction by ZEFSAII (Michael W. Deem and Ramdas Pophale) SiO2 
 PCOD9434969
Probable space group: P B C M
;
_chemical_formula_sum "Si O2"
_cell_formula_units_Z 64
_cell_length_a 15.376798
_cell_length_b 30.907758
_cell_length_c 7.679996
_cell_angle_alpha 90.000000
_cell_angle_beta 90.000000
_cell_angle_gamma 90.000000
_cell_volume 3650.012958
_symmetry_space_group_name_H-M "P B C M"
_symmetry_group_IT_number 57
_symmetry_cell_setting 'orthorhombic'
loop_
_space_group_symop_operation_xyz
x,y,z
-x,-y,1/2+z
x,1/2-y,-z
-x,1/2+y,1/2-z
-x,-y,-z
x,y,1/2-z
-x,1/2+y,z
x,1/2-y,1/2+z
loop_
_atom_site_type_symbol
_atom_site_label
_atom_site_fract_x
_atom_site_fract_y
_atom_site_fract_z
Si Si1 0.380807 0.023558 0.455217
Si Si2 0.711691 0.115579 0.463771
Si Si3 0.548409 0.068101 0.449931
Si Si4 0.125900 0.943989 0.537604
Si Si5 0.044775 0.391864 0.959453
Si Si6 0.999307 0.297864 0.540849
Si Si7 0.816681 0.962910 0.043256
Si Si8 0.200187 0.702610 0.041469
O O1 0.398710 0.016874 0.250000
O O2 0.453131 0.057444 0.523458
O O3 0.281691 0.037422 0.475516
O O4 0.400607 0.977801 0.545051
O O5 0.709202 0.114837 0.250000
O O6 0.617062 0.101431 0.529134
O O7 0.786533 0.081376 0.513727
O O8 0.743196 0.162603 0.521860
O O9 0.534523 0.081477 0.250000
O O10 0.122765 0.943808 0.750000
O O11 0.041000 0.917815 0.476945
O O12 0.133870 0.993678 0.478157
O O13 0.038025 0.390381 0.750000
O O14 0.044786 0.342026 0.021604
O O15 0.128320 0.420403 0.002783
O O16 0.034994 0.250000 0.500000
O O17 0.996514 0.300064 0.750000
O O18 0.899273 0.299594 0.474894
O O19 0.810193 0.967370 0.250000
O O20 0.194898 0.698323 0.250000
O O21 0.235322 0.750000 0.000000
#
# Coordination Sequence:
#
# PCOD9434969 Si02
#       8
#     8   8   8   8   8   8   8   8
#     4  10  19  30  45  68  93 118 151 194 235 270
#     4   9  14  26  48  68  88 122 158 182 216 274
#     4   9  17  30  49  68  89 118 154 190 226 274
#     4   9  16  28  46  65  90 124 160 188 217 264
#     4  10  19  32  48  67  91 122 158 194 230 270
#     4   9  17  29  46  66  89 118 149 186 228 269
#     4  11  21  32  47  65  91 128 162 195 230 270
#     4   9  16  27  45  66  90 120 151 183 223 269
#
# _framework density 17.534185000000001
#
# number of rings (size 3 to 8) (size 9 to 14) (size 15 to 20)
#    0.000    2.500    2.500    1.125    0.000    1.000 
#    0.000    1.250    0.000    0.000    0.000    0.875 
#    0.000    2.000    0.000    0.000    0.000    0.000 
#
# Total GULP energy -356788.059698 kJ/mol
# GULP energy per Si atom -5574.813433 kJ/mol
# Density = 1.749428 g / cm^3
# Si number density = 17.534185 Si / 1000 Ang^3
#
#
#
# Elastic Constant Matrix: (Units=GPa)
#
#
# Indices 1 2 3 4 5 6 
#
# 1 83.7068 53.5754 -2.0516 0.0000 0.0000 0.0000
# 2 53.5754 137.0248 -0.2373 0.0000 0.0000 0.0000
# 3 -2.0516 -0.2373 33.8320 0.0000 0.0000 0.0000
# 4 0.0000 0.0000 0.0000 16.3879 0.0000 0.0000
# 5 0.0000 0.0000 0.0000 0.0000 8.9639 0.0000
# 6 0.0000 0.0000 0.0000 0.0000 0.0000 23.7223
#
#
#
# Elastic Compliance Matrix: (Units=1/GPa)
#
#
# Indices 1 2 3 4 5 6 
#
# 1 0.015963 -0.006240 0.000924 0.000000 0.000000 0.000000
# 2 -0.006240 0.009737 -0.000310 0.000000 0.000000 0.000000
# 3 0.000924 -0.000310 0.029612 0.000000 0.000000 0.000000
# 4 0.000000 0.000000 0.000000 0.061021 0.000000 0.000000
# 5 0.000000 0.000000 0.000000 0.000000 0.111559 0.000000
# 6 0.000000 0.000000 0.000000 0.000000 0.000000 0.042154
#
#
# Mechanical properties :
#
#
# Convention : Reuss Voigt Hill
#
# Bulk Modulus (GPa) = 22.69613 39.68185 31.18899
# Shear Modulus (GPa) = 16.89285 23.36662 20.12974
#
# Velocity S-wave (km/s) = 3.10727 3.65448 3.39193
# Velocity P-wave (km/s) = 5.08385 6.36296 5.75903
#
# Compressibility (1/GPa) = 0.04406037
#
# Stress axis : x y z
#
# Youngs Moduli (GPa) = 62.64594 102.70036 33.77050
#
# Poissons Ratio (x) = 0.64082 -0.03121
# Poissons Ratio (y) = 0.39089 0.01047
# Poissons Ratio (z) = -0.05790 0.03185
#
# Static dielectric constant tensor:
#      x y z
#    x 1.592440 0.000000 0.000000 
#    y 0.000000 1.611370 0.000000 
#    z 0.000000 0.000000 1.657620 
# 
# From -- ./inp_files/5971.got.cif
#   From: 2010.05.17/outbox.cif.g08.bks.cpg/sg57_3_cif.got.tgz:5971.got - 2010.06.03 13:58:18.
