data_PCOD9434327
_publ_section_title
;
Structure prediction by ZEFSAII (Michael W. Deem and Ramdas Pophale) SiO2 
 PCOD9434327
Probable space group: P B C M
;
_chemical_formula_sum "Si O2"
_cell_formula_units_Z 64
_cell_length_a 15.253931
_cell_length_b 28.545432
_cell_length_c 7.757484
_cell_angle_alpha 90.000000
_cell_angle_beta 90.000000
_cell_angle_gamma 90.000000
_cell_volume 3377.841647
_symmetry_space_group_name_H-M "P B C M"
_symmetry_group_IT_number 57
_symmetry_cell_setting 'orthorhombic'
loop_
_space_group_symop_operation_xyz
x,y,z
-x,-y,1/2+z
x,1/2-y,-z
-x,1/2+y,1/2-z
-x,-y,-z
x,y,1/2-z
-x,1/2+y,z
x,1/2-y,1/2+z
loop_
_atom_site_type_symbol
_atom_site_label
_atom_site_fract_x
_atom_site_fract_y
_atom_site_fract_z
Si Si1 0.527489 0.381159 0.048259
Si Si2 0.850963 0.031998 0.039446
Si Si3 0.019606 0.888253 0.951928
Si Si4 0.646300 0.925703 0.038922
Si Si5 0.841773 0.926676 0.454101
Si Si6 0.660201 0.304042 0.457891
Si Si7 0.350236 0.533741 0.458177
Si Si8 0.857390 0.196064 0.955308
O O1 0.514850 0.369934 0.250000
O O2 0.431762 0.392783 0.974491
O O3 0.587020 0.339571 0.973308
O O4 0.584036 0.428596 0.034330
O O5 0.853693 0.032739 0.250000
O O6 0.920411 0.069699 0.973280
O O7 0.750696 0.044053 0.991816
O O8 0.867704 0.978676 0.980128
O O9 0.012487 0.896785 0.750000
O O10 0.070881 0.840105 0.979011
O O11 0.920992 0.891329 0.019143
O O12 0.644085 0.924412 0.250000
O O13 0.744955 0.913635 0.980309
O O14 0.630102 0.980088 0.991191
O O15 0.830412 0.932626 0.250000
O O16 0.641628 0.250000 0.500000
O O17 0.662888 0.308591 0.250000
O O18 0.758914 0.315002 0.522345
O O19 0.355525 0.536344 0.250000
O O20 0.855428 0.191826 0.750000
O O21 0.876100 0.250000 0.000000
#
# Coordination Sequence:
#
# PCOD9434327 Si02
#       8
#     8   8   8   8   8   8   8   8
#     4  10  18  29  46  70  95 121 154 194 235 278
#     4   8  16  29  45  66  96 129 161 193 231 279
#     4  11  20  30  47  72  97 123 155 197 241 281
#     4   8  16  30  47  65  92 128 163 194 229 272
#     4   9  17  32  49  65  90 130 170 199 228 272
#     4   9  19  33  50  71  96 121 149 185 229 277
#     4   9  16  28  45  67  94 127 160 189 225 278
#     4  10  20  35  52  72  96 123 151 185 230 283
#
# _framework density 18.947012000000001
#
# number of rings (size 3 to 8) (size 9 to 14) (size 15 to 20)
#    0.000    2.750    0.000    3.750    0.000    1.000 
#    0.000    4.375    0.000    0.750    0.000    1.750 
#    0.000    0.000    0.000    0.000    0.000    0.000 
#
# Total GULP energy -357000.636869 kJ/mol
# GULP energy per Si atom -5578.134951 kJ/mol
# Density = 1.890389 g / cm^3
# Si number density = 18.947012 Si / 1000 Ang^3
#
#
#
# Elastic Constant Matrix: (Units=GPa)
#
#
# Indices 1 2 3 4 5 6 
#
# 1 144.8713 85.5824 -5.8646 0.0000 0.0000 0.0000
# 2 85.5824 74.9260 -10.3391 0.0000 0.0000 0.0000
# 3 -5.8646 -10.3391 20.8199 0.0000 0.0000 0.0000
# 4 0.0000 0.0000 0.0000 12.7429 0.0000 0.0000
# 5 0.0000 0.0000 0.0000 0.0000 7.1255 0.0000
# 6 0.0000 0.0000 0.0000 0.0000 0.0000 31.6467
#
#
#
# Elastic Compliance Matrix: (Units=1/GPa)
#
#
# Indices 1 2 3 4 5 6 
#
# 1 0.022078 -0.026152 -0.006768 0.000000 0.000000 0.000000
# 2 -0.026152 0.045306 0.015132 0.000000 0.000000 0.000000
# 3 -0.006768 0.015132 0.053639 0.000000 0.000000 0.000000
# 4 0.000000 0.000000 0.000000 0.078475 0.000000 0.000000
# 5 0.000000 0.000000 0.000000 0.000000 0.140341 0.000000
# 6 0.000000 0.000000 0.000000 0.000000 0.000000 0.031599
#
#
# Mechanical properties :
#
#
# Convention : Reuss Voigt Hill
#
# Bulk Modulus (GPa) = 11.70301 42.15271 26.92786
# Shear Modulus (GPa) = 11.48120 21.71894 16.60007
#
# Velocity S-wave (km/s) = 2.46430 3.38938 2.96316
# Velocity P-wave (km/s) = 3.77984 6.13296 5.09413
#
# Compressibility (1/GPa) = 0.08544808
#
# Stress axis : x y z
#
# Youngs Moduli (GPa) = 45.29451 22.07225 18.64306
#
# Poissons Ratio (x) = 0.57723 0.12618
# Poissons Ratio (y) = 1.18453 -0.28211
# Poissons Ratio (z) = 0.30655 -0.33400
#
# Static dielectric constant tensor:
#      x y z
#    x 1.690800 0.000000 0.000000 
#    y 0.000000 1.628330 0.000000 
#    z 0.000000 0.000000 1.685480 
# 
# From -- ./inp_files/5594.got.cif
#   From: 2010.05.17/outbox.cif.g08.bks.cpg/sg57_3_cif.got.tgz:5594.got - 2010.06.03 13:58:18.
