data_PCOD9434139
_publ_section_title
;
Structure prediction by ZEFSAII (Michael W. Deem and Ramdas Pophale) SiO2 
 PCOD9434139
Probable space group: P B C M
;
_chemical_formula_sum "Si O2"
_cell_formula_units_Z 48
_cell_length_a 12.003846
_cell_length_b 9.711004
_cell_length_c 17.027779
_cell_angle_alpha 90.000000
_cell_angle_beta 90.000000
_cell_angle_gamma 90.000000
_cell_volume 1984.917922
_symmetry_space_group_name_H-M "P B C M"
_symmetry_group_IT_number 57
_symmetry_cell_setting 'orthorhombic'
loop_
_space_group_symop_operation_xyz
x,y,z
-x,-y,1/2+z
x,1/2-y,-z
-x,1/2+y,1/2-z
-x,-y,-z
x,y,1/2-z
-x,1/2+y,z
x,1/2-y,1/2+z
loop_
_atom_site_type_symbol
_atom_site_label
_atom_site_fract_x
_atom_site_fract_y
_atom_site_fract_z
Si Si1 0.538499 0.893175 0.393697
Si Si2 0.621535 0.166387 0.339689
Si Si3 0.999108 0.500894 0.903715
Si Si4 0.191411 0.833002 0.429383
Si Si5 0.857554 0.743696 0.905156
Si Si6 0.343004 0.419178 0.939054
O O1 0.493352 0.744271 0.367335
O O2 0.588045 0.885150 0.481751
O O3 0.616425 0.001258 0.348568
O O4 0.424687 0.982925 0.390319
O O5 0.637852 0.203961 0.250000
O O6 0.719587 0.232341 0.390822
O O7 0.097457 0.603553 0.875542
O O8 0.047354 0.352873 0.877433
O O9 0.888797 0.587675 0.880507
O O10 0.000000 0.500000 0.000000
O O11 0.136776 0.750000 0.500000
O O12 0.251471 0.967218 0.464527
O O13 0.731584 0.804344 0.893504
O O14 0.861425 0.750000 0.000000
#
# Coordination Sequence:
#
# PCOD9434139 Si02
#       6
#     8   8   8   8   8   8
#     4  10  21  36  56  77 114 148 192 236 282 336
#     4  11  23  38  56  80 111 152 192 232 286 350
#     4   9  17  30  48  77 116 141 169 223 281 334
#     4  10  17  32  54  80 110 142 181 228 280 336
#     4   9  17  28  46  77 118 140 173 216 288 334
#     4   9  19  30  53  84 111 144 184 236 283 325
#
# _framework density 24.182362000000001
#
# number of rings (size 3 to 8) (size 9 to 14) (size 15 to 20)
#    0.000    2.333    1.667    2.000    2.333    0.000 
#    0.000    0.000    0.000    0.000    0.000   19.833 
#    0.000    0.000    0.000    0.000    0.000    0.000 
#
# Total GULP energy -267288.113123 kJ/mol
# GULP energy per Si atom -5568.502357 kJ/mol
# Density = 2.412732 g / cm^3
# Si number density = 24.182362 Si / 1000 Ang^3
#
#
#
# Elastic Constant Matrix: (Units=GPa)
#
#
# Indices 1 2 3 4 5 6 
#
# 1 99.6062 24.7886 -6.2969 0.0000 0.0000 0.0000
# 2 24.7886 114.1130 -0.1806 0.0000 0.0000 0.0000
# 3 -6.2969 -0.1806 21.9416 0.0000 0.0000 0.0000
# 4 0.0000 0.0000 0.0000 9.3456 0.0000 0.0000
# 5 0.0000 0.0000 0.0000 0.0000 -6.8044 0.0000
# 6 0.0000 0.0000 0.0000 0.0000 0.0000 40.6335
#
#
#
# Elastic Compliance Matrix: (Units=1/GPa)
#
#
# Indices 1 2 3 4 5 6 
#
# 1 0.010818 -0.002345 0.003085 0.000000 0.000000 0.000000
# 2 -0.002345 0.009272 -0.000597 0.000000 0.000000 0.000000
# 3 0.003085 -0.000597 0.046456 0.000000 0.000000 0.000000
# 4 0.000000 0.000000 0.000000 0.107002 0.000000 0.000000
# 5 0.000000 0.000000 0.000000 0.000000 -0.146964 0.000000
# 6 0.000000 0.000000 0.000000 0.000000 0.000000 0.024610
#
#
# Mechanical properties :
#
#
# Convention : Reuss Voigt Hill
#
# Bulk Modulus (GPa) = 14.96265 30.25367 22.60816
# Shear Modulus (GPa) = 68.31989 23.12491 45.72240
#
# Velocity S-wave (km/s) = 5.32102 3.09572 4.35297
# Velocity P-wave (km/s) = 6.62962 5.03148 5.88505
#
# Compressibility (1/GPa) = 0.06683308
#
# Stress axis : x y z
#
# Youngs Moduli (GPa) = 92.43663 107.85468 21.52570
#
# Poissons Ratio (x) = 0.25294 -0.06641
# Poissons Ratio (y) = 0.21678 0.01284
# Poissons Ratio (z) = -0.28520 0.06436
#
# Static dielectric constant tensor:
#      x y z
#    x 2.091290 0.000000 0.000000 
#    y 0.000000 2.071800 0.000000 
#    z 0.000000 0.000000 1.991780 
# 
# From -- ./inp_files/27126.got.cif
#   From: 2010.05.17/outbox.cif.g08.bks.cpg/sg57_14_cif.got.tgz:27126.got - 2010.06.03 13:58:18.
