data_PCOD9434350
_publ_section_title
;
Structure prediction by ZEFSAII (Michael W. Deem and Ramdas Pophale) SiO2 
 PCOD9434350
Probable space group: P B C M
;
_chemical_formula_sum "Si O2"
_cell_formula_units_Z 64
_cell_length_a 17.007047
_cell_length_b 24.373632
_cell_length_c 8.623266
_cell_angle_alpha 90.000000
_cell_angle_beta 90.000000
_cell_angle_gamma 90.000000
_cell_volume 3574.546447
_symmetry_space_group_name_H-M "P B C M"
_symmetry_group_IT_number 57
_symmetry_cell_setting 'orthorhombic'
loop_
_space_group_symop_operation_xyz
x,y,z
-x,-y,1/2+z
x,1/2-y,-z
-x,1/2+y,1/2-z
-x,-y,-z
x,y,1/2-z
-x,1/2+y,z
x,1/2-y,1/2+z
loop_
_atom_site_type_symbol
_atom_site_label
_atom_site_fract_x
_atom_site_fract_y
_atom_site_fract_z
Si Si1 0.767138 0.811801 0.435048
Si Si2 0.718331 0.121549 0.563479
Si Si3 0.873698 0.189362 0.564732
Si Si4 0.563123 0.312161 0.063350
Si Si5 0.601490 0.812194 0.564518
Si Si6 0.961866 0.411180 0.563487
Si Si7 0.191473 0.521480 0.064296
Si Si8 0.860503 0.911423 0.564049
O O1 0.778287 0.750000 0.500000
O O2 0.764627 0.808983 0.250000
O O3 0.683386 0.834441 0.498600
O O4 0.832716 0.853981 0.492989
O O5 0.718904 0.115468 0.750000
O O6 0.789301 0.162981 0.521077
O O7 0.636297 0.149481 0.518462
O O8 0.740860 0.063388 0.489126
O O9 0.880504 0.250000 0.500000
O O10 0.879234 0.189682 0.750000
O O11 0.938705 0.148977 0.495187
O O12 0.558716 0.308975 0.250000
O O13 0.574571 0.250000 0.000000
O O14 0.480883 0.335278 0.997442
O O15 0.600420 0.750000 0.500000
O O16 0.602964 0.812088 0.750000
O O17 0.960376 0.411914 0.750000
O O18 0.891362 0.450867 0.509602
O O19 0.050001 0.424784 0.512709
O O20 0.190773 0.518026 0.250000
O O21 0.193931 0.461178 0.992905
O O22 0.858574 0.907805 0.750000
#
# Coordination Sequence:
#
# PCOD9434350 Si02
#       8
#     8   8   8   8   8   8   8   8
#     4  11  22  38  58  81 108 136 169 209 257 309
#     4   9  19  33  49  72 103 140 177 214 255 300
#     4  10  19  31  48  70 101 139 175 212 257 307
#     4  10  18  29  48  76 108 140 176 214 254 301
#     4  10  18  31  51  76 106 138 171 207 253 304
#     4   9  20  36  53  74 101 134 173 216 259 304
#     4  10  20  35  55  78 103 134 173 216 259 302
#     4  11  22  37  57  79 103 133 170 212 258 308
#
# _framework density 17.904368999999999
#
# number of rings (size 3 to 8) (size 9 to 14) (size 15 to 20)
#    0.000    2.000    0.000    6.000    0.000    3.500 
#    0.000    0.000    0.000    0.750    0.000    0.000 
#    0.000    0.000    0.000    0.000    0.000    0.000 
#
# Total GULP energy -357159.711009 kJ/mol
# GULP energy per Si atom -5580.620485 kJ/mol
# Density = 1.786362 g / cm^3
# Si number density = 17.904369 Si / 1000 Ang^3
#
#
#
# Elastic Constant Matrix: (Units=GPa)
#
#
# Indices 1 2 3 4 5 6 
#
# 1 61.5991 14.4036 21.3233 0.0000 0.0000 0.0000
# 2 14.4036 81.0264 19.0240 0.0000 0.0000 0.0000
# 3 21.3233 19.0240 62.4770 0.0000 0.0000 0.0000
# 4 0.0000 0.0000 0.0000 26.2652 0.0000 0.0000
# 5 0.0000 0.0000 0.0000 0.0000 23.9099 0.0000
# 6 0.0000 0.0000 0.0000 0.0000 0.0000 18.5359
#
#
#
# Elastic Compliance Matrix: (Units=1/GPa)
#
#
# Indices 1 2 3 4 5 6 
#
# 1 0.018695 -0.001966 -0.005782 0.000000 0.000000 0.000000
# 2 -0.001966 0.013499 -0.003439 0.000000 0.000000 0.000000
# 3 -0.005782 -0.003439 0.019027 0.000000 0.000000 0.000000
# 4 0.000000 0.000000 0.000000 0.038073 0.000000 0.000000
# 5 0.000000 0.000000 0.000000 0.000000 0.041824 0.000000
# 6 0.000000 0.000000 0.000000 0.000000 0.000000 0.053949
#
#
# Mechanical properties :
#
#
# Convention : Reuss Voigt Hill
#
# Bulk Modulus (GPa) = 34.66687 34.95601 34.81144
# Shear Modulus (GPa) = 23.03550 23.76565 23.40057
#
# Velocity S-wave (km/s) = 3.59079 3.64726 3.61913
# Velocity P-wave (km/s) = 6.04946 6.10760 6.07860
#
# Compressibility (1/GPa) = 0.02884599
#
# Stress axis : x y z
#
# Youngs Moduli (GPa) = 53.48971 74.08161 52.55814
#
# Poissons Ratio (x) = 0.14563 0.30389
# Poissons Ratio (y) = 0.10515 0.18077
# Poissons Ratio (z) = 0.30928 0.25479
#
# Static dielectric constant tensor:
#      x y z
#    x 1.645820 0.000000 0.000000 
#    y 0.000000 1.553380 0.000000 
#    z 0.000000 0.000000 1.594180 
# 
# From -- ./inp_files/7437.got.cif
#   From: 2010.05.17/outbox.cif.g08.bks.cpg/sg57_4_cif.got.tgz:7437.got - 2010.06.03 13:58:18.
