data_PCOD9434202
_publ_section_title
;
Structure prediction by ZEFSAII (Michael W. Deem and Ramdas Pophale) SiO2 
 PCOD9434202
Probable space group: P B C M
;
_chemical_formula_sum "Si O2"
_cell_formula_units_Z 64
_cell_length_a 12.738585
_cell_length_b 32.569036
_cell_length_c 8.266636
_cell_angle_alpha 90.000000
_cell_angle_beta 90.000000
_cell_angle_gamma 90.000000
_cell_volume 3429.690327
_symmetry_space_group_name_H-M "P B C M"
_symmetry_group_IT_number 57
_symmetry_cell_setting 'orthorhombic'
loop_
_space_group_symop_operation_xyz
x,y,z
-x,-y,1/2+z
x,1/2-y,-z
-x,1/2+y,1/2-z
-x,-y,-z
x,y,1/2-z
-x,1/2+y,z
x,1/2-y,1/2+z
loop_
_atom_site_type_symbol
_atom_site_label
_atom_site_fract_x
_atom_site_fract_y
_atom_site_fract_z
Si Si1 0.825131 0.890188 0.442872
Si Si2 0.592057 0.878028 0.436028
Si Si3 0.572632 0.964786 0.933798
Si Si4 0.039975 0.859794 0.560830
Si Si5 0.197907 0.703753 0.943441
Si Si6 0.194457 0.570866 0.942272
Si Si7 0.181609 0.481293 0.565483
Si Si8 0.635178 0.365330 0.051803
O O1 0.823440 0.885934 0.250000
O O2 0.709855 0.876351 0.507704
O O3 0.846524 0.938388 0.481017
O O4 0.918862 0.863978 0.515979
O O5 0.599541 0.864203 0.250000
O O6 0.567886 0.926413 0.447144
O O7 0.484317 0.859877 0.507399
O O8 0.544415 0.952472 0.750000
O O9 0.691894 0.980217 0.929349
O O10 0.500000 0.000000 0.000000
O O11 0.054838 0.866776 0.750000
O O12 0.092563 0.816872 0.512421
O O13 0.104641 0.895393 0.468938
O O14 0.192692 0.702503 0.750000
O O15 0.292081 0.673124 0.994127
O O16 0.213175 0.750000 0.000000
O O17 0.208636 0.564259 0.750000
O O18 0.159811 0.526293 0.008831
O O19 0.301931 0.593284 0.001545
O O20 0.140316 0.479163 0.750000
O O21 0.631563 0.367209 0.250000
#
# Coordination Sequence:
#
# PCOD9434202 Si02
#       8
#     8   8   8   8   8   8   8   8
#     4  10  20  33  50  72 100 137 182 224 258 300
#     4   9  17  31  50  71  96 131 171 206 247 296
#     4  10  18  27  40  61  91 128 170 214 256 296
#     4  11  22  36  54  75 102 135 172 213 257 305
#     4  10  20  37  61  87 111 131 156 194 245 303
#     4   9  17  31  50  71  98 133 174 219 266 311
#     4   9  18  31  46  65  94 134 177 221 267 310
#     4   8  15  30  53  78 104 133 162 198 249 306
#
# _framework density 18.660575999999999
#
# number of rings (size 3 to 8) (size 9 to 14) (size 15 to 20)
#    0.000    2.500    0.000    3.750    0.000    4.000 
#    0.000    5.625    0.000    0.750    0.000    1.750 
#    0.000    0.000    0.000    0.000    0.000    0.000 
#
# Total GULP energy -356607.792934 kJ/mol
# GULP energy per Si atom -5571.996765 kJ/mol
# Density = 1.861810 g / cm^3
# Si number density = 18.660576 Si / 1000 Ang^3
#
#
#
# Elastic Constant Matrix: (Units=GPa)
#
#
# Indices 1 2 3 4 5 6 
#
# 1 97.4348 37.9546 -3.6185 0.0000 0.0000 0.0000
# 2 37.9546 67.3956 7.0662 0.0000 0.0000 0.0000
# 3 -3.6185 7.0662 23.1107 0.0000 0.0000 0.0000
# 4 0.0000 0.0000 0.0000 21.9992 0.0000 0.0000
# 5 0.0000 0.0000 0.0000 0.0000 5.7717 0.0000
# 6 0.0000 0.0000 0.0000 0.0000 0.0000 13.9521
#
#
#
# Elastic Compliance Matrix: (Units=1/GPa)
#
#
# Indices 1 2 3 4 5 6 
#
# 1 0.013609 -0.008149 0.004622 0.000000 0.000000 0.000000
# 2 -0.008149 0.020208 -0.007455 0.000000 0.000000 0.000000
# 3 0.004622 -0.007455 0.046273 0.000000 0.000000 0.000000
# 4 0.000000 0.000000 0.000000 0.045456 0.000000 0.000000
# 5 0.000000 0.000000 0.000000 0.000000 0.173260 0.000000
# 6 0.000000 0.000000 0.000000 0.000000 0.000000 0.071674
#
#
# Mechanical properties :
#
#
# Convention : Reuss Voigt Hill
#
# Bulk Modulus (GPa) = 17.20326 30.08284 23.64305
# Shear Modulus (GPa) = 12.14125 18.11385 15.12755
#
# Velocity S-wave (km/s) = 2.55352 3.11899 2.85031
# Velocity P-wave (km/s) = 4.23474 5.39693 4.85077
#
# Compressibility (1/GPa) = 0.05812852
#
# Stress axis : x y z
#
# Youngs Moduli (GPa) = 73.47948 49.48413 21.61080
#
# Poissons Ratio (x) = 0.40324 -0.09989
# Poissons Ratio (y) = 0.59877 0.16110
# Poissons Ratio (z) = -0.33965 0.36889
#
# Static dielectric constant tensor:
#      x y z
#    x 1.699620 0.000000 0.000000 
#    y 0.000000 1.667870 0.000000 
#    z 0.000000 0.000000 1.678960 
# 
# From -- ./inp_files/3748.got.cif
#   From: 2010.05.17/outbox.cif.g08.bks.cpg/sg57_2_cif.got.tgz:3748.got - 2010.06.03 13:58:18.
