data_PCOD9434720
_publ_section_title
;
Structure prediction by ZEFSAII (Michael W. Deem and Ramdas Pophale) SiO2 
 PCOD9434720
Probable space group: P B C M
;
_chemical_formula_sum "Si O2"
_cell_formula_units_Z 44
_cell_length_a 26.431581
_cell_length_b 7.634246
_cell_length_c 10.570627
_cell_angle_alpha 90.000000
_cell_angle_beta 90.000000
_cell_angle_gamma 90.000000
_cell_volume 2132.995994
_symmetry_space_group_name_H-M "P B C M"
_symmetry_group_IT_number 57
_symmetry_cell_setting 'orthorhombic'
loop_
_space_group_symop_operation_xyz
x,y,z
-x,-y,1/2+z
x,1/2-y,-z
-x,1/2+y,1/2-z
-x,-y,-z
x,y,1/2-z
-x,1/2+y,z
x,1/2-y,1/2+z
loop_
_atom_site_type_symbol
_atom_site_label
_atom_site_fract_x
_atom_site_fract_y
_atom_site_fract_z
Si Si1 0.070449 0.038568 0.112318
Si Si2 0.005272 0.750000 0.000000
Si Si3 0.611619 0.537148 0.017409
Si Si4 0.175202 0.898271 0.395219
Si Si5 0.429374 0.999726 0.750000
Si Si6 0.719138 0.595598 0.102952
Si Si7 0.454333 0.085878 0.250000
O O1 0.064040 0.955523 0.250000
O O2 0.130262 0.042081 0.089488
O O3 0.036139 0.211311 0.108537
O O4 0.043293 0.910402 0.014937
O O5 0.667265 0.494707 0.069530
O O6 0.569560 0.500263 0.124042
O O7 0.611507 0.750000 0.000000
O O8 0.599118 0.457138 0.880744
O O9 0.167340 0.750000 0.500000
O O10 0.171431 0.830990 0.250000
O O11 0.230487 0.981080 0.408423
O O12 0.437283 0.211026 0.750000
O O13 0.485487 0.921610 0.750000
O O14 0.715105 0.657470 0.250000
O O15 0.723140 0.750000 0.000000
#
# Coordination Sequence:
#
# PCOD9434720 Si02
#       7
#     8   4   8   8   4   8   4
#     4  10  20  36  56  82 115 150 188 236 283 334
#     4  10  20  34  58  82 114 148 196 222 282 342
#     4   9  18  33  54  77 108 139 185 224 276 325
#     4  10  22  41  58  82 118 151 189 236 292 341
#     4  10  20  32  54  80 108 146 176 225 270 333
#     4  10  21  37  61  85 109 144 193 244 284 335
#     4  10  18  34  52  78 110 142 178 219 272 327
#
# _framework density 20.628263
#
# number of rings (size 3 to 8) (size 9 to 14) (size 15 to 20)
#    0.000    2.182    1.818    1.091    5.091    0.727 
#    0.000    2.727    0.000    0.000    0.000    0.000 
#    0.000    0.000    0.000    0.000    0.000    0.000 
#
# Total GULP energy -245097.870503 kJ/mol
# GULP energy per Si atom -5570.406148 kJ/mol
# Density = 2.058131 g / cm^3
# Si number density = 20.628263 Si / 1000 Ang^3
#
#
#
# Elastic Constant Matrix: (Units=GPa)
#
#
# Indices 1 2 3 4 5 6 
#
# 1 152.9957 9.3209 59.8603 0.0000 0.0000 0.0000
# 2 9.3209 20.5090 16.1601 0.0000 0.0000 0.0000
# 3 59.8603 16.1601 138.5086 0.0000 0.0000 0.0000
# 4 0.0000 0.0000 0.0000 15.8822 0.0000 0.0000
# 5 0.0000 0.0000 0.0000 0.0000 34.2789 0.0000
# 6 0.0000 0.0000 0.0000 0.0000 0.0000 19.5389
#
#
#
# Elastic Compliance Matrix: (Units=1/GPa)
#
#
# Indices 1 2 3 4 5 6 
#
# 1 0.007884 -0.000989 -0.003292 0.000000 0.000000 0.000000
# 2 -0.000989 0.053819 -0.005852 0.000000 0.000000 0.000000
# 3 -0.003292 -0.005852 0.009325 0.000000 0.000000 0.000000
# 4 0.000000 0.000000 0.000000 0.062964 0.000000 0.000000
# 5 0.000000 0.000000 0.000000 0.000000 0.029172 0.000000
# 6 0.000000 0.000000 0.000000 0.000000 0.000000 0.051180
#
#
# Mechanical properties :
#
#
# Convention : Reuss Voigt Hill
#
# Bulk Modulus (GPa) = 19.69939 53.63287 36.66613
# Shear Modulus (GPa) = 19.87817 29.05146 24.46482
#
# Velocity S-wave (km/s) = 3.10762 3.75685 3.44755
# Velocity P-wave (km/s) = 4.73781 6.69886 5.80179
#
# Compressibility (1/GPa) = 0.05076300
#
# Stress axis : x y z
#
# Youngs Moduli (GPa) = 126.83218 18.58066 107.23588
#
# Poissons Ratio (x) = 0.01838 0.35303
# Poissons Ratio (y) = 0.12548 0.62751
# Poissons Ratio (z) = 0.41754 0.10873
#
# Static dielectric constant tensor:
#      x y z
#    x 1.719320 0.000000 0.000000 
#    y 0.000000 1.823380 0.000000 
#    z 0.000000 0.000000 1.791670 
# 
# From -- ./inp_files/14409.got.cif
#   From: 2010.05.17/outbox.cif.g08.bks.cpg/sg57_8_cif.got.tgz:14409.got - 2010.06.03 13:58:18.
