data_PCOD9434242
_publ_section_title
;
Structure prediction by ZEFSAII (Michael W. Deem and Ramdas Pophale) SiO2 
 PCOD9434242
Probable space group: P B C M
;
_chemical_formula_sum "Si O2"
_cell_formula_units_Z 64
_cell_length_a 18.956149
_cell_length_b 25.632765
_cell_length_c 9.094292
_cell_angle_alpha 90.000000
_cell_angle_beta 90.000000
_cell_angle_gamma 90.000000
_cell_volume 4418.902956
_symmetry_space_group_name_H-M "P B C M"
_symmetry_group_IT_number 57
_symmetry_cell_setting 'orthorhombic'
loop_
_space_group_symop_operation_xyz
x,y,z
-x,-y,1/2+z
x,1/2-y,-z
-x,1/2+y,1/2-z
-x,-y,-z
x,y,1/2-z
-x,1/2+y,z
x,1/2-y,1/2+z
loop_
_atom_site_type_symbol
_atom_site_label
_atom_site_fract_x
_atom_site_fract_y
_atom_site_fract_z
Si Si1 0.489842 0.081197 0.573475
Si Si2 0.439632 0.304215 0.426946
Si Si3 0.238923 0.992521 0.427055
Si Si4 0.091334 0.952358 0.081328
Si Si5 0.274998 0.302937 0.425760
Si Si6 0.181927 0.097611 0.925784
Si Si7 0.388647 0.513649 0.425541
Si Si8 0.043633 0.425519 0.582013
O O1 0.502240 0.078781 0.750000
O O2 0.477332 0.141465 0.532056
O O3 0.554080 0.054266 0.488187
O O4 0.421530 0.044208 0.545292
O O5 0.464489 0.250000 0.500000
O O6 0.444052 0.299157 0.250000
O O7 0.356976 0.310877 0.467452
O O8 0.242187 0.995758 0.250000
O O9 0.173342 0.954043 0.463876
O O10 0.314163 0.978635 0.494996
O O11 0.216488 0.048033 0.494656
O O12 0.085784 0.934313 0.250000
O O13 0.066591 0.013203 0.080270
O O14 0.035434 0.922971 0.979962
O O15 0.249828 0.250000 0.500000
O O16 0.273079 0.297327 0.250000
O O17 0.227343 0.351926 0.465316
O O18 0.183915 0.089893 0.750000
O O19 0.101665 0.102002 0.980963
O O20 0.381140 0.518844 0.250000
O O21 0.048027 0.407715 0.750000
#
# Coordination Sequence:
#
# PCOD9434242 Si02
#       8
#     8   8   8   8   8   8   8   8
#     4   9  18  32  46  61  86 116 144 177 216 259
#     4   9  17  30  46  63  84 110 142 179 217 255
#     4  10  19  29  42  61  84 111 143 175 210 252
#     4   8  15  26  38  54  78 107 136 166 199 237
#     4   9  18  30  43  60  82 109 140 175 213 249
#     4  10  18  28  42  59  82 112 144 176 210 249
#     4  10  19  30  45  64  86 114 147 180 216 259
#     4   9  16  25  38  57  79 105 137 169 202 238
#
# _framework density 14.483233
#
# number of rings (size 3 to 8) (size 9 to 14) (size 15 to 20)
#    0.000    2.750    0.000    3.000    0.000    7.500 
#    0.000    2.500    0.000    0.000    0.000    0.000 
#    0.000    1.000    0.000    3.250    0.000    4.250 
#
# Total GULP energy -356464.555806 kJ/mol
# GULP energy per Si atom -5569.758684 kJ/mol
# Density = 1.445027 g / cm^3
# Si number density = 14.483233 Si / 1000 Ang^3
#
#
#
# Elastic Constant Matrix: (Units=GPa)
#
#
# Indices 1 2 3 4 5 6 
#
# 1 98.5842 29.5046 38.8487 0.0000 0.0000 0.0000
# 2 29.5046 70.0155 25.5815 0.0000 0.0000 0.0000
# 3 38.8487 25.5815 41.9556 0.0000 0.0000 0.0000
# 4 0.0000 0.0000 0.0000 19.9151 0.0000 0.0000
# 5 0.0000 0.0000 0.0000 0.0000 26.3795 0.0000
# 6 0.0000 0.0000 0.0000 0.0000 0.0000 14.8014
#
#
#
# Elastic Compliance Matrix: (Units=1/GPa)
#
#
# Indices 1 2 3 4 5 6 
#
# 1 0.016132 -0.001725 -0.013885 0.000000 0.000000 0.000000
# 2 -0.001725 0.018561 -0.009720 0.000000 0.000000 0.000000
# 3 -0.013885 -0.009720 0.042619 0.000000 0.000000 0.000000
# 4 0.000000 0.000000 0.000000 0.050213 0.000000 0.000000
# 5 0.000000 0.000000 0.000000 0.000000 0.037908 0.000000
# 6 0.000000 0.000000 0.000000 0.000000 0.000000 0.067561
#
#
# Mechanical properties :
#
#
# Convention : Reuss Voigt Hill
#
# Bulk Modulus (GPa) = 37.52274 44.26946 40.89610
# Shear Modulus (GPa) = 17.09185 19.99390 18.54288
#
# Velocity S-wave (km/s) = 3.43900 3.71952 3.58201
# Velocity P-wave (km/s) = 6.46010 7.00563 6.73839
#
# Compressibility (1/GPa) = 0.02665051
#
# Stress axis : x y z
#
# Youngs Moduli (GPa) = 61.99043 53.87726 23.46394
#
# Poissons Ratio (x) = 0.09291 0.32581
# Poissons Ratio (y) = 0.10690 0.22807
# Poissons Ratio (z) = 0.86077 0.52370
#
# Static dielectric constant tensor:
#      x y z
#    x 1.486550 0.000000 0.000000 
#    y 0.000000 1.455580 0.000000 
#    z 0.000000 0.000000 1.484120 
# 
# From -- ./inp_files/7360.got.cif
#   From: 2010.05.17/outbox.cif.g08.bks.cpg/sg57_4_cif.got.tgz:7360.got - 2010.06.03 13:58:18.
