data_PCOD9434299
_publ_section_title
;
Structure prediction by ZEFSAII (Michael W. Deem and Ramdas Pophale) SiO2 
 PCOD9434299
Probable space group: P B C M
;
_chemical_formula_sum "Si O2"
_cell_formula_units_Z 64
_cell_length_a 27.332555
_cell_length_b 18.955187
_cell_length_c 8.582606
_cell_angle_alpha 90.000000
_cell_angle_beta 90.000000
_cell_angle_gamma 90.000000
_cell_volume 4446.594023
_symmetry_space_group_name_H-M "P B C M"
_symmetry_group_IT_number 57
_symmetry_cell_setting 'orthorhombic'
loop_
_space_group_symop_operation_xyz
x,y,z
-x,-y,1/2+z
x,1/2-y,-z
-x,1/2+y,1/2-z
-x,-y,-z
x,y,1/2-z
-x,1/2+y,z
x,1/2-y,1/2+z
loop_
_atom_site_type_symbol
_atom_site_label
_atom_site_fract_x
_atom_site_fract_y
_atom_site_fract_z
Si Si1 0.547560 0.958850 0.563507
Si Si2 0.192460 0.827707 0.562203
Si Si3 0.604820 0.419019 0.562078
Si Si4 0.991936 0.170709 0.563434
Si Si5 0.953669 0.955458 0.936250
Si Si6 0.899655 0.418803 0.937658
Si Si7 0.509725 0.328420 0.937413
Si Si8 0.303911 0.827907 0.938361
O O1 0.547913 0.962414 0.750000
O O2 0.536045 0.878330 0.516655
O O3 0.500000 0.000000 0.500000
O O4 0.593083 0.002829 0.499038
O O5 0.179606 0.750000 0.500000
O O6 0.192113 0.824720 0.750000
O O7 0.151838 0.884339 0.515012
O O8 0.248143 0.843831 0.511767
O O9 0.604025 0.421335 0.750000
O O10 0.559934 0.367755 0.512023
O O11 0.655663 0.384327 0.510458
O O12 0.994591 0.250000 0.500000
O O13 0.990409 0.170310 0.750000
O O14 0.942850 0.132531 0.499172
O O15 0.037020 0.122188 0.504334
O O16 0.954913 0.953422 0.750000
O O17 0.908755 0.003021 0.995083
O O18 0.000000 0.000000 0.000000
O O19 0.903000 0.421422 0.750000
O O20 0.511055 0.326128 0.750000
O O21 0.507026 0.250000 0.000000
O O22 0.304771 0.825726 0.750000
O O23 0.316502 0.750000 0.000000
#
# Coordination Sequence:
#
# PCOD9434299 Si02
#       8
#     8   8   8   8   8   8   8   8
#     4   9  17  28  40  56  78 102 132 164 197 235
#     4   9  18  29  42  59  82 110 140 174 208 239
#     4   9  17  28  41  57  79 106 137 167 199 236
#     4  11  20  30  43  61  84 110 139 171 205 243
#     4  10  18  29  43  60  81 107 137 170 206 244
#     4  10  18  29  43  60  82 111 143 172 205 244
#     4   9  17  26  37  56  78 102 130 162 194 232
#     4   9  17  29  42  59  82 108 139 174 206 239
#
# _framework density 14.393039
#
# number of rings (size 3 to 8) (size 9 to 14) (size 15 to 20)
#    0.000    2.500    0.000    6.000    0.000    5.000 
#    0.000    0.000    0.000    0.000    0.000    0.000 
#    0.000    1.000    0.000    4.250    0.000    3.875 
#
# Total GULP energy -356493.556435 kJ/mol
# GULP energy per Si atom -5570.211819 kJ/mol
# Density = 1.436028 g / cm^3
# Si number density = 14.393039 Si / 1000 Ang^3
#
#
#
# Elastic Constant Matrix: (Units=GPa)
#
#
# Indices 1 2 3 4 5 6 
#
# 1 72.5840 45.7786 20.2933 0.0000 0.0000 0.0000
# 2 45.7786 99.8299 27.7271 0.0000 0.0000 0.0000
# 3 20.2933 27.7271 50.1000 0.0000 0.0000 0.0000
# 4 0.0000 0.0000 0.0000 25.9157 0.0000 0.0000
# 5 0.0000 0.0000 0.0000 0.0000 14.5094 0.0000
# 6 0.0000 0.0000 0.0000 0.0000 0.0000 28.9733
#
#
#
# Elastic Compliance Matrix: (Units=1/GPa)
#
#
# Indices 1 2 3 4 5 6 
#
# 1 0.019906 -0.008140 -0.003558 0.000000 0.000000 0.000000
# 2 -0.008140 0.015165 -0.005096 0.000000 0.000000 0.000000
# 3 -0.003558 -0.005096 0.024221 0.000000 0.000000 0.000000
# 4 0.000000 0.000000 0.000000 0.038587 0.000000 0.000000
# 5 0.000000 0.000000 0.000000 0.000000 0.068921 0.000000
# 6 0.000000 0.000000 0.000000 0.000000 0.000000 0.034515
#
#
# Mechanical properties :
#
#
# Convention : Reuss Voigt Hill
#
# Bulk Modulus (GPa) = 38.90311 45.56799 42.23555
# Shear Modulus (GPa) = 20.53643 22.46067 21.49855
#
# Velocity S-wave (km/s) = 3.78144 3.95463 3.86900
# Velocity P-wave (km/s) = 6.79364 7.25125 7.02617
#
# Compressibility (1/GPa) = 0.02570488
#
# Stress axis : x y z
#
# Youngs Moduli (GPa) = 50.23687 65.94126 41.28570
#
# Poissons Ratio (x) = 0.53675 0.14690
# Poissons Ratio (y) = 0.40892 0.21038
# Poissons Ratio (z) = 0.17874 0.33602
#
# Static dielectric constant tensor:
#      x y z
#    x 1.481500 0.000000 0.000000 
#    y 0.000000 1.480780 0.000000 
#    z 0.000000 0.000000 1.486390 
# 
# From -- ./inp_files/9810.got.cif
#   From: 2010.05.17/outbox.cif.g08.bks.cpg/sg57_5_cif.got.tgz:9810.got - 2010.06.03 13:58:18.
