data_PCOD9434445
_publ_section_title
;
Structure prediction by ZEFSAII (Michael W. Deem and Ramdas Pophale) SiO2 
 PCOD9434445
Probable space group: P B C M
;
_chemical_formula_sum "Si O2"
_cell_formula_units_Z 60
_cell_length_a 12.034671
_cell_length_b 30.687715
_cell_length_c 9.422155
_cell_angle_alpha 90.000000
_cell_angle_beta 90.000000
_cell_angle_gamma 90.000000
_cell_volume 3479.757814
_symmetry_space_group_name_H-M "P B C M"
_symmetry_group_IT_number 57
_symmetry_cell_setting 'orthorhombic'
loop_
_space_group_symop_operation_xyz
x,y,z
-x,-y,1/2+z
x,1/2-y,-z
-x,1/2+y,1/2-z
-x,-y,-z
x,y,1/2-z
-x,1/2+y,z
x,1/2-y,1/2+z
loop_
_atom_site_type_symbol
_atom_site_label
_atom_site_fract_x
_atom_site_fract_y
_atom_site_fract_z
Si Si1 0.104518 0.174820 0.412051
Si Si2 0.433427 0.323512 0.091561
Si Si3 0.736609 0.750000 0.500000
Si Si4 0.903972 0.444093 0.917776
Si Si5 0.862518 0.154974 0.078856
Si Si6 0.752495 0.893827 0.084164
Si Si7 0.161569 0.472191 0.916699
Si Si8 0.639955 0.295986 0.579354
O O1 0.105513 0.157631 0.250000
O O2 0.180073 0.217949 0.416499
O O3 0.159108 0.139372 0.514764
O O4 0.976175 0.180739 0.455773
O O5 0.482463 0.322229 0.250000
O O6 0.345748 0.283353 0.080042
O O7 0.362991 0.367602 0.073820
O O8 0.527050 0.318572 0.973558
O O9 0.877315 0.448334 0.750000
O O10 0.876767 0.395162 0.966596
O O11 0.035994 0.452991 0.931475
O O12 0.842250 0.480920 0.008231
O O13 0.856810 0.154040 0.250000
O O14 0.748921 0.177247 0.032298
O O15 0.777153 0.901149 0.250000
O O16 0.759377 0.938441 0.997677
O O17 0.186548 0.475226 0.750000
O O18 0.642366 0.250000 0.500000
O O19 0.639715 0.290999 0.750000
#
# Coordination Sequence:
#
# PCOD9434445 Si02
#       8
#     8   8   4   8   8   8   8   8
#     4  10  19  34  53  75 107 142 175 214 265 322
#     4  10  21  37  54  77 107 138 181 226 268 312
#     4  10  20  30  56  80 106 134 178 216 274 318
#     4   9  17  32  52  74 108 145 177 214 259 315
#     4   9  19  36  54  76 107 143 180 217 262 313
#     4  10  20  33  52  81 111 138 172 218 268 316
#     4  10  18  30  52  81 111 142 175 210 262 325
#     4  11  23  38  58  78 103 141 186 225 262 310
#
# _framework density 17.242578999999999
#
# number of rings (size 3 to 8) (size 9 to 14) (size 15 to 20)
#    0.000    2.133    2.000    1.600    0.933    3.733 
#    0.000    2.667    0.000    0.800    0.000    0.000 
#    0.000    0.000    0.000    0.000    0.000    0.000 
#
# Total GULP energy -334494.649954 kJ/mol
# GULP energy per Si atom -5574.910833 kJ/mol
# Density = 1.720333 g / cm^3
# Si number density = 17.242579 Si / 1000 Ang^3
#
#
#
# Elastic Constant Matrix: (Units=GPa)
#
#
# Indices 1 2 3 4 5 6 
#
# 1 81.4216 21.0848 33.6445 0.0000 0.0000 0.0000
# 2 21.0848 -2.0144 15.3502 0.0000 0.0000 0.0000
# 3 33.6445 15.3502 80.4991 0.0000 0.0000 0.0000
# 4 0.0000 0.0000 0.0000 22.0935 0.0000 0.0000
# 5 0.0000 0.0000 0.0000 0.0000 18.9074 0.0000
# 6 0.0000 0.0000 0.0000 0.0000 0.0000 19.9055
#
#
#
# Elastic Compliance Matrix: (Units=1/GPa)
#
#
# Indices 1 2 3 4 5 6 
#
# 1 0.009017 0.026766 -0.008873 0.000000 0.000000 0.000000
# 2 0.026766 -0.122909 0.012250 0.000000 0.000000 0.000000
# 3 -0.008873 0.012250 0.013795 0.000000 0.000000 0.000000
# 4 0.000000 0.000000 0.000000 0.045262 0.000000 0.000000
# 5 0.000000 0.000000 0.000000 0.000000 0.052889 0.000000
# 6 0.000000 0.000000 0.000000 0.000000 0.000000 0.050237
#
#
# Mechanical properties :
#
#
# Convention : Reuss Voigt Hill
#
# Bulk Modulus (GPa) = -25.11968 33.34056 4.11044
# Shear Modulus (GPa) = -197.88625 18.16973 -89.85826
#
# Velocity S-wave (km/s) = -10.72451 3.24971 -7.22685
# Velocity P-wave (km/s) = 12.95969 5.78437 8.20045
#
# Compressibility (1/GPa) = -0.03980943
#
# Stress axis : x y z
#
# Youngs Moduli (GPa) = 110.90581 -8.13609 72.49134
#
# Poissons Ratio (x) = 0.21777 0.64318
# Poissons Ratio (y) = -2.96853 -0.88805
# Poissons Ratio (z) = 0.98401 0.09967
#
# Static dielectric constant tensor:
#      x y z
#    x 1.583810 0.000000 0.000000 
#    y 0.000000 1.583950 0.000000 
#    z 0.000000 0.000000 1.589930 
# 
# From -- ./inp_files/3706.got.cif
#   From: 2010.05.17/outbox.cif.g08.bks.cpg/sg57_2_cif.got.tgz:3706.got - 2010.06.03 13:58:18.
