data_PCOD9434376
_publ_section_title
;
Structure prediction by ZEFSAII (Michael W. Deem and Ramdas Pophale) SiO2 
 PCOD9434376
Probable space group: P B C M
;
_chemical_formula_sum "Si O2"
_cell_formula_units_Z 64
_cell_length_a 20.898304
_cell_length_b 22.741103
_cell_length_c 9.099344
_cell_angle_alpha 90.000000
_cell_angle_beta 90.000000
_cell_angle_gamma 90.000000
_cell_volume 4324.467638
_symmetry_space_group_name_H-M "P B C M"
_symmetry_group_IT_number 57
_symmetry_cell_setting 'orthorhombic'
loop_
_space_group_symop_operation_xyz
x,y,z
-x,-y,1/2+z
x,1/2-y,-z
-x,1/2+y,1/2-z
-x,-y,-z
x,y,1/2-z
-x,1/2+y,z
x,1/2-y,1/2+z
loop_
_atom_site_type_symbol
_atom_site_label
_atom_site_fract_x
_atom_site_fract_y
_atom_site_fract_z
Si Si1 0.752582 0.605210 0.572539
Si Si2 0.775135 0.021510 0.925068
Si Si3 0.128836 0.186974 0.573536
Si Si4 0.387602 0.091733 0.579986
Si Si5 0.350902 0.952425 0.920479
Si Si6 0.510163 0.436370 0.925713
Si Si7 0.971054 0.586905 0.925075
Si Si8 0.905986 0.460223 0.924197
O O1 0.754956 0.594589 0.750000
O O2 0.769732 0.544433 0.492049
O O3 0.804684 0.654235 0.535620
O O4 0.679240 0.621904 0.535945
O O5 0.777741 0.019089 0.750000
O O6 0.711149 0.054679 0.979700
O O7 0.839533 0.048622 0.992222
O O8 0.123636 0.250000 0.500000
O O9 0.127368 0.192939 0.750000
O O10 0.071382 0.142811 0.531892
O O11 0.401779 0.104906 0.750000
O O12 0.450841 0.101661 0.484399
O O13 0.369542 0.022010 0.572312
O O14 0.335343 0.940043 0.750000
O O15 0.416588 0.919089 0.962021
O O16 0.506724 0.442497 0.750000
O O17 0.500000 0.500000 0.000000
O O18 0.984014 0.589412 0.750000
O O19 0.929324 0.527701 0.949762
O O20 0.036686 0.579361 0.012978
O O21 0.897977 0.452439 0.750000
#
# Coordination Sequence:
#
# PCOD9434376 Si02
#       8
#     8   8   8   8   8   8   8   8
#     4   9  17  31  43  55  79 110 140 173 216 257
#     4  11  19  25  39  62  83 106 140 179 211 249
#     4  10  20  34  49  64  86 113 142 179 219 260
#     4   8  14  23  37  51  68  98 134 169 204 241
#     4   8  15  25  34  47  73 108 137 163 203 248
#     4   9  15  22  32  47  70  99 132 167 201 236
#     4   9  18  32  47  64  84 108 139 177 216 255
#     4  10  18  30  47  63  85 112 138 173 218 264
#
# _framework density 14.79951
#
# number of rings (size 3 to 8) (size 9 to 14) (size 15 to 20)
#    0.000    2.750    1.250    3.375    0.000    6.500 
#    0.000    0.000    0.000    0.000    0.000    0.000 
#    0.000    0.000    0.000    1.125    0.000   16.875 
#
# Total GULP energy -356318.652719 kJ/mol
# GULP energy per Si atom -5567.478949 kJ/mol
# Density = 1.476583 g / cm^3
# Si number density = 14.799510 Si / 1000 Ang^3
#
#
#
# Elastic Constant Matrix: (Units=GPa)
#
#
# Indices 1 2 3 4 5 6 
#
# 1 160.4358 43.6043 71.9253 0.0000 0.0000 0.0000
# 2 43.6043 43.3000 19.5774 0.0000 0.0000 0.0000
# 3 71.9253 19.5774 58.7016 0.0000 0.0000 0.0000
# 4 0.0000 0.0000 0.0000 14.5719 0.0000 0.0000
# 5 0.0000 0.0000 0.0000 0.0000 28.6962 0.0000
# 6 0.0000 0.0000 0.0000 0.0000 0.0000 8.3841
#
#
#
# Elastic Compliance Matrix: (Units=1/GPa)
#
#
# Indices 1 2 3 4 5 6 
#
# 1 0.016170 -0.008626 -0.016936 0.000000 0.000000 0.000000
# 2 -0.008626 0.031798 -0.000035 0.000000 0.000000 0.000000
# 3 -0.016936 -0.000035 0.037798 0.000000 0.000000 0.000000
# 4 0.000000 0.000000 0.000000 0.068625 0.000000 0.000000
# 5 0.000000 0.000000 0.000000 0.000000 0.034848 0.000000
# 6 0.000000 0.000000 0.000000 0.000000 0.000000 0.119274
#
#
# Mechanical properties :
#
#
# Convention : Reuss Voigt Hill
#
# Bulk Modulus (GPa) = 28.92582 59.18349 44.05466
# Shear Modulus (GPa) = 13.46873 18.81913 16.14393
#
# Velocity S-wave (km/s) = 3.02003 3.56983 3.30637
# Velocity P-wave (km/s) = 5.63456 7.55437 6.66396
#
# Compressibility (1/GPa) = 0.03457119
#
# Stress axis : x y z
#
# Youngs Moduli (GPa) = 61.84260 31.44893 26.45655
#
# Poissons Ratio (x) = 0.27129 0.44806
# Poissons Ratio (y) = 0.53348 0.00092
# Poissons Ratio (z) = 1.04735 0.00110
#
# Static dielectric constant tensor:
#      x y z
#    x 1.538230 0.000000 0.000000 
#    y 0.000000 1.450430 0.000000 
#    z 0.000000 0.000000 1.490870 
# 
# From -- ./inp_files/8818.got.cif
#   From: 2010.05.17/outbox.cif.g08.bks.cpg/sg57_5_cif.got.tgz:8818.got - 2010.06.03 13:58:18.
