data_PCOD9434029
_publ_section_title
;
Structure prediction by ZEFSAII (Michael W. Deem and Ramdas Pophale) SiO2 
 PCOD9434029
Probable space group: P B C M
;
_chemical_formula_sum "Si O2"
_cell_formula_units_Z 64
_cell_length_a 20.712146
_cell_length_b 23.185027
_cell_length_c 9.120046
_cell_angle_alpha 90.000000
_cell_angle_beta 90.000000
_cell_angle_gamma 90.000000
_cell_volume 4379.552468
_symmetry_space_group_name_H-M "P B C M"
_symmetry_group_IT_number 57
_symmetry_cell_setting 'orthorhombic'
loop_
_space_group_symop_operation_xyz
x,y,z
-x,-y,1/2+z
x,1/2-y,-z
-x,1/2+y,1/2-z
-x,-y,-z
x,y,1/2-z
-x,1/2+y,z
x,1/2-y,1/2+z
loop_
_atom_site_type_symbol
_atom_site_label
_atom_site_fract_x
_atom_site_fract_y
_atom_site_fract_z
Si Si1 0.289437 0.023701 0.075532
Si Si2 0.671056 0.107758 0.924236
Si Si3 0.543294 0.082290 0.081090
Si Si4 0.017129 0.438758 0.073814
Si Si5 0.895322 0.103146 0.425543
Si Si6 0.792626 0.187573 0.926489
Si Si7 0.156367 0.027560 0.577023
Si Si8 0.582792 0.946305 0.419232
O O1 0.292082 0.029573 0.250000
O O2 0.300014 0.955596 0.039507
O O3 0.219932 0.041118 0.014156
O O4 0.349280 0.056908 0.002535
O O5 0.658529 0.107908 0.750000
O O6 0.724933 0.155150 0.957742
O O7 0.603624 0.114361 0.007753
O O8 0.535577 0.098509 0.250000
O O9 0.562628 0.014204 0.076051
O O10 0.475964 0.087091 0.995709
O O11 0.007732 0.441338 0.250000
O O12 0.093696 0.432815 0.046395
O O13 0.000000 0.500000 0.000000
O O14 0.966265 0.396011 0.998931
O O15 0.899014 0.111274 0.250000
O O16 0.848813 0.148854 0.502392
O O17 0.865621 0.038884 0.451350
O O18 0.800229 0.190655 0.750000
O O19 0.793048 0.250000 0.000000
O O20 0.170928 0.031387 0.750000
O O21 0.589383 0.929912 0.250000
#
# Coordination Sequence:
#
# PCOD9434029 Si02
#       8
#     8   8   8   8   8   8   8   8
#     4  10  17  25  39  58  81 109 141 174 207 246
#     4   9  18  30  42  57  77 105 138 174 216 255
#     4   9  16  25  39  56  74 100 135 171 204 242
#     4   9  17  28  42  61  83 108 139 175 212 256
#     4  10  19  31  46  62  81 108 141 179 219 262
#     4  11  22  35  48  64  84 110 144 185 226 264
#     4   9  17  27  40  60  84 110 140 172 210 254
#     4   9  16  25  36  53  78 106 134 167 203 241
#
# _framework density 14.613365
#
# number of rings (size 3 to 8) (size 9 to 14) (size 15 to 20)
#    0.000    2.500    1.250    3.000    0.000    7.000 
#    0.000    0.000    0.000    0.000    0.000    0.000 
#    0.000    0.000    0.000    1.125    0.000   17.500 
#
# Total GULP energy -356535.910376 kJ/mol
# GULP energy per Si atom -5570.873600 kJ/mol
# Density = 1.458010 g / cm^3
# Si number density = 14.613365 Si / 1000 Ang^3
#
#
#
# Elastic Constant Matrix: (Units=GPa)
#
#
# Indices 1 2 3 4 5 6 
#
# 1 158.3713 39.8620 90.0614 0.0000 0.0000 0.0000
# 2 39.8620 37.7162 30.0797 0.0000 0.0000 0.0000
# 3 90.0614 30.0797 86.1275 0.0000 0.0000 0.0000
# 4 0.0000 0.0000 0.0000 13.8272 0.0000 0.0000
# 5 0.0000 0.0000 0.0000 0.0000 32.4264 0.0000
# 6 0.0000 0.0000 0.0000 0.0000 0.0000 9.4713
#
#
#
# Elastic Compliance Matrix: (Units=1/GPa)
#
#
# Indices 1 2 3 4 5 6 
#
# 1 0.016234 -0.005017 -0.015224 0.000000 0.000000 0.000000
# 2 -0.005017 0.038300 -0.008130 0.000000 0.000000 0.000000
# 3 -0.015224 -0.008130 0.030369 0.000000 0.000000 0.000000
# 4 0.000000 0.000000 0.000000 0.072321 0.000000 0.000000
# 5 0.000000 0.000000 0.000000 0.000000 0.030839 0.000000
# 6 0.000000 0.000000 0.000000 0.000000 0.000000 0.105582
#
#
# Mechanical properties :
#
#
# Convention : Reuss Voigt Hill
#
# Bulk Modulus (GPa) = 35.50873 66.91349 51.21111
# Shear Modulus (GPa) = 13.89757 19.29242 16.59500
#
# Velocity S-wave (km/s) = 3.08720 3.63738 3.37353
# Velocity P-wave (km/s) = 6.08764 7.97053 7.09185
#
# Compressibility (1/GPa) = 0.02816209
#
# Stress axis : x y z
#
# Youngs Moduli (GPa) = 61.59797 26.10965 32.92789
#
# Poissons Ratio (x) = 0.13098 0.50129
# Poissons Ratio (y) = 0.30901 0.26772
# Poissons Ratio (z) = 0.93776 0.21228
#
# Static dielectric constant tensor:
#      x y z
#    x 1.497320 0.000000 0.000000 
#    y 0.000000 1.451130 0.000000 
#    z 0.000000 0.000000 1.484630 
# 
# From -- ./inp_files/8798.got.cif
#   From: 2010.05.17/outbox.cif.g08.bks.cpg/sg57_5_cif.got.tgz:8798.got - 2010.06.03 13:58:18.
