data_PCOD9434106
_publ_section_title
;
Structure prediction by ZEFSAII (Michael W. Deem and Ramdas Pophale) SiO2 
 PCOD9434106
Probable space group: P B C M
;
_chemical_formula_sum "Si O2"
_cell_formula_units_Z 40
_cell_length_a 15.078025
_cell_length_b 5.082872
_cell_length_c 28.466348
_cell_angle_alpha 90.000000
_cell_angle_beta 90.000000
_cell_angle_gamma 90.000000
_cell_volume 2181.651548
_symmetry_space_group_name_H-M "P B C M"
_symmetry_group_IT_number 57
_symmetry_cell_setting 'orthorhombic'
loop_
_space_group_symop_operation_xyz
x,y,z
-x,-y,1/2+z
x,1/2-y,-z
-x,1/2+y,1/2-z
-x,-y,-z
x,y,1/2-z
-x,1/2+y,z
x,1/2-y,1/2+z
loop_
_atom_site_type_symbol
_atom_site_label
_atom_site_fract_x
_atom_site_fract_y
_atom_site_fract_z
Si Si1 0.100928 0.618599 0.954417
Si Si2 0.549665 0.235588 0.943289
Si Si3 0.712486 0.893597 0.954504
Si Si4 0.939281 0.744393 0.696812
Si Si5 0.856944 0.634304 0.899330
O O1 0.197957 0.528572 0.973663
O O2 0.079121 0.346796 0.926901
O O3 0.117590 0.845736 0.916438
O O4 0.055208 0.750000 0.000000
O O5 0.524597 0.525964 0.926631
O O6 0.644360 0.102630 0.933569
O O7 0.546872 0.250000 0.000000
O O8 0.757296 0.701189 0.916478
O O9 0.671363 0.750000 0.000000
O O10 0.904357 0.715917 0.750000
O O11 0.871713 0.682325 0.655272
O O12 0.018980 0.533505 0.691679
#
# Coordination Sequence:
#
# PCOD9434106 Si02
#       5
#     8   8   8   8   8
#     4  10  17  30  46  70  95 130 164 197 229 275
#     4  10  20  28  39  62  96 136 174 205 235 272
#     4  10  19  29  48  66  98 137 173 200 233 278
#     4  10  21  39  59  77  98 123 152 199 261 310
#     4  10  20  30  52  74  94 126 167 200 237 294
#
# _framework density 18.334733
#
# number of rings (size 3 to 8) (size 9 to 14) (size 15 to 20)
#    1.200    0.800    2.000    4.200    2.800    0.000 
#    0.000    0.000    0.000   20.400    0.000    0.000 
#    0.000    1.600    0.000    0.000    0.000    0.000 
#
# Total GULP energy -222882.905382 kJ/mol
# GULP energy per Si atom -5572.072635 kJ/mol
# Density = 1.829300 g / cm^3
# Si number density = 18.334733 Si / 1000 Ang^3
#
#
#
# Elastic Constant Matrix: (Units=GPa)
#
#
# Indices 1 2 3 4 5 6 
#
# 1 56.2369 1.6702 16.7758 0.0000 0.0000 0.0000
# 2 1.6702 87.1151 -0.0653 0.0000 0.0000 0.0000
# 3 16.7758 -0.0653 80.2003 0.0000 0.0000 0.0000
# 4 0.0000 0.0000 0.0000 18.9816 0.0000 0.0000
# 5 0.0000 0.0000 0.0000 0.0000 7.1174 0.0000
# 6 0.0000 0.0000 0.0000 0.0000 0.0000 8.8938
#
#
#
# Elastic Compliance Matrix: (Units=1/GPa)
#
#
# Indices 1 2 3 4 5 6 
#
# 1 0.018977 -0.000367 -0.003970 0.000000 0.000000 0.000000
# 2 -0.000367 0.011486 0.000086 0.000000 0.000000 0.000000
# 3 -0.003970 0.000086 0.013299 0.000000 0.000000 0.000000
# 4 0.000000 0.000000 0.000000 0.052682 0.000000 0.000000
# 5 0.000000 0.000000 0.000000 0.000000 0.140501 0.000000
# 6 0.000000 0.000000 0.000000 0.000000 0.000000 0.112438
#
#
# Mechanical properties :
#
#
# Convention : Reuss Voigt Hill
#
# Bulk Modulus (GPa) = 28.35963 28.92373 28.64168
# Shear Modulus (GPa) = 13.52672 20.67667 17.10170
#
# Velocity S-wave (km/s) = 2.71913 3.36182 3.05741
# Velocity P-wave (km/s) = 5.03582 5.55686 5.30274
#
# Compressibility (1/GPa) = 0.03526139
#
# Stress axis : x y z
#
# Youngs Moduli (GPa) = 52.69530 87.06127 75.19233
#
# Poissons Ratio (x) = 0.03193 0.29850
# Poissons Ratio (y) = 0.01933 -0.00647
# Poissons Ratio (z) = 0.20919 -0.00749
#
# Static dielectric constant tensor:
#      x y z
#    x 1.723270 0.000000 0.000000 
#    y 0.000000 1.730640 0.000000 
#    z 0.000000 0.000000 1.614000 
# 
# From -- ./inp_files/25658.got.cif
#   From: 2010.05.17/outbox.cif.g08.bks.cpg/sg57_13_cif.got.tgz:25658.got - 2010.06.03 13:58:18.
