data_PCOD9434844
_publ_section_title
;
Structure prediction by ZEFSAII (Michael W. Deem and Ramdas Pophale) SiO2 
 PCOD9434844
Probable space group: P B C M
;
_chemical_formula_sum "Si O2"
_cell_formula_units_Z 16
_cell_length_a 7.722166
_cell_length_b 5.669172
_cell_length_c 13.345391
_cell_angle_alpha 90.000000
_cell_angle_beta 90.000000
_cell_angle_gamma 90.000000
_cell_volume 584.238361
_symmetry_space_group_name_H-M "P B C M"
_symmetry_group_IT_number 57
_symmetry_cell_setting 'orthorhombic'
loop_
_space_group_symop_operation_xyz
x,y,z
-x,-y,1/2+z
x,1/2-y,-z
-x,1/2+y,1/2-z
-x,-y,-z
x,y,1/2-z
-x,1/2+y,z
x,1/2-y,1/2+z
loop_
_atom_site_type_symbol
_atom_site_label
_atom_site_fract_x
_atom_site_fract_y
_atom_site_fract_z
Si Si1 0.841760 0.250000 0.000000
Si Si2 0.833111 0.629964 0.363698
Si Si3 0.402471 0.422688 0.250000
O O1 0.983016 0.325846 0.914866
O O2 0.741066 0.049675 0.939669
O O3 0.854776 0.535618 0.250000
O O4 0.719914 0.863398 0.344826
O O5 0.474506 0.686541 0.250000
#
# Coordination Sequence:
#
# PCOD9434844 Si02
#       3
#     4   8   4
#     4  10  18  38  62 100 116 160 218 262 348 354
#     4   9  21  36  63  93 130 162 206 276 314 385
#     4  10  24  44  64  90 132 182 212 252 320 384
#
# _framework density 27.386082999999999
#
# number of rings (size 3 to 8) (size 9 to 14) (size 15 to 20)
#    1.500    1.000    0.000    1.500    0.000    8.000 
#    0.000    7.500    0.000    0.000    0.000    0.000 
#    0.000    0.000    0.000    0.000    0.000    0.000 
#
# Total GULP energy -89250.586610 kJ/mol
# GULP energy per Si atom -5578.161663 kJ/mol
# Density = 2.732375 g / cm^3
# Si number density = 27.386083 Si / 1000 Ang^3
#
#
#
# Elastic Constant Matrix: (Units=GPa)
#
#
# Indices 1 2 3 4 5 6 
#
# 1 81.8406 52.2551 30.4685 0.0000 0.0000 0.0000
# 2 52.2551 108.4637 43.9242 0.0000 0.0000 0.0000
# 3 30.4685 43.9242 213.9444 0.0000 0.0000 0.0000
# 4 0.0000 0.0000 0.0000 57.5437 0.0000 0.0000
# 5 0.0000 0.0000 0.0000 0.0000 3.6343 0.0000
# 6 0.0000 0.0000 0.0000 0.0000 0.0000 69.7551
#
#
#
# Elastic Compliance Matrix: (Units=1/GPa)
#
#
# Indices 1 2 3 4 5 6 
#
# 1 0.017786 -0.008227 -0.000844 0.000000 0.000000 0.000000
# 2 -0.008227 0.013861 -0.001674 0.000000 0.000000 0.000000
# 3 -0.000844 -0.001674 0.005138 0.000000 0.000000 0.000000
# 4 0.000000 0.000000 0.000000 0.017378 0.000000 0.000000
# 5 0.000000 0.000000 0.000000 0.000000 0.275157 0.000000
# 6 0.000000 0.000000 0.000000 0.000000 0.000000 0.014336
#
#
# Mechanical properties :
#
#
# Convention : Reuss Voigt Hill
#
# Bulk Modulus (GPa) = 65.38087 73.06046 69.22067
# Shear Modulus (GPa) = 13.50458 44.69334 29.09896
#
# Velocity S-wave (km/s) = 2.22304 4.04415 3.26321
# Velocity P-wave (km/s) = 5.52402 6.96726 6.28719
#
# Compressibility (1/GPa) = 0.01529499
#
# Stress axis : x y z
#
# Youngs Moduli (GPa) = 56.22386 72.14349 194.62794
#
# Poissons Ratio (x) = 0.59353 0.16424
# Poissons Ratio (y) = 0.46256 0.32584
# Poissons Ratio (z) = 0.04745 0.12078
#
# Static dielectric constant tensor:
#      x y z
#    x 2.191360 0.000000 0.000000 
#    y 0.000000 2.544800 0.000000 
#    z 0.000000 0.000000 2.108180 
# 
# From -- ./inp_files/15326.got.cif
#   From: 2010.05.17/outbox.cif.g08.bks.cpg/sg57_8_cif.got.tgz:15326.got - 2010.06.03 13:58:18.
