data_PCOD9434703
_publ_section_title
;
Structure prediction by ZEFSAII (Michael W. Deem and Ramdas Pophale) SiO2 
 PCOD9434703
Probable space group: P B C M
;
_chemical_formula_sum "Si O2"
_cell_formula_units_Z 64
_cell_length_a 24.881737
_cell_length_b 7.719770
_cell_length_c 14.225486
_cell_angle_alpha 90.000000
_cell_angle_beta 90.000000
_cell_angle_gamma 90.000000
_cell_volume 2732.449657
_symmetry_space_group_name_H-M "P B C M"
_symmetry_group_IT_number 57
_symmetry_cell_setting 'orthorhombic'
loop_
_space_group_symop_operation_xyz
x,y,z
-x,-y,1/2+z
x,1/2-y,-z
-x,1/2+y,1/2-z
-x,-y,-z
x,y,1/2-z
-x,1/2+y,z
x,1/2-y,1/2+z
loop_
_atom_site_type_symbol
_atom_site_label
_atom_site_fract_x
_atom_site_fract_y
_atom_site_fract_z
Si Si1 0.317420 0.488818 0.144263
Si Si2 0.143350 0.984038 0.354886
Si Si3 0.570722 0.506100 0.556758
Si Si4 0.044072 0.600491 0.061531
Si Si5 0.464881 0.635691 0.637234
Si Si6 0.060264 0.247196 0.141793
Si Si7 0.754219 0.676564 0.102965
Si Si8 0.755293 0.193452 0.863930
O O1 0.335722 0.538348 0.250000
O O2 0.368137 0.452915 0.079311
O O3 0.282164 0.317473 0.150660
O O4 0.278296 0.640810 0.107098
O O5 0.126661 0.925574 0.250000
O O6 0.094287 0.087087 0.401938
O O7 0.188563 0.135679 0.350559
O O8 0.182191 0.832272 0.394785
O O9 0.527779 0.630286 0.607850
O O10 0.560240 0.488205 0.444697
O O11 0.558735 0.321875 0.608114
O O12 0.074430 0.441156 0.108751
O O13 0.003307 0.707231 0.129877
O O14 0.072161 0.750000 0.000000
O O15 0.000000 0.500000 0.000000
O O16 0.458241 0.600842 0.750000
O O17 0.073489 0.240313 0.250000
O O18 0.764396 0.750000 0.000000
O O19 0.727807 0.013999 0.895165
O O20 0.757215 0.195322 0.750000
#
# Coordination Sequence:
#
# PCOD9434703 Si02
#       8
#     8   8   8   8   8   8   8   8
#     4  11  21  40  67  90 123 166 210 266 324 381
#     4   8  17  37  58  80 112 156 202 254 315 369
#     4  10  23  39  62  94 121 162 214 258 314 393
#     4   9  19  33  49  80 120 159 200 259 317 376
#     4  10  20  41  62  87 126 161 202 258 312 375
#     4  10  18  33  60  83 114 162 212 260 310 379
#     4  10  21  36  57  90 125 158 201 260 313 391
#     4   8  18  38  60  86 118 155 204 255 314 374
#
# _framework density 23.422207
#
# number of rings (size 3 to 8) (size 9 to 14) (size 15 to 20)
#    0.750    1.750    0.000    2.250    0.000    4.000 
#    6.750    2.500    0.000    7.500    0.000    0.000 
#    0.000    0.000    0.000    0.000    0.000    0.000 
#
# Total GULP energy -356487.231738 kJ/mol
# GULP energy per Si atom -5570.112996 kJ/mol
# Density = 2.336890 g / cm^3
# Si number density = 23.422207 Si / 1000 Ang^3
#
#
#
# Elastic Constant Matrix: (Units=GPa)
#
#
# Indices 1 2 3 4 5 6 
#
# 1 97.9774 14.4757 26.7024 0.0000 0.0000 0.0000
# 2 14.4757 74.9504 31.7418 0.0000 0.0000 0.0000
# 3 26.7024 31.7418 129.9457 0.0000 0.0000 0.0000
# 4 0.0000 0.0000 0.0000 29.6070 0.0000 0.0000
# 5 0.0000 0.0000 0.0000 0.0000 21.0965 0.0000
# 6 0.0000 0.0000 0.0000 0.0000 0.0000 36.5757
#
#
#
# Elastic Compliance Matrix: (Units=1/GPa)
#
#
# Indices 1 2 3 4 5 6 
#
# 1 0.010923 -0.001293 -0.001929 0.000000 0.000000 0.000000
# 2 -0.001293 0.015035 -0.003407 0.000000 0.000000 0.000000
# 3 -0.001929 -0.003407 0.008924 0.000000 0.000000 0.000000
# 4 0.000000 0.000000 0.000000 0.033776 0.000000 0.000000
# 5 0.000000 0.000000 0.000000 0.000000 0.047401 0.000000
# 6 0.000000 0.000000 0.000000 0.000000 0.000000 0.027341
#
#
# Mechanical properties :
#
#
# Convention : Reuss Voigt Hill
#
# Bulk Modulus (GPa) = 46.24291 49.85702 48.04997
# Shear Modulus (GPa) = 30.51301 32.78609 31.64955
#
# Velocity S-wave (km/s) = 3.61326 3.74543 3.67994
# Velocity P-wave (km/s) = 6.09866 6.32746 6.21411
#
# Compressibility (1/GPa) = 0.02162494
#
# Stress axis : x y z
#
# Youngs Moduli (GPa) = 91.54906 66.51293 112.05666
#
# Poissons Ratio (x) = 0.08599 0.21613
# Poissons Ratio (y) = 0.11836 0.38176
# Poissons Ratio (z) = 0.17658 0.22660
#
# Static dielectric constant tensor:
#      x y z
#    x 1.892790 0.000000 0.000000 
#    y 0.000000 1.950330 0.000000 
#    z 0.000000 0.000000 1.977030 
# 
# From -- ./inp_files/19541.got.cif
#   From: 2010.05.17/outbox.cif.g08.bks.cpg/sg57_10_cif.got.tgz:19541.got - 2010.06.03 13:58:18.
