data_PCOD9434730
_publ_section_title
;
Structure prediction by ZEFSAII (Michael W. Deem and Ramdas Pophale) SiO2 
 PCOD9434730
Probable space group: P B C M
;
_chemical_formula_sum "Si O2"
_cell_formula_units_Z 64
_cell_length_a 10.967445
_cell_length_b 9.955280
_cell_length_c 30.641110
_cell_angle_alpha 90.000000
_cell_angle_beta 90.000000
_cell_angle_gamma 90.000000
_cell_volume 3345.518521
_symmetry_space_group_name_H-M "P B C M"
_symmetry_group_IT_number 57
_symmetry_cell_setting 'orthorhombic'
loop_
_space_group_symop_operation_xyz
x,y,z
-x,-y,1/2+z
x,1/2-y,-z
-x,1/2+y,1/2-z
-x,-y,-z
x,y,1/2-z
-x,1/2+y,z
x,1/2-y,1/2+z
loop_
_atom_site_type_symbol
_atom_site_label
_atom_site_fract_x
_atom_site_fract_y
_atom_site_fract_z
Si Si1 0.992526 0.982179 0.638013
Si Si2 0.099812 0.374588 0.549582
Si Si3 0.685116 0.807862 0.167070
Si Si4 0.587880 0.297629 0.301840
Si Si5 0.220604 0.476417 0.698402
Si Si6 0.206752 0.584464 0.300846
Si Si7 0.802501 0.887733 0.080824
Si Si8 0.826124 0.104195 0.012687
O O1 0.075499 0.082536 0.609394
O O2 0.089685 0.902959 0.667970
O O3 0.922061 0.900041 0.600922
O O4 0.891449 0.037747 0.671072
O O5 0.165764 0.231664 0.547787
O O6 0.168281 0.500502 0.527725
O O7 0.966202 0.371165 0.527869
O O8 0.542672 0.791263 0.176271
O O9 0.755157 0.674392 0.182310
O O10 0.705732 0.841096 0.116304
O O11 0.741359 0.934010 0.193265
O O12 0.567155 0.282123 0.250000
O O13 0.657418 0.437642 0.309146
O O14 0.684385 0.183220 0.314737
O O15 0.194181 0.479510 0.750000
O O16 0.177204 0.610663 0.250000
O O17 0.770744 0.021251 0.053431
O O18 0.774680 0.250000 0.000000
#
# Coordination Sequence:
#
# PCOD9434730 Si02
#       8
#     8   8   8   8   8   8   8   8
#     4  10  21  33  52  86 126 147 192 237 300 352
#     4  10  18  34  54  84 121 153 187 231 291 362
#     4  11  21  38  56  80 112 151 202 252 292 337
#     4  10  22  38  58  82 111 153 211 254 285 335
#     4  11  22  36  58  82 113 160 201 242 293 346
#     4  10  21  36  55  79 115 159 195 247 297 342
#     4  10  21  35  55  84 120 153 189 242 295 360
#     4  10  19  33  57  85 122 153 183 233 299 369
#
# _framework density 19.130068999999999
#
# number of rings (size 3 to 8) (size 9 to 14) (size 15 to 20)
#    0.000    1.750    1.250    4.875    1.750    2.000 
#    2.250    2.500    0.000    0.000    0.000    0.875 
#   22.500    0.250    0.000    0.000    0.000    0.000 
#
# Total GULP energy -357228.095592 kJ/mol
# GULP energy per Si atom -5581.688994 kJ/mol
# Density = 1.908653 g / cm^3
# Si number density = 19.130069 Si / 1000 Ang^3
#
#
#
# Elastic Constant Matrix: (Units=GPa)
#
#
# Indices 1 2 3 4 5 6 
#
# 1 62.5293 5.6397 39.1946 0.0000 0.0000 0.0000
# 2 5.6397 95.3478 35.0548 0.0000 0.0000 0.0000
# 3 39.1946 35.0548 106.1029 0.0000 0.0000 0.0000
# 4 0.0000 0.0000 0.0000 23.5984 0.0000 0.0000
# 5 0.0000 0.0000 0.0000 0.0000 14.0272 0.0000
# 6 0.0000 0.0000 0.0000 0.0000 0.0000 11.5238
#
#
#
# Elastic Compliance Matrix: (Units=1/GPa)
#
#
# Indices 1 2 3 4 5 6 
#
# 1 0.021091 0.001840 -0.008399 0.000000 0.000000 0.000000
# 2 0.001840 0.012099 -0.004677 0.000000 0.000000 0.000000
# 3 -0.008399 -0.004677 0.014073 0.000000 0.000000 0.000000
# 4 0.000000 0.000000 0.000000 0.042376 0.000000 0.000000
# 5 0.000000 0.000000 0.000000 0.000000 0.071290 0.000000
# 6 0.000000 0.000000 0.000000 0.000000 0.000000 0.086777
#
#
# Mechanical properties :
#
#
# Convention : Reuss Voigt Hill
#
# Bulk Modulus (GPa) = 40.33726 47.08425 43.71075
# Shear Modulus (GPa) = 17.95716 22.10261 20.02989
#
# Velocity S-wave (km/s) = 3.06712 3.40278 3.23931
# Velocity P-wave (km/s) = 5.80298 6.33283 6.07368
#
# Compressibility (1/GPa) = 0.02479098
#
# Stress axis : x y z
#
# Youngs Moduli (GPa) = 47.41284 82.65426 71.05934
#
# Poissons Ratio (x) = -0.15212 0.59684
# Poissons Ratio (y) = -0.08726 0.33235
# Poissons Ratio (z) = 0.39823 0.38658
#
# Static dielectric constant tensor:
#      x y z
#    x 1.632680 0.000000 0.000000 
#    y 0.000000 1.708280 0.000000 
#    z 0.000000 0.000000 1.693270 
# 
# From -- ./inp_files/29756.got.cif
#   From: 2010.05.17/outbox.cif.g08.bks.cpg/sg57_15_cif.got.tgz:29756.got - 2010.06.03 13:58:18.
