data_PCOD9434387
_publ_section_title
;
Structure prediction by ZEFSAII (Michael W. Deem and Ramdas Pophale) SiO2 
 PCOD9434387
Probable space group: P B C M
;
_chemical_formula_sum "Si O2"
_cell_formula_units_Z 64
_cell_length_a 15.162932
_cell_length_b 30.291889
_cell_length_c 9.328763
_cell_angle_alpha 90.000000
_cell_angle_beta 90.000000
_cell_angle_gamma 90.000000
_cell_volume 4284.830078
_symmetry_space_group_name_H-M "P B C M"
_symmetry_group_IT_number 57
_symmetry_cell_setting 'orthorhombic'
loop_
_space_group_symop_operation_xyz
x,y,z
-x,-y,1/2+z
x,1/2-y,-z
-x,1/2+y,1/2-z
-x,-y,-z
x,y,1/2-z
-x,1/2+y,z
x,1/2-y,1/2+z
loop_
_atom_site_type_symbol
_atom_site_label
_atom_site_fract_x
_atom_site_fract_y
_atom_site_fract_z
Si Si1 0.789976 0.877103 0.082143
Si Si2 0.494049 0.294738 0.919981
Si Si3 0.533010 0.392886 0.577668
Si Si4 0.130738 0.528530 0.920123
Si Si5 0.311881 0.960019 0.921948
Si Si6 0.060258 0.057500 0.919332
Si Si7 0.373992 0.442382 0.080253
Si Si8 0.716720 0.705595 0.418996
O O1 0.785001 0.864361 0.250000
O O2 0.884980 0.898373 0.052813
O O3 0.716661 0.915273 0.059957
O O4 0.765814 0.836220 0.983999
O O5 0.508638 0.289159 0.750000
O O6 0.535769 0.341424 0.966790
O O7 0.388614 0.300146 0.943074
O O8 0.522132 0.250000 0.000000
O O9 0.519712 0.393406 0.750000
O O10 0.621280 0.420293 0.545779
O O11 0.451318 0.418086 0.504972
O O12 0.144885 0.524747 0.750000
O O13 0.044357 0.558929 0.944775
O O14 0.219173 0.543857 0.997932
O O15 0.101858 0.481511 0.986477
O O16 0.297213 0.961671 0.750000
O O17 0.357142 0.006859 0.962566
O O18 0.073465 0.046513 0.750000
O O19 0.394821 0.441701 0.250000
O O20 0.743685 0.750000 0.500000
O O21 0.730948 0.709591 0.250000
#
# Coordination Sequence:
#
# PCOD9434387 Si02
#       8
#     8   8   8   8   8   8   8   8
#     4  10  18  30  48  68  94 127 159 189 233 286
#     4   9  18  31  46  66  89 117 152 192 233 275
#     4  10  20  33  48  67  93 126 162 197 235 277
#     4  10  19  30  48  71  93 121 160 201 232 271
#     4  10  20  34  48  64  95 133 161 195 240 281
#     4   9  18  33  49  67  95 126 155 192 240 284
#     4  10  19  30  45  66  94 130 163 189 228 277
#     4  10  19  31  47  68  95 123 156 195 235 281
#
# _framework density 14.936415
#
# number of rings (size 3 to 8) (size 9 to 14) (size 15 to 20)
#    0.000    2.250    2.500    1.125    0.000    3.000 
#    0.000    0.000    0.000    0.000    0.000    0.875 
#    0.000    4.000    0.000    0.000    0.000    0.000 
#
# Total GULP energy -356850.371493 kJ/mol
# GULP energy per Si atom -5575.787055 kJ/mol
# Density = 1.490242 g / cm^3
# Si number density = 14.936415 Si / 1000 Ang^3
#
#
#
# Elastic Constant Matrix: (Units=GPa)
#
#
# Indices 1 2 3 4 5 6 
#
# 1 84.2315 60.1164 44.6293 0.0000 0.0000 0.0000
# 2 60.1164 129.3075 56.0250 0.0000 0.0000 0.0000
# 3 44.6293 56.0250 41.3853 0.0000 0.0000 0.0000
# 4 0.0000 0.0000 0.0000 24.5050 0.0000 0.0000
# 5 0.0000 0.0000 0.0000 0.0000 22.9508 0.0000
# 6 0.0000 0.0000 0.0000 0.0000 0.0000 17.0376
#
#
#
# Elastic Compliance Matrix: (Units=1/GPa)
#
#
# Indices 1 2 3 4 5 6 
#
# 1 0.027699 0.000155 -0.030081 0.000000 0.000000 0.000000
# 2 0.000155 0.018705 -0.025489 0.000000 0.000000 0.000000
# 3 -0.030081 -0.025489 0.091108 0.000000 0.000000 0.000000
# 4 0.000000 0.000000 0.000000 0.040808 0.000000 0.000000
# 5 0.000000 0.000000 0.000000 0.000000 0.043571 0.000000
# 6 0.000000 0.000000 0.000000 0.000000 0.000000 0.058694
#
#
# Mechanical properties :
#
#
# Convention : Reuss Voigt Hill
#
# Bulk Modulus (GPa) = 37.47762 64.05176 50.76469
# Shear Modulus (GPa) = 12.49036 19.17560 15.83298
#
# Velocity S-wave (km/s) = 2.89491 3.58692 3.25934
# Velocity P-wave (km/s) = 6.02660 7.75440 6.94445
#
# Compressibility (1/GPa) = 0.02668259
#
# Stress axis : x y z
#
# Youngs Moduli (GPa) = 36.10225 53.46160 10.97599
#
# Poissons Ratio (x) = -0.00831 0.33017
# Poissons Ratio (y) = -0.00561 0.27977
# Poissons Ratio (z) = 1.08598 1.36271
#
# Static dielectric constant tensor:
#      x y z
#    x 1.482150 0.000000 0.000000 
#    y 0.000000 1.484950 0.000000 
#    z 0.000000 0.000000 1.497710 
# 
# From -- ./inp_files/5967.got.cif
#   From: 2010.05.17/outbox.cif.g08.bks.cpg/sg57_3_cif.got.tgz:5967.got - 2010.06.03 13:58:18.
