data_PCOD9434312
_publ_section_title
;
Structure prediction by ZEFSAII (Michael W. Deem and Ramdas Pophale) SiO2 
 PCOD9434312
Probable space group: P B C M
;
_chemical_formula_sum "Si O2"
_cell_formula_units_Z 48
_cell_length_a 15.561937
_cell_length_b 21.699939
_cell_length_c 8.639954
_cell_angle_alpha 90.000000
_cell_angle_beta 90.000000
_cell_angle_gamma 90.000000
_cell_volume 2917.652709
_symmetry_space_group_name_H-M "P B C M"
_symmetry_group_IT_number 57
_symmetry_cell_setting 'orthorhombic'
loop_
_space_group_symop_operation_xyz
x,y,z
-x,-y,1/2+z
x,1/2-y,-z
-x,1/2+y,1/2-z
-x,-y,-z
x,y,1/2-z
-x,1/2+y,z
x,1/2-y,1/2+z
loop_
_atom_site_type_symbol
_atom_site_label
_atom_site_fract_x
_atom_site_fract_y
_atom_site_fract_z
Si Si1 0.055937 0.409445 0.065171
Si Si2 0.196368 0.181290 0.065380
Si Si3 0.520723 0.068421 0.435198
Si Si4 0.654217 0.904101 0.435242
Si Si5 0.879381 0.048293 0.065107
Si Si6 0.304773 0.540653 0.934700
O O1 0.056600 0.401105 0.250000
O O2 0.098692 0.476313 0.031543
O O3 0.112796 0.357463 0.985257
O O4 0.959030 0.413542 0.002751
O O5 0.203598 0.181905 0.250000
O O6 0.191719 0.250000 0.000000
O O7 0.277975 0.145784 0.993500
O O8 0.519447 0.067732 0.250000
O O9 0.441736 0.107982 0.500691
O O10 0.616331 0.080463 0.497300
O O11 0.500000 0.000000 0.500000
O O12 0.653119 0.907110 0.250000
O O13 0.683547 0.971088 0.499289
O O14 0.874995 0.055181 0.250000
O O15 0.788227 0.063243 0.989142
O O16 0.310827 0.538297 0.750000
#
# Coordination Sequence:
#
# PCOD9434312 Si02
#       6
#     8   8   8   8   8   8
#     4  10  20  34  51  73 102 134 171 213 259 309
#     4  12  24  38  55  75 101 136 176 216 259 306
#     4  10  18  29  45  68  98 132 166 202 246 297
#     4  11  20  33  49  70 100 133 169 210 253 303
#     4  10  19  31  50  74 104 137 170 209 259 313
#     4  11  19  29  47  73 103 136 169 205 252 306
#
# _framework density 16.451581000000001
#
# number of rings (size 3 to 8) (size 9 to 14) (size 15 to 20)
#    0.000    1.333    1.667    9.000    0.000    1.333 
#    0.000    0.000    0.000    0.000    0.000    1.167 
#    0.000    0.000    0.000    0.000    0.000    0.000 
#
# Total GULP energy -268051.029256 kJ/mol
# GULP energy per Si atom -5584.396443 kJ/mol
# Density = 1.641414 g / cm^3
# Si number density = 16.451581 Si / 1000 Ang^3
#
#
#
# Elastic Constant Matrix: (Units=GPa)
#
#
# Indices 1 2 3 4 5 6 
#
# 1 179.1361 46.0348 76.4981 0.0000 0.0000 0.0000
# 2 46.0348 56.8860 36.6557 0.0000 0.0000 0.0000
# 3 76.4981 36.6557 153.3196 0.0000 0.0000 0.0000
# 4 0.0000 0.0000 0.0000 19.2422 0.0000 0.0000
# 5 0.0000 0.0000 0.0000 0.0000 35.3876 0.0000
# 6 0.0000 0.0000 0.0000 0.0000 0.0000 12.2897
#
#
#
# Elastic Compliance Matrix: (Units=1/GPa)
#
#
# Indices 1 2 3 4 5 6 
#
# 1 0.008002 -0.004614 -0.002889 0.000000 0.000000 0.000000
# 2 -0.004614 0.023440 -0.003302 0.000000 0.000000 0.000000
# 3 -0.002889 -0.003302 0.008754 0.000000 0.000000 0.000000
# 4 0.000000 0.000000 0.000000 0.051969 0.000000 0.000000
# 5 0.000000 0.000000 0.000000 0.000000 0.028259 0.000000
# 6 0.000000 0.000000 0.000000 0.000000 0.000000 0.081369
#
#
# Mechanical properties :
#
#
# Convention : Reuss Voigt Hill
#
# Bulk Modulus (GPa) = 53.80621 78.63545 66.22083
# Shear Modulus (GPa) = 21.77721 28.72744 25.25233
#
# Velocity S-wave (km/s) = 3.64224 4.18327 3.92209
# Velocity P-wave (km/s) = 7.10385 8.44007 7.80062
#
# Compressibility (1/GPa) = 0.01858521
#
# Stress axis : x y z
#
# Youngs Moduli (GPa) = 124.97054 42.66143 114.23989
#
# Poissons Ratio (x) = 0.19682 0.33009
# Poissons Ratio (y) = 0.57656 0.37724
# Poissons Ratio (z) = 0.36110 0.14088
#
# Static dielectric constant tensor:
#      x y z
#    x 1.591780 0.000000 0.000000 
#    y 0.000000 1.525270 0.000000 
#    z 0.000000 0.000000 1.542790 
# 
# From -- ./inp_files/4845.got.cif
#   From: 2010.05.17/outbox.cif.g08.bks.cpg/sg57_3_cif.got.tgz:4845.got - 2010.06.03 13:58:18.
