data_PCOD9434190
_publ_section_title
;
Structure prediction by ZEFSAII (Michael W. Deem and Ramdas Pophale) SiO2 
 PCOD9434190
Probable space group: P B C M
;
_chemical_formula_sum "Si O2"
_cell_formula_units_Z 64
_cell_length_a 17.610179
_cell_length_b 28.280819
_cell_length_c 7.722680
_cell_angle_alpha 90.000000
_cell_angle_beta 90.000000
_cell_angle_gamma 90.000000
_cell_volume 3846.128520
_symmetry_space_group_name_H-M "P B C M"
_symmetry_group_IT_number 57
_symmetry_cell_setting 'orthorhombic'
loop_
_space_group_symop_operation_xyz
x,y,z
-x,-y,1/2+z
x,1/2-y,-z
-x,1/2+y,1/2-z
-x,-y,-z
x,y,1/2-z
-x,1/2+y,z
x,1/2-y,1/2+z
loop_
_atom_site_type_symbol
_atom_site_label
_atom_site_fract_x
_atom_site_fract_y
_atom_site_fract_z
Si Si1 0.352729 0.947120 0.955332
Si Si2 0.590735 0.695076 0.041471
Si Si3 0.406787 0.047743 0.544862
Si Si4 0.026209 0.946578 0.956126
Si Si5 0.133798 0.421900 0.962205
Si Si6 0.717252 0.623734 0.459592
Si Si7 0.530618 0.377768 0.948748
Si Si8 0.186131 0.974078 0.451280
O O1 0.368287 0.947034 0.750000
O O2 0.392989 0.900062 0.027465
O O3 0.392011 0.995136 0.023873
O O4 0.262703 0.952293 0.974369
O O5 0.589899 0.690065 0.250000
O O6 0.667429 0.668429 0.980261
O O7 0.518110 0.665313 0.972987
O O8 0.588702 0.750000 0.000000
O O9 0.423480 0.046358 0.750000
O O10 0.330030 0.077731 0.517150
O O11 0.472006 0.078009 0.453557
O O12 0.032321 0.941868 0.750000
O O13 0.953739 0.916143 0.017873
O O14 0.110754 0.942226 0.029078
O O15 0.000000 0.000000 0.000000
O O16 0.132205 0.423221 0.750000
O O17 0.196007 0.383427 0.016377
O O18 0.164268 0.473661 0.021645
O O19 0.717468 0.624216 0.250000
O O20 0.546731 0.364091 0.750000
O O21 0.201807 0.981169 0.250000
#
# Coordination Sequence:
#
# PCOD9434190 Si02
#       8
#     8   8   8   8   8   8   8   8
#     4  10  19  29  41  59  84 111 144 179 210 246
#     4   9  18  31  48  63  81 108 137 173 215 257
#     4  10  18  26  39  62  85 107 137 177 213 240
#     4   9  16  26  39  57  81 111 146 180 209 241
#     4   8  14  25  41  58  78 108 145 174 198 240
#     4   9  16  29  45  61  82 113 144 170 207 256
#     4   9  19  33  45  58  79 112 143 169 211 263
#     4  10  18  27  40  58  82 117 149 175 210 245
#
# _framework density 16.64011
#
# number of rings (size 3 to 8) (size 9 to 14) (size 15 to 20)
#    0.000    2.750    1.250    3.000    0.000    3.000 
#    0.000    0.625    0.000    0.000    0.000    0.000 
#    0.000    1.000    0.000    3.750    0.000    2.875 
#
# Total GULP energy -356337.500660 kJ/mol
# GULP energy per Si atom -5567.773448 kJ/mol
# Density = 1.660224 g / cm^3
# Si number density = 16.640110 Si / 1000 Ang^3
#
#
#
# Elastic Constant Matrix: (Units=GPa)
#
#
# Indices 1 2 3 4 5 6 
#
# 1 86.6007 48.9629 -7.4491 0.0000 0.0000 0.0000
# 2 48.9629 86.5266 0.1844 0.0000 0.0000 0.0000
# 3 -7.4491 0.1844 27.0961 0.0000 0.0000 0.0000
# 4 0.0000 0.0000 0.0000 11.8422 0.0000 0.0000
# 5 0.0000 0.0000 0.0000 0.0000 16.4471 0.0000
# 6 0.0000 0.0000 0.0000 0.0000 0.0000 13.1181
#
#
#
# Elastic Compliance Matrix: (Units=1/GPa)
#
#
# Indices 1 2 3 4 5 6 
#
# 1 0.017609 -0.009975 0.004909 0.000000 0.000000 0.000000
# 2 -0.009975 0.017208 -0.002859 0.000000 0.000000 0.000000
# 3 0.004909 -0.002859 0.038275 0.000000 0.000000 0.000000
# 4 0.000000 0.000000 0.000000 0.084444 0.000000 0.000000
# 5 0.000000 0.000000 0.000000 0.000000 0.060801 0.000000
# 6 0.000000 0.000000 0.000000 0.000000 0.000000 0.076230
#
#
# Mechanical properties :
#
#
# Convention : Reuss Voigt Hill
#
# Bulk Modulus (GPa) = 17.47009 31.51332 24.49170
# Shear Modulus (GPa) = 15.17461 18.84984 17.01223
#
# Velocity S-wave (km/s) = 3.02309 3.36935 3.20091
# Velocity P-wave (km/s) = 4.76519 5.84089 5.33025
#
# Compressibility (1/GPa) = 0.05724069
#
# Stress axis : x y z
#
# Youngs Moduli (GPa) = 56.78834 58.11312 26.12697
#
# Poissons Ratio (x) = 0.57968 -0.12826
# Poissons Ratio (y) = 0.56647 0.07471
# Poissons Ratio (z) = -0.27877 0.16617
#
# Static dielectric constant tensor:
#      x y z
#    x 1.619580 0.000000 0.000000 
#    y 0.000000 1.546550 0.000000 
#    z 0.000000 0.000000 1.608930 
# 
# From -- ./inp_files/7458.got.cif
#   From: 2010.05.17/outbox.cif.g08.bks.cpg/sg57_4_cif.got.tgz:7458.got - 2010.06.03 13:58:18.
