data_PCOD9434939
_publ_section_title
;
Structure prediction by ZEFSAII (Michael W. Deem and Ramdas Pophale) SiO2 
 PCOD9434939
Probable space group: P B C M
;
_chemical_formula_sum "Si O2"
_cell_formula_units_Z 64
_cell_length_a 32.625497
_cell_length_b 14.343137
_cell_length_c 8.603205
_cell_angle_alpha 90.000000
_cell_angle_beta 90.000000
_cell_angle_gamma 90.000000
_cell_volume 4025.886755
_symmetry_space_group_name_H-M "P B C M"
_symmetry_group_IT_number 57
_symmetry_cell_setting 'orthorhombic'
loop_
_space_group_symop_operation_xyz
x,y,z
-x,-y,1/2+z
x,1/2-y,-z
-x,1/2+y,1/2-z
-x,-y,-z
x,y,1/2-z
-x,1/2+y,z
x,1/2-y,1/2+z
loop_
_atom_site_type_symbol
_atom_site_label
_atom_site_fract_x
_atom_site_fract_y
_atom_site_fract_z
Si Si1 0.481769 0.647028 0.936275
Si Si2 0.560933 0.957887 0.561979
Si Si3 0.642787 0.855443 0.562426
Si Si4 0.104805 0.469236 0.936407
Si Si5 0.933070 0.353863 0.936578
Si Si6 0.181452 0.355595 0.065008
Si Si7 0.025473 0.353902 0.562638
Si Si8 0.733176 0.644342 0.436490
O O1 0.482592 0.651313 0.750000
O O2 0.450351 0.564089 0.983586
O O3 0.472909 0.750000 0.000000
O O4 0.525716 0.609870 0.996271
O O5 0.559075 0.953728 0.750000
O O6 0.605214 0.920241 0.511408
O O7 0.637885 0.750000 0.500000
O O8 0.641870 0.849881 0.750000
O O9 0.688127 0.893143 0.519556
O O10 0.106640 0.465846 0.750000
O O11 0.063218 0.416779 0.990061
O O12 0.099221 0.574263 0.994137
O O13 0.143948 0.417044 0.004785
O O14 0.931376 0.354144 0.750000
O O15 0.979559 0.383000 0.986180
O O16 0.926964 0.250000 0.000000
O O17 0.181375 0.350589 0.250000
O O18 0.177263 0.250000 0.000000
O O19 0.225159 0.395942 0.007160
O O20 0.031866 0.250000 0.500000
O O21 0.025807 0.352141 0.750000
O O22 0.732300 0.750000 0.500000
O O23 0.736734 0.644956 0.250000
#
# Coordination Sequence:
#
# PCOD9434939 Si02
#       8
#     8   8   8   8   8   8   8   8
#     4  10  19  30  44  62  89 123 157 193 231 271
#     4   9  18  31  45  64  89 119 156 194 231 272
#     4   9  17  28  44  66  91 118 149 185 225 269
#     4  11  21  33  49  71  95 123 157 191 227 270
#     4  10  20  35  51  69  92 121 155 193 232 269
#     4  11  21  33  48  69  97 126 153 185 225 274
#     4   9  19  32  48  69  95 124 154 187 224 266
#     4   9  16  28  45  65  90 119 148 180 222 273
#
# _framework density 15.897119
#
# number of rings (size 3 to 8) (size 9 to 14) (size 15 to 20)
#    0.000    2.250    0.000    4.500    0.000    5.000 
#    0.000    0.000    0.000    0.000    0.000    0.875 
#    0.000    4.000    0.000    0.000    0.000    0.000 
#
# Total GULP energy -356857.161820 kJ/mol
# GULP energy per Si atom -5575.893153 kJ/mol
# Density = 1.586094 g / cm^3
# Si number density = 15.897119 Si / 1000 Ang^3
#
#
#
# Elastic Constant Matrix: (Units=GPa)
#
#
# Indices 1 2 3 4 5 6 
#
# 1 142.0516 77.2663 41.8843 0.0000 0.0000 0.0000
# 2 77.2663 89.2199 26.1048 0.0000 0.0000 0.0000
# 3 41.8843 26.1048 50.3474 0.0000 0.0000 0.0000
# 4 0.0000 0.0000 0.0000 23.2838 0.0000 0.0000
# 5 0.0000 0.0000 0.0000 0.0000 20.5508 0.0000
# 6 0.0000 0.0000 0.0000 0.0000 0.0000 23.4765
#
#
#
# Elastic Compliance Matrix: (Units=1/GPa)
#
#
# Indices 1 2 3 4 5 6 
#
# 1 0.015052 -0.011048 -0.006794 0.000000 0.000000 0.000000
# 2 -0.011048 0.021321 -0.001864 0.000000 0.000000 0.000000
# 3 -0.006794 -0.001864 0.026480 0.000000 0.000000 0.000000
# 4 0.000000 0.000000 0.000000 0.042948 0.000000 0.000000
# 5 0.000000 0.000000 0.000000 0.000000 0.048660 0.000000
# 6 0.000000 0.000000 0.000000 0.000000 0.000000 0.042596
#
#
# Mechanical properties :
#
#
# Convention : Reuss Voigt Hill
#
# Bulk Modulus (GPa) = 42.65799 63.56996 53.11398
# Shear Modulus (GPa) = 20.46805 22.55310 21.51058
#
# Velocity S-wave (km/s) = 3.59211 3.77064 3.68246
# Velocity P-wave (km/s) = 6.64051 7.68324 7.18083
#
# Compressibility (1/GPa) = 0.02344227
#
# Stress axis : x y z
#
# Youngs Moduli (GPa) = 66.43658 46.90179 37.76373
#
# Poissons Ratio (x) = 0.51815 0.25656
# Poissons Ratio (y) = 0.73396 0.07040
# Poissons Ratio (z) = 0.45135 0.08744
#
# Static dielectric constant tensor:
#      x y z
#    x 1.556960 0.000000 0.000000 
#    y 0.000000 1.508300 0.000000 
#    z 0.000000 0.000000 1.531110 
# 
# From -- ./inp_files/10345.got.cif
#   From: 2010.05.17/outbox.cif.g08.bks.cpg/sg57_6_cif.got.tgz:10345.got - 2010.06.03 13:58:18.
