data_PCOD9434156
_publ_section_title
;
Structure prediction by ZEFSAII (Michael W. Deem and Ramdas Pophale) SiO2 
 PCOD9434156
Probable space group: P B C M
;
_chemical_formula_sum "Si O2"
_cell_formula_units_Z 64
_cell_length_a 12.316117
_cell_length_b 31.803868
_cell_length_c 7.483894
_cell_angle_alpha 90.000000
_cell_angle_beta 90.000000
_cell_angle_gamma 90.000000
_cell_volume 2931.442472
_symmetry_space_group_name_H-M "P B C M"
_symmetry_group_IT_number 57
_symmetry_cell_setting 'orthorhombic'
loop_
_space_group_symop_operation_xyz
x,y,z
-x,-y,1/2+z
x,1/2-y,-z
-x,1/2+y,1/2-z
-x,-y,-z
x,y,1/2-z
-x,1/2+y,z
x,1/2-y,1/2+z
loop_
_atom_site_type_symbol
_atom_site_label
_atom_site_fract_x
_atom_site_fract_y
_atom_site_fract_z
Si Si1 0.263667 0.203238 0.963347
Si Si2 0.497509 0.323935 0.467770
Si Si3 0.885016 0.370764 0.043830
Si Si4 0.724788 0.543584 0.968738
Si Si5 0.732860 0.202845 0.536035
Si Si6 0.870901 0.622371 0.530903
Si Si7 0.493303 0.577844 0.965964
Si Si8 0.252476 0.549132 0.456165
O O1 0.268756 0.198472 0.750000
O O2 0.387015 0.197730 0.031748
O O3 0.189250 0.164995 0.027731
O O4 0.222606 0.250000 0.000000
O O5 0.497129 0.322163 0.250000
O O6 0.609788 0.303622 0.531701
O O7 0.496524 0.373164 0.516572
O O8 0.903737 0.358682 0.250000
O O9 0.812724 0.333173 0.964230
O O10 0.004835 0.377842 0.968288
O O11 0.814597 0.413171 0.041927
O O12 0.723739 0.542814 0.750000
O O13 0.802441 0.581591 0.024943
O O14 0.601147 0.553380 0.024396
O O15 0.762653 0.497735 0.030120
O O16 0.770530 0.250000 0.500000
O O17 0.726705 0.197126 0.750000
O O18 0.869503 0.621414 0.750000
O O19 0.489017 0.576429 0.750000
O O20 0.380461 0.559346 0.033466
O O21 0.218760 0.548899 0.250000
#
# Coordination Sequence:
#
# PCOD9434156 Si02
#       8
#     8   8   8   8   8   8   8   8
#     4  10  19  33  55  81 107 138 174 218 267 318
#     4   9  16  30  54  78 103 136 175 213 256 313
#     4  10  21  38  58  77 102 143 191 224 254 315
#     4   9  18  33  56  83 109 138 176 222 271 319
#     4  10  20  34  52  77 104 135 175 217 261 312
#     4   9  18  35  58  79 101 140 190 225 255 311
#     4  10  17  33  59  80 105 143 180 215 261 325
#     4  11  22  34  52  83 115 139 171 223 278 319
#
# _framework density 21.832253999999999
#
# number of rings (size 3 to 8) (size 9 to 14) (size 15 to 20)
#    0.000    2.250    2.500    1.125    0.000    1.500 
#    0.000    1.875    0.000    3.000    0.000    0.000 
#    0.000    0.000    0.000    0.000    0.000    0.000 
#
# Total GULP energy -357600.661971 kJ/mol
# GULP energy per Si atom -5587.510343 kJ/mol
# Density = 2.178256 g / cm^3
# Si number density = 21.832254 Si / 1000 Ang^3
#
#
#
# Elastic Constant Matrix: (Units=GPa)
#
#
# Indices 1 2 3 4 5 6 
#
# 1 162.2662 80.2905 -1.8904 0.0000 0.0000 0.0000
# 2 80.2905 182.0868 -8.9652 0.0000 0.0000 0.0000
# 3 -1.8904 -8.9652 58.0868 0.0000 0.0000 0.0000
# 4 0.0000 0.0000 0.0000 7.6276 0.0000 0.0000
# 5 0.0000 0.0000 0.0000 0.0000 -16.0644 0.0000
# 6 0.0000 0.0000 0.0000 0.0000 0.0000 -6.7800
#
#
#
# Elastic Compliance Matrix: (Units=1/GPa)
#
#
# Indices 1 2 3 4 5 6 
#
# 1 0.007887 -0.003492 -0.000282 0.000000 0.000000 0.000000
# 2 -0.003492 0.007080 0.000979 0.000000 0.000000 0.000000
# 3 -0.000282 0.000979 0.017358 0.000000 0.000000 0.000000
# 4 0.000000 0.000000 0.000000 0.131102 0.000000 0.000000
# 5 0.000000 0.000000 0.000000 0.000000 -0.062249 0.000000
# 6 0.000000 0.000000 0.000000 0.000000 0.000000 -0.147492
#
#
# Mechanical properties :
#
#
# Convention : Reuss Voigt Hill
#
# Bulk Modulus (GPa) = 37.40459 60.14552 48.77505
# Shear Modulus (GPa) = -157.16346 19.15697 -69.00325
#
# Velocity S-wave (km/s) = -8.49371 2.96541 -5.62803
# Velocity P-wave (km/s) = 8.88937 6.27165 4.45462
#
# Compressibility (1/GPa) = 0.02673469
#
# Stress axis : x y z
#
# Youngs Moduli (GPa) = 126.78856 141.24803 57.61182
#
# Poissons Ratio (x) = 0.49320 0.01626
# Poissons Ratio (y) = 0.44271 -0.05641
# Poissons Ratio (z) = 0.03578 -0.13829
#
# Static dielectric constant tensor:
#      x y z
#    x 1.765480 0.000000 0.000000 
#    y 0.000000 1.767370 0.000000 
#    z 0.000000 0.000000 1.853160 
# 
# From -- ./inp_files/3915.got.cif
#   From: 2010.05.17/outbox.cif.g08.bks.cpg/sg57_2_cif.got.tgz:3915.got - 2010.06.03 13:58:18.
