data_PCOD9434936
_publ_section_title
;
Structure prediction by ZEFSAII (Michael W. Deem and Ramdas Pophale) SiO2 
 PCOD9434936
Probable space group: P B C M
;
_chemical_formula_sum "Si O2"
_cell_formula_units_Z 56
_cell_length_a 20.379997
_cell_length_b 13.379426
_cell_length_c 9.340368
_cell_angle_alpha 90.000000
_cell_angle_beta 90.000000
_cell_angle_gamma 90.000000
_cell_volume 2546.863004
_symmetry_space_group_name_H-M "P B C M"
_symmetry_group_IT_number 57
_symmetry_cell_setting 'orthorhombic'
loop_
_space_group_symop_operation_xyz
x,y,z
-x,-y,1/2+z
x,1/2-y,-z
-x,1/2+y,1/2-z
-x,-y,-z
x,y,1/2-z
-x,1/2+y,z
x,1/2-y,1/2+z
loop_
_atom_site_type_symbol
_atom_site_label
_atom_site_fract_x
_atom_site_fract_y
_atom_site_fract_z
Si Si1 0.023324 0.597390 0.085922
Si Si2 0.123038 0.154999 0.412571
Si Si3 0.321116 0.155643 0.418029
Si Si4 0.576643 0.114963 0.087906
Si Si5 0.294019 0.924228 0.079866
Si Si6 0.146620 0.924531 0.421584
Si Si7 0.548951 0.877803 0.089387
O O1 0.040099 0.573400 0.250000
O O2 0.956628 0.660677 0.089896
O O3 0.088573 0.631353 0.004373
O O4 0.000000 0.500000 0.000000
O O5 0.146289 0.250000 0.500000
O O6 0.147596 0.161572 0.250000
O O7 0.141308 0.042998 0.463276
O O8 0.290968 0.250000 0.500000
O O9 0.318349 0.172963 0.250000
O O10 0.293418 0.044697 0.446091
O O11 0.395561 0.149961 0.475470
O O12 0.574100 0.156692 0.250000
O O13 0.558542 0.997274 0.101691
O O14 0.521682 0.147932 0.974592
O O15 0.648608 0.121474 0.017221
O O16 0.308138 0.910683 0.250000
O O17 0.220262 0.888108 0.049487
O O18 0.134995 0.920719 0.250000
O O19 0.558756 0.836730 0.250000
#
# Coordination Sequence:
#
# PCOD9434936 Si02
#       7
#     8   8   8   8   8   8   8
#     4   9  17  30  47  67  90 117 151 191 231 272
#     4   9  18  30  45  67  93 119 151 189 227 269
#     4  10  19  30  43  61  88 121 154 187 223 265
#     4   9  16  26  42  64  86 107 139 182 221 258
#     4   9  18  31  45  62  89 122 151 181 220 266
#     4   9  18  32  47  66  93 124 157 191 228 273
#     4   9  16  27  43  61  82 110 144 182 223 262
#
# _framework density 21.987835
#
# number of rings (size 3 to 8) (size 9 to 14) (size 15 to 20)
#    0.000    2.857    0.000    2.571    0.000    8.000 
#    0.000    0.000    0.000    0.000    0.000    1.000 
#    0.000    4.571    0.000    0.000    0.000    0.000 
#
# Total GULP energy -312433.695110 kJ/mol
# GULP energy per Si atom -5579.173127 kJ/mol
# Density = 2.193779 g / cm^3
# Si number density = 21.987835 Si / 1000 Ang^3
#
#
#
# Elastic Constant Matrix: (Units=GPa)
#
#
# Indices 1 2 3 4 5 6 
#
# 1 165.6408 -9.7535 56.5583 0.0000 0.0000 0.0000
# 2 -9.7535 42.8053 11.4762 0.0000 0.0000 0.0000
# 3 56.5583 11.4762 93.3124 0.0000 0.0000 0.0000
# 4 0.0000 0.0000 0.0000 19.1828 0.0000 0.0000
# 5 0.0000 0.0000 0.0000 0.0000 13.1829 0.0000
# 6 0.0000 0.0000 0.0000 0.0000 0.0000 -5.4521
#
#
#
# Elastic Compliance Matrix: (Units=1/GPa)
#
#
# Indices 1 2 3 4 5 6 
#
# 1 0.008025 0.003239 -0.005262 0.000000 0.000000 0.000000
# 2 0.003239 0.025466 -0.005095 0.000000 0.000000 0.000000
# 3 -0.005262 -0.005095 0.014533 0.000000 0.000000 0.000000
# 4 0.000000 0.000000 0.000000 0.052130 0.000000 0.000000
# 5 0.000000 0.000000 0.000000 0.000000 0.075856 0.000000
# 6 0.000000 0.000000 0.000000 0.000000 0.000000 -0.183414
#
#
# Mechanical properties :
#
#
# Convention : Reuss Voigt Hill
#
# Bulk Modulus (GPa) = 29.59741 46.48005 38.03873
# Shear Modulus (GPa) = 276.33513 21.61455 148.97484
#
# Velocity S-wave (km/s) = 11.22271 3.13872 8.24017
# Velocity P-wave (km/s) = 13.46931 5.85835 10.38611
#
# Compressibility (1/GPa) = 0.03378674
#
# Stress axis : x y z
#
# Youngs Moduli (GPa) = 124.61472 39.26834 68.80915
#
# Poissons Ratio (x) = -0.12720 0.36210
# Poissons Ratio (y) = -0.40367 0.35061
# Poissons Ratio (z) = 0.65576 0.20009
#
# Static dielectric constant tensor:
#      x y z
#    x 1.833410 0.000000 0.000000 
#    y 0.000000 1.847060 0.000000 
#    z 0.000000 0.000000 1.803600 
# 
# From -- ./inp_files/8362.got.cif
#   From: 2010.05.17/outbox.cif.g08.bks.cpg/sg57_5_cif.got.tgz:8362.got - 2010.06.03 13:58:18.
