data_PCOD9434121
_publ_section_title
;
Structure prediction by ZEFSAII (Michael W. Deem and Ramdas Pophale) SiO2 
 PCOD9434121
Probable space group: P B C M
;
_chemical_formula_sum "Si O2"
_cell_formula_units_Z 64
_cell_length_a 15.311770
_cell_length_b 30.923244
_cell_length_c 7.825028
_cell_angle_alpha 90.000000
_cell_angle_beta 90.000000
_cell_angle_gamma 90.000000
_cell_volume 3705.069376
_symmetry_space_group_name_H-M "P B C M"
_symmetry_group_IT_number 57
_symmetry_cell_setting 'orthorhombic'
loop_
_space_group_symop_operation_xyz
x,y,z
-x,-y,1/2+z
x,1/2-y,-z
-x,1/2+y,1/2-z
-x,-y,-z
x,y,1/2-z
-x,1/2+y,z
x,1/2-y,1/2+z
loop_
_atom_site_type_symbol
_atom_site_label
_atom_site_fract_x
_atom_site_fract_y
_atom_site_fract_z
Si Si1 0.365733 0.026375 0.549872
Si Si2 0.700463 0.116512 0.459354
Si Si3 0.541870 0.062498 0.457037
Si Si4 0.135141 0.938298 0.548540
Si Si5 0.041509 0.391445 0.959757
Si Si6 0.993313 0.297949 0.544518
Si Si7 0.830861 0.965163 0.948996
Si Si8 0.207480 0.702491 0.044921
O O1 0.347921 0.020311 0.750000
O O2 0.443497 0.060564 0.523908
O O3 0.273376 0.037364 0.468395
O O4 0.407552 0.981247 0.485506
O O5 0.699290 0.115848 0.250000
O O6 0.604567 0.101342 0.512296
O O7 0.774594 0.082362 0.517401
O O8 0.732921 0.163321 0.516859
O O9 0.537161 0.061310 0.250000
O O10 0.135192 0.929106 0.750000
O O11 0.049016 0.914131 0.482439
O O12 0.136039 0.989684 0.526534
O O13 0.042191 0.390826 0.750000
O O14 0.119662 0.422776 0.016975
O O15 0.042371 0.341311 0.015115
O O16 0.026830 0.250000 0.500000
O O17 0.990562 0.299776 0.750000
O O18 0.892613 0.301098 0.481081
O O19 0.852710 0.968353 0.750000
O O20 0.203132 0.698851 0.250000
O O21 0.240369 0.750000 0.000000
#
# Coordination Sequence:
#
# PCOD9434121 Si02
#       8
#     8   8   8   8   8   8   8   8
#     4  10  19  32  48  66  89 120 152 187 232 273
#     4   9  15  27  48  68  88 122 158 181 218 276
#     4   9  17  30  48  68  88 114 152 190 223 266
#     4  10  17  31  48  64  90 128 164 189 219 268
#     4   9  18  31  48  66  91 128 162 188 227 279
#     4   9  16  29  47  66  89 119 154 191 228 268
#     4  11  21  31  44  67  95 125 160 197 229 265
#     4   9  16  27  45  66  90 120 152 185 222 269
#
# _framework density 17.273631000000002
#
# number of rings (size 3 to 8) (size 9 to 14) (size 15 to 20)
#    0.000    2.500    2.500    1.125    0.000    0.500 
#    0.000    3.750    0.000    0.000    0.000    0.875 
#    0.000    0.000    0.000    0.000    0.000    0.000 
#
# Total GULP energy -356746.709218 kJ/mol
# GULP energy per Si atom -5574.167332 kJ/mol
# Density = 1.723432 g / cm^3
# Si number density = 17.273631 Si / 1000 Ang^3
#
#
#
# Elastic Constant Matrix: (Units=GPa)
#
#
# Indices 1 2 3 4 5 6 
#
# 1 60.1235 45.6750 -5.8202 0.0000 0.0000 0.0000
# 2 45.6750 134.2293 -6.5298 0.0000 0.0000 0.0000
# 3 -5.8202 -6.5298 11.7704 0.0000 0.0000 0.0000
# 4 0.0000 0.0000 0.0000 19.1890 0.0000 0.0000
# 5 0.0000 0.0000 0.0000 0.0000 12.6042 0.0000
# 6 0.0000 0.0000 0.0000 0.0000 0.0000 23.2793
#
#
#
# Elastic Compliance Matrix: (Units=1/GPa)
#
#
# Indices 1 2 3 4 5 6 
#
# 1 0.023014 -0.007480 0.007231 0.000000 0.000000 0.000000
# 2 -0.007480 0.010087 0.001898 0.000000 0.000000 0.000000
# 3 0.007231 0.001898 0.089587 0.000000 0.000000 0.000000
# 4 0.000000 0.000000 0.000000 0.052113 0.000000 0.000000
# 5 0.000000 0.000000 0.000000 0.000000 0.079339 0.000000
# 6 0.000000 0.000000 0.000000 0.000000 0.000000 0.042957
#
#
# Mechanical properties :
#
#
# Convention : Reuss Voigt Hill
#
# Bulk Modulus (GPa) = 7.93736 30.30814 19.12275
# Shear Modulus (GPa) = 14.89004 22.53438 18.71221
#
# Velocity S-wave (km/s) = 2.93919 3.61578 3.29490
# Velocity P-wave (km/s) = 4.01540 5.91742 5.05664
#
# Compressibility (1/GPa) = 0.12598649
#
# Stress axis : x y z
#
# Youngs Moduli (GPa) = 43.45091 99.13400 11.16235
#
# Poissons Ratio (x) = 0.74148 -0.08071
# Poissons Ratio (y) = 0.32499 -0.02118
# Poissons Ratio (z) = -0.31418 -0.18812
#
# Static dielectric constant tensor:
#      x y z
#    x 1.580050 0.000000 0.000000 
#    y 0.000000 1.600280 0.000000 
#    z 0.000000 0.000000 1.638170 
# 
# From -- ./inp_files/3829.got.cif
#   From: 2010.05.17/outbox.cif.g08.bks.cpg/sg57_2_cif.got.tgz:3829.got - 2010.06.03 13:58:18.
