data_PCOD9434924
_publ_section_title
;
Structure prediction by ZEFSAII (Michael W. Deem and Ramdas Pophale) SiO2 
 PCOD9434924
Probable space group: P B C M
;
_chemical_formula_sum "Si O2"
_cell_formula_units_Z 64
_cell_length_a 15.376114
_cell_length_b 30.680993
_cell_length_c 8.702891
_cell_angle_alpha 90.000000
_cell_angle_beta 90.000000
_cell_angle_gamma 90.000000
_cell_volume 4105.627522
_symmetry_space_group_name_H-M "P B C M"
_symmetry_group_IT_number 57
_symmetry_cell_setting 'orthorhombic'
loop_
_space_group_symop_operation_xyz
x,y,z
-x,-y,1/2+z
x,1/2-y,-z
-x,1/2+y,1/2-z
-x,-y,-z
x,y,1/2-z
-x,1/2+y,z
x,1/2-y,1/2+z
loop_
_atom_site_type_symbol
_atom_site_label
_atom_site_fract_x
_atom_site_fract_y
_atom_site_fract_z
Si Si1 0.964652 0.108096 0.563898
Si Si2 0.212966 0.203804 0.933661
Si Si3 0.625707 0.027657 0.564321
Si Si4 0.132888 0.058713 0.435535
Si Si5 0.177067 0.538854 0.562913
Si Si6 0.702779 0.618165 0.066633
Si Si7 0.555511 0.563330 0.566618
Si Si8 0.009224 0.203586 0.565216
O O1 0.966621 0.108027 0.750000
O O2 0.883469 0.078650 0.511927
O O3 0.963245 0.158758 0.514523
O O4 0.052236 0.084619 0.506264
O O5 0.216969 0.204062 0.750000
O O6 0.111173 0.198515 0.978799
O O7 0.242536 0.250000 0.000000
O O8 0.267273 0.164001 0.999418
O O9 0.626653 0.022613 0.750000
O O10 0.722144 0.041392 0.515054
O O11 0.546486 0.060017 0.524677
O O12 0.599604 0.981233 0.493559
O O13 0.125603 0.059784 0.250000
O O14 0.222755 0.082917 0.477847
O O15 0.138480 0.008172 0.484614
O O16 0.176600 0.538954 0.750000
O O17 0.701061 0.619975 0.250000
O O18 0.610437 0.602228 0.004900
O O19 0.561932 0.564825 0.750000
O O20 0.978222 0.250000 0.500000
O O21 0.004983 0.205967 0.750000
#
# Coordination Sequence:
#
# PCOD9434924 Si02
#       8
#     8   8   8   8   8   8   8   8
#     4  10  19  31  47  67  91 121 158 194 229 271
#     4  10  19  32  48  69  96 123 157 195 236 282
#     4   9  17  32  48  66  92 122 156 193 237 283
#     4  10  19  30  44  64  93 129 160 186 225 274
#     4   9  17  31  48  65  91 126 159 193 230 277
#     4  11  20  31  48  68  95 129 161 191 234 284
#     4  10  19  29  47  70  92 120 156 198 237 277
#     4   9  18  30  45  66  89 117 150 190 230 270
#
# _framework density 15.58836
#
# number of rings (size 3 to 8) (size 9 to 14) (size 15 to 20)
#    0.000    2.250    2.500    1.500    0.000    2.000 
#    0.000    0.625    0.000    0.000    0.000    0.875 
#    0.000    2.000    0.000    0.000    0.000    0.000 
#
# Total GULP energy -356867.156443 kJ/mol
# GULP energy per Si atom -5576.049319 kJ/mol
# Density = 1.555288 g / cm^3
# Si number density = 15.588360 Si / 1000 Ang^3
#
#
#
# Elastic Constant Matrix: (Units=GPa)
#
#
# Indices 1 2 3 4 5 6 
#
# 1 80.3891 61.3125 20.2588 0.0000 0.0000 0.0000
# 2 61.3125 146.9810 26.3668 0.0000 0.0000 0.0000
# 3 20.2588 26.3668 12.3668 0.0000 0.0000 0.0000
# 4 0.0000 0.0000 0.0000 23.0728 0.0000 0.0000
# 5 0.0000 0.0000 0.0000 0.0000 14.4092 0.0000
# 6 0.0000 0.0000 0.0000 0.0000 0.0000 28.3327
#
#
#
# Elastic Compliance Matrix: (Units=1/GPa)
#
#
# Indices 1 2 3 4 5 6 
#
# 1 0.022944 -0.004580 -0.027820 0.000000 0.000000 0.000000
# 2 -0.004580 0.011932 -0.017936 0.000000 0.000000 0.000000
# 3 -0.027820 -0.017936 0.164676 0.000000 0.000000 0.000000
# 4 0.000000 0.000000 0.000000 0.043341 0.000000 0.000000
# 5 0.000000 0.000000 0.000000 0.000000 0.069400 0.000000
# 6 0.000000 0.000000 0.000000 0.000000 0.000000 0.035295
#
#
# Mechanical properties :
#
#
# Convention : Reuss Voigt Hill
#
# Bulk Modulus (GPa) = 10.11340 50.62369 30.36855
# Shear Modulus (GPa) = 10.39024 21.94952 16.16988
#
# Velocity S-wave (km/s) = 2.58454 3.75650 3.22422
# Velocity P-wave (km/s) = 3.92535 7.16665 5.77794
#
# Compressibility (1/GPa) = 0.09887870
#
# Stress axis : x y z
#
# Youngs Moduli (GPa) = 43.58478 83.80976 6.07252
#
# Poissons Ratio (x) = 0.38387 0.16894
# Poissons Ratio (y) = 0.19963 0.10892
# Poissons Ratio (z) = 1.21254 1.50322
#
# Static dielectric constant tensor:
#      x y z
#    x 1.515850 0.000000 0.000000 
#    y 0.000000 1.559870 0.000000 
#    z 0.000000 0.000000 1.524340 
# 
# From -- ./inp_files/5958.got.cif
#   From: 2010.05.17/outbox.cif.g08.bks.cpg/sg57_3_cif.got.tgz:5958.got - 2010.06.03 13:58:18.
