data_PCOD9434684
_publ_section_title
;
Structure prediction by ZEFSAII (Michael W. Deem and Ramdas Pophale) SiO2 
 PCOD9434684
Probable space group: P B C M
;
_chemical_formula_sum "Si O2"
_cell_formula_units_Z 56
_cell_length_a 14.313534
_cell_length_b 10.275158
_cell_length_c 24.473986
_cell_angle_alpha 90.000000
_cell_angle_beta 90.000000
_cell_angle_gamma 90.000000
_cell_volume 3599.482695
_symmetry_space_group_name_H-M "P B C M"
_symmetry_group_IT_number 57
_symmetry_cell_setting 'orthorhombic'
loop_
_space_group_symop_operation_xyz
x,y,z
-x,-y,1/2+z
x,1/2-y,-z
-x,1/2+y,1/2-z
-x,-y,-z
x,y,1/2-z
-x,1/2+y,z
x,1/2-y,1/2+z
loop_
_atom_site_type_symbol
_atom_site_label
_atom_site_fract_x
_atom_site_fract_y
_atom_site_fract_z
Si Si1 0.114575 0.121915 0.536017
Si Si2 0.414468 0.779910 0.184410
Si Si3 0.916821 0.265317 0.250000
Si Si4 0.208301 0.774147 0.142536
Si Si5 0.104834 0.874786 0.038886
Si Si6 0.215441 0.034644 0.858388
Si Si7 0.908231 0.958221 0.250000
Si Si8 0.420994 0.022941 0.684357
O O1 0.128481 0.250000 0.500000
O O2 0.177070 0.112672 0.589913
O O3 0.005269 0.115098 0.553292
O O4 0.131784 0.999918 0.496359
O O5 0.400321 0.789538 0.250000
O O6 0.315516 0.806728 0.155972
O O7 0.495034 0.881212 0.168903
O O8 0.441405 0.629430 0.173055
O O9 0.854050 0.291921 0.303350
O O10 0.939879 0.110367 0.250000
O O11 0.006540 0.357778 0.250000
O O12 0.165381 0.854097 0.092788
O O13 0.204439 0.619700 0.129412
O O14 0.115298 0.750000 0.000000
O O15 0.323716 0.058028 0.844521
O O16 0.154768 0.060930 0.804018
O O17 0.406952 0.033875 0.750000
#
# Coordination Sequence:
#
# PCOD9434684 Si02
#       8
#     8   8   4   8   8   8   4   8
#     4  10  21  35  53  77 105 137 179 224 253 294
#     4   9  17  32  53  77 103 133 170 212 258 313
#     4  10  20  34  49  76 110 140 167 210 263 312
#     4  10  18  33  57  76 102 140 178 210 254 319
#     4  10  19  35  55  75 100 139 184 212 247 303
#     4  10  18  34  56  76 104 140 174 208 261 320
#     4  10  20  34  51  76 108 140 169 206 263 316
#     4   9  17  32  54  77 102 133 170 211 258 314
#
# _framework density 15.557791
#
# number of rings (size 3 to 8) (size 9 to 14) (size 15 to 20)
#    0.000    2.286    2.857    0.857    0.000    0.000 
#    5.143    0.000    0.000    1.714    0.000    0.000 
#    0.000    0.000    0.000    0.000    0.000    0.000 
#
# Total GULP energy -312268.052129 kJ/mol
# GULP energy per Si atom -5576.215217 kJ/mol
# Density = 1.552238 g / cm^3
# Si number density = 15.557791 Si / 1000 Ang^3
#
#
#
# Elastic Constant Matrix: (Units=GPa)
#
#
# Indices 1 2 3 4 5 6 
#
# 1 116.0499 61.7599 63.6756 0.0000 0.0000 0.0000
# 2 61.7599 71.7643 45.4539 0.0000 0.0000 0.0000
# 3 63.6756 45.4539 87.9572 0.0000 0.0000 0.0000
# 4 0.0000 0.0000 0.0000 15.8226 0.0000 0.0000
# 5 0.0000 0.0000 0.0000 0.0000 23.2266 0.0000
# 6 0.0000 0.0000 0.0000 0.0000 0.0000 25.9367
#
#
#
# Elastic Compliance Matrix: (Units=1/GPa)
#
#
# Indices 1 2 3 4 5 6 
#
# 1 0.018973 -0.011340 -0.007875 0.000000 0.000000 0.000000
# 2 -0.011340 0.027493 -0.005998 0.000000 0.000000 0.000000
# 3 -0.007875 -0.005998 0.020170 0.000000 0.000000 0.000000
# 4 0.000000 0.000000 0.000000 0.063201 0.000000 0.000000
# 5 0.000000 0.000000 0.000000 0.000000 0.043054 0.000000
# 6 0.000000 0.000000 0.000000 0.000000 0.000000 0.038555
#
#
# Mechanical properties :
#
#
# Convention : Reuss Voigt Hill
#
# Bulk Modulus (GPa) = 61.69294 68.61668 65.15481
# Shear Modulus (GPa) = 18.70734 19.98932 19.34833
#
# Velocity S-wave (km/s) = 3.47139 3.58836 3.53036
# Velocity P-wave (km/s) = 7.47044 7.83381 7.65428
#
# Compressibility (1/GPa) = 0.01620931
#
# Stress axis : x y z
#
# Youngs Moduli (GPa) = 52.70663 36.37321 49.57934
#
# Poissons Ratio (x) = 0.41248 0.39043
# Poissons Ratio (y) = 0.59770 0.29737
# Poissons Ratio (z) = 0.41506 0.21816
#
# Static dielectric constant tensor:
#      x y z
#    x 1.496670 0.000000 0.000000 
#    y 0.000000 1.515930 0.000000 
#    z 0.000000 0.000000 1.497320 
# 
# From -- ./inp_files/25077.got.cif
#   From: 2010.05.17/outbox.cif.g08.bks.cpg/sg57_13_cif.got.tgz:25077.got - 2010.06.03 13:58:18.
