data_PCOD9434655
_publ_section_title
;
Structure prediction by ZEFSAII (Michael W. Deem and Ramdas Pophale) SiO2 
 PCOD9434655
Probable space group: P B C M
;
_chemical_formula_sum "Si O2"
_cell_formula_units_Z 40
_cell_length_a 5.548913
_cell_length_b 16.994843
_cell_length_c 17.308940
_cell_angle_alpha 90.000000
_cell_angle_beta 90.000000
_cell_angle_gamma 90.000000
_cell_volume 1632.283329
_symmetry_space_group_name_H-M "P B C M"
_symmetry_group_IT_number 57
_symmetry_cell_setting 'orthorhombic'
loop_
_space_group_symop_operation_xyz
x,y,z
-x,-y,1/2+z
x,1/2-y,-z
-x,1/2+y,1/2-z
-x,-y,-z
x,y,1/2-z
-x,1/2+y,z
x,1/2-y,1/2+z
loop_
_atom_site_type_symbol
_atom_site_label
_atom_site_fract_x
_atom_site_fract_y
_atom_site_fract_z
Si Si1 0.109291 0.955214 0.162125
Si Si2 0.510150 0.113964 0.956220
Si Si3 0.280479 0.540379 0.407690
Si Si4 0.488241 0.586814 0.250000
Si Si5 0.246366 0.309468 0.166230
Si Si6 0.012344 0.182441 0.250000
O O1 0.189387 0.967668 0.250000
O O2 0.890226 0.892568 0.168408
O O3 0.294255 0.913989 0.106095
O O4 0.990404 0.032535 0.123769
O O5 0.389083 0.188150 0.913970
O O6 0.324868 0.039375 0.957555
O O7 0.641054 0.112690 0.038522
O O8 0.444142 0.542162 0.330894
O O9 0.742905 0.630862 0.250000
O O10 0.248101 0.643407 0.250000
O O11 0.385359 0.304929 0.250000
O O12 0.051975 0.240490 0.176588
#
# Coordination Sequence:
#
# PCOD9434655 Si02
#       6
#     8   8   8   4   8   4
#     4  10  18  32  63  92 120 156 207 269 323 389
#     4  10  20  36  64  92 126 161 202 290 314 396
#     4  10  23  37  56  97 132 158 214 248 359 382
#     4  12  26  45  64  91 132 186 204 266 318 412
#     4   8  19  37  61  89 112 160 220 267 306 364
#     4  10  26  43  68  85 128 174 234 256 306 374
#
# _framework density 24.505549999999999
#
# number of rings (size 3 to 8) (size 9 to 14) (size 15 to 20)
#    0.600    1.600    1.000    1.200    8.400    0.000 
#    0.000    1.000    0.000    0.000    0.000    0.000 
#    0.000    0.000    0.000    0.000    0.000    0.000 
#
# Total GULP energy -223000.550039 kJ/mol
# GULP energy per Si atom -5575.013751 kJ/mol
# Density = 2.444977 g / cm^3
# Si number density = 24.505550 Si / 1000 Ang^3
#
#
#
# Elastic Constant Matrix: (Units=GPa)
#
#
# Indices 1 2 3 4 5 6 
#
# 1 62.2353 6.6749 23.1693 0.0000 0.0000 0.0000
# 2 6.6749 50.5900 2.8057 0.0000 0.0000 0.0000
# 3 23.1693 2.8057 111.5633 0.0000 0.0000 0.0000
# 4 0.0000 0.0000 0.0000 6.5699 0.0000 0.0000
# 5 0.0000 0.0000 0.0000 0.0000 37.6591 0.0000
# 6 0.0000 0.0000 0.0000 0.0000 0.0000 37.9860
#
#
#
# Elastic Compliance Matrix: (Units=1/GPa)
#
#
# Indices 1 2 3 4 5 6 
#
# 1 0.017640 -0.002127 -0.003610 0.000000 0.000000 0.000000
# 2 -0.002127 0.020051 -0.000062 0.000000 0.000000 0.000000
# 3 -0.003610 -0.000062 0.009715 0.000000 0.000000 0.000000
# 4 0.000000 0.000000 0.000000 0.152210 0.000000 0.000000
# 5 0.000000 0.000000 0.000000 0.000000 0.026554 0.000000
# 6 0.000000 0.000000 0.000000 0.000000 0.000000 0.026325
#
#
# Mechanical properties :
#
#
# Convention : Reuss Voigt Hill
#
# Bulk Modulus (GPa) = 27.92796 32.18761 30.05779
# Shear Modulus (GPa) = 18.11395 29.22557 23.66976
#
# Velocity S-wave (km/s) = 2.72173 3.45717 3.11125
# Velocity P-wave (km/s) = 4.61502 5.39438 5.01985
#
# Compressibility (1/GPa) = 0.03580641
#
# Stress axis : x y z
#
# Youngs Moduli (GPa) = 56.68885 49.87308 102.93564
#
# Poissons Ratio (x) = 0.10609 0.37160
# Poissons Ratio (y) = 0.12059 0.00643
# Poissons Ratio (z) = 0.20465 0.00312
#
# Static dielectric constant tensor:
#      x y z
#    x 2.037500 0.000000 0.000000 
#    y 0.000000 2.035900 0.000000 
#    z 0.000000 0.000000 1.990850 
# 
# From -- ./inp_files/20133.got.cif
#   From: 2010.05.17/outbox.cif.g08.bks.cpg/sg57_11_cif.got.tgz:20133.got - 2010.06.03 13:58:18.
