data_PCOD9434140
_publ_section_title
;
Structure prediction by ZEFSAII (Michael W. Deem and Ramdas Pophale) SiO2 
 PCOD9434140
Probable space group: P B C M
;
_chemical_formula_sum "Si O2"
_cell_formula_units_Z 44
_cell_length_a 8.538892
_cell_length_b 17.701564
_cell_length_c 14.903379
_cell_angle_alpha 90.000000
_cell_angle_beta 90.000000
_cell_angle_gamma 90.000000
_cell_volume 2252.671716
_symmetry_space_group_name_H-M "P B C M"
_symmetry_group_IT_number 57
_symmetry_cell_setting 'orthorhombic'
loop_
_space_group_symop_operation_xyz
x,y,z
-x,-y,1/2+z
x,1/2-y,-z
-x,1/2+y,1/2-z
-x,-y,-z
x,y,1/2-z
-x,1/2+y,z
x,1/2-y,1/2+z
loop_
_atom_site_type_symbol
_atom_site_label
_atom_site_fract_x
_atom_site_fract_y
_atom_site_fract_z
Si Si1 0.526936 0.617284 0.250000
Si Si2 0.978830 0.287509 0.907448
Si Si3 0.787603 0.009017 0.750000
Si Si4 0.026916 0.535559 0.098096
Si Si5 0.306846 0.350544 0.250000
Si Si6 0.265054 0.991963 0.750000
Si Si7 0.354482 0.267909 0.601725
Si Si8 0.071400 0.825311 0.250000
O O1 0.631130 0.541053 0.250000
O O2 0.351132 0.587409 0.250000
O O3 0.564459 0.666860 0.161246
O O4 0.168733 0.286760 0.900549
O O5 0.937671 0.375357 0.905256
O O6 0.910539 0.231556 0.833090
O O7 0.933045 0.250000 0.000000
O O8 0.818052 0.100364 0.750000
O O9 0.877229 0.980068 0.839265
O O10 0.164641 0.500917 0.158844
O O11 0.000000 0.500000 0.000000
O O12 0.370701 0.434294 0.250000
O O13 0.363728 0.306503 0.337377
O O14 0.114371 0.349909 0.250000
O O15 0.406554 0.250000 0.500000
#
# Coordination Sequence:
#
# PCOD9434140 Si02
#       8
#     4   8   4   8   4   4   8   4
#     4  11  22  42  59  92 125 168 210 247 316 378
#     4  10  19  32  58  91 113 148 202 252 303 356
#     4  11  20  36  60  87 122 162 204 254 314 364
#     4  11  22  38  61  89 121 156 202 261 317 357
#     4   9  18  33  55  87 121 149 202 257 300 349
#     4  11  25  39  60  88 128 156 198 257 312 375
#     4   9  19  35  63  88 117 161 212 250 292 371
#     4  10  17  32  54  84 120 153 198 253 300 350
#
# _framework density 19.532364000000001
#
# number of rings (size 3 to 8) (size 9 to 14) (size 15 to 20)
#    0.000    1.818    3.636    2.727    5.091    0.000 
#    0.000    8.182    0.000    0.000    0.000    0.000 
#    0.000    0.000    0.000    0.000    0.000    0.000 
#
# Total GULP energy -245230.434774 kJ/mol
# GULP energy per Si atom -5573.418972 kJ/mol
# Density = 1.948791 g / cm^3
# Si number density = 19.532364 Si / 1000 Ang^3
#
#
#
# Elastic Constant Matrix: (Units=GPa)
#
#
# Indices 1 2 3 4 5 6 
#
# 1 20.4564 15.9924 25.9343 0.0000 0.0000 0.0000
# 2 15.9924 177.4890 80.3076 0.0000 0.0000 0.0000
# 3 25.9343 80.3076 196.2673 0.0000 0.0000 0.0000
# 4 0.0000 0.0000 0.0000 25.0740 0.0000 0.0000
# 5 0.0000 0.0000 0.0000 0.0000 1.5002 0.0000
# 6 0.0000 0.0000 0.0000 0.0000 0.0000 26.7170
#
#
#
# Elastic Compliance Matrix: (Units=1/GPa)
#
#
# Indices 1 2 3 4 5 6 
#
# 1 0.059420 -0.002211 -0.006947 0.000000 0.000000 0.000000
# 2 -0.002211 0.006996 -0.002571 0.000000 0.000000 0.000000
# 3 -0.006947 -0.002571 0.007065 0.000000 0.000000 0.000000
# 4 0.000000 0.000000 0.000000 0.039882 0.000000 0.000000
# 5 0.000000 0.000000 0.000000 0.000000 0.666582 0.000000
# 6 0.000000 0.000000 0.000000 0.000000 0.000000 0.037429
#
#
# Mechanical properties :
#
#
# Convention : Reuss Voigt Hill
#
# Bulk Modulus (GPa) = 19.99015 70.96458 45.47736
# Shear Modulus (GPa) = 5.83086 28.79015 17.31050
#
# Velocity S-wave (km/s) = 1.72966 3.84340 2.98022
# Velocity P-wave (km/s) = 3.77433 7.49041 5.93093
#
# Compressibility (1/GPa) = 0.05002464
#
# Stress axis : x y z
#
# Youngs Moduli (GPa) = 16.82934 142.92907 141.54454
#
# Poissons Ratio (x) = 0.31597 0.98332
# Poissons Ratio (y) = 0.03720 0.36386
# Poissons Ratio (z) = 0.11691 0.36742
#
# Static dielectric constant tensor:
#      x y z
#    x 1.698700 0.000000 0.000000 
#    y 0.000000 1.698580 0.000000 
#    z 0.000000 0.000000 1.640340 
# 
# From -- ./inp_files/16271.got.cif
#   From: 2010.05.17/outbox.cif.g08.bks.cpg/sg57_9_cif.got.tgz:16271.got - 2010.06.03 13:58:18.
