data_PCOD9434511
_publ_section_title
;
Structure prediction by ZEFSAII (Michael W. Deem and Ramdas Pophale) SiO2 
 PCOD9434511
Probable space group: P B C M
;
_chemical_formula_sum "Si O2"
_cell_formula_units_Z 64
_cell_length_a 24.904359
_cell_length_b 15.090966
_cell_length_c 8.626973
_cell_angle_alpha 90.000000
_cell_angle_beta 90.000000
_cell_angle_gamma 90.000000
_cell_volume 3242.282465
_symmetry_space_group_name_H-M "P B C M"
_symmetry_group_IT_number 57
_symmetry_cell_setting 'orthorhombic'
loop_
_space_group_symop_operation_xyz
x,y,z
-x,-y,1/2+z
x,1/2-y,-z
-x,1/2+y,1/2-z
-x,-y,-z
x,y,1/2-z
-x,1/2+y,z
x,1/2-y,1/2+z
loop_
_atom_site_type_symbol
_atom_site_label
_atom_site_fract_x
_atom_site_fract_y
_atom_site_fract_z
Si Si1 0.411037 0.336813 0.433358
Si Si2 0.317900 0.028564 0.564657
Si Si3 0.517431 0.405295 0.565744
Si Si4 0.877533 0.963220 0.561554
Si Si5 0.364047 0.846034 0.937506
Si Si6 0.224134 0.349202 0.564727
Si Si7 0.023677 0.344551 0.936769
Si Si8 0.903040 0.344586 0.435981
O O1 0.382125 0.250000 0.500000
O O2 0.418834 0.328960 0.250000
O O3 0.374780 0.422586 0.462609
O O4 0.467779 0.344575 0.517683
O O5 0.308484 0.030637 0.750000
O O6 0.272735 0.086750 0.483815
O O7 0.325344 0.926903 0.514446
O O8 0.500000 0.500000 0.500000
O O9 0.521195 0.412447 0.750000
O O10 0.575100 0.370200 0.509373
O O11 0.876316 0.963375 0.750000
O O12 0.830085 0.898617 0.508648
O O13 0.934782 0.921100 0.516850
O O14 0.872881 0.065732 0.512542
O O15 0.364470 0.844125 0.750000
O O16 0.348973 0.750000 0.000000
O O17 0.229276 0.250000 0.500000
O O18 0.222258 0.342867 0.750000
O O19 0.019934 0.341279 0.750000
O O20 0.044294 0.250000 0.000000
O O21 0.964525 0.355806 0.007131
O O22 0.883366 0.250000 0.500000
O O23 0.902771 0.340234 0.250000
#
# Coordination Sequence:
#
# PCOD9434511 Si02
#       8
#     8   8   8   8   8   8   8   8
#     4  11  22  37  56  82 115 149 186 230 279 337
#     4  10  22  42  61  82 114 147 187 236 284 333
#     4  11  21  36  57  84 117 154 189 230 279 335
#     4   9  20  36  55  79 112 148 186 232 281 334
#     4  10  22  40  60  85 116 150 188 233 281 332
#     4  11  23  41  63  88 113 144 185 231 287 342
#     4  10  18  31  51  79 113 150 186 227 277 332
#     4  10  19  34  53  78 112 150 188 231 275 325
#
# _framework density 19.739180000000001
#
# number of rings (size 3 to 8) (size 9 to 14) (size 15 to 20)
#    0.000    1.750    1.250    4.125    0.000    4.500 
#    0.000    6.875    0.000    3.000    0.000    0.000 
#    0.000    0.000    0.000    0.000    0.000    0.000 
#
# Total GULP energy -357389.611792 kJ/mol
# GULP energy per Si atom -5584.212684 kJ/mol
# Density = 1.969425 g / cm^3
# Si number density = 19.739180 Si / 1000 Ang^3
#
#
#
# Elastic Constant Matrix: (Units=GPa)
#
#
# Indices 1 2 3 4 5 6 
#
# 1 52.7867 44.4303 16.9114 0.0000 0.0000 0.0000
# 2 44.4303 190.5035 38.1898 0.0000 0.0000 0.0000
# 3 16.9114 38.1898 40.0579 0.0000 0.0000 0.0000
# 4 0.0000 0.0000 0.0000 31.1777 0.0000 0.0000
# 5 0.0000 0.0000 0.0000 0.0000 15.9671 0.0000
# 6 0.0000 0.0000 0.0000 0.0000 0.0000 21.6077
#
#
#
# Elastic Compliance Matrix: (Units=1/GPa)
#
#
# Indices 1 2 3 4 5 6 
#
# 1 0.024724 -0.004542 -0.006108 0.000000 0.000000 0.000000
# 2 -0.004542 0.007324 -0.005065 0.000000 0.000000 0.000000
# 3 -0.006108 -0.005065 0.032371 0.000000 0.000000 0.000000
# 4 0.000000 0.000000 0.000000 0.032074 0.000000 0.000000
# 5 0.000000 0.000000 0.000000 0.000000 0.062629 0.000000
# 6 0.000000 0.000000 0.000000 0.000000 0.000000 0.046280
#
#
# Mechanical properties :
#
#
# Convention : Reuss Voigt Hill
#
# Bulk Modulus (GPa) = 30.31236 53.60123 41.95680
# Shear Modulus (GPa) = 20.17540 26.00496 23.09018
#
# Velocity S-wave (km/s) = 3.20050 3.63358 3.42389
# Velocity P-wave (km/s) = 5.38956 6.69459 6.07721
#
# Compressibility (1/GPa) = 0.03298984
#
# Stress axis : x y z
#
# Youngs Moduli (GPa) = 40.44696 136.54013 30.89181
#
# Poissons Ratio (x) = 0.62014 0.18868
# Poissons Ratio (y) = 0.18370 0.15646
# Poissons Ratio (z) = 0.24704 0.69156
#
# Static dielectric constant tensor:
#      x y z
#    x 1.801280 0.000000 0.000000 
#    y 0.000000 1.741450 0.000000 
#    z 0.000000 0.000000 1.666380 
# 
# From -- ./inp_files/9460.got.cif
#   From: 2010.05.17/outbox.cif.g08.bks.cpg/sg57_5_cif.got.tgz:9460.got - 2010.06.03 13:58:18.
