data_PCOD9434298
_publ_section_title
;
Structure prediction by ZEFSAII (Michael W. Deem and Ramdas Pophale) SiO2 
 PCOD9434298
Probable space group: P B C M
;
_chemical_formula_sum "Si O2"
_cell_formula_units_Z 36
_cell_length_a 12.894266
_cell_length_b 5.446011
_cell_length_c 27.859409
_cell_angle_alpha 90.000000
_cell_angle_beta 90.000000
_cell_angle_gamma 90.000000
_cell_volume 1956.352180
_symmetry_space_group_name_H-M "P B C M"
_symmetry_group_IT_number 57
_symmetry_cell_setting 'orthorhombic'
loop_
_space_group_symop_operation_xyz
x,y,z
-x,-y,1/2+z
x,1/2-y,-z
-x,1/2+y,1/2-z
-x,-y,-z
x,y,1/2-z
-x,1/2+y,z
x,1/2-y,1/2+z
loop_
_atom_site_type_symbol
_atom_site_label
_atom_site_fract_x
_atom_site_fract_y
_atom_site_fract_z
Si Si1 0.763356 0.794458 0.250000
Si Si2 0.605159 0.273481 0.644037
Si Si3 0.569590 0.750000 0.000000
Si Si4 0.037631 0.215453 0.305086
Si Si5 0.364357 0.795041 0.250000
Si Si6 0.372239 0.274281 0.894464
O O1 0.841518 0.755189 0.205282
O O2 0.683222 0.568767 0.250000
O O3 0.717435 0.067837 0.250000
O O4 0.577478 0.241917 0.699902
O O5 0.662121 0.528377 0.632812
O O6 0.496873 0.285166 0.615582
O O7 0.665926 0.032504 0.626571
O O8 0.636605 0.752433 0.951436
O O9 0.500000 0.500000 0.000000
O O10 0.990236 0.197347 0.250000
O O11 0.011481 0.955954 0.328090
#
# Coordination Sequence:
#
# PCOD9434298 Si02
#       6
#     4   8   4   8   4   8
#     4  10  18  29  39  56  78 106 144 176 190 226
#     4  10  20  31  41  57  78 108 139 172 203 238
#     4  12  16  30  52  72  70  86 112 186 256 260
#     4   8  13  24  42  59  72  91 126 183 212 215
#     4  12  22  29  39  54  84 124 148 158 186 238
#     4  10  19  32  47  61  77  91 132 190 222 254
#
# _framework density 18.401593999999999
#
# number of rings (size 3 to 8) (size 9 to 14) (size 15 to 20)
#    0.667    1.333    4.444    2.667    0.000    3.556 
#    0.000    0.000    0.000    0.000    0.000    0.000 
#    0.000    0.000    0.000    0.000    0.000    0.000 
#
# Total GULP energy -200455.301931 kJ/mol
# GULP energy per Si atom -5568.202831 kJ/mol
# Density = 1.835971 g / cm^3
# Si number density = 18.401594 Si / 1000 Ang^3
#
#
#
# Elastic Constant Matrix: (Units=GPa)
#
#
# Indices 1 2 3 4 5 6 
#
# 1 17.3743 -4.5443 -2.6076 0.0000 0.0000 0.0000
# 2 -4.5443 143.1326 -1.3089 0.0000 0.0000 0.0000
# 3 -2.6076 -1.3089 91.0729 0.0000 0.0000 0.0000
# 4 0.0000 0.0000 0.0000 15.3931 0.0000 0.0000
# 5 0.0000 0.0000 0.0000 0.0000 -2.3401 0.0000
# 6 0.0000 0.0000 0.0000 0.0000 0.0000 19.5723
#
#
#
# Elastic Compliance Matrix: (Units=1/GPa)
#
#
# Indices 1 2 3 4 5 6 
#
# 1 0.058299 0.001866 0.001696 0.000000 0.000000 0.000000
# 2 0.001866 0.007047 0.000155 0.000000 0.000000 0.000000
# 3 0.001696 0.000155 0.011031 0.000000 0.000000 0.000000
# 4 0.000000 0.000000 0.000000 0.064964 0.000000 0.000000
# 5 0.000000 0.000000 0.000000 0.000000 -0.427341 0.000000
# 6 0.000000 0.000000 0.000000 0.000000 0.000000 0.051093
#
#
# Mechanical properties :
#
#
# Convention : Reuss Voigt Hill
#
# Bulk Modulus (GPa) = 11.93154 26.07312 19.00233
# Shear Modulus (GPa) = -23.32040 23.86111 0.27036
#
# Velocity S-wave (km/s) = -3.56378 3.60486 0.38372
# Velocity P-wave (km/s) = 3.23048 5.61484 3.24734
#
# Compressibility (1/GPa) = 0.08381147
#
# Stress axis : x y z
#
# Youngs Moduli (GPa) = 17.15300 141.90033 90.65358
#
# Poissons Ratio (x) = -0.26485 -0.15375
# Poissons Ratio (y) = -0.03201 -0.01403
# Poissons Ratio (z) = -0.02909 -0.02196
#
# Static dielectric constant tensor:
#      x y z
#    x 1.626970 0.000000 0.000000 
#    y 0.000000 1.808650 0.000000 
#    z 0.000000 0.000000 1.639380 
# 
# From -- ./inp_files/27339.got.cif
#   From: 2010.05.17/outbox.cif.g08.bks.cpg/sg57_14_cif.got.tgz:27339.got - 2010.06.03 13:58:18.
