data_PCOD9434077
_publ_section_title
;
Structure prediction by ZEFSAII (Michael W. Deem and Ramdas Pophale) SiO2 
 PCOD9434077
Probable space group: P B C M
;
_chemical_formula_sum "Si O2"
_cell_formula_units_Z 64
_cell_length_a 15.489977
_cell_length_b 30.802927
_cell_length_c 7.453945
_cell_angle_alpha 90.000000
_cell_angle_beta 90.000000
_cell_angle_gamma 90.000000
_cell_volume 3556.550203
_symmetry_space_group_name_H-M "P B C M"
_symmetry_group_IT_number 57
_symmetry_cell_setting 'orthorhombic'
loop_
_space_group_symop_operation_xyz
x,y,z
-x,-y,1/2+z
x,1/2-y,-z
-x,1/2+y,1/2-z
-x,-y,-z
x,y,1/2-z
-x,1/2+y,z
x,1/2-y,1/2+z
loop_
_atom_site_type_symbol
_atom_site_label
_atom_site_fract_x
_atom_site_fract_y
_atom_site_fract_z
Si Si1 0.541218 0.607582 0.030063
Si Si2 0.367858 0.557567 0.034333
Si Si3 0.319931 0.460697 0.961958
Si Si4 0.956281 0.068068 0.041888
Si Si5 0.206562 0.615407 0.470326
Si Si6 0.494433 0.701656 0.035494
Si Si7 0.874185 0.974842 0.531034
Si Si8 0.297046 0.702028 0.035986
O O1 0.541669 0.606895 0.250000
O O2 0.451695 0.584375 0.974000
O O3 0.620594 0.578030 0.967003
O O4 0.541557 0.657920 0.972625
O O5 0.367973 0.559673 0.250000
O O6 0.279530 0.580687 0.973184
O O7 0.366643 0.507122 0.984253
O O8 0.310876 0.453047 0.750000
O O9 0.222326 0.464813 0.032526
O O10 0.968893 0.079481 0.250000
O O11 0.888187 0.102129 0.964675
O O12 0.051690 0.058667 0.968662
O O13 0.905962 0.022075 0.031061
O O14 0.204699 0.614347 0.250000
O O15 0.239531 0.662395 0.529266
O O16 0.490061 0.698095 0.250000
O O17 0.395489 0.700183 0.965558
O O18 0.529730 0.750000 0.000000
O O19 0.875033 0.975921 0.750000
O O20 0.303294 0.696656 0.250000
O O21 0.262412 0.750000 0.000000
#
# Coordination Sequence:
#
# PCOD9434077 Si02
#       8
#     8   8   8   8   8   8   8   8
#     4   9  17  29  44  59  81 114 143 165 201 248
#     4  10  17  28  43  59  80 113 149 169 187 235
#     4  10  19  29  40  59  87 114 138 171 208 237
#     4   9  16  27  43  59  77 106 139 166 196 237
#     4   9  15  25  43  61  78 105 140 167 192 238
#     4   9  16  28  44  60  78 102 132 167 205 243
#     4   9  17  27  39  59  84 105 132 171 205 231
#     4   9  16  27  42  60  80 102 130 166 204 243
#
# _framework density 17.994966999999999
#
# number of rings (size 3 to 8) (size 9 to 14) (size 15 to 20)
#    0.000    2.750    2.500    0.375    0.000    0.000 
#    0.000    2.500    0.000    0.000    0.000    0.875 
#    0.000    0.000    0.000    0.000    0.000    0.000 
#
# Total GULP energy -356819.821636 kJ/mol
# GULP energy per Si atom -5575.309713 kJ/mol
# Density = 1.795401 g / cm^3
# Si number density = 17.994967 Si / 1000 Ang^3
#
#
#
# Elastic Constant Matrix: (Units=GPa)
#
#
# Indices 1 2 3 4 5 6 
#
# 1 79.1807 53.1276 -2.0720 0.0000 0.0000 0.0000
# 2 53.1276 145.8003 -6.9285 0.0000 0.0000 0.0000
# 3 -2.0720 -6.9285 52.5225 0.0000 0.0000 0.0000
# 4 0.0000 0.0000 0.0000 15.3728 0.0000 0.0000
# 5 0.0000 0.0000 0.0000 0.0000 1.0930 0.0000
# 6 0.0000 0.0000 0.0000 0.0000 0.0000 23.0487
#
#
#
# Elastic Compliance Matrix: (Units=1/GPa)
#
#
# Indices 1 2 3 4 5 6 
#
# 1 0.016717 -0.006098 -0.000145 0.000000 0.000000 0.000000
# 2 -0.006098 0.009127 0.000963 0.000000 0.000000 0.000000
# 3 -0.000145 0.000963 0.019161 0.000000 0.000000 0.000000
# 4 0.000000 0.000000 0.000000 0.065050 0.000000 0.000000
# 5 0.000000 0.000000 0.000000 0.000000 0.914902 0.000000
# 6 0.000000 0.000000 0.000000 0.000000 0.000000 0.043386
#
#
# Mechanical properties :
#
#
# Convention : Reuss Voigt Hill
#
# Bulk Modulus (GPa) = 29.03205 40.63977 34.83591
# Shear Modulus (GPa) = 4.58554 23.46134 14.02344
#
# Velocity S-wave (km/s) = 1.59805 3.61470 2.79462
# Velocity P-wave (km/s) = 4.42419 6.32885 5.46021
#
# Compressibility (1/GPa) = 0.03444469
#
# Stress axis : x y z
#
# Youngs Moduli (GPa) = 59.81778 109.56883 52.18984
#
# Poissons Ratio (x) = 0.66821 0.00757
# Poissons Ratio (y) = 0.36480 -0.05028
# Poissons Ratio (z) = 0.00867 -0.10555
#
# Static dielectric constant tensor:
#      x y z
#    x 1.621400 0.000000 0.000000 
#    y 0.000000 1.615240 0.000000 
#    z 0.000000 0.000000 1.677300 
# 
# From -- ./inp_files/6042.got.cif
#   From: 2010.05.17/outbox.cif.g08.bks.cpg/sg57_4_cif.got.tgz:6042.got - 2010.06.03 13:58:18.
