data_PCOD9434581
_publ_section_title
;
Structure prediction by ZEFSAII (Michael W. Deem and Ramdas Pophale) SiO2 
 PCOD9434581
Probable space group: P B C M
;
_chemical_formula_sum "Si O2"
_cell_formula_units_Z 64
_cell_length_a 15.136332
_cell_length_b 30.655836
_cell_length_c 8.658466
_cell_angle_alpha 90.000000
_cell_angle_beta 90.000000
_cell_angle_gamma 90.000000
_cell_volume 4017.674651
_symmetry_space_group_name_H-M "P B C M"
_symmetry_group_IT_number 57
_symmetry_cell_setting 'orthorhombic'
loop_
_space_group_symop_operation_xyz
x,y,z
-x,-y,1/2+z
x,1/2-y,-z
-x,1/2+y,1/2-z
-x,-y,-z
x,y,1/2-z
-x,1/2+y,z
x,1/2-y,1/2+z
loop_
_atom_site_type_symbol
_atom_site_label
_atom_site_fract_x
_atom_site_fract_y
_atom_site_fract_z
Si Si1 0.671771 0.463686 0.066840
Si Si2 0.865506 0.029288 0.066928
Si Si3 0.372614 0.442970 0.066079
Si Si4 0.948511 0.558660 0.434753
Si Si5 0.498963 0.203721 0.435930
Si Si6 0.542743 0.392618 0.935736
Si Si7 0.785907 0.613340 0.435763
Si Si8 0.707041 0.704359 0.064435
O O1 0.661776 0.466314 0.250000
O O2 0.774828 0.462740 0.021454
O O3 0.629613 0.507379 0.993320
O O4 0.621618 0.421486 0.002716
O O5 0.848052 0.031279 0.250000
O O6 0.947864 0.060999 0.027295
O O7 0.904167 0.981877 0.022731
O O8 0.381046 0.442647 0.250000
O O9 0.452115 0.415216 0.992494
O O10 0.281126 0.420399 0.014582
O O11 0.943455 0.549497 0.250000
O O12 0.886480 0.599788 0.466991
O O13 0.532596 0.250000 0.500000
O O14 0.501438 0.205792 0.250000
O O15 0.544225 0.158327 0.483980
O O16 0.395684 0.199732 0.483770
O O17 0.544087 0.394004 0.750000
O O18 0.771670 0.610171 0.250000
O O19 0.760310 0.661844 0.485939
O O20 0.708397 0.705906 0.250000
O O21 0.740964 0.750000 0.000000
#
# Coordination Sequence:
#
# PCOD9434581 Si02
#       8
#     8   8   8   8   8   8   8   8
#     4  12  24  37  51  70  99 137 173 211 255 297
#     4  10  19  32  49  74  99 126 167 208 248 294
#     4  12  23  34  49  73 101 135 172 208 243 292
#     4   9  18  31  51  73  98 130 163 203 249 294
#     4   9  18  32  51  73  98 129 162 202 248 293
#     4  11  22  38  54  72  99 134 171 209 250 297
#     4  10  18  32  51  72 100 135 168 202 245 295
#     4   9  17  30  47  70  98 130 164 199 244 292
#
# _framework density 15.929612000000001
#
# number of rings (size 3 to 8) (size 9 to 14) (size 15 to 20)
#    0.000    1.750    2.500    3.375    0.000    2.000 
#    0.000    0.000    0.000    0.000    0.000    0.875 
#    0.000    2.000    0.000    0.000    0.000    0.000 
#
# Total GULP energy -357128.573592 kJ/mol
# GULP energy per Si atom -5580.133962 kJ/mol
# Density = 1.589336 g / cm^3
# Si number density = 15.929612 Si / 1000 Ang^3
#
#
#
# Elastic Constant Matrix: (Units=GPa)
#
#
# Indices 1 2 3 4 5 6 
#
# 1 49.9809 31.1177 11.2901 0.0000 0.0000 0.0000
# 2 31.1177 121.9575 19.6942 0.0000 0.0000 0.0000
# 3 11.2901 19.6942 36.9492 0.0000 0.0000 0.0000
# 4 0.0000 0.0000 0.0000 24.0268 0.0000 0.0000
# 5 0.0000 0.0000 0.0000 0.0000 19.6867 0.0000
# 6 0.0000 0.0000 0.0000 0.0000 0.0000 21.6505
#
#
#
# Elastic Compliance Matrix: (Units=1/GPa)
#
#
# Indices 1 2 3 4 5 6 
#
# 1 0.024463 -0.005509 -0.004539 0.000000 0.000000 0.000000
# 2 -0.005509 0.010212 -0.003760 0.000000 0.000000 0.000000
# 3 -0.004539 -0.003760 0.030455 0.000000 0.000000 0.000000
# 4 0.000000 0.000000 0.000000 0.041620 0.000000 0.000000
# 5 0.000000 0.000000 0.000000 0.000000 0.050796 0.000000
# 6 0.000000 0.000000 0.000000 0.000000 0.000000 0.046188
#
#
# Mechanical properties :
#
#
# Convention : Reuss Voigt Hill
#
# Bulk Modulus (GPa) = 26.65575 37.01020 31.83297
# Shear Modulus (GPa) = 20.50408 22.85850 21.68129
#
# Velocity S-wave (km/s) = 3.59160 3.79221 3.69327
# Velocity P-wave (km/s) = 5.82832 6.51602 6.18174
#
# Compressibility (1/GPa) = 0.03751536
#
# Stress axis : x y z
#
# Youngs Moduli (GPa) = 40.87880 97.92077 32.83528
#
# Poissons Ratio (x) = 0.53942 0.14902
# Poissons Ratio (y) = 0.22519 0.12346
# Poissons Ratio (z) = 0.18553 0.36818
#
# Static dielectric constant tensor:
#      x y z
#    x 1.530750 0.000000 0.000000 
#    y 0.000000 1.530850 0.000000 
#    z 0.000000 0.000000 1.538290 
# 
# From -- ./inp_files/5970.got.cif
#   From: 2010.05.17/outbox.cif.g08.bks.cpg/sg57_3_cif.got.tgz:5970.got - 2010.06.03 13:58:18.
