data_PCOD9434085
_publ_section_title
;
Structure prediction by ZEFSAII (Michael W. Deem and Ramdas Pophale) SiO2 
 PCOD9434085
Probable space group: P B C M
;
_chemical_formula_sum "Si O2"
_cell_formula_units_Z 48
_cell_length_a 32.315902
_cell_length_b 9.143472
_cell_length_c 8.596355
_cell_angle_alpha 90.000000
_cell_angle_beta 90.000000
_cell_angle_gamma 90.000000
_cell_volume 2540.047065
_symmetry_space_group_name_H-M "P B C M"
_symmetry_group_IT_number 57
_symmetry_cell_setting 'orthorhombic'
loop_
_space_group_symop_operation_xyz
x,y,z
-x,-y,1/2+z
x,1/2-y,-z
-x,1/2+y,1/2-z
-x,-y,-z
x,y,1/2-z
-x,1/2+y,z
x,1/2-y,1/2+z
loop_
_atom_site_type_symbol
_atom_site_label
_atom_site_fract_x
_atom_site_fract_y
_atom_site_fract_z
Si Si1 0.297821 0.415598 0.435910
Si Si2 0.539563 0.913900 0.563688
Si Si3 0.788696 0.583005 0.435977
Si Si4 0.125882 0.417238 0.063915
Si Si5 0.376951 0.586127 0.937146
Si Si6 0.960351 0.915491 0.936337
O O1 0.302517 0.250000 0.500000
O O2 0.295441 0.410054 0.250000
O O3 0.254687 0.479271 0.502991
O O4 0.336768 0.508584 0.491854
O O5 0.539877 0.750000 0.500000
O O6 0.537418 0.910411 0.750000
O O7 0.500000 0.000000 0.500000
O O8 0.581832 0.996531 0.518776
O O9 0.788123 0.750000 0.500000
O O10 0.789691 0.585454 0.250000
O O11 0.831225 0.515593 0.501521
O O12 0.125758 0.085452 0.750000
O O13 0.082976 0.481318 0.999616
O O14 0.125846 0.250000 0.000000
O O15 0.373681 0.586939 0.750000
O O16 0.380326 0.750000 0.000000
O O17 0.959668 0.914177 0.750000
O O18 0.962830 0.750000 0.000000
O O19 0.000000 0.000000 0.000000
#
# Coordination Sequence:
#
# PCOD9434085 Si02
#       6
#     8   8   8   8   8   8
#     4  11  21  35  56  83 113 146 183 229 278 330
#     4  11  24  41  64  91 122 155 193 236 284 335
#     4  10  17  28  47  74 106 139 176 223 273 326
#     4  10  17  28  46  72 103 137 176 222 272 326
#     4  11  24  41  60  85 115 152 192 234 279 331
#     4  11  21  35  53  77 106 141 181 226 276 330
#
# _framework density 18.897286999999999
#
# number of rings (size 3 to 8) (size 9 to 14) (size 15 to 20)
#    0.000    1.333    0.000   11.000    0.000    5.333 
#    0.000    0.000    0.000    1.000    0.000    7.000 
#    0.000    0.000    0.000    0.000    0.000    0.000 
#
# Total GULP energy -268186.495708 kJ/mol
# GULP energy per Si atom -5587.218661 kJ/mol
# Density = 1.885428 g / cm^3
# Si number density = 18.897287 Si / 1000 Ang^3
#
#
#
# Elastic Constant Matrix: (Units=GPa)
#
#
# Indices 1 2 3 4 5 6 
#
# 1 239.0010 75.7416 95.8442 0.0000 0.0000 0.0000
# 2 75.7416 79.9197 39.3824 0.0000 0.0000 0.0000
# 3 95.8442 39.3824 182.3274 0.0000 0.0000 0.0000
# 4 0.0000 0.0000 0.0000 25.5565 0.0000 0.0000
# 5 0.0000 0.0000 0.0000 0.0000 36.8377 0.0000
# 6 0.0000 0.0000 0.0000 0.0000 0.0000 26.0090
#
#
#
# Elastic Compliance Matrix: (Units=1/GPa)
#
#
# Indices 1 2 3 4 5 6 
#
# 1 0.006840 -0.005272 -0.002457 0.000000 0.000000 0.000000
# 2 -0.005272 0.018066 -0.001131 0.000000 0.000000 0.000000
# 3 -0.002457 -0.001131 0.007020 0.000000 0.000000 0.000000
# 4 0.000000 0.000000 0.000000 0.039129 0.000000 0.000000
# 5 0.000000 0.000000 0.000000 0.000000 0.027146 0.000000
# 6 0.000000 0.000000 0.000000 0.000000 0.000000 0.038448
#
#
# Mechanical properties :
#
#
# Convention : Reuss Voigt Hill
#
# Bulk Modulus (GPa) = 70.38702 102.57607 86.48154
# Shear Modulus (GPa) = 31.42580 37.03262 34.22921
#
# Velocity S-wave (km/s) = 4.08239 4.43163 4.26059
# Velocity P-wave (km/s) = 7.71681 8.97689 8.37059
#
# Compressibility (1/GPa) = 0.01420717
#
# Stress axis : x y z
#
# Youngs Moduli (GPa) = 146.19862 55.35246 142.44062
#
# Poissons Ratio (x) = 0.29180 0.34996
# Poissons Ratio (y) = 0.77072 0.16111
# Poissons Ratio (z) = 0.35920 0.06261
#
# Static dielectric constant tensor:
#      x y z
#    x 1.704000 0.000000 0.000000 
#    y 0.000000 1.626420 0.000000 
#    z 0.000000 0.000000 1.628060 
# 
# From -- ./inp_files/9953.got.cif
#   From: 2010.05.17/outbox.cif.g08.bks.cpg/sg57_5_cif.got.tgz:9953.got - 2010.06.03 13:58:18.
