data_PCOD9434781
_publ_section_title
;
Structure prediction by ZEFSAII (Michael W. Deem and Ramdas Pophale) SiO2 
 PCOD9434781
Probable space group: P B C M
;
_chemical_formula_sum "Si O2"
_cell_formula_units_Z 64
_cell_length_a 18.766400
_cell_length_b 10.102231
_cell_length_c 14.855534
_cell_angle_alpha 90.000000
_cell_angle_beta 90.000000
_cell_angle_gamma 90.000000
_cell_volume 2816.349391
_symmetry_space_group_name_H-M "P B C M"
_symmetry_group_IT_number 57
_symmetry_cell_setting 'orthorhombic'
loop_
_space_group_symop_operation_xyz
x,y,z
-x,-y,1/2+z
x,1/2-y,-z
-x,1/2+y,1/2-z
-x,-y,-z
x,y,1/2-z
-x,1/2+y,z
x,1/2-y,1/2+z
loop_
_atom_site_type_symbol
_atom_site_label
_atom_site_fract_x
_atom_site_fract_y
_atom_site_fract_z
Si Si1 0.036382 0.218665 0.860442
Si Si2 0.274433 0.846422 0.861149
Si Si3 0.922620 0.007927 0.860089
Si Si4 0.307245 0.219942 0.105452
Si Si5 0.537994 0.697309 0.898940
Si Si6 0.761392 0.050864 0.858601
Si Si7 0.569063 0.416074 0.853138
Si Si8 0.819462 0.915553 0.146255
O O1 0.037665 0.219559 0.750000
O O2 0.040284 0.371175 0.888490
O O3 0.108090 0.144054 0.892601
O O4 0.967750 0.135385 0.888424
O O5 0.274957 0.848474 0.750000
O O6 0.259497 0.696957 0.889908
O O7 0.352308 0.893550 0.892097
O O8 0.215663 0.951960 0.892983
O O9 0.921977 0.007985 0.750000
O O10 0.840756 0.012552 0.889789
O O11 0.384052 0.266901 0.140477
O O12 0.241876 0.303629 0.145828
O O13 0.293169 0.065156 0.117993
O O14 0.305348 0.250000 0.000000
O O15 0.529468 0.539923 0.897425
O O16 0.475155 0.780924 0.854883
O O17 0.538828 0.750000 0.000000
O O18 0.763885 0.056227 0.750000
O O19 0.578004 0.456985 0.750000
O O20 0.836640 0.948164 0.250000
#
# Coordination Sequence:
#
# PCOD9434781 Si02
#       8
#     8   8   8   8   8   8   8   8
#     4   9  17  27  46  78 112 146 183 231 291 345
#     4   9  20  35  56  86 116 144 185 241 295 339
#     4   9  17  28  46  79 115 146 185 233 290 349
#     4  11  23  39  60  83 112 152 201 239 285 345
#     4  11  25  43  62  86 123 161 200 242 307 366
#     4  10  20  36  58  86 117 150 192 245 296 346
#     4  11  23  41  63  92 120 154 202 251 297 357
#     4  10  18  35  58  81 112 151 190 237 290 343
#
# _framework density 22.724450999999998
#
# number of rings (size 3 to 8) (size 9 to 14) (size 15 to 20)
#    0.000    2.000    2.500    1.125    3.500    1.500 
#    0.000    0.625    0.000    0.750    0.000    0.000 
#    0.000    0.000    0.000    0.000    0.000    0.000 
#
# Total GULP energy -357836.338726 kJ/mol
# GULP energy per Si atom -5591.192793 kJ/mol
# Density = 2.267273 g / cm^3
# Si number density = 22.724451 Si / 1000 Ang^3
#
#
#
# Elastic Constant Matrix: (Units=GPa)
#
#
# Indices 1 2 3 4 5 6 
#
# 1 24.0090 -5.6912 12.2978 0.0000 0.0000 0.0000
# 2 -5.6912 146.3375 13.0676 0.0000 0.0000 0.0000
# 3 12.2978 13.0676 38.1092 0.0000 0.0000 0.0000
# 4 0.0000 0.0000 0.0000 15.9095 0.0000 0.0000
# 5 0.0000 0.0000 0.0000 0.0000 -5.3602 0.0000
# 6 0.0000 0.0000 0.0000 0.0000 0.0000 42.0493
#
#
#
# Elastic Compliance Matrix: (Units=1/GPa)
#
#
# Indices 1 2 3 4 5 6 
#
# 1 0.051684 0.003610 -0.017916 0.000000 0.000000 0.000000
# 2 0.003610 0.007302 -0.003669 0.000000 0.000000 0.000000
# 3 -0.017916 -0.003669 0.033280 0.000000 0.000000 0.000000
# 4 0.000000 0.000000 0.000000 0.062856 0.000000 0.000000
# 5 0.000000 0.000000 0.000000 0.000000 -0.186559 0.000000
# 6 0.000000 0.000000 0.000000 0.000000 0.000000 0.023782
#
#
# Mechanical properties :
#
#
# Convention : Reuss Voigt Hill
#
# Bulk Modulus (GPa) = 17.75710 27.53379 22.64545
# Shear Modulus (GPa) = 106.23775 23.10515 64.67145
#
# Velocity S-wave (km/s) = 6.84485 3.19212 5.34048
# Velocity P-wave (km/s) = 8.38453 5.07236 6.92925
#
# Compressibility (1/GPa) = 0.05631549
#
# Stress axis : x y z
#
# Youngs Moduli (GPa) = 19.34844 136.95803 30.04820
#
# Poissons Ratio (x) = -0.49441 0.53835
# Poissons Ratio (y) = -0.06985 0.11023
# Poissons Ratio (z) = 0.34665 0.50244
#
# Static dielectric constant tensor:
#      x y z
#    x 1.820190 0.000000 0.000000 
#    y 0.000000 1.808370 0.000000 
#    z 0.000000 0.000000 1.998490 
# 
# From -- ./inp_files/23070.got.cif
#   From: 2010.05.17/outbox.cif.g08.bks.cpg/sg57_12_cif.got.tgz:23070.got - 2010.06.03 13:58:18.
