data_PCOD9434130
_publ_section_title
;
Structure prediction by ZEFSAII (Michael W. Deem and Ramdas Pophale) SiO2 
 PCOD9434130
Probable space group: P B C M
;
_chemical_formula_sum "Si O2"
_cell_formula_units_Z 64
_cell_length_a 10.301644
_cell_length_b 20.729974
_cell_length_c 14.746588
_cell_angle_alpha 90.000000
_cell_angle_beta 90.000000
_cell_angle_gamma 90.000000
_cell_volume 3149.175339
_symmetry_space_group_name_H-M "P B C M"
_symmetry_group_IT_number 57
_symmetry_cell_setting 'orthorhombic'
loop_
_space_group_symop_operation_xyz
x,y,z
-x,-y,1/2+z
x,1/2-y,-z
-x,1/2+y,1/2-z
-x,-y,-z
x,y,1/2-z
-x,1/2+y,z
x,1/2-y,1/2+z
loop_
_atom_site_type_symbol
_atom_site_label
_atom_site_fract_x
_atom_site_fract_y
_atom_site_fract_z
Si Si1 0.448297 0.298039 0.861485
Si Si2 0.644715 0.405733 0.853663
Si Si3 0.842302 0.785010 0.640084
Si Si4 0.326683 0.450816 0.361528
Si Si5 0.530700 0.344315 0.357628
Si Si6 0.874479 0.181768 0.394006
Si Si7 0.176988 0.826346 0.105855
Si Si8 0.897190 0.859730 0.143611
O O1 0.454755 0.297281 0.750000
O O2 0.546883 0.352908 0.895137
O O3 0.298996 0.309578 0.887746
O O4 0.491188 0.226650 0.892741
O O5 0.599341 0.414510 0.750000
O O6 0.652966 0.476562 0.895723
O O7 0.786377 0.373059 0.850870
O O8 0.843221 0.783225 0.750000
O O9 0.861197 0.711213 0.605387
O O10 0.970609 0.824055 0.613087
O O11 0.324635 0.454433 0.250000
O O12 0.440660 0.402254 0.390751
O O13 0.192324 0.417108 0.391928
O O14 0.505593 0.341502 0.250000
O O15 0.683441 0.353853 0.370767
O O16 0.835687 0.180004 0.498569
O O17 0.838042 0.253038 0.356571
O O18 0.051486 0.866559 0.135633
O O19 0.865578 0.855200 0.250000
#
# Coordination Sequence:
#
# PCOD9434130 Si02
#       8
#     8   8   8   8   8   8   8   8
#     4   9  16  28  51  79 101 124 165 212 255 303
#     4  10  19  33  53  77 105 136 165 206 266 315
#     4   9  16  29  52  77  99 128 169 214 254 298
#     4   9  18  32  52  77 104 131 168 215 259 307
#     4  10  17  31  54  79 101 130 171 216 258 301
#     4  10  20  33  48  73 108 136 169 212 258 304
#     4  10  20  32  50  74 105 134 175 218 252 293
#     4   9  16  30  51  74  98 129 171 214 252 298
#
# _framework density 20.322780999999999
#
# number of rings (size 3 to 8) (size 9 to 14) (size 15 to 20)
#    0.000    2.500    2.500    0.750    0.000    1.000 
#    0.000    3.750    2.750    4.500    0.000    0.000 
#    0.000    0.000    0.000    0.000    0.000    0.000 
#
# Total GULP energy -357062.874490 kJ/mol
# GULP energy per Si atom -5579.107414 kJ/mol
# Density = 2.027653 g / cm^3
# Si number density = 20.322781 Si / 1000 Ang^3
#
#
#
# Elastic Constant Matrix: (Units=GPa)
#
#
# Indices 1 2 3 4 5 6 
#
# 1 171.0776 101.0578 -11.7296 0.0000 0.0000 0.0000
# 2 101.0578 142.5676 8.2285 0.0000 0.0000 0.0000
# 3 -11.7296 8.2285 26.8919 0.0000 0.0000 0.0000
# 4 0.0000 0.0000 0.0000 6.3605 0.0000 0.0000
# 5 0.0000 0.0000 0.0000 0.0000 -46.7769 0.0000
# 6 0.0000 0.0000 0.0000 0.0000 0.0000 21.7259
#
#
#
# Elastic Compliance Matrix: (Units=1/GPa)
#
#
# Indices 1 2 3 4 5 6 
#
# 1 0.011394 -0.008513 0.007575 0.000000 0.000000 0.000000
# 2 -0.008513 0.013502 -0.007845 0.000000 0.000000 0.000000
# 3 0.007575 -0.007845 0.042890 0.000000 0.000000 0.000000
# 4 0.000000 0.000000 0.000000 0.157221 0.000000 0.000000
# 5 0.000000 0.000000 0.000000 0.000000 -0.021378 0.000000
# 6 0.000000 0.000000 0.000000 0.000000 0.000000 0.046028
#
#
# Mechanical properties :
#
#
# Convention : Reuss Voigt Hill
#
# Bulk Modulus (GPa) = 19.91303 59.51673 39.71488
# Shear Modulus (GPa) = 17.60794 12.46057 15.03425
#
# Velocity S-wave (km/s) = 2.94668 2.47884 2.72283
# Velocity P-wave (km/s) = 4.62568 6.12716 5.42858
#
# Compressibility (1/GPa) = 0.05021837
#
# Stress axis : x y z
#
# Youngs Moduli (GPa) = 87.76798 74.06471 23.31542
#
# Poissons Ratio (x) = 0.63055 -0.17661
# Poissons Ratio (y) = 0.74721 0.18290
# Poissons Ratio (z) = -0.66481 0.58101
#
# Static dielectric constant tensor:
#      x y z
#    x 1.720850 0.000000 0.000000 
#    y 0.000000 1.716840 0.000000 
#    z 0.000000 0.000000 1.946270 
# 
# From -- ./inp_files/21387.got.cif
#   From: 2010.05.17/outbox.cif.g08.bks.cpg/sg57_11_cif.got.tgz:21387.got - 2010.06.03 13:58:18.
