data_PCOD9434439
_publ_section_title
;
Structure prediction by ZEFSAII (Michael W. Deem and Ramdas Pophale) SiO2 
 PCOD9434439
Probable space group: P B C M
;
_chemical_formula_sum "Si O2"
_cell_formula_units_Z 36
_cell_length_a 17.879178
_cell_length_b 10.263448
_cell_length_c 10.647652
_cell_angle_alpha 90.000000
_cell_angle_beta 90.000000
_cell_angle_gamma 90.000000
_cell_volume 1953.865583
_symmetry_space_group_name_H-M "P B C M"
_symmetry_group_IT_number 57
_symmetry_cell_setting 'orthorhombic'
loop_
_space_group_symop_operation_xyz
x,y,z
-x,-y,1/2+z
x,1/2-y,-z
-x,1/2+y,1/2-z
-x,-y,-z
x,y,1/2-z
-x,1/2+y,z
x,1/2-y,1/2+z
loop_
_atom_site_type_symbol
_atom_site_label
_atom_site_fract_x
_atom_site_fract_y
_atom_site_fract_z
Si Si1 0.435697 0.888543 0.250000
Si Si2 0.667261 0.403735 0.004777
Si Si3 0.424650 0.582183 0.250000
Si Si4 0.031505 0.087266 0.388031
Si Si5 0.817764 0.489625 0.397674
Si Si6 0.915556 0.250000 0.000000
O O1 0.387264 0.916247 0.375195
O O2 0.452616 0.733104 0.250000
O O3 0.508226 0.979387 0.250000
O O4 0.624871 0.434035 0.875536
O O5 0.689644 0.250000 0.000000
O O6 0.740470 0.491200 0.027522
O O7 0.025902 0.025866 0.250000
O O8 0.974549 0.206767 0.393349
O O9 0.120267 0.104137 0.410002
O O10 0.000000 0.000000 0.500000
O O11 0.800123 0.473892 0.250000
O O12 0.863132 0.364230 0.448699
#
# Coordination Sequence:
#
# PCOD9434439 Si02
#       6
#     4   8   4   8   8   4
#     4  10  20  38  60  84 111 145 177 223 276 338
#     4  10  19  33  55  84 108 139 178 225 276 324
#     4  10  22  36  60  86 113 139 183 223 274 334
#     4   9  19  33  49  75 103 142 181 220 275 327
#     4  10  18  31  52  75 108 140 175 226 273 316
#     4  10  18  30  52  76 104 138 188 230 266 316
#
# _framework density 18.425013
#
# number of rings (size 3 to 8) (size 9 to 14) (size 15 to 20)
#    0.000    2.222    2.222    1.333    0.000    0.889 
#    8.000    0.000    4.889    0.000    0.000    0.000 
#    0.000    0.000    0.000    0.000    0.000    0.000 
#
# Total GULP energy -200402.283836 kJ/mol
# GULP energy per Si atom -5566.730107 kJ/mol
# Density = 1.838308 g / cm^3
# Si number density = 18.425013 Si / 1000 Ang^3
#
#
#
# Elastic Constant Matrix: (Units=GPa)
#
#
# Indices 1 2 3 4 5 6 
#
# 1 147.2959 42.8169 65.3154 0.0000 0.0000 0.0000
# 2 42.8169 32.8733 23.8179 0.0000 0.0000 0.0000
# 3 65.3154 23.8179 140.0761 0.0000 0.0000 0.0000
# 4 0.0000 0.0000 0.0000 15.5035 0.0000 0.0000
# 5 0.0000 0.0000 0.0000 0.0000 24.3041 0.0000
# 6 0.0000 0.0000 0.0000 0.0000 0.0000 29.8845
#
#
#
# Elastic Compliance Matrix: (Units=1/GPa)
#
#
# Indices 1 2 3 4 5 6 
#
# 1 0.012202 -0.013425 -0.003407 0.000000 0.000000 0.000000
# 2 -0.013425 0.049463 -0.002151 0.000000 0.000000 0.000000
# 3 -0.003407 -0.002151 0.009093 0.000000 0.000000 0.000000
# 4 0.000000 0.000000 0.000000 0.064502 0.000000 0.000000
# 5 0.000000 0.000000 0.000000 0.000000 0.041145 0.000000
# 6 0.000000 0.000000 0.000000 0.000000 0.000000 0.033462
#
#
# Mechanical properties :
#
#
# Convention : Reuss Voigt Hill
#
# Bulk Modulus (GPa) = 30.49338 64.90507 47.69922
# Shear Modulus (GPa) = 19.32260 26.49142 22.90701
#
# Velocity S-wave (km/s) = 3.24190 3.79594 3.52981
# Velocity P-wave (km/s) = 5.53165 7.38345 6.52359
#
# Compressibility (1/GPa) = 0.03279401
#
# Stress axis : x y z
#
# Youngs Moduli (GPa) = 81.95264 20.21696 109.97051
#
# Poissons Ratio (x) = 0.27140 0.37467
# Poissons Ratio (y) = 1.10018 0.23653
# Poissons Ratio (z) = 0.27922 0.04348
#
# Static dielectric constant tensor:
#      x y z
#    x 1.643320 0.000000 0.000000 
#    y 0.000000 1.715070 0.000000 
#    z 0.000000 0.000000 1.626870 
# 
# From -- ./inp_files/13554.got.cif
#   From: 2010.05.17/outbox.cif.g08.bks.cpg/sg57_7_cif.got.tgz:13554.got - 2010.06.03 13:58:18.
