data_PCOD9434668
_publ_section_title
;
Structure prediction by ZEFSAII (Michael W. Deem and Ramdas Pophale) SiO2 
 PCOD9434668
Probable space group: P B C M
;
_chemical_formula_sum "Si O2"
_cell_formula_units_Z 48
_cell_length_a 18.342718
_cell_length_b 14.959346
_cell_length_c 8.489341
_cell_angle_alpha 90.000000
_cell_angle_beta 90.000000
_cell_angle_gamma 90.000000
_cell_volume 2329.433277
_symmetry_space_group_name_H-M "P B C M"
_symmetry_group_IT_number 57
_symmetry_cell_setting 'orthorhombic'
loop_
_space_group_symop_operation_xyz
x,y,z
-x,-y,1/2+z
x,1/2-y,-z
-x,1/2+y,1/2-z
-x,-y,-z
x,y,1/2-z
-x,1/2+y,z
x,1/2-y,1/2+z
loop_
_atom_site_type_symbol
_atom_site_label
_atom_site_fract_x
_atom_site_fract_y
_atom_site_fract_z
Si Si1 0.820084 0.027748 0.061689
Si Si2 0.520277 0.098536 0.437222
Si Si3 0.047296 0.848696 0.560380
Si Si4 0.120123 0.348756 0.560782
Si Si5 0.373801 0.343713 0.435352
Si Si6 0.665369 0.040276 0.564215
O O1 0.814185 0.034287 0.250000
O O2 0.892211 0.080854 0.007354
O O3 0.747003 0.064936 0.983974
O O4 0.830232 0.925087 0.012358
O O5 0.509495 0.105948 0.250000
O O6 0.460624 0.156840 0.527324
O O7 0.605294 0.102775 0.480089
O O8 0.500000 0.000000 0.500000
O O9 0.065752 0.750000 0.500000
O O10 0.047217 0.848055 0.750000
O O11 0.964059 0.868015 0.510539
O O12 0.138139 0.250000 0.500000
O O13 0.124482 0.351200 0.750000
O O14 0.342897 0.250000 0.500000
O O15 0.361410 0.349805 0.250000
O O16 0.345733 0.435978 0.513004
O O17 0.653851 0.045862 0.750000
#
# Coordination Sequence:
#
# PCOD9434668 Si02
#       6
#     8   8   8   8   8   8
#     4  11  22  37  56  83 115 151 189 233 285 342
#     4  10  18  33  55  78 103 136 174 214 257 310
#     4   9  20  37  59  83 111 144 187 236 285 336
#     4  10  20  36  57  84 113 148 188 233 282 337
#     4  11  21  36  57  83 111 142 179 224 272 325
#     4  11  22  37  55  79 109 145 183 224 273 330
#
# _framework density 20.605871
#
# number of rings (size 3 to 8) (size 9 to 14) (size 15 to 20)
#    0.000    1.667    0.000    8.000    0.000    2.667 
#    0.000    4.167    0.000    2.000    0.000    0.000 
#    0.000    0.000    0.000    0.000    0.000    0.000 
#
# Total GULP energy -268160.391427 kJ/mol
# GULP energy per Si atom -5586.674821 kJ/mol
# Density = 2.055897 g / cm^3
# Si number density = 20.605871 Si / 1000 Ang^3
#
#
#
# Elastic Constant Matrix: (Units=GPa)
#
#
# Indices 1 2 3 4 5 6 
#
# 1 61.5489 -2.6977 -6.7698 0.0000 0.0000 0.0000
# 2 -2.6977 20.7449 -17.2994 0.0000 0.0000 0.0000
# 3 -6.7698 -17.2994 65.4412 0.0000 0.0000 0.0000
# 4 0.0000 0.0000 0.0000 23.3243 0.0000 0.0000
# 5 0.0000 0.0000 0.0000 0.0000 30.4685 0.0000
# 6 0.0000 0.0000 0.0000 0.0000 0.0000 11.3138
#
#
#
# Elastic Compliance Matrix: (Units=1/GPa)
#
#
# Indices 1 2 3 4 5 6 
#
# 1 0.016778 0.004655 0.002966 0.000000 0.000000 0.000000
# 2 0.004655 0.063128 0.017169 0.000000 0.000000 0.000000
# 3 0.002966 0.017169 0.020126 0.000000 0.000000 0.000000
# 4 0.000000 0.000000 0.000000 0.042874 0.000000 0.000000
# 5 0.000000 0.000000 0.000000 0.000000 0.032821 0.000000
# 6 0.000000 0.000000 0.000000 0.000000 0.000000 0.088388
#
#
# Mechanical properties :
#
#
# Convention : Reuss Voigt Hill
#
# Bulk Modulus (GPa) = 6.68389 10.46681 8.57535
# Shear Modulus (GPa) = 18.91049 24.65476 21.78263
#
# Velocity S-wave (km/s) = 3.03268 3.46279 3.25485
# Velocity P-wave (km/s) = 3.93873 4.59112 4.27738
#
# Compressibility (1/GPa) = 0.14961351
#
# Stress axis : x y z
#
# Youngs Moduli (GPa) = 59.60345 15.84093 49.68583
#
# Poissons Ratio (x) = -0.07374 -0.14738
# Poissons Ratio (y) = -0.27747 -0.85307
# Poissons Ratio (z) = -0.17680 -0.27198
#
# Static dielectric constant tensor:
#      x y z
#    x 1.794550 0.000000 0.000000 
#    y 0.000000 1.696070 0.000000 
#    z 0.000000 0.000000 1.687500 
# 
# From -- ./inp_files/6530.got.cif
#   From: 2010.05.17/outbox.cif.g08.bks.cpg/sg57_4_cif.got.tgz:6530.got - 2010.06.03 13:58:18.
