data_PCOD9434427
_publ_section_title
;
Structure prediction by ZEFSAII (Michael W. Deem and Ramdas Pophale) SiO2 
 PCOD9434427
Probable space group: P B C M
;
_chemical_formula_sum "Si O2"
_cell_formula_units_Z 64
_cell_length_a 13.436837
_cell_length_b 28.693835
_cell_length_c 8.585109
_cell_angle_alpha 90.000000
_cell_angle_beta 90.000000
_cell_angle_gamma 90.000000
_cell_volume 3310.026410
_symmetry_space_group_name_H-M "P B C M"
_symmetry_group_IT_number 57
_symmetry_cell_setting 'orthorhombic'
loop_
_space_group_symop_operation_xyz
x,y,z
-x,-y,1/2+z
x,1/2-y,-z
-x,1/2+y,1/2-z
-x,-y,-z
x,y,1/2-z
-x,1/2+y,z
x,1/2-y,1/2+z
loop_
_atom_site_type_symbol
_atom_site_label
_atom_site_fract_x
_atom_site_fract_y
_atom_site_fract_z
Si Si1 0.308536 0.393971 0.438174
Si Si2 0.000000 0.303101 0.936243
Si Si3 0.308536 0.893971 0.061826
Si Si4 0.890638 0.552640 0.561634
Si Si5 0.210436 0.802052 0.063637
Si Si6 0.109361 0.552640 0.561634
Si Si7 0.500000 0.947487 0.934820
Si Si8 0.210436 0.302052 0.436363
O O1 0.314824 0.396993 0.250000
O O2 0.206504 0.419338 0.489024
O O3 0.402870 0.419684 0.508380
O O4 0.294527 0.339554 0.479228
O O5 0.000000 0.303642 0.750000
O O6 1.000000 0.250000 0.000000
O O7 0.895528 0.321365 0.001229
O O8 0.104472 0.321365 0.001230
O O9 0.314825 0.896993 0.250000
O O10 0.294527 0.839554 0.020773
O O11 0.206504 0.919338 0.010977
O O12 0.402870 0.919684 0.991619
O O13 0.889998 0.552297 0.750000
O O14 0.882981 0.500000 0.500001
O O15 0.000000 0.570875 0.511552
O O16 0.203039 0.799580 0.250000
O O17 0.226586 0.750000 0.000000
O O18 0.110002 0.552296 0.750000
O O19 0.500000 0.950192 0.750000
O O20 0.500000 0.000000 0.000000
O O21 0.226586 0.250000 0.500000
O O22 0.203039 0.299580 0.250000
#
# Coordination Sequence:
#
# PCOD9434427 Si02
#       8
#     8   8   8   8   8   8   8   8
#     4  10  22  39  62  87 115 154 201 246 296 356
#     4  10  18  30  50  78 115 158 201 244 288 346
#     4  10  22  39  62  87 115 154 201 246 296 356
#     4   9  18  33  54  81 113 147 183 229 287 350
#     4  10  20  35  57  84 119 159 200 248 297 354
#     4   9  18  33  54  81 113 147 183 229 287 350
#     4  12  26  44  67  90 119 152 195 250 298 356
#     4  10  20  35  57  84 119 159 200 248 297 354
#
# _framework density 19.335194000000001
#
# number of rings (size 3 to 8) (size 9 to 14) (size 15 to 20)
#    0.000    2.000    0.000    5.250    1.750    5.000 
#    0.000    0.625    0.000    0.000    0.000    0.000 
#    0.000    0.000    0.000    0.000    0.000    0.000 
#
# Total GULP energy -357304.692697 kJ/mol
# GULP energy per Si atom -5582.885823 kJ/mol
# Density = 1.929119 g / cm^3
# Si number density = 19.335194 Si / 1000 Ang^3
#
#
#
# Elastic Constant Matrix: (Units=GPa)
#
#
# Indices 1 2 3 4 5 6 
#
# 1 164.3969 103.7813 49.4377 0.0000 0.0000 0.0000
# 2 103.7813 140.4829 47.4227 0.0000 0.0000 0.0000
# 3 49.4377 47.4227 65.6869 0.0000 0.0000 0.0000
# 4 0.0000 0.0000 0.0000 22.4389 0.0000 0.0000
# 5 0.0000 0.0000 0.0000 0.0000 26.4857 0.0000
# 6 0.0000 0.0000 0.0000 0.0000 0.0000 35.7251
#
#
#
# Elastic Compliance Matrix: (Units=1/GPa)
#
#
# Indices 1 2 3 4 5 6 
#
# 1 0.011969 -0.007670 -0.003470 0.000000 0.000000 0.000000
# 2 -0.007670 0.014328 -0.004571 0.000000 0.000000 0.000000
# 3 -0.003470 -0.004571 0.021136 0.000000 0.000000 0.000000
# 4 0.000000 0.000000 0.000000 0.044566 0.000000 0.000000
# 5 0.000000 0.000000 0.000000 0.000000 0.037756 0.000000
# 6 0.000000 0.000000 0.000000 0.000000 0.000000 0.027992
#
#
# Mechanical properties :
#
#
# Convention : Reuss Voigt Hill
#
# Bulk Modulus (GPa) = 62.46609 85.76114 74.11361
# Shear Modulus (GPa) = 25.70630 28.25826 26.98228
#
# Velocity S-wave (km/s) = 3.65020 3.82710 3.73969
# Velocity P-wave (km/s) = 7.08113 7.99876 7.55389
#
# Compressibility (1/GPa) = 0.01600869
#
# Stress axis : x y z
#
# Youngs Moduli (GPa) = 83.55224 69.79466 47.31335
#
# Poissons Ratio (x) = 0.53534 0.16419
# Poissons Ratio (y) = 0.64087 0.21627
# Poissons Ratio (z) = 0.28995 0.31904
#
# Static dielectric constant tensor:
#      x y z
#    x 1.680820 0.000000 0.000000 
#    y 0.000000 1.669530 0.000000 
#    z 0.000000 0.000000 1.647370 
# 
# From -- ./inp_files/3879.got.cif
#   From: 2010.05.17/outbox.cif.g08.bks.cpg/sg57_2_cif.got.tgz:3879.got - 2010.06.03 13:58:18.
