data_PCOD9434871
_publ_section_title
;
Structure prediction by ZEFSAII (Michael W. Deem and Ramdas Pophale) SiO2 
 PCOD9434871
Probable space group: P B C M
;
_chemical_formula_sum "Si O2"
_cell_formula_units_Z 64
_cell_length_a 17.193167
_cell_length_b 23.975819
_cell_length_c 8.072885
_cell_angle_alpha 90.000000
_cell_angle_beta 90.000000
_cell_angle_gamma 90.000000
_cell_volume 3327.806754
_symmetry_space_group_name_H-M "P B C M"
_symmetry_group_IT_number 57
_symmetry_cell_setting 'orthorhombic'
loop_
_space_group_symop_operation_xyz
x,y,z
-x,-y,1/2+z
x,1/2-y,-z
-x,1/2+y,1/2-z
-x,-y,-z
x,y,1/2-z
-x,1/2+y,z
x,1/2-y,1/2+z
loop_
_atom_site_type_symbol
_atom_site_label
_atom_site_fract_x
_atom_site_fract_y
_atom_site_fract_z
Si Si1 0.571876 0.810880 0.549456
Si Si2 0.550100 0.397096 0.945380
Si Si3 0.219834 0.071334 0.551004
Si Si4 0.656738 0.490771 0.557441
Si Si5 0.087023 0.986542 0.947684
Si Si6 0.209968 0.591230 0.944822
Si Si7 0.316964 0.813517 0.053914
Si Si8 0.250266 0.190757 0.053209
O O1 0.538219 0.750000 0.500000
O O2 0.570859 0.812739 0.750000
O O3 0.524810 0.864742 0.485778
O O4 0.660625 0.811842 0.488020
O O5 0.537107 0.406883 0.750000
O O6 0.584841 0.455191 0.016984
O O7 0.617456 0.350568 0.965300
O O8 0.223088 0.065964 0.750000
O O9 0.147980 0.033722 0.490783
O O10 0.209066 0.135289 0.507267
O O11 0.302467 0.046161 0.484885
O O12 0.637993 0.501314 0.750000
O O13 0.729539 0.447568 0.545612
O O14 0.090115 0.985642 0.750000
O O15 0.123854 0.928789 0.012406
O O16 0.000000 0.000000 0.000000
O O17 0.224342 0.580648 0.750000
O O18 0.235709 0.654397 0.978663
O O19 0.332782 0.816586 0.250000
O O20 0.316883 0.750000 0.000000
O O21 0.253982 0.189517 0.250000
O O22 0.216209 0.250000 0.000000
#
# Coordination Sequence:
#
# PCOD9434871 Si02
#       8
#     8   8   8   8   8   8   8   8
#     4   9  18  30  44  64  90 123 165 212 258 299
#     4   9  16  28  45  64  91 126 164 207 251 293
#     4   9  18  33  52  75 101 128 159 194 235 287
#     4   8  15  28  46  67  93 127 161 195 240 290
#     4  10  20  34  55  81 105 127 151 183 227 279
#     4   9  17  29  45  67  96 126 158 196 231 268
#     4  10  19  28  41  64  93 127 166 203 238 279
#     4  10  20  34  52  72  95 126 165 208 251 293
#
# _framework density 19.231884999999998
#
# number of rings (size 3 to 8) (size 9 to 14) (size 15 to 20)
#    0.000    2.750    0.000    2.625    0.000    6.000 
#    0.000    0.625    0.000    0.750    0.000    3.500 
#    0.000    0.000    0.000    0.000    0.000    0.000 
#
# Total GULP energy -356552.480084 kJ/mol
# GULP energy per Si atom -5571.132501 kJ/mol
# Density = 1.918811 g / cm^3
# Si number density = 19.231885 Si / 1000 Ang^3
#
#
#
# Elastic Constant Matrix: (Units=GPa)
#
#
# Indices 1 2 3 4 5 6 
#
# 1 41.6626 10.0826 -1.1085 0.0000 0.0000 0.0000
# 2 10.0826 75.9714 -2.2057 0.0000 0.0000 0.0000
# 3 -1.1085 -2.2057 23.7416 0.0000 0.0000 0.0000
# 4 0.0000 0.0000 0.0000 20.4170 0.0000 0.0000
# 5 0.0000 0.0000 0.0000 0.0000 11.8776 0.0000
# 6 0.0000 0.0000 0.0000 0.0000 0.0000 18.2242
#
#
#
# Elastic Compliance Matrix: (Units=1/GPa)
#
#
# Indices 1 2 3 4 5 6 
#
# 1 0.024816 -0.003269 0.000855 0.000000 0.000000 0.000000
# 2 -0.003269 0.013629 0.001114 0.000000 0.000000 0.000000
# 3 0.000855 0.001114 0.042263 0.000000 0.000000 0.000000
# 4 0.000000 0.000000 0.000000 0.048979 0.000000 0.000000
# 5 0.000000 0.000000 0.000000 0.000000 0.084192 0.000000
# 6 0.000000 0.000000 0.000000 0.000000 0.000000 0.054872
#
#
# Mechanical properties :
#
#
# Convention : Reuss Voigt Hill
#
# Bulk Modulus (GPa) = 12.80274 17.21252 15.00763
# Shear Modulus (GPa) = 16.81308 19.07759 17.94533
#
# Velocity S-wave (km/s) = 2.95994 3.15298 3.05799
# Velocity P-wave (km/s) = 4.28406 4.71429 4.50431
#
# Compressibility (1/GPa) = 0.07810829
#
# Stress axis : x y z
#
# Youngs Moduli (GPa) = 40.29637 73.37307 23.66110
#
# Poissons Ratio (x) = 0.23983 -0.02023
# Poissons Ratio (y) = 0.13172 -0.02635
# Poissons Ratio (z) = -0.03445 -0.08171
#
# Static dielectric constant tensor:
#      x y z
#    x 1.691970 0.000000 0.000000 
#    y 0.000000 1.713000 0.000000 
#    z 0.000000 0.000000 1.682270 
# 
# From -- ./inp_files/7354.got.cif
#   From: 2010.05.17/outbox.cif.g08.bks.cpg/sg57_4_cif.got.tgz:7354.got - 2010.06.03 13:58:18.
