data_PCOD9434701
_publ_section_title
;
Structure prediction by ZEFSAII (Michael W. Deem and Ramdas Pophale) SiO2 
 PCOD9434701
Probable space group: P B C M
;
_chemical_formula_sum "Si O2"
_cell_formula_units_Z 64
_cell_length_a 16.288398
_cell_length_b 12.894995
_cell_length_c 17.131617
_cell_angle_alpha 90.000000
_cell_angle_beta 90.000000
_cell_angle_gamma 90.000000
_cell_volume 3598.304461
_symmetry_space_group_name_H-M "P B C M"
_symmetry_group_IT_number 57
_symmetry_cell_setting 'orthorhombic'
loop_
_space_group_symop_operation_xyz
x,y,z
-x,-y,1/2+z
x,1/2-y,-z
-x,1/2+y,1/2-z
-x,-y,-z
x,y,1/2-z
-x,1/2+y,z
x,1/2-y,1/2+z
loop_
_atom_site_type_symbol
_atom_site_label
_atom_site_fract_x
_atom_site_fract_y
_atom_site_fract_z
Si Si1 0.559368 0.113904 0.582970
Si Si2 0.750233 0.628243 0.491070
Si Si3 0.149676 0.617706 0.837810
Si Si4 0.366069 0.817333 0.658794
Si Si5 0.810110 0.186962 0.079217
Si Si6 0.390802 0.007730 0.571115
Si Si7 0.903156 0.006062 0.990671
Si Si8 0.689884 0.512296 0.337432
O O1 0.585673 0.228377 0.610253
O O2 0.463048 0.092532 0.573537
O O3 0.597412 0.072898 0.501320
O O4 0.601222 0.034975 0.644406
O O5 0.739531 0.750000 0.500000
O O6 0.694533 0.565553 0.553628
O O7 0.845282 0.594489 0.498863
O O8 0.717373 0.589170 0.406368
O O9 0.121302 0.600857 0.750000
O O10 0.139663 0.735299 0.865502
O O11 0.245992 0.584502 0.841346
O O12 0.109329 0.546730 0.902713
O O13 0.364798 0.789156 0.750000
O O14 0.274550 0.830826 0.623971
O O15 0.400614 0.932761 0.644968
O O16 0.861773 0.089175 0.049789
O O17 0.789939 0.250000 0.000000
O O18 0.000000 0.000000 0.000000
O O19 0.695296 0.555783 0.250000
#
# Coordination Sequence:
#
# PCOD9434701 Si02
#       8
#     8   8   8   8   8   8   8   8
#     4  10  20  34  58  82 111 153 205 248 285 339
#     4  10  21  38  60  78 112 158 199 235 291 367
#     4   9  17  32  57  89 114 140 184 245 303 346
#     4  12  22  34  56  85 119 155 193 245 305 353
#     4  10  18  33  59  85 112 143 187 241 294 357
#     4  10  22  38  54  80 115 155 201 247 289 346
#     4  10  21  37  61  87 115 153 198 245 291 364
#     4   9  17  32  56  85 109 140 194 250 292 332
#
# _framework density 17.786155000000001
#
# number of rings (size 3 to 8) (size 9 to 14) (size 15 to 20)
#    0.000    2.000    2.500    1.875    0.000    5.500 
#    0.000    1.875    0.000    3.000    0.000    0.000 
#    0.000    0.000    0.000    0.000    0.000    0.000 
#
# Total GULP energy -356654.042824 kJ/mol
# GULP energy per Si atom -5572.719419 kJ/mol
# Density = 1.774567 g / cm^3
# Si number density = 17.786155 Si / 1000 Ang^3
#
#
#
# Elastic Constant Matrix: (Units=GPa)
#
#
# Indices 1 2 3 4 5 6 
#
# 1 92.2369 30.4874 30.3066 0.0000 0.0000 0.0000
# 2 30.4874 103.1812 35.4876 0.0000 0.0000 0.0000
# 3 30.3066 35.4876 82.7532 0.0000 0.0000 0.0000
# 4 0.0000 0.0000 0.0000 15.4946 0.0000 0.0000
# 5 0.0000 0.0000 0.0000 0.0000 3.6047 0.0000
# 6 0.0000 0.0000 0.0000 0.0000 0.0000 11.1054
#
#
#
# Elastic Compliance Matrix: (Units=1/GPa)
#
#
# Indices 1 2 3 4 5 6 
#
# 1 0.012877 -0.002560 -0.003618 0.000000 0.000000 0.000000
# 2 -0.002560 0.011878 -0.004156 0.000000 0.000000 0.000000
# 3 -0.003618 -0.004156 0.015191 0.000000 0.000000 0.000000
# 4 0.000000 0.000000 0.000000 0.064539 0.000000 0.000000
# 5 0.000000 0.000000 0.000000 0.000000 0.277412 0.000000
# 6 0.000000 0.000000 0.000000 0.000000 0.000000 0.090046
#
#
# Mechanical properties :
#
#
# Convention : Reuss Voigt Hill
#
# Bulk Modulus (GPa) = 51.87436 52.30383 52.08909
# Shear Modulus (GPa) = 10.01931 18.16692 14.09312
#
# Velocity S-wave (km/s) = 2.37601 3.19941 2.81795
# Velocity P-wave (km/s) = 6.06268 6.56652 6.31963
#
# Compressibility (1/GPa) = 0.01927735
#
# Stress axis : x y z
#
# Youngs Moduli (GPa) = 77.65981 84.19228 65.82747
#
# Poissons Ratio (x) = 0.21557 0.23815
# Poissons Ratio (y) = 0.19884 0.27357
# Poissons Ratio (z) = 0.28096 0.34989
#
# Static dielectric constant tensor:
#      x y z
#    x 1.625850 0.000000 0.000000 
#    y 0.000000 1.630150 0.000000 
#    z 0.000000 0.000000 1.632460 
# 
# From -- ./inp_files/22667.got.cif
#   From: 2010.05.17/outbox.cif.g08.bks.cpg/sg57_12_cif.got.tgz:22667.got - 2010.06.03 13:58:18.
