data_PCOD9434575
_publ_section_title
;
Structure prediction by ZEFSAII (Michael W. Deem and Ramdas Pophale) SiO2 
 PCOD9434575
Probable space group: P B C M
;
_chemical_formula_sum "Si O2"
_cell_formula_units_Z 64
_cell_length_a 15.259508
_cell_length_b 30.654414
_cell_length_c 8.863205
_cell_angle_alpha 90.000000
_cell_angle_beta 90.000000
_cell_angle_gamma 90.000000
_cell_volume 4145.952709
_symmetry_space_group_name_H-M "P B C M"
_symmetry_group_IT_number 57
_symmetry_cell_setting 'orthorhombic'
loop_
_space_group_symop_operation_xyz
x,y,z
-x,-y,1/2+z
x,1/2-y,-z
-x,1/2+y,1/2-z
-x,-y,-z
x,y,1/2-z
-x,1/2+y,z
x,1/2-y,1/2+z
loop_
_atom_site_type_symbol
_atom_site_label
_atom_site_fract_x
_atom_site_fract_y
_atom_site_fract_z
Si Si1 0.367998 0.058837 0.430981
Si Si2 0.872262 0.031371 0.429671
Si Si3 0.463898 0.892337 0.067338
Si Si4 0.290151 0.204931 0.569206
Si Si5 0.043341 0.062449 0.930489
Si Si6 0.495436 0.295801 0.431392
Si Si7 0.319061 0.538379 0.568356
Si Si8 0.789615 0.886398 0.432326
O O1 0.371892 0.061738 0.250000
O O2 0.449781 0.084492 0.501517
O O3 0.279303 0.081071 0.491246
O O4 0.364162 0.007732 0.474636
O O5 0.865783 0.033677 0.250000
O O6 0.777981 0.040054 0.500873
O O7 0.949930 0.062298 0.489081
O O8 0.905856 0.982561 0.470224
O O9 0.471170 0.893246 0.250000
O O10 0.460030 0.841393 0.021983
O O11 0.380355 0.921269 0.022434
O O12 0.257806 0.250000 0.500000
O O13 0.287548 0.207802 0.750000
O O14 0.392488 0.199476 0.525754
O O15 0.236666 0.162383 0.522909
O O16 0.029529 0.062174 0.750000
O O17 0.111349 0.100427 0.970125
O O18 0.527430 0.250000 0.500000
O O19 0.500164 0.292571 0.250000
O O20 0.312132 0.538644 0.750000
O O21 0.779776 0.890543 0.250000
#
# Coordination Sequence:
#
# PCOD9434575 Si02
#       8
#     8   8   8   8   8   8   8   8
#     4  11  21  30  44  70  98 126 161 201 231 265
#     4  10  19  31  49  70  94 123 155 195 237 273
#     4  10  20  35  50  65  92 132 165 192 233 286
#     4   9  17  29  46  67  92 122 156 192 232 280
#     4   9  18  31  49  69  92 123 157 191 229 277
#     4   9  17  30  48  67  90 120 155 195 236 278
#     4  10  21  34  48  67  95 129 165 199 233 277
#     4  10  18  32  50  68  93 130 163 188 229 286
#
# _framework density 15.436741
#
# number of rings (size 3 to 8) (size 9 to 14) (size 15 to 20)
#    0.000    2.250    2.500    1.125    0.000    3.000 
#    0.000    0.000    0.000    0.000    0.000    0.875 
#    0.000    0.000    0.000    0.000    0.000    0.000 
#
# Total GULP energy -356858.059470 kJ/mol
# GULP energy per Si atom -5575.907179 kJ/mol
# Density = 1.540161 g / cm^3
# Si number density = 15.436741 Si / 1000 Ang^3
#
#
#
# Elastic Constant Matrix: (Units=GPa)
#
#
# Indices 1 2 3 4 5 6 
#
# 1 77.2945 53.9469 21.2196 0.0000 0.0000 0.0000
# 2 53.9469 138.8045 28.6615 0.0000 0.0000 0.0000
# 3 21.2196 28.6615 9.3893 0.0000 0.0000 0.0000
# 4 0.0000 0.0000 0.0000 20.1016 0.0000 0.0000
# 5 0.0000 0.0000 0.0000 0.0000 21.7214 0.0000
# 6 0.0000 0.0000 0.0000 0.0000 0.0000 21.7451
#
#
#
# Elastic Compliance Matrix: (Units=1/GPa)
#
#
# Indices 1 2 3 4 5 6 
#
# 1 0.036963 0.007800 -0.107345 0.000000 0.000000 0.000000
# 2 0.007800 0.021134 -0.082140 0.000000 0.000000 0.000000
# 3 -0.107345 -0.082140 0.599839 0.000000 0.000000 0.000000
# 4 0.000000 0.000000 0.000000 0.049747 0.000000 0.000000
# 5 0.000000 0.000000 0.000000 0.000000 0.046038 0.000000
# 6 0.000000 0.000000 0.000000 0.000000 0.000000 0.045987
#
#
# Mechanical properties :
#
#
# Convention : Reuss Voigt Hill
#
# Bulk Modulus (GPa) = 3.39483 48.12716 25.76100
# Shear Modulus (GPa) = 3.96427 20.82432 12.39429
#
# Velocity S-wave (km/s) = 1.60426 3.67687 2.83664
# Velocity P-wave (km/s) = 2.37392 7.01930 5.23956
#
# Compressibility (1/GPa) = 0.29456558
#
# Stress axis : x y z
#
# Youngs Moduli (GPa) = 27.05386 47.31726 1.66711
#
# Poissons Ratio (x) = -0.36905 0.17896
# Poissons Ratio (y) = -0.21101 0.13694
# Poissons Ratio (z) = 2.90410 3.88663
#
# Static dielectric constant tensor:
#      x y z
#    x 1.490220 0.000000 0.000000 
#    y 0.000000 1.523020 0.000000 
#    z 0.000000 0.000000 1.518370 
# 
# From -- ./inp_files/6085.got.cif
#   From: 2010.05.17/outbox.cif.g08.bks.cpg/sg57_4_cif.got.tgz:6085.got - 2010.06.03 13:58:18.
