data_PCOD9434320
_publ_section_title
;
Structure prediction by ZEFSAII (Michael W. Deem and Ramdas Pophale) SiO2 
 PCOD9434320
Probable space group: P B C M
;
_chemical_formula_sum "Si O2"
_cell_formula_units_Z 64
_cell_length_a 13.986675
_cell_length_b 29.227473
_cell_length_c 9.253172
_cell_angle_alpha 90.000000
_cell_angle_beta 90.000000
_cell_angle_gamma 90.000000
_cell_volume 3782.651983
_symmetry_space_group_name_H-M "P B C M"
_symmetry_group_IT_number 57
_symmetry_cell_setting 'orthorhombic'
loop_
_space_group_symop_operation_xyz
x,y,z
-x,-y,1/2+z
x,1/2-y,-z
-x,1/2+y,1/2-z
-x,-y,-z
x,y,1/2-z
-x,1/2+y,z
x,1/2-y,1/2+z
loop_
_atom_site_type_symbol
_atom_site_label
_atom_site_fract_x
_atom_site_fract_y
_atom_site_fract_z
Si Si1 0.097532 0.482686 0.423961
Si Si2 0.783556 0.291807 0.912339
Si Si3 0.132983 0.119713 0.578419
Si Si4 0.510545 0.797721 0.080246
Si Si5 0.260919 0.202860 0.578793
Si Si6 0.382015 0.632262 0.414116
Si Si7 0.782668 0.070796 0.423119
Si Si8 0.913368 0.145038 0.919790
O O1 0.079346 0.480316 0.250000
O O2 0.129170 0.432403 0.477104
O O3 0.182107 0.519309 0.447951
O O4 0.000000 0.500000 0.500000
O O5 0.807973 0.278598 0.750000
O O6 0.705717 0.331758 0.908626
O O7 0.741588 0.250000 0.000000
O O8 0.874320 0.310785 0.997967
O O9 0.153888 0.115618 0.750000
O O10 0.206098 0.157883 0.521546
O O11 0.025719 0.138455 0.562177
O O12 0.487225 0.793446 0.250000
O O13 0.624907 0.803059 0.063908
O O14 0.485041 0.750000 0.000000
O O15 0.458538 0.842060 0.013219
O O16 0.233466 0.250000 0.500000
O O17 0.239915 0.207609 0.750000
O O18 0.418731 0.626393 0.250000
O O19 0.325636 0.586235 0.462108
O O20 0.791842 0.079812 0.250000
O O21 0.856922 0.102551 0.509587
O O22 0.890937 0.147468 0.750000
#
# Coordination Sequence:
#
# PCOD9434320 Si02
#       8
#     8   8   8   8   8   8   8   8
#     4  10  18  31  52  76 101 131 168 207 246 287
#     4  10  20  32  44  63  93 128 162 197 240 292
#     4   9  18  32  51  74  99 129 165 204 245 293
#     4  10  19  31  51  74  94 123 161 206 252 296
#     4   9  19  36  53  72  99 128 164 205 248 296
#     4   9  18  31  47  68  95 125 157 196 242 293
#     4   9  18  31  47  70 100 130 161 198 242 291
#     4  10  18  29  46  67  93 127 163 199 241 285
#
# _framework density 16.919346999999998
#
# number of rings (size 3 to 8) (size 9 to 14) (size 15 to 20)
#    0.000    2.500    1.250    2.250    0.000    4.500 
#    0.000    3.125    0.000    0.750    0.000    0.000 
#    0.000    0.000    0.000    0.000    0.000    0.625 
#
# Total GULP energy -356456.711291 kJ/mol
# GULP energy per Si atom -5569.636114 kJ/mol
# Density = 1.688084 g / cm^3
# Si number density = 16.919347 Si / 1000 Ang^3
#
#
#
# Elastic Constant Matrix: (Units=GPa)
#
#
# Indices 1 2 3 4 5 6 
#
# 1 44.2313 54.5813 39.5888 0.0000 0.0000 0.0000
# 2 54.5813 104.0340 33.3532 0.0000 0.0000 0.0000
# 3 39.5888 33.3532 59.4134 0.0000 0.0000 0.0000
# 4 0.0000 0.0000 0.0000 21.6335 0.0000 0.0000
# 5 0.0000 0.0000 0.0000 0.0000 17.8215 0.0000
# 6 0.0000 0.0000 0.0000 0.0000 0.0000 27.1289
#
#
#
# Elastic Compliance Matrix: (Units=1/GPa)
#
#
# Indices 1 2 3 4 5 6 
#
# 1 0.179230 -0.067980 -0.081264 0.000000 0.000000 0.000000
# 2 -0.067980 0.037506 0.024242 0.000000 0.000000 0.000000
# 3 -0.081264 0.024242 0.057371 0.000000 0.000000 0.000000
# 4 0.000000 0.000000 0.000000 0.046225 0.000000 0.000000
# 5 0.000000 0.000000 0.000000 0.000000 0.056112 0.000000
# 6 0.000000 0.000000 0.000000 0.000000 0.000000 0.036861
#
#
# Mechanical properties :
#
#
# Convention : Reuss Voigt Hill
#
# Bulk Modulus (GPa) = 41.48804 51.41391 46.45098
# Shear Modulus (GPa) = 7.44778 18.66047 13.05413
#
# Velocity S-wave (km/s) = 2.10035 3.32461 2.78069
# Velocity P-wave (km/s) = 5.51872 6.72242 6.15009
#
# Compressibility (1/GPa) = 0.02410333
#
# Stress axis : x y z
#
# Youngs Moduli (GPa) = 5.57943 26.66257 17.43049
#
# Poissons Ratio (x) = 1.81251 1.41647
# Poissons Ratio (y) = 0.37929 -0.42255
# Poissons Ratio (z) = 0.45341 -0.64635
#
# Static dielectric constant tensor:
#      x y z
#    x 1.567320 0.000000 0.000000 
#    y 0.000000 1.629450 0.000000 
#    z 0.000000 0.000000 1.583520 
# 
# From -- ./inp_files/6035.got.cif
#   From: 2010.05.17/outbox.cif.g08.bks.cpg/sg57_4_cif.got.tgz:6035.got - 2010.06.03 13:58:18.
