data_PCOD9434003
_publ_section_title
;
Structure prediction by ZEFSAII (Michael W. Deem and Ramdas Pophale) SiO2 
 PCOD9434003
Probable space group: P B C M
;
_chemical_formula_sum "Si O2"
_cell_formula_units_Z 48
_cell_length_a 21.747937
_cell_length_b 5.185353
_cell_length_c 24.671598
_cell_angle_alpha 90.000000
_cell_angle_beta 90.000000
_cell_angle_gamma 90.000000
_cell_volume 2782.234126
_symmetry_space_group_name_H-M "P B C M"
_symmetry_group_IT_number 57
_symmetry_cell_setting 'orthorhombic'
loop_
_space_group_symop_operation_xyz
x,y,z
-x,-y,1/2+z
x,1/2-y,-z
-x,1/2+y,1/2-z
-x,-y,-z
x,y,1/2-z
-x,1/2+y,z
x,1/2-y,1/2+z
loop_
_atom_site_type_symbol
_atom_site_label
_atom_site_fract_x
_atom_site_fract_y
_atom_site_fract_z
Si Si1 0.346249 0.124531 0.867801
Si Si2 0.342696 0.031588 0.750000
Si Si3 0.027059 0.028426 0.438511
Si Si4 0.535509 0.735714 0.934839
Si Si5 0.260699 0.623400 0.631910
Si Si6 0.738057 0.035065 0.750000
Si Si7 0.832809 0.506819 0.036155
O O1 0.374099 0.084220 0.807410
O O2 0.400212 0.139394 0.911088
O O3 0.310873 0.395528 0.869258
O O4 0.296590 0.894262 0.875467
O O5 0.285711 0.239145 0.750000
O O6 0.319228 0.737177 0.750000
O O7 0.010233 0.758890 0.411901
O O8 0.099171 0.077646 0.442478
O O9 0.000000 0.000000 0.500000
O O10 0.484916 0.522430 0.917890
O O11 0.539069 0.750000 0.000000
O O12 0.231288 0.601342 0.692337
O O13 0.212502 0.564575 0.584827
O O14 0.810836 0.750000 0.000000
O O15 0.839849 0.250000 0.000000
#
# Coordination Sequence:
#
# PCOD9434003 Si02
#       7
#     8   4   8   8   8   4   8
#     4  10  19  36  53  73 101 127 166 203 261 297
#     4   8  16  30  54  73  92 127 158 206 246 306
#     4  10  16  30  47  64  93 138 169 191 232 293
#     4  10  21  36  53  71  94 133 173 200 231 300
#     4  10  21  33  52  76 100 136 159 210 257 298
#     4   8  16  34  50  67  96 131 178 188 238 316
#     4  12  21  31  47  76 110 126 167 206 245 301
#
# _framework density 17.252321999999999
#
# number of rings (size 3 to 8) (size 9 to 14) (size 15 to 20)
#    0.000    2.000    3.333    2.000    0.000    2.000 
#    0.000    0.833    0.000    0.000    0.000    1.167 
#    0.000    0.000    0.000    0.000    0.000    0.000 
#
# Total GULP energy -267280.709183 kJ/mol
# GULP energy per Si atom -5568.348108 kJ/mol
# Density = 1.721305 g / cm^3
# Si number density = 17.252322 Si / 1000 Ang^3
#
#
#
# Elastic Constant Matrix: (Units=GPa)
#
#
# Indices 1 2 3 4 5 6 
#
# 1 46.3211 1.3340 31.8471 0.0000 0.0000 0.0000
# 2 1.3340 97.9955 14.0397 0.0000 0.0000 0.0000
# 3 31.8471 14.0397 58.4411 0.0000 0.0000 0.0000
# 4 0.0000 0.0000 0.0000 18.4009 0.0000 0.0000
# 5 0.0000 0.0000 0.0000 0.0000 -6.1810 0.0000
# 6 0.0000 0.0000 0.0000 0.0000 0.0000 22.3198
#
#
#
# Elastic Compliance Matrix: (Units=1/GPa)
#
#
# Indices 1 2 3 4 5 6 
#
# 1 0.035033 0.002339 -0.019653 0.000000 0.000000 0.000000
# 2 0.002339 0.010724 -0.003851 0.000000 0.000000 0.000000
# 3 -0.019653 -0.003851 0.028746 0.000000 0.000000 0.000000
# 4 0.000000 0.000000 0.000000 0.054345 0.000000 0.000000
# 5 0.000000 0.000000 0.000000 0.000000 -0.161786 0.000000
# 6 0.000000 0.000000 0.000000 0.000000 0.000000 0.044803
#
#
# Mechanical properties :
#
#
# Convention : Reuss Voigt Hill
#
# Bulk Modulus (GPa) = 31.08151 33.02216 32.05183
# Shear Modulus (GPa) = 77.01836 17.27708 47.14772
#
# Velocity S-wave (km/s) = 6.68874 3.16798 5.23332
# Velocity P-wave (km/s) = 8.81517 5.70646 7.42533
#
# Compressibility (1/GPa) = 0.03217347
#
# Stress axis : x y z
#
# Youngs Moduli (GPa) = 28.54461 93.24515 34.78747
#
# Poissons Ratio (x) = -0.21807 0.68367
# Poissons Ratio (y) = -0.06676 0.13396
# Poissons Ratio (z) = 0.56098 0.35908
#
# Static dielectric constant tensor:
#      x y z
#    x 1.543840 0.000000 0.000000 
#    y 0.000000 1.626570 0.000000 
#    z 0.000000 0.000000 1.597100 
# 
# From -- ./inp_files/25720.got.cif
#   From: 2010.05.17/outbox.cif.g08.bks.cpg/sg57_13_cif.got.tgz:25720.got - 2010.06.03 13:58:18.
