data_PCOD9434893
_publ_section_title
;
Structure prediction by ZEFSAII (Michael W. Deem and Ramdas Pophale) SiO2 
 PCOD9434893
Probable space group: P B C M
;
_chemical_formula_sum "Si O2"
_cell_formula_units_Z 64
_cell_length_a 12.630116
_cell_length_b 31.656419
_cell_length_c 8.657302
_cell_angle_alpha 90.000000
_cell_angle_beta 90.000000
_cell_angle_gamma 90.000000
_cell_volume 3461.399228
_symmetry_space_group_name_H-M "P B C M"
_symmetry_group_IT_number 57
_symmetry_cell_setting 'orthorhombic'
loop_
_space_group_symop_operation_xyz
x,y,z
-x,-y,1/2+z
x,1/2-y,-z
-x,1/2+y,1/2-z
-x,-y,-z
x,y,1/2-z
-x,1/2+y,z
x,1/2-y,1/2+z
loop_
_atom_site_type_symbol
_atom_site_label
_atom_site_fract_x
_atom_site_fract_y
_atom_site_fract_z
Si Si1 0.019288 0.146211 0.435139
Si Si2 0.576760 0.118199 0.575600
Si Si3 0.189472 0.885024 0.065025
Si Si4 0.792857 0.796007 0.564662
Si Si5 0.174066 0.978061 0.569340
Si Si6 0.652902 0.876197 0.565548
Si Si7 0.604343 0.017912 0.575390
Si Si8 0.839077 0.570214 0.936192
O O1 0.015085 0.144269 0.250000
O O2 0.091750 0.186007 0.481350
O O3 0.081592 0.104921 0.495740
O O4 0.902768 0.144839 0.504299
O O5 0.565923 0.135747 0.750000
O O6 0.693274 0.129003 0.508899
O O7 0.469408 0.125987 0.482870
O O8 0.586877 0.067773 0.588541
O O9 0.194135 0.885269 0.250000
O O10 0.159676 0.933061 0.013570
O O11 0.770869 0.750000 0.500000
O O12 0.789933 0.794063 0.750000
O O13 0.710381 0.832550 0.517161
O O14 0.151047 0.972340 0.750000
O O15 0.297712 0.988126 0.538534
O O16 0.125811 0.022827 0.514009
O O17 0.661729 0.880529 0.750000
O O18 0.722367 0.914128 0.491319
O O19 0.625087 0.001484 0.750000
O O20 0.500000 0.000000 0.500000
O O21 0.840855 0.570867 0.750000
#
# Coordination Sequence:
#
# PCOD9434893 Si02
#       8
#     8   8   8   8   8   8   8   8
#     4  10  21  37  56  79 106 134 171 216 261 311
#     4   9  19  33  48  70 100 135 174 211 249 300
#     4  10  21  36  53  74 102 140 185 223 260 308
#     4   9  20  37  58  86 111 131 159 199 251 310
#     4  10  20  32  46  67  97 135 180 226 267 306
#     4  10  20  33  52  80 109 135 168 210 258 310
#     4  10  19  29  42  63  93 130 175 222 262 304
#     4  10  20  33  50  73 102 138 179 221 268 315
#
# _framework density 18.489633000000001
#
# number of rings (size 3 to 8) (size 9 to 14) (size 15 to 20)
#    0.000    2.250    0.000    4.500    0.000   11.500 
#    0.000    0.000    0.000    0.750    0.000    0.000 
#    0.000    0.000    0.000    0.000    0.000    0.000 
#
# Total GULP energy -356834.978251 kJ/mol
# GULP energy per Si atom -5575.546535 kJ/mol
# Density = 1.844755 g / cm^3
# Si number density = 18.489633 Si / 1000 Ang^3
#
#
#
# Elastic Constant Matrix: (Units=GPa)
#
#
# Indices 1 2 3 4 5 6 
#
# 1 87.6008 19.7209 13.2775 0.0000 0.0000 0.0000
# 2 19.7209 66.6585 12.8779 0.0000 0.0000 0.0000
# 3 13.2775 12.8779 40.5191 0.0000 0.0000 0.0000
# 4 0.0000 0.0000 0.0000 24.0266 0.0000 0.0000
# 5 0.0000 0.0000 0.0000 0.0000 28.7289 0.0000
# 6 0.0000 0.0000 0.0000 0.0000 0.0000 16.2394
#
#
#
# Elastic Compliance Matrix: (Units=1/GPa)
#
#
# Indices 1 2 3 4 5 6 
#
# 1 0.012593 -0.003120 -0.003135 0.000000 0.000000 0.000000
# 2 -0.003120 0.016756 -0.004303 0.000000 0.000000 0.000000
# 3 -0.003135 -0.004303 0.027075 0.000000 0.000000 0.000000
# 4 0.000000 0.000000 0.000000 0.041620 0.000000 0.000000
# 5 0.000000 0.000000 0.000000 0.000000 0.034808 0.000000
# 6 0.000000 0.000000 0.000000 0.000000 0.000000 0.061579
#
#
# Mechanical properties :
#
#
# Convention : Reuss Voigt Hill
#
# Bulk Modulus (GPa) = 28.32244 31.83680 30.07962
# Shear Modulus (GPa) = 21.99579 23.72580 22.86079
#
# Velocity S-wave (km/s) = 3.45284 3.58606 3.52008
# Velocity P-wave (km/s) = 5.58994 5.86537 5.72931
#
# Compressibility (1/GPa) = 0.03530770
#
# Stress axis : x y z
#
# Youngs Moduli (GPa) = 79.40950 59.67930 36.93494
#
# Poissons Ratio (x) = 0.18620 0.11579
# Poissons Ratio (y) = 0.24776 0.15894
# Poissons Ratio (z) = 0.24894 0.25681
#
# Static dielectric constant tensor:
#      x y z
#    x 0.780210 0.000000 0.000000 
#    y 0.000000 1.576280 0.000000 
#    z 0.000000 0.000000 1.643040 
# 
# From -- ./inp_files/3765.got.cif
#   From: 2010.05.17/outbox.cif.g08.bks.cpg/sg57_2_cif.got.tgz:3765.got - 2010.06.03 13:58:18.
