data_PCOD9434406
_publ_section_title
;
Structure prediction by ZEFSAII (Michael W. Deem and Ramdas Pophale) SiO2 
 PCOD9434406
Probable space group: P B C M
;
_chemical_formula_sum "Si O2"
_cell_formula_units_Z 64
_cell_length_a 15.898844
_cell_length_b 25.044768
_cell_length_c 8.184041
_cell_angle_alpha 90.000000
_cell_angle_beta 90.000000
_cell_angle_gamma 90.000000
_cell_volume 3258.744847
_symmetry_space_group_name_H-M "P B C M"
_symmetry_group_IT_number 57
_symmetry_cell_setting 'orthorhombic'
loop_
_space_group_symop_operation_xyz
x,y,z
-x,-y,1/2+z
x,1/2-y,-z
-x,1/2+y,1/2-z
-x,-y,-z
x,y,1/2-z
-x,1/2+y,z
x,1/2-y,1/2+z
loop_
_atom_site_type_symbol
_atom_site_label
_atom_site_fract_x
_atom_site_fract_y
_atom_site_fract_z
Si Si1 0.226399 0.614129 0.944192
Si Si2 0.080390 0.470416 0.063978
Si Si3 0.375483 0.811173 0.553683
Si Si4 0.279199 0.119388 0.942946
Si Si5 0.099090 0.154072 0.937684
Si Si6 0.435070 0.311048 0.945348
Si Si7 0.077817 0.808688 0.051449
Si Si8 0.746003 0.502857 0.434155
O O1 0.212888 0.605639 0.750000
O O2 0.141712 0.644304 0.005081
O O3 0.254643 0.556207 0.012882
O O4 0.303483 0.653753 0.973402
O O5 0.102706 0.486512 0.250000
O O6 0.068062 0.407153 0.067870
O O7 0.155331 0.483920 0.942782
O O8 0.000000 0.500000 0.000000
O O9 0.365298 0.750000 0.500000
O O10 0.368979 0.814736 0.750000
O O11 0.470423 0.827603 0.503796
O O12 0.265003 0.118798 0.750000
O O13 0.193242 0.147547 0.012147
O O14 0.361128 0.152664 0.986149
O O15 0.290756 0.057353 0.991353
O O16 0.108865 0.173962 0.750000
O O17 0.018589 0.184465 0.011167
O O18 0.431874 0.313077 0.750000
O O19 0.422968 0.250000 0.000000
O O20 0.075767 0.811241 0.250000
O O21 0.109132 0.750000 0.000000
O O22 0.713374 0.498980 0.250000
#
# Coordination Sequence:
#
# PCOD9434406 Si02
#       8
#     8   8   8   8   8   8   8   8
#     4  10  21  36  56  79 108 147 186 226 278 331
#     4  10  18  30  49  72  98 134 179 226 273 322
#     4  10  21  37  59  84 111 141 180 229 280 332
#     4  10  20  36  58  84 113 147 183 227 278 329
#     4   8  17  33  50  69 100 138 174 211 259 315
#     4  10  21  38  60  86 112 142 179 224 276 332
#     4  10  20  35  51  72 104 141 179 222 270 323
#     4  10  20  35  54  78 108 144 185 229 277 334
#
# _framework density 19.639464
#
# number of rings (size 3 to 8) (size 9 to 14) (size 15 to 20)
#    0.000    2.250    0.000    3.750    0.000    6.500 
#    0.000    6.875    0.000    0.000    0.000    0.000 
#    0.000    0.000    0.000    0.000    0.000    0.000 
#
# Total GULP energy -356609.163155 kJ/mol
# GULP energy per Si atom -5572.018174 kJ/mol
# Density = 1.959476 g / cm^3
# Si number density = 19.639464 Si / 1000 Ang^3
#
#
#
# Elastic Constant Matrix: (Units=GPa)
#
#
# Indices 1 2 3 4 5 6 
#
# 1 77.7568 53.7458 -1.1735 0.0000 0.0000 0.0000
# 2 53.7458 78.9107 2.4477 0.0000 0.0000 0.0000
# 3 -1.1735 2.4477 21.4622 0.0000 0.0000 0.0000
# 4 0.0000 0.0000 0.0000 23.6541 0.0000 0.0000
# 5 0.0000 0.0000 0.0000 0.0000 -16.4096 0.0000
# 6 0.0000 0.0000 0.0000 0.0000 0.0000 22.6236
#
#
#
# Elastic Compliance Matrix: (Units=1/GPa)
#
#
# Indices 1 2 3 4 5 6 
#
# 1 0.024526 -0.016805 0.003258 0.000000 0.000000 0.000000
# 2 -0.016805 0.024233 -0.003683 0.000000 0.000000 0.000000
# 3 0.003258 -0.003683 0.047192 0.000000 0.000000 0.000000
# 4 0.000000 0.000000 0.000000 0.042276 0.000000 0.000000
# 5 0.000000 0.000000 0.000000 0.000000 -0.060940 0.000000
# 6 0.000000 0.000000 0.000000 0.000000 0.000000 0.044202
#
#
# Mechanical properties :
#
#
# Convention : Reuss Voigt Hill
#
# Bulk Modulus (GPa) = 16.26292 32.01884 24.14088
# Shear Modulus (GPa) = 28.33742 14.18095 21.25919
#
# Velocity S-wave (km/s) = 3.80265 2.69004 3.29366
# Velocity P-wave (km/s) = 5.25156 5.09776 5.17523
#
# Compressibility (1/GPa) = 0.06148956
#
# Stress axis : x y z
#
# Youngs Moduli (GPa) = 40.77345 41.26623 21.19020
#
# Poissons Ratio (x) = 0.69350 -0.06903
# Poissons Ratio (y) = 0.68522 0.07803
# Poissons Ratio (z) = -0.13282 0.15196
#
# Static dielectric constant tensor:
#      x y z
#    x 1.696100 0.000000 0.000000 
#    y 0.000000 1.710770 0.000000 
#    z 0.000000 0.000000 1.710060 
# 
# From -- ./inp_files/5664.got.cif
#   From: 2010.05.17/outbox.cif.g08.bks.cpg/sg57_3_cif.got.tgz:5664.got - 2010.06.03 13:58:18.
