data_PCOD9434180
_publ_section_title
;
Structure prediction by ZEFSAII (Michael W. Deem and Ramdas Pophale) SiO2 
 PCOD9434180
Probable space group: P B C M
;
_chemical_formula_sum "Si O2"
_cell_formula_units_Z 48
_cell_length_a 7.902670
_cell_length_b 14.574463
_cell_length_c 19.195165
_cell_angle_alpha 90.000000
_cell_angle_beta 90.000000
_cell_angle_gamma 90.000000
_cell_volume 2210.844811
_symmetry_space_group_name_H-M "P B C M"
_symmetry_group_IT_number 57
_symmetry_cell_setting 'orthorhombic'
loop_
_space_group_symop_operation_xyz
x,y,z
-x,-y,1/2+z
x,1/2-y,-z
-x,1/2+y,1/2-z
-x,-y,-z
x,y,1/2-z
-x,1/2+y,z
x,1/2-y,1/2+z
loop_
_atom_site_type_symbol
_atom_site_label
_atom_site_fract_x
_atom_site_fract_y
_atom_site_fract_z
Si Si1 0.456874 0.812081 0.602363
Si Si2 0.119431 0.941893 0.096610
Si Si3 0.585714 0.637906 0.947822
Si Si4 0.232684 0.541757 0.438593
Si Si5 0.776313 0.614324 0.170788
Si Si6 0.050695 0.234778 0.578103
O O1 0.459568 0.702101 0.596298
O O2 0.536625 0.847298 0.528284
O O3 0.280954 0.865732 0.601964
O O4 0.587857 0.845718 0.659982
O O5 0.068000 0.838705 0.116418
O O6 0.219115 0.008225 0.148047
O O7 0.209419 0.941270 0.021106
O O8 0.940187 0.994805 0.085714
O O9 0.616622 0.532571 0.929348
O O10 0.770020 0.683448 0.936093
O O11 0.831315 0.624908 0.250000
O O12 0.894923 0.674916 0.119549
O O13 0.980019 0.250000 0.500000
#
# Coordination Sequence:
#
# PCOD9434180 Si02
#       6
#     8   8   8   8   8   8
#     4  10  18  33  54  83 109 146 190 238 287 350
#     4  10  21  35  56  87 118 147 191 241 302 360
#     4   9  16  30  54  81 112 135 185 243 288 334
#     4  10  18  33  57  87 115 141 184 251 300 336
#     4  11  22  38  57  80 117 163 196 237 299 361
#     4  10  17  36  59  82 113 147 200 248 289 354
#
# _framework density 21.711157
#
# number of rings (size 3 to 8) (size 9 to 14) (size 15 to 20)
#    0.000    2.000    5.000    2.500    0.000    0.667 
#    9.000    0.833    0.000    4.000    0.000    0.000 
#    0.000    0.000    0.000    0.000    0.000    0.000 
#
# Total GULP energy -268062.037417 kJ/mol
# GULP energy per Si atom -5584.625780 kJ/mol
# Density = 2.166174 g / cm^3
# Si number density = 21.711157 Si / 1000 Ang^3
#
#
#
# Elastic Constant Matrix: (Units=GPa)
#
#
# Indices 1 2 3 4 5 6 
#
# 1 74.1401 30.3002 2.7070 0.0000 0.0000 0.0000
# 2 30.3002 122.2696 14.5401 0.0000 0.0000 0.0000
# 3 2.7070 14.5401 54.5748 0.0000 0.0000 0.0000
# 4 0.0000 0.0000 0.0000 9.2462 0.0000 0.0000
# 5 0.0000 0.0000 0.0000 0.0000 3.2530 0.0000
# 6 0.0000 0.0000 0.0000 0.0000 0.0000 35.9515
#
#
#
# Elastic Compliance Matrix: (Units=1/GPa)
#
#
# Indices 1 2 3 4 5 6 
#
# 1 0.015011 -0.003750 0.000255 0.000000 0.000000 0.000000
# 2 -0.003750 0.009383 -0.002314 0.000000 0.000000 0.000000
# 3 0.000255 -0.002314 0.018927 0.000000 0.000000 0.000000
# 4 0.000000 0.000000 0.000000 0.108153 0.000000 0.000000
# 5 0.000000 0.000000 0.000000 0.000000 0.307407 0.000000
# 6 0.000000 0.000000 0.000000 0.000000 0.000000 0.027815
#
#
# Mechanical properties :
#
#
# Convention : Reuss Voigt Hill
#
# Bulk Modulus (GPa) = 31.54309 38.45323 34.99816
# Shear Modulus (GPa) = 9.82543 23.25262 16.53903
#
# Velocity S-wave (km/s) = 2.12964 3.27616 2.76302
# Velocity P-wave (km/s) = 4.53951 5.66222 5.13166
#
# Compressibility (1/GPa) = 0.03170266
#
# Stress axis : x y z
#
# Youngs Moduli (GPa) = 66.61607 106.57354 52.83367
#
# Poissons Ratio (x) = 0.39968 -0.01345
# Poissons Ratio (y) = 0.24983 0.12225
# Poissons Ratio (z) = -0.01696 0.24660
#
# Static dielectric constant tensor:
#      x y z
#    x 1.890860 0.000000 0.000000 
#    y 0.000000 1.859360 0.000000 
#    z 0.000000 0.000000 1.720930 
# 
# From -- ./inp_files/24241.got.cif
#   From: 2010.05.17/outbox.cif.g08.bks.cpg/sg57_13_cif.got.tgz:24241.got - 2010.06.03 13:58:18.
