data_PCOD9434727
_publ_section_title
;
Structure prediction by ZEFSAII (Michael W. Deem and Ramdas Pophale) SiO2 
 PCOD9434727
Probable space group: P B C M
;
_chemical_formula_sum "Si O2"
_cell_formula_units_Z 48
_cell_length_a 9.325829
_cell_length_b 17.010951
_cell_length_c 18.075096
_cell_angle_alpha 90.000000
_cell_angle_beta 90.000000
_cell_angle_gamma 90.000000
_cell_volume 2867.455284
_symmetry_space_group_name_H-M "P B C M"
_symmetry_group_IT_number 57
_symmetry_cell_setting 'orthorhombic'
loop_
_space_group_symop_operation_xyz
x,y,z
-x,-y,1/2+z
x,1/2-y,-z
-x,1/2+y,1/2-z
-x,-y,-z
x,y,1/2-z
-x,1/2+y,z
x,1/2-y,1/2+z
loop_
_atom_site_type_symbol
_atom_site_label
_atom_site_fract_x
_atom_site_fract_y
_atom_site_fract_z
Si Si1 0.578261 0.709465 0.577483
Si Si2 0.330426 0.701111 0.161272
Si Si3 0.149639 0.646068 0.838394
Si Si4 0.819198 0.881225 0.161299
Si Si5 0.338982 0.969599 0.904290
Si Si6 0.383815 0.945476 0.426812
O O1 0.613134 0.750000 0.500000
O O2 0.477194 0.764786 0.627093
O O3 0.716870 0.682187 0.622351
O O4 0.483944 0.631402 0.561064
O O5 0.339544 0.694557 0.250000
O O6 0.210024 0.766943 0.142958
O O7 0.303338 0.616591 0.125329
O O8 0.162448 0.637836 0.750000
O O9 0.253434 0.583005 0.876669
O O10 0.984645 0.633088 0.858756
O O11 0.804888 0.876611 0.250000
O O12 0.760703 0.965387 0.133675
O O13 0.506695 0.992159 0.890501
O O14 0.328656 0.973235 0.993388
#
# Coordination Sequence:
#
# PCOD9434727 Si02
#       6
#     8   8   8   8   8   8
#     4  10  18  34  54  78 107 139 176 221 263 310
#     4  10  19  33  56  81 103 136 182 225 261 306
#     4   9  20  37  54  75 108 147 180 213 261 323
#     4  10  21  37  54  76 110 147 177 210 265 327
#     4  10  19  33  56  82 106 136 175 226 267 309
#     4   9  19  34  55  78 109 136 174 220 268 315
#
# _framework density 16.739581999999999
#
# number of rings (size 3 to 8) (size 9 to 14) (size 15 to 20)
#    0.000    2.333    1.667    1.000    0.000    5.333 
#    3.000    1.667    0.000    2.000    0.000    0.000 
#    0.000    0.000    0.000    0.000    0.000    0.000 
#
# Total GULP energy -267669.865402 kJ/mol
# GULP energy per Si atom -5576.455529 kJ/mol
# Density = 1.670148 g / cm^3
# Si number density = 16.739582 Si / 1000 Ang^3
#
#
#
# Elastic Constant Matrix: (Units=GPa)
#
#
# Indices 1 2 3 4 5 6 
#
# 1 147.5090 57.3002 63.3156 0.0000 0.0000 0.0000
# 2 57.3002 65.8943 32.1479 0.0000 0.0000 0.0000
# 3 63.3156 32.1479 58.6002 0.0000 0.0000 0.0000
# 4 0.0000 0.0000 0.0000 33.2602 0.0000 0.0000
# 5 0.0000 0.0000 0.0000 0.0000 20.3543 0.0000
# 6 0.0000 0.0000 0.0000 0.0000 0.0000 10.8542
#
#
#
# Elastic Compliance Matrix: (Units=1/GPa)
#
#
# Indices 1 2 3 4 5 6 
#
# 1 0.014589 -0.006822 -0.012020 0.000000 0.000000 0.000000
# 2 -0.006822 0.023912 -0.005747 0.000000 0.000000 0.000000
# 3 -0.012020 -0.005747 0.033205 0.000000 0.000000 0.000000
# 4 0.000000 0.000000 0.000000 0.030066 0.000000 0.000000
# 5 0.000000 0.000000 0.000000 0.000000 0.049130 0.000000
# 6 0.000000 0.000000 0.000000 0.000000 0.000000 0.092130
#
#
# Mechanical properties :
#
#
# Convention : Reuss Voigt Hill
#
# Bulk Modulus (GPa) = 44.39083 64.17011 54.28047
# Shear Modulus (GPa) = 16.68231 20.84305 18.76268
#
# Velocity S-wave (km/s) = 3.16029 3.53248 3.35155
# Velocity P-wave (km/s) = 6.31606 7.41993 6.89014
#
# Compressibility (1/GPa) = 0.02252718
#
# Stress axis : x y z
#
# Youngs Moduli (GPa) = 68.54693 41.82054 30.11582
#
# Poissons Ratio (x) = 0.28528 0.36200
# Poissons Ratio (y) = 0.46760 0.17309
# Poissons Ratio (z) = 0.82394 0.24036
#
# Static dielectric constant tensor:
#      x y z
#    x 1.544170 0.000000 0.000000 
#    y 0.000000 1.569190 0.000000 
#    z 0.000000 0.000000 1.551740 
# 
# From -- ./inp_files/16391.got.cif
#   From: 2010.05.17/outbox.cif.g08.bks.cpg/sg57_9_cif.got.tgz:16391.got - 2010.06.03 13:58:18.
