data_PCOD9434747
_publ_section_title
;
Structure prediction by ZEFSAII (Michael W. Deem and Ramdas Pophale) SiO2 
 PCOD9434747
Probable space group: P B C M
;
_chemical_formula_sum "Si O2"
_cell_formula_units_Z 48
_cell_length_a 16.630861
_cell_length_b 8.427339
_cell_length_c 14.269983
_cell_angle_alpha 90.000000
_cell_angle_beta 90.000000
_cell_angle_gamma 90.000000
_cell_volume 1999.993820
_symmetry_space_group_name_H-M "P B C M"
_symmetry_group_IT_number 57
_symmetry_cell_setting 'orthorhombic'
loop_
_space_group_symop_operation_xyz
x,y,z
-x,-y,1/2+z
x,1/2-y,-z
-x,1/2+y,1/2-z
-x,-y,-z
x,y,1/2-z
-x,1/2+y,z
x,1/2-y,1/2+z
loop_
_atom_site_type_symbol
_atom_site_label
_atom_site_fract_x
_atom_site_fract_y
_atom_site_fract_z
Si Si1 0.182979 0.711516 0.860129
Si Si2 0.335671 0.608113 0.074697
Si Si3 0.612144 0.639557 0.250000
Si Si4 0.118976 0.245832 0.863227
Si Si5 0.728192 0.904318 0.574811
Si Si6 0.437553 0.508516 0.250000
Si Si7 0.963781 0.418358 0.863779
O O1 0.178655 0.671419 0.750000
O O2 0.251055 0.844771 0.876595
O O3 0.216168 0.560965 0.914361
O O4 0.097103 0.777964 0.890166
O O5 0.399846 0.588149 0.156919
O O6 0.355054 0.750000 0.000000
O O7 0.323156 0.444347 0.017592
O O8 0.666114 0.602562 0.340067
O O9 0.532578 0.533395 0.250000
O O10 0.586895 0.823944 0.250000
O O11 0.128015 0.248158 0.750000
O O12 0.206074 0.268547 0.906736
O O13 0.054744 0.381224 0.890745
O O14 0.076213 0.082840 0.891601
O O15 0.964393 0.420261 0.750000
#
# Coordination Sequence:
#
# PCOD9434747 Si02
#       7
#     8   8   4   8   8   4   8
#     4  10  18  37  68  95 139 190 242 290 359 425
#     4  10  25  45  79 106 148 191 244 303 366 443
#     4  12  30  48  82 105 149 194 234 306 380 443
#     4  10  18  34  57  94 147 186 249 302 358 430
#     4  11  23  43  69 109 142 192 248 299 364 438
#     4  12  30  54  76 111 151 184 242 298 386 453
#     4   9  19  30  59  99 140 203 245 297 364 419
#
# _framework density 24.000076
#
# number of rings (size 3 to 8) (size 9 to 14) (size 15 to 20)
#    0.000    1.667    2.500    1.000    7.000    4.000 
#    0.000    0.833    0.000    0.000    0.000    0.000 
#    0.000    0.000    0.000    0.000    0.000    0.000 
#
# Total GULP energy -268853.510410 kJ/mol
# GULP energy per Si atom -5601.114800 kJ/mol
# Density = 2.394545 g / cm^3
# Si number density = 24.000076 Si / 1000 Ang^3
#
#
#
# Elastic Constant Matrix: (Units=GPa)
#
#
# Indices 1 2 3 4 5 6 
#
# 1 161.4283 39.0836 50.2349 0.0000 0.0000 0.0000
# 2 39.0836 87.2266 24.2713 0.0000 0.0000 0.0000
# 3 50.2349 24.2713 133.1812 0.0000 0.0000 0.0000
# 4 0.0000 0.0000 0.0000 26.2708 0.0000 0.0000
# 5 0.0000 0.0000 0.0000 0.0000 61.2501 0.0000
# 6 0.0000 0.0000 0.0000 0.0000 0.0000 34.5904
#
#
#
# Elastic Compliance Matrix: (Units=1/GPa)
#
#
# Indices 1 2 3 4 5 6 
#
# 1 0.007595 -0.002745 -0.002365 0.000000 0.000000 0.000000
# 2 -0.002745 0.013069 -0.001346 0.000000 0.000000 0.000000
# 3 -0.002365 -0.001346 0.008646 0.000000 0.000000 0.000000
# 4 0.000000 0.000000 0.000000 0.038065 0.000000 0.000000
# 5 0.000000 0.000000 0.000000 0.000000 0.016327 0.000000
# 6 0.000000 0.000000 0.000000 0.000000 0.000000 0.028910
#
#
# Mechanical properties :
#
#
# Convention : Reuss Voigt Hill
#
# Bulk Modulus (GPa) = 60.98315 67.66840 64.32577
# Shear Modulus (GPa) = 38.17102 42.30534 40.23818
#
# Velocity S-wave (km/s) = 3.99238 4.20303 4.09905
# Velocity P-wave (km/s) = 6.83497 7.19793 7.01880
#
# Compressibility (1/GPa) = 0.01639797
#
# Stress axis : x y z
#
# Youngs Moduli (GPa) = 131.66257 76.51661 115.66310
#
# Poissons Ratio (x) = 0.21006 0.27349
# Poissons Ratio (y) = 0.36144 0.15571
# Poissons Ratio (z) = 0.31132 0.10301
#
# Static dielectric constant tensor:
#      x y z
#    x 1.827380 0.000000 0.000000 
#    y 0.000000 2.009670 0.000000 
#    z 0.000000 0.000000 2.023580 
# 
# From -- ./inp_files/22524.got.cif
#   From: 2010.05.17/outbox.cif.g08.bks.cpg/sg57_12_cif.got.tgz:22524.got - 2010.06.03 13:58:18.
