data_PCOD9434566
_publ_section_title
;
Structure prediction by ZEFSAII (Michael W. Deem and Ramdas Pophale) SiO2 
 PCOD9434566
Probable space group: P B C M
;
_chemical_formula_sum "Si O2"
_cell_formula_units_Z 64
_cell_length_a 16.309513
_cell_length_b 29.491830
_cell_length_c 8.198588
_cell_angle_alpha 90.000000
_cell_angle_beta 90.000000
_cell_angle_gamma 90.000000
_cell_volume 3943.499387
_symmetry_space_group_name_H-M "P B C M"
_symmetry_group_IT_number 57
_symmetry_cell_setting 'orthorhombic'
loop_
_space_group_symop_operation_xyz
x,y,z
-x,-y,1/2+z
x,1/2-y,-z
-x,1/2+y,1/2-z
-x,-y,-z
x,y,1/2-z
-x,1/2+y,z
x,1/2-y,1/2+z
loop_
_atom_site_type_symbol
_atom_site_label
_atom_site_fract_x
_atom_site_fract_y
_atom_site_fract_z
Si Si1 0.662166 0.106441 0.550321
Si Si2 0.592130 0.200167 0.944586
Si Si3 0.660745 0.893918 0.053353
Si Si4 0.179974 0.052139 0.947516
Si Si5 0.000808 0.052442 0.553407
Si Si6 0.500416 0.051954 0.553112
Si Si7 0.821712 0.052727 0.947552
Si Si8 0.403904 0.300004 0.943209
O O1 0.663221 0.106313 0.750000
O O2 0.646322 0.158001 0.496254
O O3 0.583339 0.076999 0.498598
O O4 0.746106 0.083203 0.494537
O O5 0.592632 0.199501 0.750000
O O6 0.618598 0.250000 0.000000
O O7 0.497650 0.193292 0.997085
O O8 0.660813 0.896506 0.250000
O O9 0.743773 0.917923 0.993725
O O10 0.580535 0.921517 0.994447
O O11 0.649866 0.841661 0.006399
O O12 0.180538 0.052857 0.750000
O O13 0.089953 0.069646 0.003039
O O14 0.189011 0.999614 0.999420
O O15 0.000948 0.055010 0.750000
O O16 0.911860 0.070025 0.497338
O O17 0.000000 0.000000 0.500000
O O18 0.499658 0.053575 0.750000
O O19 0.500000 0.000000 0.500000
O O20 0.821108 0.053063 0.750000
O O21 0.404723 0.300599 0.750000
O O22 0.377364 0.250000 0.000000
#
# Coordination Sequence:
#
# PCOD9434566 Si02
#       8
#     8   8   8   8   8   8   8   8
#     4   9  17  29  44  61  86 117 146 178 218 257
#     4  10  18  32  49  65  87 113 145 183 224 263
#     4  10  19  32  46  62  89 122 151 183 222 261
#     4   9  17  28  43  64  91 120 148 184 224 258
#     4   8  14  25  41  62  86 113 148 184 220 258
#     4  10  19  30  41  57  85 119 150 179 211 251
#     4   9  16  27  44  64  88 119 152 184 216 260
#     4  11  21  33  50  69  88 112 146 186 226 267
#
# _framework density 16.229240000000001
#
# number of rings (size 3 to 8) (size 9 to 14) (size 15 to 20)
#    0.000    2.500    1.250    3.000    0.000    1.000 
#    0.000    1.250    0.000    0.000    0.000    0.875 
#    0.000    2.000    0.000    0.000    0.000    0.500 
#
# Total GULP energy -356623.783002 kJ/mol
# GULP energy per Si atom -5572.246609 kJ/mol
# Density = 1.619230 g / cm^3
# Si number density = 16.229240 Si / 1000 Ang^3
#
#
#
# Elastic Constant Matrix: (Units=GPa)
#
#
# Indices 1 2 3 4 5 6 
#
# 1 166.6415 85.3851 15.7407 0.0000 0.0000 0.0000
# 2 85.3851 118.0093 4.8709 0.0000 0.0000 0.0000
# 3 15.7407 4.8709 11.4370 0.0000 0.0000 0.0000
# 4 0.0000 0.0000 0.0000 17.4411 0.0000 0.0000
# 5 0.0000 0.0000 0.0000 0.0000 6.5486 0.0000
# 6 0.0000 0.0000 0.0000 0.0000 0.0000 10.3238
#
#
#
# Elastic Compliance Matrix: (Units=1/GPa)
#
#
# Indices 1 2 3 4 5 6 
#
# 1 0.010920 -0.007411 -0.011872 0.000000 0.000000 0.000000
# 2 -0.007411 0.013655 0.004384 0.000000 0.000000 0.000000
# 3 -0.011872 0.004384 0.101908 0.000000 0.000000 0.000000
# 4 0.000000 0.000000 0.000000 0.057336 0.000000 0.000000
# 5 0.000000 0.000000 0.000000 0.000000 0.152705 0.000000
# 6 0.000000 0.000000 0.000000 0.000000 0.000000 0.096863
#
#
# Mechanical properties :
#
#
# Convention : Reuss Voigt Hill
#
# Bulk Modulus (GPa) = 10.34296 56.45344 33.39820
# Shear Modulus (GPa) = 10.09260 19.53545 14.81402
#
# Velocity S-wave (km/s) = 2.49645 3.47323 3.02453
# Velocity P-wave (km/s) = 3.83361 7.13757 5.72894
#
# Compressibility (1/GPa) = 0.09668414
#
# Stress axis : x y z
#
# Youngs Moduli (GPa) = 91.57921 73.23344 9.81277
#
# Poissons Ratio (x) = 0.54271 0.11650
# Poissons Ratio (y) = 0.67867 -0.04302
# Poissons Ratio (z) = 1.08725 -0.32105
#
# Static dielectric constant tensor:
#      x y z
#    x 1.580680 0.000000 0.000000 
#    y 0.000000 1.531330 0.000000 
#    z 0.000000 0.000000 1.558580 
# 
# From -- ./inp_files/6077.got.cif
#   From: 2010.05.17/outbox.cif.g08.bks.cpg/sg57_4_cif.got.tgz:6077.got - 2010.06.03 13:58:18.
