data_PCOD9434737
_publ_section_title
;
Structure prediction by ZEFSAII (Michael W. Deem and Ramdas Pophale) SiO2 
 PCOD9434737
Probable space group: P B C M
;
_chemical_formula_sum "Si O2"
_cell_formula_units_Z 52
_cell_length_a 8.736490
_cell_length_b 20.948773
_cell_length_c 15.536025
_cell_angle_alpha 90.000000
_cell_angle_beta 90.000000
_cell_angle_gamma 90.000000
_cell_volume 2843.383811
_symmetry_space_group_name_H-M "P B C M"
_symmetry_group_IT_number 57
_symmetry_cell_setting 'orthorhombic'
loop_
_space_group_symop_operation_xyz
x,y,z
-x,-y,1/2+z
x,1/2-y,-z
-x,1/2+y,1/2-z
-x,-y,-z
x,y,1/2-z
-x,1/2+y,z
x,1/2-y,1/2+z
loop_
_atom_site_type_symbol
_atom_site_label
_atom_site_fract_x
_atom_site_fract_y
_atom_site_fract_z
Si Si1 0.777153 0.434170 0.650547
Si Si2 0.940977 0.934918 0.954886
Si Si3 0.612337 0.366870 0.004448
Si Si4 0.382975 0.250000 0.000000
Si Si5 0.335873 0.064278 0.565465
Si Si6 0.915137 0.314979 0.444721
Si Si7 0.205918 0.192458 0.848072
O O1 0.745312 0.421978 0.750000
O O2 0.961236 0.434235 0.632869
O O3 0.697686 0.385339 0.583819
O O4 0.708339 0.501755 0.618882
O O5 0.999251 0.871312 0.003019
O O6 0.760373 0.935934 0.975213
O O7 0.000000 0.000000 0.000000
O O8 0.490368 0.311170 0.990132
O O9 0.513495 0.424621 0.043924
O O10 0.743944 0.340755 0.067769
O O11 0.278051 0.241332 0.916379
O O12 0.273973 0.124147 0.621601
O O13 0.908074 0.250000 0.500000
O O14 0.023331 0.305814 0.362724
O O15 0.246214 0.205254 0.750000
#
# Coordination Sequence:
#
# PCOD9434737 Si02
#       7
#     8   8   8   4   8   8   8
#     4  10  19  33  54  83 113 141 182 234 283 339
#     4   8  17  33  55  77 103 146 186 226 281 340
#     4  10  20  34  57  76 110 153 180 223 288 346
#     4  10  20  36  56  76 110 146 186 232 276 340
#     4   9  18  35  58  78 106 144 190 230 278 338
#     4  10  18  34  56  78 109 144 188 230 286 342
#     4  10  20  35  57  80 104 143 190 235 281 332
#
# _framework density 18.288070000000001
#
# number of rings (size 3 to 8) (size 9 to 14) (size 15 to 20)
#    0.000    2.462    1.538    0.923    0.000    0.615 
#    0.000    7.692    0.000    0.000    0.000    0.000 
#    0.000    0.000    0.000    0.000    0.000    0.000 
#
# Total GULP energy -289492.987864 kJ/mol
# GULP energy per Si atom -5567.172844 kJ/mol
# Density = 1.824645 g / cm^3
# Si number density = 18.288070 Si / 1000 Ang^3
#
#
#
# Elastic Constant Matrix: (Units=GPa)
#
#
# Indices 1 2 3 4 5 6 
#
# 1 103.7086 7.4703 43.1083 0.0000 0.0000 0.0000
# 2 7.4703 50.6495 3.0810 0.0000 0.0000 0.0000
# 3 43.1083 3.0810 106.0250 0.0000 0.0000 0.0000
# 4 0.0000 0.0000 0.0000 15.8791 0.0000 0.0000
# 5 0.0000 0.0000 0.0000 0.0000 13.7259 0.0000
# 6 0.0000 0.0000 0.0000 0.0000 0.0000 27.5992
#
#
#
# Elastic Compliance Matrix: (Units=1/GPa)
#
#
# Indices 1 2 3 4 5 6 
#
# 1 0.011707 -0.001440 -0.004718 0.000000 0.000000 0.000000
# 2 -0.001440 0.019956 0.000005 0.000000 0.000000 0.000000
# 3 -0.004718 0.000005 0.011350 0.000000 0.000000 0.000000
# 4 0.000000 0.000000 0.000000 0.062976 0.000000 0.000000
# 5 0.000000 0.000000 0.000000 0.000000 0.072855 0.000000
# 6 0.000000 0.000000 0.000000 0.000000 0.000000 0.036233
#
#
# Mechanical properties :
#
#
# Convention : Reuss Voigt Hill
#
# Bulk Modulus (GPa) = 32.56486 40.85579 36.71033
# Shear Modulus (GPa) = 21.04226 25.22243 23.13234
#
# Velocity S-wave (km/s) = 3.39573 3.71775 3.56038
# Velocity P-wave (km/s) = 5.76367 6.38886 6.08430
#
# Compressibility (1/GPa) = 0.03070794
#
# Stress axis : x y z
#
# Youngs Moduli (GPa) = 85.41683 50.11140 88.10632
#
# Poissons Ratio (x) = 0.07215 0.41570
# Poissons Ratio (y) = 0.12297 -0.00048
# Poissons Ratio (z) = 0.40301 -0.00027
#
# Static dielectric constant tensor:
#      x y z
#    x 1.688620 0.000000 0.000000 
#    y 0.000000 1.660790 0.000000 
#    z 0.000000 0.000000 1.601740 
# 
# From -- ./inp_files/16867.got.cif
#   From: 2010.05.17/outbox.cif.g08.bks.cpg/sg57_9_cif.got.tgz:16867.got - 2010.06.03 13:58:18.
