data_PCOD9434573
_publ_section_title
;
Structure prediction by ZEFSAII (Michael W. Deem and Ramdas Pophale) SiO2 
 PCOD9434573
Probable space group: P B C M
;
_chemical_formula_sum "Si O2"
_cell_formula_units_Z 48
_cell_length_a 11.705104
_cell_length_b 5.185512
_cell_length_c 29.890706
_cell_angle_alpha 90.000000
_cell_angle_beta 90.000000
_cell_angle_gamma 90.000000
_cell_volume 1814.274904
_symmetry_space_group_name_H-M "P B C M"
_symmetry_group_IT_number 57
_symmetry_cell_setting 'orthorhombic'
loop_
_space_group_symop_operation_xyz
x,y,z
-x,-y,1/2+z
x,1/2-y,-z
-x,1/2+y,1/2-z
-x,-y,-z
x,y,1/2-z
-x,1/2+y,z
x,1/2-y,1/2+z
loop_
_atom_site_type_symbol
_atom_site_label
_atom_site_fract_x
_atom_site_fract_y
_atom_site_fract_z
Si Si1 0.817584 0.690372 0.954393
Si Si2 0.423423 0.811994 0.750000
Si Si3 0.568351 0.202824 0.850178
Si Si4 0.144177 0.638967 0.165330
Si Si5 0.664613 0.194449 0.548999
Si Si6 0.930861 0.416163 0.250000
Si Si7 0.883867 0.864839 0.635503
O O1 0.765224 0.407864 0.953406
O O2 0.896938 0.740931 0.912565
O O3 0.714973 0.903083 0.951845
O O4 0.880772 0.750000 0.000000
O O5 0.524516 0.598568 0.750000
O O6 0.370384 0.771925 0.698781
O O7 0.463077 0.403200 0.846759
O O8 0.604413 0.243307 0.902798
O O9 0.139232 0.808020 0.209191
O O10 0.189530 0.351583 0.161838
O O11 0.008574 0.580260 0.155842
O O12 0.179704 0.862111 0.131372
O O13 0.603607 0.250000 0.500000
O O14 0.958204 0.720177 0.250000
#
# Coordination Sequence:
#
# PCOD9434573 Si02
#       7
#     8   4   8   8   8   4   8
#     4  10  21  37  54  70  98 141 174 202 251 319
#     4   8  16  30  50  77 105 134 168 196 242 306
#     4  10  19  33  56  82 107 136 169 214 257 296
#     4  10  19  30  50  76  98 125 163 218 259 295
#     4  10  21  36  54  78 105 137 175 210 255 313
#     4  12  16  30  48  73 103 132 160 202 268 322
#     4  10  18  32  49  72  97 126 167 209 253 296
#
# _framework density 26.456849999999999
#
# number of rings (size 3 to 8) (size 9 to 14) (size 15 to 20)
#    0.000    2.000    3.333    2.000    0.000    0.667 
#    0.000    3.333    0.000    8.000    0.000    0.000 
#    0.000    0.000    0.000    0.000    0.000    0.000 
#
# Total GULP energy -267265.748506 kJ/mol
# GULP energy per Si atom -5568.036427 kJ/mol
# Density = 2.639663 g / cm^3
# Si number density = 26.456850 Si / 1000 Ang^3
#
#
#
# Elastic Constant Matrix: (Units=GPa)
#
#
# Indices 1 2 3 4 5 6 
#
# 1 25.8756 -5.5292 13.5872 0.0000 0.0000 0.0000
# 2 -5.5292 162.9767 -18.6605 0.0000 0.0000 0.0000
# 3 13.5872 -18.6605 175.9350 0.0000 0.0000 0.0000
# 4 0.0000 0.0000 0.0000 42.8742 0.0000 0.0000
# 5 0.0000 0.0000 0.0000 0.0000 51.3431 0.0000
# 6 0.0000 0.0000 0.0000 0.0000 0.0000 18.1824
#
#
#
# Elastic Compliance Matrix: (Units=1/GPa)
#
#
# Indices 1 2 3 4 5 6 
#
# 1 0.040449 0.001027 -0.003015 0.000000 0.000000 0.000000
# 2 0.001027 0.006237 0.000582 0.000000 0.000000 0.000000
# 3 -0.003015 0.000582 0.005979 0.000000 0.000000 0.000000
# 4 0.000000 0.000000 0.000000 0.023324 0.000000 0.000000
# 5 0.000000 0.000000 0.000000 0.000000 0.019477 0.000000
# 6 0.000000 0.000000 0.000000 0.000000 0.000000 0.054998
#
#
# Mechanical properties :
#
#
# Convention : Reuss Voigt Hill
#
# Bulk Modulus (GPa) = 20.05862 38.17581 29.11722
# Shear Modulus (GPa) = 29.43029 47.50593 38.46811
#
# Velocity S-wave (km/s) = 3.33887 4.24205 3.81726
# Velocity P-wave (km/s) = 4.73942 6.20114 5.51889
#
# Compressibility (1/GPa) = 0.04985387
#
# Stress axis : x y z
#
# Youngs Moduli (GPa) = 24.72243 160.32431 167.26589
#
# Poissons Ratio (x) = -0.16467 0.50429
# Poissons Ratio (y) = -0.02539 -0.09739
# Poissons Ratio (z) = 0.07454 -0.09335
#
# Static dielectric constant tensor:
#      x y z
#    x 2.163820 0.000000 0.000000 
#    y 0.000000 2.135430 0.000000 
#    z 0.000000 0.000000 2.369100 
# 
# From -- ./inp_files/28755.got.cif
#   From: 2010.05.17/outbox.cif.g08.bks.cpg/sg57_15_cif.got.tgz:28755.got - 2010.06.03 13:58:18.
