data_PCOD9434236
_publ_section_title
;
Structure prediction by ZEFSAII (Michael W. Deem and Ramdas Pophale) SiO2 
 PCOD9434236
Probable space group: P B C M
;
_chemical_formula_sum "Si O2"
_cell_formula_units_Z 56
_cell_length_a 13.378509
_cell_length_b 8.093320
_cell_length_c 23.652985
_cell_angle_alpha 90.000000
_cell_angle_beta 90.000000
_cell_angle_gamma 90.000000
_cell_volume 2561.063718
_symmetry_space_group_name_H-M "P B C M"
_symmetry_group_IT_number 57
_symmetry_cell_setting 'orthorhombic'
loop_
_space_group_symop_operation_xyz
x,y,z
-x,-y,1/2+z
x,1/2-y,-z
-x,1/2+y,1/2-z
-x,-y,-z
x,y,1/2-z
-x,1/2+y,z
x,1/2-y,1/2+z
loop_
_atom_site_type_symbol
_atom_site_label
_atom_site_fract_x
_atom_site_fract_y
_atom_site_fract_z
Si Si1 0.159335 0.775072 0.250000
Si Si2 0.044677 0.126404 0.250000
Si Si3 0.153732 0.733778 0.432244
Si Si4 0.289357 0.879915 0.146658
Si Si5 0.660415 0.908906 0.316884
Si Si6 0.161786 0.279436 0.860761
Si Si7 0.470841 0.077072 0.183029
Si Si8 0.979107 0.535622 0.434161
O O1 0.233640 0.783370 0.197065
O O2 0.075417 0.634054 0.250000
O O3 0.092075 0.942906 0.250000
O O4 0.087280 0.212179 0.193060
O O5 0.156238 0.750000 0.500000
O O6 0.260924 0.774401 0.407990
O O7 0.089742 0.576739 0.412461
O O8 0.080516 0.880524 0.410835
O O9 0.401936 0.937098 0.154944
O O10 0.232129 0.057583 0.144611
O O11 0.687362 0.919250 0.250000
O O12 0.759148 0.868491 0.352553
O O13 0.586174 0.750217 0.323297
O O14 0.586916 0.058874 0.333647
O O15 0.095935 0.313764 0.917262
O O16 0.469555 0.040497 0.250000
O O17 0.000000 0.500000 0.500000
#
# Coordination Sequence:
#
# PCOD9434236 Si02
#       8
#     4   4   8   8   8   8   8   8
#     4  10  18  28  41  60  88 118 145 174 213 264
#     4  10  18  28  41  60  88 120 147 174 215 266
#     4   9  17  29  45  65  86 113 150 184 217 256
#     4   9  16  28  45  63  86 118 148 174 217 268
#     4   9  16  28  45  64  87 117 150 183 218 264
#     4   9  16  28  45  63  87 121 150 176 218 271
#     4   9  16  28  45  64  86 114 146 181 218 257
#     4   9  17  29  45  65  87 114 149 187 218 258
#
# _framework density 21.865915999999999
#
# number of rings (size 3 to 8) (size 9 to 14) (size 15 to 20)
#    0.000    2.857    1.429    0.857    0.000    0.000 
#    0.000    2.857    0.000    0.000    0.000   19.000 
#    0.000    0.000    0.000    0.000    0.000    0.000 
#
# Total GULP energy -312212.751948 kJ/mol
# GULP energy per Si atom -5575.227713 kJ/mol
# Density = 2.181615 g / cm^3
# Si number density = 21.865916 Si / 1000 Ang^3
#
#
#
# Elastic Constant Matrix: (Units=GPa)
#
#
# Indices 1 2 3 4 5 6 
#
# 1 123.5106 22.8948 34.1493 0.0000 0.0000 0.0000
# 2 22.8948 51.2372 6.2240 0.0000 0.0000 0.0000
# 3 34.1493 6.2240 37.2462 0.0000 0.0000 0.0000
# 4 0.0000 0.0000 0.0000 12.8434 0.0000 0.0000
# 5 0.0000 0.0000 0.0000 0.0000 32.4367 0.0000
# 6 0.0000 0.0000 0.0000 0.0000 0.0000 48.3340
#
#
#
# Elastic Compliance Matrix: (Units=1/GPa)
#
#
# Indices 1 2 3 4 5 6 
#
# 1 0.011585 -0.003967 -0.009959 0.000000 0.000000 0.000000
# 2 -0.003967 0.021280 0.000081 0.000000 0.000000 0.000000
# 3 -0.009959 0.000081 0.035966 0.000000 0.000000 0.000000
# 4 0.000000 0.000000 0.000000 0.077861 0.000000 0.000000
# 5 0.000000 0.000000 0.000000 0.000000 0.030829 0.000000
# 6 0.000000 0.000000 0.000000 0.000000 0.000000 0.020689
#
#
# Mechanical properties :
#
#
# Convention : Reuss Voigt Hill
#
# Bulk Modulus (GPa) = 24.30655 37.61446 30.96051
# Shear Modulus (GPa) = 20.86685 28.63788 24.75237
#
# Velocity S-wave (km/s) = 3.09254 3.62291 3.36818
# Velocity P-wave (km/s) = 4.88795 5.89409 5.41444
#
# Compressibility (1/GPa) = 0.04114118
#
# Stress axis : x y z
#
# Youngs Moduli (GPa) = 86.31517 46.99282 27.80409
#
# Poissons Ratio (x) = 0.18642 0.27691
# Poissons Ratio (y) = 0.34242 -0.00226
# Poissons Ratio (z) = 0.85963 -0.00382
#
# Static dielectric constant tensor:
#      x y z
#    x 1.828010 0.000000 0.000000 
#    y 0.000000 1.942350 0.000000 
#    z 0.000000 0.000000 1.798690 
# 
# From -- ./inp_files/27236.got.cif
#   From: 2010.05.17/outbox.cif.g08.bks.cpg/sg57_14_cif.got.tgz:27236.got - 2010.06.03 13:58:18.
