data_PCOD9434702
_publ_section_title
;
Structure prediction by ZEFSAII (Michael W. Deem and Ramdas Pophale) SiO2 
 PCOD9434702
Probable space group: P B C M
;
_chemical_formula_sum "Si O2"
_cell_formula_units_Z 64
_cell_length_a 15.975360
_cell_length_b 24.432251
_cell_length_c 8.472848
_cell_angle_alpha 90.000000
_cell_angle_beta 90.000000
_cell_angle_gamma 90.000000
_cell_volume 3307.071239
_symmetry_space_group_name_H-M "P B C M"
_symmetry_group_IT_number 57
_symmetry_cell_setting 'orthorhombic'
loop_
_space_group_symop_operation_xyz
x,y,z
-x,-y,1/2+z
x,1/2-y,-z
-x,1/2+y,1/2-z
-x,-y,-z
x,y,1/2-z
-x,1/2+y,z
x,1/2-y,1/2+z
loop_
_atom_site_type_symbol
_atom_site_label
_atom_site_fract_x
_atom_site_fract_y
_atom_site_fract_z
Si Si1 0.591947 0.881486 0.440855
Si Si2 0.847959 0.998745 0.439887
Si Si3 0.094282 0.382480 0.560158
Si Si4 0.252262 0.311711 0.939189
Si Si5 0.404926 0.881848 0.437967
Si Si6 0.908564 0.118341 0.442763
Si Si7 0.349411 0.997976 0.559987
Si Si8 0.250173 0.811519 0.938520
O O1 0.595449 0.879768 0.250000
O O2 0.664507 0.843032 0.505994
O O3 0.498323 0.865617 0.491403
O O4 0.610353 0.944340 0.487977
O O5 0.854811 0.994929 0.250000
O O6 0.888862 0.945125 0.513290
O O7 0.889076 0.055883 0.491012
O O8 0.749303 0.000383 0.478854
O O9 0.094435 0.379234 0.750000
O O10 0.170711 0.345126 0.501413
O O11 0.001664 0.365534 0.504859
O O12 0.250379 0.311411 0.750000
O O13 0.251191 0.250000 0.000000
O O14 0.400912 0.875596 0.250000
O O15 0.390271 0.945246 0.481223
O O16 0.331280 0.846162 0.512335
O O17 0.907267 0.118792 0.250000
O O18 0.833622 0.157488 0.497057
O O19 0.356683 0.992371 0.750000
O O20 0.246560 0.810527 0.750000
O O21 0.254603 0.750000 0.000000
#
# Coordination Sequence:
#
# PCOD9434702 Si02
#       8
#     8   8   8   8   8   8   8   8
#     4  10  22  40  61  86 119 154 191 236 288 346
#     4  10  18  33  59  87 117 156 189 226 287 347
#     4  10  21  37  58  87 118 150 190 238 285 337
#     4  11  24  40  60  84 112 151 195 243 291 338
#     4  11  23  38  60  90 119 152 193 238 286 342
#     4   9  19  37  59  84 118 154 188 230 286 344
#     4  10  19  35  60  88 120 157 189 230 290 346
#     4  11  23  42  63  84 114 154 196 243 292 344
#
# _framework density 19.352471000000001
#
# number of rings (size 3 to 8) (size 9 to 14) (size 15 to 20)
#    0.000    1.750    2.500    1.875    0.000    3.500 
#    0.000    1.250    0.000    0.000    0.000    0.000 
#    0.000    0.000    0.000    0.000    0.000    0.000 
#
# Total GULP energy -357588.274013 kJ/mol
# GULP energy per Si atom -5587.316781 kJ/mol
# Density = 1.930842 g / cm^3
# Si number density = 19.352471 Si / 1000 Ang^3
#
#
#
# Elastic Constant Matrix: (Units=GPa)
#
#
# Indices 1 2 3 4 5 6 
#
# 1 184.5981 79.7761 31.4771 0.0000 0.0000 0.0000
# 2 79.7761 141.4596 21.0736 0.0000 0.0000 0.0000
# 3 31.4771 21.0736 17.5779 0.0000 0.0000 0.0000
# 4 0.0000 0.0000 0.0000 34.3039 0.0000 0.0000
# 5 0.0000 0.0000 0.0000 0.0000 5.2389 0.0000
# 6 0.0000 0.0000 0.0000 0.0000 0.0000 0.2159
#
#
#
# Elastic Compliance Matrix: (Units=1/GPa)
#
#
# Indices 1 2 3 4 5 6 
#
# 1 0.008848 -0.003201 -0.012006 0.000000 0.000000 0.000000
# 2 -0.003201 0.009764 -0.005974 0.000000 0.000000 0.000000
# 3 -0.012006 -0.005974 0.085552 0.000000 0.000000 0.000000
# 4 0.000000 0.000000 0.000000 0.029151 0.000000 0.000000
# 5 0.000000 0.000000 0.000000 0.000000 0.190880 0.000000
# 6 0.000000 0.000000 0.000000 0.000000 0.000000 4.632119
#
#
# Mechanical properties :
#
#
# Convention : Reuss Voigt Hill
#
# Bulk Modulus (GPa) = 16.18092 67.58771 41.88431
# Shear Modulus (GPa) = 0.99616 22.03899 11.51758
#
# Velocity S-wave (km/s) = 0.71824 3.37830 2.44221
# Velocity P-wave (km/s) = 3.01117 7.08644 5.44448
#
# Compressibility (1/GPa) = 0.06180117
#
# Stress axis : x y z
#
# Youngs Moduli (GPa) = 113.02169 102.41302 11.68884
#
# Poissons Ratio (x) = 0.32784 0.14034
# Poissons Ratio (y) = 0.36180 0.06983
# Poissons Ratio (z) = 1.35698 0.61181
#
# Static dielectric constant tensor:
#      x y z
#    x 1.686200 0.000000 0.000000 
#    y 0.000000 1.633120 0.000000 
#    z 0.000000 0.000000 1.665370 
# 
# From -- ./inp_files/5572.got.cif
#   From: 2010.05.17/outbox.cif.g08.bks.cpg/sg57_3_cif.got.tgz:5572.got - 2010.06.03 13:58:18.
