data_PCOD9434633
_publ_section_title
;
Structure prediction by ZEFSAII (Michael W. Deem and Ramdas Pophale) SiO2 
 PCOD9434633
Probable space group: P B C M
;
_chemical_formula_sum "Si O2"
_cell_formula_units_Z 56
_cell_length_a 22.338171
_cell_length_b 14.942807
_cell_length_c 8.560053
_cell_angle_alpha 90.000000
_cell_angle_beta 90.000000
_cell_angle_gamma 90.000000
_cell_volume 2857.302703
_symmetry_space_group_name_H-M "P B C M"
_symmetry_group_IT_number 57
_symmetry_cell_setting 'orthorhombic'
loop_
_space_group_symop_operation_xyz
x,y,z
-x,-y,1/2+z
x,1/2-y,-z
-x,1/2+y,1/2-z
-x,-y,-z
x,y,1/2-z
-x,1/2+y,z
x,1/2-y,1/2+z
loop_
_atom_site_type_symbol
_atom_site_label
_atom_site_fract_x
_atom_site_fract_y
_atom_site_fract_z
Si Si1 0.786850 0.985025 0.061092
Si Si2 0.586773 0.349679 0.437106
Si Si3 0.107438 0.351496 0.062472
Si Si4 0.017786 0.647875 0.436503
Si Si5 0.548562 0.650072 0.938657
Si Si6 0.652160 0.982772 0.061684
Si Si7 0.855687 0.149242 0.935881
O O1 0.788553 0.991082 0.250000
O O2 0.836523 0.912189 0.013718
O O3 0.719603 0.959639 0.012751
O O4 0.805322 0.080772 0.992141
O O5 0.596676 0.250000 0.500000
O O6 0.589340 0.349246 0.250000
O O7 0.518915 0.377259 0.486158
O O8 0.633671 0.419391 0.504601
O O9 0.104414 0.348332 0.250000
O O10 0.113941 0.250000 0.000000
O O11 0.044421 0.390701 0.000122
O O12 0.017283 0.750000 0.500000
O O13 0.017694 0.647265 0.250000
O O14 0.080876 0.612221 0.498582
O O15 0.549660 0.651381 0.750000
O O16 0.600856 0.584976 0.995655
O O17 0.558335 0.750000 0.000000
O O18 0.650795 0.981388 0.250000
O O19 0.858863 0.153553 0.750000
O O20 0.846972 0.250000 0.000000
#
# Coordination Sequence:
#
# PCOD9434633 Si02
#       7
#     8   8   8   8   8   8   8
#     4  10  23  40  56  78 110 149 189 225 268 324
#     4  10  20  35  57  85 113 143 181 225 274 326
#     4  10  20  36  57  81 111 144 181 227 275 324
#     4  10  18  32  56  83 110 140 178 224 276 329
#     4   9  19  35  57  85 114 144 180 224 274 324
#     4  10  21  38  57  79 111 148 185 227 272 319
#     4  11  22  38  60  83 110 142 180 228 278 329
#
# _framework density 19.598903
#
# number of rings (size 3 to 8) (size 9 to 14) (size 15 to 20)
#    0.000    2.000    0.000    5.571    0.000    4.571 
#    0.000    0.000    0.000    0.000    0.000    0.000 
#    0.000    0.000    0.000    0.000    0.000    0.000 
#
# Total GULP energy -312789.265865 kJ/mol
# GULP energy per Si atom -5585.522605 kJ/mol
# Density = 1.955429 g / cm^3
# Si number density = 19.598903 Si / 1000 Ang^3
#
#
#
# Elastic Constant Matrix: (Units=GPa)
#
#
# Indices 1 2 3 4 5 6 
#
# 1 55.6360 -0.0687 6.0457 0.0000 0.0000 0.0000
# 2 -0.0687 33.0343 -4.4236 0.0000 0.0000 0.0000
# 3 6.0457 -4.4236 40.0785 0.0000 0.0000 0.0000
# 4 0.0000 0.0000 0.0000 25.7429 0.0000 0.0000
# 5 0.0000 0.0000 0.0000 0.0000 -29.0856 0.0000
# 6 0.0000 0.0000 0.0000 0.0000 0.0000 4.3828
#
#
#
# Elastic Compliance Matrix: (Units=1/GPa)
#
#
# Indices 1 2 3 4 5 6 
#
# 1 0.018277 -0.000336 -0.002794 0.000000 0.000000 0.000000
# 2 -0.000336 0.030732 0.003443 0.000000 0.000000 0.000000
# 3 -0.002794 0.003443 0.025753 0.000000 0.000000 0.000000
# 4 0.000000 0.000000 0.000000 0.038846 0.000000 0.000000
# 5 0.000000 0.000000 0.000000 0.000000 -0.034381 0.000000
# 6 0.000000 0.000000 0.000000 0.000000 0.000000 0.228164
#
#
# Mechanical properties :
#
#
# Convention : Reuss Voigt Hill
#
# Bulk Modulus (GPa) = 13.26499 14.65061 13.95780
# Shear Modulus (GPa) = 15.06504 8.68771 11.87638
#
# Velocity S-wave (km/s) = 2.77549 2.10770 2.46432
# Velocity P-wave (km/s) = 4.12966 3.66260 3.90312
#
# Compressibility (1/GPa) = 0.07538639
#
# Stress axis : x y z
#
# Youngs Moduli (GPa) = 54.71301 32.53949 38.83117
#
# Poissons Ratio (x) = 0.01094 0.10850
# Poissons Ratio (y) = 0.01839 -0.13368
# Poissons Ratio (z) = 0.15288 -0.11202
#
# Static dielectric constant tensor:
#      x y z
#    x 1.711920 0.000000 0.000000 
#    y 0.000000 1.656080 0.000000 
#    z 0.000000 0.000000 1.654780 
# 
# From -- ./inp_files/8207.got.cif
#   From: 2010.05.17/outbox.cif.g08.bks.cpg/sg57_5_cif.got.tgz:8207.got - 2010.06.03 13:58:18.
