data_PCOD9434624
_publ_section_title
;
Structure prediction by ZEFSAII (Michael W. Deem and Ramdas Pophale) SiO2 
 PCOD9434624
Probable space group: P B C M
;
_chemical_formula_sum "Si O2"
_cell_formula_units_Z 64
_cell_length_a 14.972711
_cell_length_b 24.078892
_cell_length_c 8.537367
_cell_angle_alpha 90.000000
_cell_angle_beta 90.000000
_cell_angle_gamma 90.000000
_cell_volume 3077.945260
_symmetry_space_group_name_H-M "P B C M"
_symmetry_group_IT_number 57
_symmetry_cell_setting 'orthorhombic'
loop_
_space_group_symop_operation_xyz
x,y,z
-x,-y,1/2+z
x,1/2-y,-z
-x,1/2+y,1/2-z
-x,-y,-z
x,y,1/2-z
-x,1/2+y,z
x,1/2-y,1/2+z
loop_
_atom_site_type_symbol
_atom_site_label
_atom_site_fract_x
_atom_site_fract_y
_atom_site_fract_z
Si Si1 0.844037 0.888099 0.436720
Si Si2 0.832786 0.371710 0.064440
Si Si3 0.648732 0.101199 0.063712
Si Si4 0.999837 0.811752 0.936096
Si Si5 0.696874 0.807446 0.934018
Si Si6 0.547641 0.874491 0.065019
Si Si7 0.899946 0.010190 0.061369
Si Si8 0.599523 0.986930 0.937420
O O1 0.830158 0.883557 0.250000
O O2 0.768225 0.854549 0.525879
O O3 0.936293 0.857418 0.482259
O O4 0.847786 0.953256 0.477572
O O5 0.842426 0.365133 0.250000
O O6 0.729947 0.365753 0.013405
O O7 0.899327 0.329729 0.977583
O O8 0.862023 0.434021 0.014752
O O9 0.654783 0.103058 0.250000
O O10 0.656787 0.036862 0.007984
O O11 0.550573 0.121571 0.010474
O O12 0.985236 0.813345 0.750000
O O13 0.981420 0.750000 0.000000
O O14 0.682028 0.804470 0.750000
O O15 0.734138 0.750000 0.000000
O O16 0.603599 0.820598 0.019833
O O17 0.537941 0.880950 0.250000
O O18 0.609124 0.924882 0.999730
O O19 0.900197 0.016651 0.250000
O O20 0.000000 0.000000 0.000000
O O21 0.397103 0.011585 0.250000
O O22 0.500000 0.000000 0.000000
#
# Coordination Sequence:
#
# PCOD9434624 Si02
#       8
#     8   8   8   8   8   8   8   8
#     4  11  24  43  67  97 132 171 215 265 323 388
#     4  12  25  42  64  95 135 175 219 268 323 386
#     4  11  22  39  62  91 127 168 212 260 317 379
#     4  12  25  44  69  95 127 168 216 266 321 380
#     4  12  26  45  67  94 128 169 218 272 329 391
#     4  11  22  40  63  90 124 163 209 262 318 378
#     4  11  23  40  65  96 135 175 216 265 326 389
#     4  10  18  32  54  84 118 157 200 249 304 365
#
# _framework density 20.793092999999999
#
# number of rings (size 3 to 8) (size 9 to 14) (size 15 to 20)
#    0.000    0.750    1.250    9.375    1.750    1.500 
#    0.000    0.625    0.000    0.000    0.000    0.000 
#    0.000    0.000    0.000    0.000    0.000    0.000 
#
# Total GULP energy -358122.531720 kJ/mol
# GULP energy per Si atom -5595.664558 kJ/mol
# Density = 2.074577 g / cm^3
# Si number density = 20.793093 Si / 1000 Ang^3
#
#
#
# Elastic Constant Matrix: (Units=GPa)
#
#
# Indices 1 2 3 4 5 6 
#
# 1 65.6546 -3.2069 -15.8525 0.0000 0.0000 0.0000
# 2 -3.2069 56.0556 8.5251 0.0000 0.0000 0.0000
# 3 -15.8525 8.5251 103.2976 0.0000 0.0000 0.0000
# 4 0.0000 0.0000 0.0000 30.5813 0.0000 0.0000
# 5 0.0000 0.0000 0.0000 0.0000 34.2447 0.0000
# 6 0.0000 0.0000 0.0000 0.0000 0.0000 38.6235
#
#
#
# Elastic Compliance Matrix: (Units=1/GPa)
#
#
# Indices 1 2 3 4 5 6 
#
# 1 0.015834 0.000543 0.002385 0.000000 0.000000 0.000000
# 2 0.000543 0.018085 -0.001409 0.000000 0.000000 0.000000
# 3 0.002385 -0.001409 0.010163 0.000000 0.000000 0.000000
# 4 0.000000 0.000000 0.000000 0.032700 0.000000 0.000000
# 5 0.000000 0.000000 0.000000 0.000000 0.029202 0.000000
# 6 0.000000 0.000000 0.000000 0.000000 0.000000 0.025891
#
#
# Mechanical properties :
#
#
# Convention : Reuss Voigt Hill
#
# Bulk Modulus (GPa) = 21.22262 22.65991 21.94126
# Shear Modulus (GPa) = 34.59192 36.39269 35.49230
#
# Velocity S-wave (km/s) = 4.08318 4.18811 4.13598
# Velocity P-wave (km/s) = 5.69724 5.85735 5.77785
#
# Compressibility (1/GPa) = 0.04711953
#
# Stress axis : x y z
#
# Youngs Moduli (GPa) = 63.15670 55.29499 98.39525
#
# Poissons Ratio (x) = -0.03003 -0.23468
# Poissons Ratio (y) = -0.03430 0.13866
# Poissons Ratio (z) = -0.15063 0.07792
#
# Static dielectric constant tensor:
#      x y z
#    x 1.740850 0.000000 0.000000 
#    y 0.000000 1.748840 0.000000 
#    z 0.000000 0.000000 1.683960 
# 
# From -- ./inp_files/5644.got.cif
#   From: 2010.05.17/outbox.cif.g08.bks.cpg/sg57_3_cif.got.tgz:5644.got - 2010.06.03 13:58:18.
