data_PCOD9434089
_publ_section_title
;
Structure prediction by ZEFSAII (Michael W. Deem and Ramdas Pophale) SiO2 
 PCOD9434089
Probable space group: P B C M
;
_chemical_formula_sum "Si O2"
_cell_formula_units_Z 36
_cell_length_a 7.662169
_cell_length_b 23.892044
_cell_length_c 8.178293
_cell_angle_alpha 90.000000
_cell_angle_beta 90.000000
_cell_angle_gamma 90.000000
_cell_volume 1497.158218
_symmetry_space_group_name_H-M "P B C M"
_symmetry_group_IT_number 57
_symmetry_cell_setting 'orthorhombic'
loop_
_space_group_symop_operation_xyz
x,y,z
-x,-y,1/2+z
x,1/2-y,-z
-x,1/2+y,1/2-z
-x,-y,-z
x,y,1/2-z
-x,1/2+y,z
x,1/2-y,1/2+z
loop_
_atom_site_type_symbol
_atom_site_label
_atom_site_fract_x
_atom_site_fract_y
_atom_site_fract_z
Si Si1 0.414274 0.349732 0.750000
Si Si2 0.130608 0.052731 0.250000
Si Si3 0.330633 0.467198 0.061718
Si Si4 0.322220 0.167055 0.924518
Si Si5 0.904756 0.312822 0.061525
Si Si6 0.213731 0.616123 0.250000
O O1 0.239495 0.388098 0.750000
O O2 0.410781 0.312210 0.588853
O O3 0.578798 0.391176 0.750000
O O4 0.189208 0.023014 0.417769
O O5 0.930635 0.068443 0.250000
O O6 0.292134 0.481475 0.250000
O O7 0.356608 0.399935 0.068327
O O8 0.500000 0.500000 0.000000
O O9 0.384832 0.187806 0.750000
O O10 0.114570 0.177053 0.935416
O O11 0.844980 0.321856 0.250000
O O12 0.874926 0.250000 0.000000
O O13 0.825160 0.351418 0.919986
#
# Coordination Sequence:
#
# PCOD9434089 Si02
#       6
#     4   4   8   8   8   4
#     4  10  20  36  62  80 111 148 190 231 284 330
#     4  10  20  38  56  83 116 147 195 230 287 337
#     4  10  17  28  54  88 111 147 192 231 279 342
#     4   9  19  36  56  86 113 147 193 231 285 340
#     4  11  21  36  62  83 113 151 187 236 286 341
#     4  12  22  38  62  83 113 153 189 237 287 339
#
# _framework density 24.045556000000001
#
# number of rings (size 3 to 8) (size 9 to 14) (size 15 to 20)
#    0.000    1.778    6.667    0.000    0.000    0.889 
#    0.000    1.111    0.000    5.333    0.000    0.000 
#    0.000    0.000    0.000    0.000    0.000    0.000 
#
# Total GULP energy -201114.587301 kJ/mol
# GULP energy per Si atom -5586.516314 kJ/mol
# Density = 2.399083 g / cm^3
# Si number density = 24.045556 Si / 1000 Ang^3
#
#
#
# Elastic Constant Matrix: (Units=GPa)
#
#
# Indices 1 2 3 4 5 6 
#
# 1 61.4023 23.9249 46.0450 0.0000 0.0000 0.0000
# 2 23.9249 66.5266 39.5823 0.0000 0.0000 0.0000
# 3 46.0450 39.5823 301.2062 0.0000 0.0000 0.0000
# 4 0.0000 0.0000 0.0000 26.6552 0.0000 0.0000
# 5 0.0000 0.0000 0.0000 0.0000 -14.8692 0.0000
# 6 0.0000 0.0000 0.0000 0.0000 0.0000 -9.6715
#
#
#
# Elastic Compliance Matrix: (Units=1/GPa)
#
#
# Indices 1 2 3 4 5 6 
#
# 1 0.020344 -0.005930 -0.002331 0.000000 0.000000 0.000000
# 2 -0.005930 0.018035 -0.001464 0.000000 0.000000 0.000000
# 3 -0.002331 -0.001464 0.003869 0.000000 0.000000 0.000000
# 4 0.000000 0.000000 0.000000 0.037516 0.000000 0.000000
# 5 0.000000 0.000000 0.000000 0.000000 -0.067253 0.000000
# 6 0.000000 0.000000 0.000000 0.000000 0.000000 -0.103397
#
#
# Mechanical properties :
#
#
# Convention : Reuss Voigt Hill
#
# Bulk Modulus (GPa) = 43.85998 72.02662 57.94330
# Shear Modulus (GPa) = -78.32318 21.72843 -28.29738
#
# Velocity S-wave (km/s) = -5.71345 3.00931 -3.43421
# Velocity P-wave (km/s) = 5.02442 6.48798 2.90251
#
# Compressibility (1/GPa) = 0.02279983
#
# Stress axis : x y z
#
# Youngs Moduli (GPa) = 49.15385 55.44821 258.49030
#
# Poissons Ratio (x) = 0.32879 0.60248
# Poissons Ratio (y) = 0.29146 0.37831
# Poissons Ratio (z) = 0.11457 0.08115
#
# Static dielectric constant tensor:
#      x y z
#    x 1.862540 0.000000 0.000000 
#    y 0.000000 1.871880 0.000000 
#    z 0.000000 0.000000 1.609450 
# 
# From -- ./inp_files/1691.got.cif
#   From: 2010.05.17/outbox.cif.g08.bks.cpg/sg57_1_cif.got.tgz:1691.got - 2010.06.03 13:58:18.
