data_PCOD9434711
_publ_section_title
;
Structure prediction by ZEFSAII (Michael W. Deem and Ramdas Pophale) SiO2 
 PCOD9434711
Probable space group: P B C M
;
_chemical_formula_sum "Si O2"
_cell_formula_units_Z 40
_cell_length_a 24.622274
_cell_length_b 9.483783
_cell_length_c 9.900613
_cell_angle_alpha 90.000000
_cell_angle_beta 90.000000
_cell_angle_gamma 90.000000
_cell_volume 2311.914949
_symmetry_space_group_name_H-M "P B C M"
_symmetry_group_IT_number 57
_symmetry_cell_setting 'orthorhombic'
loop_
_space_group_symop_operation_xyz
x,y,z
-x,-y,1/2+z
x,1/2-y,-z
-x,1/2+y,1/2-z
-x,-y,-z
x,y,1/2-z
-x,1/2+y,z
x,1/2-y,1/2+z
loop_
_atom_site_type_symbol
_atom_site_label
_atom_site_fract_x
_atom_site_fract_y
_atom_site_fract_z
Si Si1 0.932115 0.037373 0.750000
Si Si2 0.536811 0.605927 0.913191
Si Si3 0.244616 0.888921 0.908563
Si Si4 0.126195 0.918874 0.518089
Si Si5 0.043729 0.874333 0.750000
Si Si6 0.337367 0.114334 0.593308
O O1 0.894446 0.016815 0.620346
O O2 0.952304 0.202645 0.750000
O O3 0.983318 0.934100 0.750000
O O4 0.523427 0.617954 0.750000
O O5 0.600375 0.562945 0.919804
O O6 0.532799 0.750000 0.000000
O O7 0.500000 0.500000 0.000000
O O8 0.245959 0.850053 0.750000
O O9 0.186096 0.962147 0.935455
O O10 0.293830 0.994137 0.938577
O O11 0.249131 0.750000 0.000000
O O12 0.131325 0.750000 0.500000
O O13 0.077695 0.933498 0.623977
O O14 0.330107 0.250000 0.500000
O O15 0.329659 0.155084 0.750000
#
# Coordination Sequence:
#
# PCOD9434711 Si02
#       6
#     4   8   8   8   4   8
#     4  10  20  32  52  72 100 128 167 206 257 314
#     4  10  20  36  58  82 114 150 188 228 275 326
#     4  10  20  35  56  80 105 136 182 226 265 315
#     4   9  18  32  52  72  99 130 168 209 259 308
#     4  10  18  34  50  74  96 132 161 208 255 312
#     4   9  20  38  56  80 112 147 180 221 272 324
#
# _framework density 17.301673999999998
#
# number of rings (size 3 to 8) (size 9 to 14) (size 15 to 20)
#    0.000    2.400    1.000    1.200    4.200    2.400 
#    0.000    4.000    0.000    0.000    0.000    0.000 
#    0.000    0.000    0.000    0.000    0.000    0.000 
#
# Total GULP energy -222811.678328 kJ/mol
# GULP energy per Si atom -5570.291958 kJ/mol
# Density = 1.726229 g / cm^3
# Si number density = 17.301674 Si / 1000 Ang^3
#
#
#
# Elastic Constant Matrix: (Units=GPa)
#
#
# Indices 1 2 3 4 5 6 
#
# 1 118.6831 58.8835 59.6758 0.0000 0.0000 0.0000
# 2 58.8835 44.8641 38.6657 0.0000 0.0000 0.0000
# 3 59.6758 38.6657 114.8416 0.0000 0.0000 0.0000
# 4 0.0000 0.0000 0.0000 -13.1517 0.0000 0.0000
# 5 0.0000 0.0000 0.0000 0.0000 29.8974 0.0000
# 6 0.0000 0.0000 0.0000 0.0000 0.0000 23.8144
#
#
#
# Elastic Compliance Matrix: (Units=1/GPa)
#
#
# Indices 1 2 3 4 5 6 
#
# 1 0.024739 -0.030135 -0.002709 0.000000 0.000000 0.000000
# 2 -0.030135 0.068109 -0.007272 0.000000 0.000000 0.000000
# 3 -0.002709 -0.007272 0.012564 0.000000 0.000000 0.000000
# 4 0.000000 0.000000 0.000000 -0.076036 0.000000 0.000000
# 5 0.000000 0.000000 0.000000 0.000000 0.033448 0.000000
# 6 0.000000 0.000000 0.000000 0.000000 0.000000 0.041991
#
#
# Mechanical properties :
#
#
# Convention : Reuss Voigt Hill
#
# Bulk Modulus (GPa) = 39.71558 65.87097 52.79328
# Shear Modulus (GPa) = 25.84773 16.18963 21.01868
#
# Velocity S-wave (km/s) = 3.86935 3.06228 3.48923
# Velocity P-wave (km/s) = 6.55493 7.11745 6.84197
#
# Compressibility (1/GPa) = 0.02517904
#
# Stress axis : x y z
#
# Youngs Moduli (GPa) = 40.42160 14.68243 79.59276
#
# Poissons Ratio (x) = 0.44245 0.21564
# Poissons Ratio (y) = 1.21810 0.57881
# Poissons Ratio (z) = 0.10952 0.10677
#
# Static dielectric constant tensor:
#      x y z
#    x 1.589790 0.000000 0.000000 
#    y 0.000000 1.567270 0.000000 
#    z 0.000000 0.000000 1.481280 
# 
# From -- ./inp_files/6267.got.cif
#   From: 2010.05.17/outbox.cif.g08.bks.cpg/sg57_4_cif.got.tgz:6267.got - 2010.06.03 13:58:18.
