data_PCOD9434592
_publ_section_title
;
Structure prediction by ZEFSAII (Michael W. Deem and Ramdas Pophale) SiO2 
 PCOD9434592
Probable space group: P B C M
;
_chemical_formula_sum "Si O2"
_cell_formula_units_Z 64
_cell_length_a 12.758439
_cell_length_b 28.704818
_cell_length_c 8.843919
_cell_angle_alpha 90.000000
_cell_angle_beta 90.000000
_cell_angle_gamma 90.000000
_cell_volume 3238.896688
_symmetry_space_group_name_H-M "P B C M"
_symmetry_group_IT_number 57
_symmetry_cell_setting 'orthorhombic'
loop_
_space_group_symop_operation_xyz
x,y,z
-x,-y,1/2+z
x,1/2-y,-z
-x,1/2+y,1/2-z
-x,-y,-z
x,y,1/2-z
-x,1/2+y,z
x,1/2-y,1/2+z
loop_
_atom_site_type_symbol
_atom_site_label
_atom_site_fract_x
_atom_site_fract_y
_atom_site_fract_z
Si Si1 0.641702 0.369712 0.568101
Si Si2 0.028503 0.933297 0.075070
Si Si3 0.192608 0.445946 0.931029
Si Si4 0.021017 0.322855 0.423796
Si Si5 0.203657 0.703408 0.568691
Si Si6 0.249930 0.961916 0.569079
Si Si7 0.457058 0.199813 0.067352
Si Si8 0.234818 0.160411 0.068583
O O1 0.652091 0.366171 0.750000
O O2 0.733945 0.340820 0.489998
O O3 0.661241 0.423769 0.529299
O O4 0.535846 0.342303 0.525748
O O5 0.033614 0.948941 0.250000
O O6 0.006834 0.877867 0.075149
O O7 0.137941 0.943432 0.993291
O O8 0.925734 0.953497 0.992782
O O9 0.191319 0.447667 0.750000
O O10 0.229471 0.394157 0.978508
O O11 0.262887 0.487261 0.997023
O O12 0.035804 0.308435 0.250000
O O13 0.128407 0.316004 0.511581
O O14 0.916183 0.299880 0.486919
O O15 0.252462 0.750000 0.500000
O O16 0.204179 0.704504 0.750000
O O17 0.244125 0.965733 0.750000
O O18 0.458225 0.203423 0.250000
O O19 0.340215 0.185580 0.016143
O O20 0.486371 0.250000 0.000000
O O21 0.235131 0.160726 0.250000
#
# Coordination Sequence:
#
# PCOD9434592 Si02
#       8
#     8   8   8   8   8   8   8   8
#     4  10  22  39  59  82 112 148 188 234 283 337
#     4  10  18  32  52  77 111 150 189 230 270 322
#     4  10  20  34  53  80 112 151 191 229 275 331
#     4   9  19  34  53  79 112 146 181 226 277 330
#     4  11  22  36  54  80 113 147 183 228 284 343
#     4  11  21  33  52  80 113 151 189 229 278 333
#     4  10  22  42  64  87 110 141 187 238 288 337
#     4   9  20  38  60  82 111 147 187 233 281 335
#
# _framework density 19.759816000000001
#
# number of rings (size 3 to 8) (size 9 to 14) (size 15 to 20)
#    0.000    2.000    1.250    2.250    0.000    5.000 
#    0.000    3.125    0.000    0.000    0.000    0.000 
#    0.000    0.000    0.000    0.000    0.000    0.000 
#
# Total GULP energy -357317.413357 kJ/mol
# GULP energy per Si atom -5583.084584 kJ/mol
# Density = 1.971484 g / cm^3
# Si number density = 19.759816 Si / 1000 Ang^3
#
#
#
# Elastic Constant Matrix: (Units=GPa)
#
#
# Indices 1 2 3 4 5 6 
#
# 1 83.3076 8.2575 11.8590 0.0000 0.0000 0.0000
# 2 8.2575 41.1149 7.7221 0.0000 0.0000 0.0000
# 3 11.8590 7.7221 23.1561 0.0000 0.0000 0.0000
# 4 0.0000 0.0000 0.0000 17.2068 0.0000 0.0000
# 5 0.0000 0.0000 0.0000 0.0000 128.0686 0.0000
# 6 0.0000 0.0000 0.0000 0.0000 0.0000 12.6049
#
#
#
# Elastic Compliance Matrix: (Units=1/GPa)
#
#
# Indices 1 2 3 4 5 6 
#
# 1 0.013029 -0.001455 -0.006187 0.000000 0.000000 0.000000
# 2 -0.001455 0.026110 -0.007962 0.000000 0.000000 0.000000
# 3 -0.006187 -0.007962 0.049009 0.000000 0.000000 0.000000
# 4 0.000000 0.000000 0.000000 0.058117 0.000000 0.000000
# 5 0.000000 0.000000 0.000000 0.000000 0.007808 0.000000
# 6 0.000000 0.000000 0.000000 0.000000 0.000000 0.079334
#
#
# Mechanical properties :
#
#
# Convention : Reuss Voigt Hill
#
# Bulk Modulus (GPa) = 17.56252 22.58396 20.07324
# Shear Modulus (GPa) = 17.63082 39.55873 28.59477
#
# Velocity S-wave (km/s) = 2.99031 4.47920 3.80823
# Velocity P-wave (km/s) = 4.56398 6.18102 5.43300
#
# Compressibility (1/GPa) = 0.05693943
#
# Stress axis : x y z
#
# Youngs Moduli (GPa) = 76.75384 38.30009 20.40437
#
# Poissons Ratio (x) = 0.05571 0.12625
# Poissons Ratio (y) = 0.11164 0.16246
# Poissons Ratio (z) = 0.47490 0.30495
#
# Static dielectric constant tensor:
#      x y z
#    x 1.688560 0.000000 0.000000 
#    y 0.000000 1.781570 0.000000 
#    z 0.000000 0.000000 1.666100 
# 
# From -- ./inp_files/3856.got.cif
#   From: 2010.05.17/outbox.cif.g08.bks.cpg/sg57_2_cif.got.tgz:3856.got - 2010.06.03 13:58:18.
