data_PCOD9434413
_publ_section_title
;
Structure prediction by ZEFSAII (Michael W. Deem and Ramdas Pophale) SiO2 
 PCOD9434413
Probable space group: P B C M
;
_chemical_formula_sum "Si O2"
_cell_formula_units_Z 64
_cell_length_a 17.101742
_cell_length_b 24.398182
_cell_length_c 8.816165
_cell_angle_alpha 90.000000
_cell_angle_beta 90.000000
_cell_angle_gamma 90.000000
_cell_volume 3678.557311
_symmetry_space_group_name_H-M "P B C M"
_symmetry_group_IT_number 57
_symmetry_cell_setting 'orthorhombic'
loop_
_space_group_symop_operation_xyz
x,y,z
-x,-y,1/2+z
x,1/2-y,-z
-x,1/2+y,1/2-z
-x,-y,-z
x,y,1/2-z
-x,1/2+y,z
x,1/2-y,1/2+z
loop_
_atom_site_type_symbol
_atom_site_label
_atom_site_fract_x
_atom_site_fract_y
_atom_site_fract_z
Si Si1 0.813147 0.473196 0.932905
Si Si2 0.026039 0.586087 0.428001
Si Si3 0.420189 0.811719 0.932794
Si Si4 0.235336 0.311048 0.568263
Si Si5 0.127761 0.692124 0.428386
Si Si6 0.858937 0.591258 0.930175
Si Si7 0.407687 0.189224 0.432032
Si Si8 0.272901 0.627453 0.930810
O O1 0.806605 0.467000 0.750000
O O2 0.900387 0.451594 0.973584
O O3 0.809514 0.537024 0.973170
O O4 0.751692 0.432764 0.010668
O O5 0.009431 0.575821 0.250000
O O6 0.058936 0.647800 0.443649
O O7 0.948182 0.579574 0.523452
O O8 0.413896 0.808546 0.750000
O O9 0.507243 0.834019 0.974391
O O10 0.412256 0.750000 0.000000
O O11 0.352800 0.849939 0.998760
O O12 0.225648 0.250000 0.500000
O O13 0.231451 0.306909 0.750000
O O14 0.172523 0.354320 0.509683
O O15 0.322487 0.333210 0.523383
O O16 0.106931 0.750000 0.500000
O O17 0.145514 0.697752 0.250000
O O18 0.203587 0.667254 0.510851
O O19 0.853813 0.597874 0.750000
O O20 0.408191 0.250000 0.500000
O O21 0.407436 0.192440 0.250000
O O22 0.276460 0.628532 0.750000
#
# Coordination Sequence:
#
# PCOD9434413 Si02
#       8
#     8   8   8   8   8   8   8   8
#     4   9  20  38  55  73 100 133 169 209 253 298
#     4   9  19  35  53  73  99 132 169 211 254 296
#     4  10  18  30  49  75 106 136 169 207 248 296
#     4  10  20  36  56  79 107 135 167 206 250 300
#     4  10  20  34  50  70 100 137 172 207 251 300
#     4  11  22  35  55  80 103 130 165 206 254 304
#     4   8  16  30  50  74 100 133 167 203 247 293
#     4  11  21  32  49  74 102 134 171 209 250 295
#
# _framework density 17.398123999999999
#
# number of rings (size 3 to 8) (size 9 to 14) (size 15 to 20)
#    0.000    2.250    0.000    4.125    0.000    5.000 
#    0.000    1.250    0.000    0.750    0.000    0.000 
#    0.000    0.000    0.000    0.000    0.000    0.000 
#
# Total GULP energy -356894.607171 kJ/mol
# GULP energy per Si atom -5576.478237 kJ/mol
# Density = 1.735853 g / cm^3
# Si number density = 17.398124 Si / 1000 Ang^3
#
#
#
# Elastic Constant Matrix: (Units=GPa)
#
#
# Indices 1 2 3 4 5 6 
#
# 1 43.6440 18.6044 13.7209 0.0000 0.0000 0.0000
# 2 18.6044 87.1217 32.8256 0.0000 0.0000 0.0000
# 3 13.7209 32.8256 55.6111 0.0000 0.0000 0.0000
# 4 0.0000 0.0000 0.0000 21.6546 0.0000 0.0000
# 5 0.0000 0.0000 0.0000 0.0000 9.6651 0.0000
# 6 0.0000 0.0000 0.0000 0.0000 0.0000 11.2736
#
#
#
# Elastic Compliance Matrix: (Units=1/GPa)
#
#
# Indices 1 2 3 4 5 6 
#
# 1 0.025887 -0.004014 -0.004018 0.000000 0.000000 0.000000
# 2 -0.004014 0.015384 -0.008090 0.000000 0.000000 0.000000
# 3 -0.004018 -0.008090 0.023749 0.000000 0.000000 0.000000
# 4 0.000000 0.000000 0.000000 0.046180 0.000000 0.000000
# 5 0.000000 0.000000 0.000000 0.000000 0.103465 0.000000
# 6 0.000000 0.000000 0.000000 0.000000 0.000000 0.088703
#
#
# Mechanical properties :
#
#
# Convention : Reuss Voigt Hill
#
# Bulk Modulus (GPa) = 30.51077 35.18651 32.84864
# Shear Modulus (GPa) = 14.42855 16.60039 15.51447
#
# Velocity S-wave (km/s) = 2.88291 3.09228 2.98943
# Velocity P-wave (km/s) = 5.35317 5.74611 5.55312
#
# Compressibility (1/GPa) = 0.03277531
#
# Stress axis : x y z
#
# Youngs Moduli (GPa) = 38.62954 65.00438 42.10778
#
# Poissons Ratio (x) = 0.26095 0.16917
# Poissons Ratio (y) = 0.15507 0.34065
# Poissons Ratio (z) = 0.15520 0.52589
#
# Static dielectric constant tensor:
#      x y z
#    x 1.608060 0.000000 0.000000 
#    y 0.000000 1.575470 0.000000 
#    z 0.000000 0.000000 1.579870 
# 
# From -- ./inp_files/5643.got.cif
#   From: 2010.05.17/outbox.cif.g08.bks.cpg/sg57_3_cif.got.tgz:5643.got - 2010.06.03 13:58:18.
