data_PCOD9434358
_publ_section_title
;
Structure prediction by ZEFSAII (Michael W. Deem and Ramdas Pophale) SiO2 
 PCOD9434358
Probable space group: P B C M
;
_chemical_formula_sum "Si O2"
_cell_formula_units_Z 40
_cell_length_a 13.210087
_cell_length_b 20.437748
_cell_length_c 8.589379
_cell_angle_alpha 90.000000
_cell_angle_beta 90.000000
_cell_angle_gamma 90.000000
_cell_volume 2318.998586
_symmetry_space_group_name_H-M "P B C M"
_symmetry_group_IT_number 57
_symmetry_cell_setting 'orthorhombic'
loop_
_space_group_symop_operation_xyz
x,y,z
-x,-y,1/2+z
x,1/2-y,-z
-x,1/2+y,1/2-z
-x,-y,-z
x,y,1/2-z
-x,1/2+y,z
x,1/2-y,1/2+z
loop_
_atom_site_type_symbol
_atom_site_label
_atom_site_fract_x
_atom_site_fract_y
_atom_site_fract_z
Si Si1 0.458894 0.569065 0.935204
Si Si2 0.978132 0.072708 0.062613
Si Si3 0.389031 0.177559 0.436548
Si Si4 0.195711 0.404017 0.561539
Si Si5 0.759520 0.049793 0.063059
O O1 0.465774 0.567631 0.750000
O O2 0.500000 0.500000 0.000000
O O3 0.527633 0.627100 0.001132
O O4 0.342651 0.575884 0.987397
O O5 0.976385 0.070916 0.250000
O O6 0.862943 0.087430 0.013897
O O7 0.079298 0.112022 0.016566
O O8 0.000000 0.000000 0.000000
O O9 0.404372 0.250000 0.500000
O O10 0.393241 0.178213 0.250000
O O11 0.279039 0.149030 0.484304
O O12 0.199497 0.411165 0.750000
O O13 0.225796 0.474121 0.488898
O O14 0.750230 0.051955 0.250000
#
# Coordination Sequence:
#
# PCOD9434358 Si02
#       5
#     8   8   8   8   8
#     4  12  23  36  55  79 109 143 185 231 278 329
#     4   8  15  27  45  73 104 135 169 211 259 311
#     4  11  23  38  56  79 109 145 183 225 276 331
#     4   9  17  31  51  74 105 140 176 218 267 318
#     4  10  18  29  50  79 109 139 176 221 272 319
#
# _framework density 17.248823000000002
#
# number of rings (size 3 to 8) (size 9 to 14) (size 15 to 20)
#    0.000    2.000    2.000    3.000    0.000    1.600 
#    0.000    0.000    0.000    1.200    0.000    2.800 
#    0.000    0.000    0.000    0.000    0.000    0.000 
#
# Total GULP energy -222987.805809 kJ/mol
# GULP energy per Si atom -5574.695145 kJ/mol
# Density = 1.720956 g / cm^3
# Si number density = 17.248823 Si / 1000 Ang^3
#
#
#
# Elastic Constant Matrix: (Units=GPa)
#
#
# Indices 1 2 3 4 5 6 
#
# 1 196.6584 75.6454 46.3175 0.0000 0.0000 0.0000
# 2 75.6454 94.8344 32.8525 0.0000 0.0000 0.0000
# 3 46.3175 32.8525 54.8218 0.0000 0.0000 0.0000
# 4 0.0000 0.0000 0.0000 21.2970 0.0000 0.0000
# 5 0.0000 0.0000 0.0000 0.0000 23.2391 0.0000
# 6 0.0000 0.0000 0.0000 0.0000 0.0000 18.2248
#
#
#
# Elastic Compliance Matrix: (Units=1/GPa)
#
#
# Indices 1 2 3 4 5 6 
#
# 1 0.007874 -0.005018 -0.003645 0.000000 0.000000 0.000000
# 2 -0.005018 0.016505 -0.005651 0.000000 0.000000 0.000000
# 3 -0.003645 -0.005651 0.024707 0.000000 0.000000 0.000000
# 4 0.000000 0.000000 0.000000 0.046955 0.000000 0.000000
# 5 0.000000 0.000000 0.000000 0.000000 0.043031 0.000000
# 6 0.000000 0.000000 0.000000 0.000000 0.000000 0.054870
#
#
# Mechanical properties :
#
#
# Convention : Reuss Voigt Hill
#
# Bulk Modulus (GPa) = 48.88283 72.88283 60.88283
# Shear Modulus (GPa) = 21.79696 25.31878 23.55787
#
# Velocity S-wave (km/s) = 3.55868 3.83542 3.69964
# Velocity P-wave (km/s) = 6.72956 7.87143 7.32279
#
# Compressibility (1/GPa) = 0.02045708
#
# Stress axis : x y z
#
# Youngs Moduli (GPa) = 127.00751 60.58843 40.47369
#
# Poissons Ratio (x) = 0.30401 0.14754
# Poissons Ratio (y) = 0.63727 0.22873
# Poissons Ratio (z) = 0.46298 0.34241
#
# Static dielectric constant tensor:
#      x y z
#    x 1.648850 0.000000 0.000000 
#    y 0.000000 1.532380 0.000000 
#    z 0.000000 0.000000 1.577990 
# 
# From -- ./inp_files/2906.got.cif
#   From: 2010.05.17/outbox.cif.g08.bks.cpg/sg57_2_cif.got.tgz:2906.got - 2010.06.03 13:58:18.
