data_PCOD9434942
_publ_section_title
;
Structure prediction by ZEFSAII (Michael W. Deem and Ramdas Pophale) SiO2 
 PCOD9434942
Probable space group: P B C M
;
_chemical_formula_sum "Si O2"
_cell_formula_units_Z 56
_cell_length_a 21.687360
_cell_length_b 14.113079
_cell_length_c 7.500007
_cell_angle_alpha 90.000000
_cell_angle_beta 90.000000
_cell_angle_gamma 90.000000
_cell_volume 2295.567830
_symmetry_space_group_name_H-M "P B C M"
_symmetry_group_IT_number 57
_symmetry_cell_setting 'orthorhombic'
loop_
_space_group_symop_operation_xyz
x,y,z
-x,-y,1/2+z
x,1/2-y,-z
-x,1/2+y,1/2-z
-x,-y,-z
x,y,1/2-z
-x,1/2+y,z
x,1/2-y,1/2+z
loop_
_atom_site_type_symbol
_atom_site_label
_atom_site_fract_x
_atom_site_fract_y
_atom_site_fract_z
Si Si1 0.538421 0.638697 0.961194
Si Si2 0.077466 0.388841 0.544945
Si Si3 0.187005 0.648100 0.038433
Si Si4 0.052886 0.892333 0.531659
Si Si5 0.209194 0.070047 0.042979
Si Si6 0.401865 0.639801 0.964140
Si Si7 0.336016 0.464150 0.958371
O O1 0.538394 0.623562 0.750000
O O2 0.470391 0.611066 0.031203
O O3 0.543279 0.750000 0.000000
O O4 0.598911 0.588710 0.033192
O O5 0.080727 0.355737 0.750000
O O6 0.063223 0.501357 0.539918
O O7 0.146303 0.385115 0.463453
O O8 0.012753 0.352403 0.465735
O O9 0.187728 0.636116 0.250000
O O10 0.116034 0.656274 0.974156
O O11 0.218226 0.750000 0.000000
O O12 0.207616 0.545674 0.965073
O O13 0.050972 0.895581 0.750000
O O14 0.206555 0.098764 0.250000
O O15 0.276893 0.090529 0.964714
O O16 0.403406 0.629570 0.750000
O O17 0.350625 0.568151 0.035578
O O18 0.391425 0.750000 0.000000
O O19 0.321098 0.475907 0.750000
#
# Coordination Sequence:
#
# PCOD9434942 Si02
#       7
#     8   8   8   8   8   8   8
#     4  10  20  35  56  79 101 130 169 215 264 308
#     4   8  13  24  42  62  83 108 142 184 229 277
#     4  10  19  30  44  63  91 125 161 202 245 292
#     4   8  14  24  40  61  81 106 143 187 231 272
#     4   9  18  31  47  68  95 128 162 196 239 292
#     4   9  19  34  52  76 106 137 171 212 256 303
#     4  10  20  34  52  77 108 139 172 210 253 305
#
# _framework density 24.394838
#
# number of rings (size 3 to 8) (size 9 to 14) (size 15 to 20)
#    0.000    2.857    0.000    1.286    0.000    2.857 
#    0.000    1.429    0.000    0.857    0.000    2.000 
#    0.000    0.000    0.000    0.000    0.000    0.000 
#
# Total GULP energy -312133.136877 kJ/mol
# GULP energy per Si atom -5573.806016 kJ/mol
# Density = 2.433931 g / cm^3
# Si number density = 24.394838 Si / 1000 Ang^3
#
#
#
# Elastic Constant Matrix: (Units=GPa)
#
#
# Indices 1 2 3 4 5 6 
#
# 1 146.2667 -6.7367 12.7568 0.0000 0.0000 0.0000
# 2 -6.7367 25.2432 -12.3520 0.0000 0.0000 0.0000
# 3 12.7568 -12.3520 84.3567 0.0000 0.0000 0.0000
# 4 0.0000 0.0000 0.0000 11.3407 0.0000 0.0000
# 5 0.0000 0.0000 0.0000 0.0000 -36.9398 0.0000
# 6 0.0000 0.0000 0.0000 0.0000 0.0000 -4.3694
#
#
#
# Elastic Compliance Matrix: (Units=1/GPa)
#
#
# Indices 1 2 3 4 5 6 
#
# 1 0.006977 0.001450 -0.000843 0.000000 0.000000 0.000000
# 2 0.001450 0.042973 0.006073 0.000000 0.000000 0.000000
# 3 -0.000843 0.006073 0.012871 0.000000 0.000000 0.000000
# 4 0.000000 0.000000 0.000000 0.088178 0.000000 0.000000
# 5 0.000000 0.000000 0.000000 0.000000 -0.027071 0.000000
# 6 0.000000 0.000000 0.000000 0.000000 0.000000 -0.228865
#
#
# Mechanical properties :
#
#
# Convention : Reuss Voigt Hill
#
# Bulk Modulus (GPa) = 13.12661 27.02254 20.07457
# Shear Modulus (GPa) = -53.81996 11.48619 -21.16689
#
# Velocity S-wave (km/s) = -4.70212 2.17225 -2.94883
# Velocity P-wave (km/s) = 4.90788 4.17046 1.82956
#
# Compressibility (1/GPa) = 0.07618116
#
# Stress axis : x y z
#
# Youngs Moduli (GPa) = 143.32599 23.27036 77.69306
#
# Poissons Ratio (x) = -0.03373 0.06548
# Poissons Ratio (y) = -0.20776 -0.47184
# Poissons Ratio (z) = 0.12080 -0.14133
#
# Static dielectric constant tensor:
#      x y z
#    x 2.043870 0.000000 0.000000 
#    y 0.000000 1.951540 0.000000 
#    z 0.000000 0.000000 1.698730 
# 
# From -- ./inp_files/8132.got.cif
#   From: 2010.05.17/outbox.cif.g08.bks.cpg/sg57_5_cif.got.tgz:8132.got - 2010.06.03 13:58:18.
