data_PCOD9434778
_publ_section_title
;
Structure prediction by ZEFSAII (Michael W. Deem and Ramdas Pophale) SiO2 
 PCOD9434778
Probable space group: P B C M
;
_chemical_formula_sum "Si O2"
_cell_formula_units_Z 44
_cell_length_a 14.790425
_cell_length_b 14.040245
_cell_length_c 8.801132
_cell_angle_alpha 90.000000
_cell_angle_beta 90.000000
_cell_angle_gamma 90.000000
_cell_volume 1827.653550
_symmetry_space_group_name_H-M "P B C M"
_symmetry_group_IT_number 57
_symmetry_cell_setting 'orthorhombic'
loop_
_space_group_symop_operation_xyz
x,y,z
-x,-y,1/2+z
x,1/2-y,-z
-x,1/2+y,1/2-z
-x,-y,-z
x,y,1/2-z
-x,1/2+y,z
x,1/2-y,1/2+z
loop_
_atom_site_type_symbol
_atom_site_label
_atom_site_fract_x
_atom_site_fract_y
_atom_site_fract_z
Si Si1 0.283575 0.877465 0.421763
Si Si2 0.903226 0.115730 0.426217
Si Si3 0.636684 0.586433 0.750000
Si Si4 0.905750 0.616439 0.573470
Si Si5 0.415810 0.211652 0.250000
Si Si6 0.726988 0.897179 0.944197
Si Si7 0.386080 0.628807 0.250000
O O1 0.307995 0.838701 0.250000
O O2 0.180806 0.854303 0.468568
O O3 0.337515 0.854703 0.582491
O O4 0.285582 0.992482 0.399775
O O5 0.894767 0.147213 0.250000
O O6 0.997198 0.142248 0.504651
O O7 0.900708 0.999637 0.421854
O O8 0.572256 0.675679 0.750000
O O9 0.705531 0.596181 0.616806
O O10 0.592989 0.484370 0.750000
O O11 0.896982 0.648891 0.750000
O O12 0.828802 0.641509 0.446780
O O13 0.351534 0.170063 0.381457
O O14 0.516170 0.174360 0.250000
#
# Coordination Sequence:
#
# PCOD9434778 Si02
#       7
#     8   8   4   8   4   8   4
#     4  10  18  35  57  85 127 172 210 264 329 384
#     4   9  16  25  47  81 122 163 204 254 301 373
#     4  10  22  42  64  82 126 170 208 280 334 400
#     4   9  16  27  46  77 118 166 200 245 305 366
#     4  12  24  40  61  93 121 168 225 275 342 403
#     4  10  20  36  55  83 122 165 208 261 321 388
#     4  10  24  42  63  91 129 170 223 279 336 401
#
# _framework density 24.074584999999999
#
# number of rings (size 3 to 8) (size 9 to 14) (size 15 to 20)
#    0.000    2.182    2.727    1.091    1.273    5.091 
#    1.636    0.000    0.000    0.000    0.000    0.000 
#    0.000   52.364    0.000    0.000    0.000    0.182 
#
# Total GULP energy -245214.188801 kJ/mol
# GULP energy per Si atom -5573.049745 kJ/mol
# Density = 2.401979 g / cm^3
# Si number density = 24.074585 Si / 1000 Ang^3
#
#
#
# Elastic Constant Matrix: (Units=GPa)
#
#
# Indices 1 2 3 4 5 6 
#
# 1 188.1572 26.2801 68.3191 0.0000 0.0000 0.0000
# 2 26.2801 73.6080 25.4184 0.0000 0.0000 0.0000
# 3 68.3191 25.4184 220.9677 0.0000 0.0000 0.0000
# 4 0.0000 0.0000 0.0000 21.2702 0.0000 0.0000
# 5 0.0000 0.0000 0.0000 0.0000 111.5098 0.0000
# 6 0.0000 0.0000 0.0000 0.0000 0.0000 -40.9744
#
#
#
# Elastic Compliance Matrix: (Units=1/GPa)
#
#
# Indices 1 2 3 4 5 6 
#
# 1 0.006164 -0.001606 -0.001721 0.000000 0.000000 0.000000
# 2 -0.001606 0.014566 -0.001179 0.000000 0.000000 0.000000
# 3 -0.001721 -0.001179 0.005193 0.000000 0.000000 0.000000
# 4 0.000000 0.000000 0.000000 0.047014 0.000000 0.000000
# 5 0.000000 0.000000 0.000000 0.000000 0.008968 0.000000
# 6 0.000000 0.000000 0.000000 0.000000 0.000000 -0.024406
#
#
# Mechanical properties :
#
#
# Convention : Reuss Voigt Hill
#
# Bulk Modulus (GPa) = 59.13407 80.30757 69.72082
# Shear Modulus (GPa) = 69.30067 42.54214 55.92141
#
# Velocity S-wave (km/s) = 5.37106 4.20825 4.82481
# Velocity P-wave (km/s) = 7.94233 7.55266 7.74994
#
# Compressibility (1/GPa) = 0.01691073
#
# Stress axis : x y z
#
# Youngs Moduli (GPa) = 162.23344 68.65248 192.55730
#
# Poissons Ratio (x) = 0.11028 0.33139
# Poissons Ratio (y) = 0.26061 0.22701
# Poissons Ratio (z) = 0.27920 0.08093
#
# Static dielectric constant tensor:
#      x y z
#    x 2.034810 0.000000 0.000000 
#    y 0.000000 1.974410 0.000000 
#    z 0.000000 0.000000 1.898540 
# 
# From -- ./inp_files/4508.got.cif
#   From: 2010.05.17/outbox.cif.g08.bks.cpg/sg57_3_cif.got.tgz:4508.got - 2010.06.03 13:58:18.
