data_PCOD9434965
_publ_section_title
;
Structure prediction by ZEFSAII (Michael W. Deem and Ramdas Pophale) SiO2 
 PCOD9434965
Probable space group: P B C M
;
_chemical_formula_sum "Si O2"
_cell_formula_units_Z 56
_cell_length_a 17.148276
_cell_length_b 22.859001
_cell_length_c 8.830080
_cell_angle_alpha 90.000000
_cell_angle_beta 90.000000
_cell_angle_gamma 90.000000
_cell_volume 3461.324766
_symmetry_space_group_name_H-M "P B C M"
_symmetry_group_IT_number 57
_symmetry_cell_setting 'orthorhombic'
loop_
_space_group_symop_operation_xyz
x,y,z
-x,-y,1/2+z
x,1/2-y,-z
-x,1/2+y,1/2-z
-x,-y,-z
x,y,1/2-z
-x,1/2+y,z
x,1/2-y,1/2+z
loop_
_atom_site_type_symbol
_atom_site_label
_atom_site_fract_x
_atom_site_fract_y
_atom_site_fract_z
Si Si1 0.765816 0.461877 0.572348
Si Si2 0.629977 0.979029 0.928016
Si Si3 0.238488 0.660404 0.577148
Si Si4 0.477606 0.922229 0.572132
Si Si5 0.584995 0.191560 0.925538
Si Si6 0.051455 0.552310 0.429682
Si Si7 0.922636 0.187219 0.430432
O O1 0.752882 0.449665 0.750000
O O2 0.709723 0.514138 0.520114
O O3 0.743054 0.405828 0.472647
O O4 0.858342 0.467082 0.548479
O O5 0.647485 0.980402 0.750000
O O6 0.569968 0.926583 0.961533
O O7 0.573917 0.033102 0.973875
O O8 0.209227 0.662315 0.750000
O O9 0.320812 0.692274 0.570380
O O10 0.169551 0.682913 0.470216
O O11 0.467437 0.936525 0.750000
O O12 0.444846 0.860085 0.529819
O O13 0.562700 0.183472 0.750000
O O14 0.554164 0.250000 0.000000
O O15 0.036070 0.553739 0.250000
O O16 0.045559 0.621705 0.481120
O O17 0.000000 0.500000 0.500000
O O18 0.950494 0.250000 0.500000
O O19 0.932874 0.190023 0.250000
#
# Coordination Sequence:
#
# PCOD9434965 Si02
#       7
#     8   8   8   8   8   8   8
#     4  10  19  31  49  72  99 129 162 202 244 292
#     4  10  19  31  48  71  94 122 160 199 241 286
#     4  10  19  30  45  67  95 128 166 202 235 283
#     4  10  20  32  47  66  93 124 159 203 243 279
#     4  11  22  32  44  63  91 126 167 203 241 291
#     4   9  20  35  51  75 104 134 168 205 250 300
#     4  10  20  33  49  72 100 132 170 205 243 296
#
# _framework density 16.178775999999999
#
# number of rings (size 3 to 8) (size 9 to 14) (size 15 to 20)
#    0.000    2.000    1.429    3.857    0.000    8.000 
#    0.000    0.000    0.000    0.000    0.000    1.000 
#    0.000    4.571    0.000    0.000    0.000    0.000 
#
# Total GULP energy -311791.562115 kJ/mol
# GULP energy per Si atom -5567.706466 kJ/mol
# Density = 1.614195 g / cm^3
# Si number density = 16.178776 Si / 1000 Ang^3
#
#
#
# Elastic Constant Matrix: (Units=GPa)
#
#
# Indices 1 2 3 4 5 6 
#
# 1 40.2871 25.9662 18.6439 0.0000 0.0000 0.0000
# 2 25.9662 69.1421 15.1091 0.0000 0.0000 0.0000
# 3 18.6439 15.1091 37.9629 0.0000 0.0000 0.0000
# 4 0.0000 0.0000 0.0000 23.2246 0.0000 0.0000
# 5 0.0000 0.0000 0.0000 0.0000 24.1109 0.0000
# 6 0.0000 0.0000 0.0000 0.0000 0.0000 122.1306
#
#
#
# Elastic Compliance Matrix: (Units=1/GPa)
#
#
# Indices 1 2 3 4 5 6 
#
# 1 0.038937 -0.011439 -0.014570 0.000000 0.000000 0.000000
# 2 -0.011439 0.019201 -0.002024 0.000000 0.000000 0.000000
# 3 -0.014570 -0.002024 0.034302 0.000000 0.000000 0.000000
# 4 0.000000 0.000000 0.000000 0.043058 0.000000 0.000000
# 5 0.000000 0.000000 0.000000 0.000000 0.041475 0.000000
# 6 0.000000 0.000000 0.000000 0.000000 0.000000 0.008188
#
#
# Mechanical properties :
#
#
# Convention : Reuss Voigt Hill
#
# Bulk Modulus (GPa) = 27.49141 29.64783 28.56962
# Shear Modulus (GPa) = 19.73538 39.73808 29.73673
#
# Velocity S-wave (km/s) = 3.49640 4.96137 4.29185
# Velocity P-wave (km/s) = 5.77312 7.15438 6.50054
#
# Compressibility (1/GPa) = 0.03637500
#
# Stress axis : x y z
#
# Youngs Moduli (GPa) = 25.68245 52.08011 29.15245
#
# Poissons Ratio (x) = 0.59574 0.42474
# Poissons Ratio (y) = 0.29378 0.05901
# Poissons Ratio (z) = 0.37418 0.10542
#
# Static dielectric constant tensor:
#      x y z
#    x 1.550590 0.000000 0.000000 
#    y 0.000000 1.574630 0.000000 
#    z 0.000000 0.000000 1.553870 
# 
# From -- ./inp_files/7033.got.cif
#   From: 2010.05.17/outbox.cif.g08.bks.cpg/sg57_4_cif.got.tgz:7033.got - 2010.06.03 13:58:18.
