data_PCOD9434481
_publ_section_title
;
Structure prediction by ZEFSAII (Michael W. Deem and Ramdas Pophale) SiO2 
 PCOD9434481
Probable space group: P B C M
;
_chemical_formula_sum "Si O2"
_cell_formula_units_Z 48
_cell_length_a 15.663457
_cell_length_b 20.962367
_cell_length_c 8.599985
_cell_angle_alpha 90.000000
_cell_angle_beta 90.000000
_cell_angle_gamma 90.000000
_cell_volume 2823.746028
_symmetry_space_group_name_H-M "P B C M"
_symmetry_group_IT_number 57
_symmetry_cell_setting 'orthorhombic'
loop_
_space_group_symop_operation_xyz
x,y,z
-x,-y,1/2+z
x,1/2-y,-z
-x,1/2+y,1/2-z
-x,-y,-z
x,y,1/2-z
-x,1/2+y,z
x,1/2-y,1/2+z
loop_
_atom_site_type_symbol
_atom_site_label
_atom_site_fract_x
_atom_site_fract_y
_atom_site_fract_z
Si Si1 0.567335 0.448178 0.561064
Si Si2 0.885837 0.682170 0.065933
Si Si3 0.298327 0.156691 0.929606
Si Si4 0.261861 0.492486 0.069564
Si Si5 0.516647 0.815464 0.564276
Si Si6 0.923866 0.543705 0.938070
O O1 0.500000 0.500000 0.500000
O O2 0.568039 0.452281 0.750000
O O3 0.662657 0.464415 0.502045
O O4 0.535273 0.378197 0.516156
O O5 0.896498 0.680884 0.250000
O O6 0.918109 0.750000 0.000000
O O7 0.785229 0.678274 0.022211
O O8 0.925844 0.617426 0.994060
O O9 0.289985 0.177395 0.750000
O O10 0.297130 0.079783 0.932361
O O11 0.387315 0.178662 0.999563
O O12 0.251403 0.511828 0.250000
O O13 0.166442 0.486512 0.003907
O O14 0.478734 0.750000 0.500000
O O15 0.520146 0.813514 0.750000
O O16 0.922761 0.544454 0.750000
O O17 0.000000 0.500000 0.000000
#
# Coordination Sequence:
#
# PCOD9434481 Si02
#       6
#     8   8   8   8   8   8
#     4  10  19  33  52  75  99 133 176 218 259 308
#     4  11  21  34  52  77 109 141 175 216 265 323
#     4  10  18  31  50  72 103 138 172 211 261 316
#     4   8  16  31  52  75 101 132 168 213 264 312
#     4  11  22  32  46  69 101 138 178 217 261 310
#     4  10  20  36  57  82 109 140 177 219 272 326
#
# _framework density 16.998695000000001
#
# number of rings (size 3 to 8) (size 9 to 14) (size 15 to 20)
#    0.000    2.000    1.667    4.500    0.000    0.667 
#    0.000    0.833    0.000    1.000    0.000    2.333 
#    0.000    0.000    0.000    0.000    0.000    0.000 
#
# Total GULP energy -267723.023600 kJ/mol
# GULP energy per Si atom -5577.562992 kJ/mol
# Density = 1.696001 g / cm^3
# Si number density = 16.998695 Si / 1000 Ang^3
#
#
#
# Elastic Constant Matrix: (Units=GPa)
#
#
# Indices 1 2 3 4 5 6 
#
# 1 100.3910 77.5498 26.7962 0.0000 0.0000 0.0000
# 2 77.5498 139.0303 41.2153 0.0000 0.0000 0.0000
# 3 26.7962 41.2153 66.4480 0.0000 0.0000 0.0000
# 4 0.0000 0.0000 0.0000 26.3637 0.0000 0.0000
# 5 0.0000 0.0000 0.0000 0.0000 17.7734 0.0000
# 6 0.0000 0.0000 0.0000 0.0000 0.0000 10.4950
#
#
#
# Elastic Compliance Matrix: (Units=1/GPa)
#
#
# Indices 1 2 3 4 5 6 
#
# 1 0.017585 -0.009443 -0.001234 0.000000 0.000000 0.000000
# 2 -0.009443 0.013884 -0.004804 0.000000 0.000000 0.000000
# 3 -0.001234 -0.004804 0.018527 0.000000 0.000000 0.000000
# 4 0.000000 0.000000 0.000000 0.037931 0.000000 0.000000
# 5 0.000000 0.000000 0.000000 0.000000 0.056264 0.000000
# 6 0.000000 0.000000 0.000000 0.000000 0.000000 0.095283
#
#
# Mechanical properties :
#
#
# Convention : Reuss Voigt Hill
#
# Bulk Modulus (GPa) = 52.53830 66.33245 59.43537
# Shear Modulus (GPa) = 18.06494 21.61362 19.83928
#
# Velocity S-wave (km/s) = 3.26348 3.56966 3.42000
# Velocity P-wave (km/s) = 6.72122 7.48978 7.11588
#
# Compressibility (1/GPa) = 0.01903373
#
# Stress axis : x y z
#
# Youngs Moduli (GPa) = 56.86719 72.02640 53.97615
#
# Poissons Ratio (x) = 0.68013 0.06663
# Poissons Ratio (y) = 0.53698 0.25929
# Poissons Ratio (z) = 0.07020 0.34599
#
# Static dielectric constant tensor:
#      x y z
#    x 1.569160 0.000000 0.000000 
#    y 0.000000 1.589040 0.000000 
#    z 0.000000 0.000000 1.586600 
# 
# From -- ./inp_files/4913.got.cif
#   From: 2010.05.17/outbox.cif.g08.bks.cpg/sg57_3_cif.got.tgz:4913.got - 2010.06.03 13:58:18.
