data_PCOD9434733
_publ_section_title
;
Structure prediction by ZEFSAII (Michael W. Deem and Ramdas Pophale) SiO2 
 PCOD9434733
Probable space group: P B C M
;
_chemical_formula_sum "Si O2"
_cell_formula_units_Z 40
_cell_length_a 9.705335
_cell_length_b 8.370030
_cell_length_c 22.187877
_cell_angle_alpha 90.000000
_cell_angle_beta 90.000000
_cell_angle_gamma 90.000000
_cell_volume 1802.408782
_symmetry_space_group_name_H-M "P B C M"
_symmetry_group_IT_number 57
_symmetry_cell_setting 'orthorhombic'
loop_
_space_group_symop_operation_xyz
x,y,z
-x,-y,1/2+z
x,1/2-y,-z
-x,1/2+y,1/2-z
-x,-y,-z
x,y,1/2-z
-x,1/2+y,z
x,1/2-y,1/2+z
loop_
_atom_site_type_symbol
_atom_site_label
_atom_site_fract_x
_atom_site_fract_y
_atom_site_fract_z
Si Si1 0.538371 0.213576 0.846245
Si Si2 0.207646 0.522626 0.823582
Si Si3 0.044974 0.214302 0.680095
Si Si4 0.401618 0.611539 0.039655
Si Si5 0.705715 0.989245 0.159200
O O1 0.511354 0.282822 0.912544
O O2 0.631538 0.351160 0.816441
O O3 0.640819 0.061587 0.847610
O O4 0.395003 0.154642 0.820545
O O5 0.215909 0.520209 0.750000
O O6 0.134938 0.359801 0.845285
O O7 0.103758 0.664173 0.844233
O O8 0.022671 0.253254 0.750000
O O9 0.141783 0.056986 0.677132
O O10 0.306551 0.513621 0.086541
O O11 0.329871 0.750000 0.000000
O O12 0.500000 0.500000 0.000000
#
# Coordination Sequence:
#
# PCOD9434733 Si02
#       5
#     8   8   8   8   8
#     4  10  20  33  56  86 111 148 189 238 280 340
#     4  10  21  37  57  82 116 155 188 227 282 347
#     4  10  21  37  57  82 116 154 191 229 285 349
#     4  10  18  34  55  82 109 144 187 235 292 338
#     4  10  20  33  56  86 109 150 186 241 278 341
#
# _framework density 22.192523000000001
#
# number of rings (size 3 to 8) (size 9 to 14) (size 15 to 20)
#    1.200    0.800    2.000    2.400    0.000    3.200 
#    0.000    0.000    0.000    1.200    5.200    0.000 
#    0.000    0.000    0.000    0.000    0.000    0.000 
#
# Total GULP energy -222837.015110 kJ/mol
# GULP energy per Si atom -5570.925378 kJ/mol
# Density = 2.214201 g / cm^3
# Si number density = 22.192523 Si / 1000 Ang^3
#
#
#
# Elastic Constant Matrix: (Units=GPa)
#
#
# Indices 1 2 3 4 5 6 
#
# 1 97.1247 8.1313 2.0470 0.0000 0.0000 0.0000
# 2 8.1313 76.8667 17.3777 0.0000 0.0000 0.0000
# 3 2.0470 17.3777 83.0861 0.0000 0.0000 0.0000
# 4 0.0000 0.0000 0.0000 27.2677 0.0000 0.0000
# 5 0.0000 0.0000 0.0000 0.0000 16.7967 0.0000
# 6 0.0000 0.0000 0.0000 0.0000 0.0000 34.0144
#
#
#
# Elastic Compliance Matrix: (Units=1/GPa)
#
#
# Indices 1 2 3 4 5 6 
#
# 1 0.010388 -0.001093 -0.000027 0.000000 0.000000 0.000000
# 2 -0.001093 0.013770 -0.002853 0.000000 0.000000 0.000000
# 3 -0.000027 -0.002853 0.012633 0.000000 0.000000 0.000000
# 4 0.000000 0.000000 0.000000 0.036673 0.000000 0.000000
# 5 0.000000 0.000000 0.000000 0.000000 0.059536 0.000000
# 6 0.000000 0.000000 0.000000 0.000000 0.000000 0.029399
#
#
# Mechanical properties :
#
#
# Convention : Reuss Voigt Hill
#
# Bulk Modulus (GPa) = 34.66818 34.68772 34.67795
# Shear Modulus (GPa) = 27.78376 30.91718 29.35047
#
# Velocity S-wave (km/s) = 3.54212 3.73652 3.64062
# Velocity P-wave (km/s) = 5.69072 5.85489 5.77339
#
# Compressibility (1/GPa) = 0.02884490
#
# Stress axis : x y z
#
# Youngs Moduli (GPa) = 96.26400 72.62085 79.15697
#
# Poissons Ratio (x) = 0.07935 0.00217
# Poissons Ratio (y) = 0.10519 0.22585
# Poissons Ratio (z) = 0.00264 0.20720
#
# Static dielectric constant tensor:
#      x y z
#    x 1.773780 0.000000 0.000000 
#    y 0.000000 1.965330 0.000000 
#    z 0.000000 0.000000 1.820480 
# 
# From -- ./inp_files/26509.got.cif
#   From: 2010.05.17/outbox.cif.g08.bks.cpg/sg57_14_cif.got.tgz:26509.got - 2010.06.03 13:58:18.
