data_PCOD9434910
_publ_section_title
;
Structure prediction by ZEFSAII (Michael W. Deem and Ramdas Pophale) SiO2 
 PCOD9434910
Probable space group: P B C M
;
_chemical_formula_sum "Si O2"
_cell_formula_units_Z 64
_cell_length_a 17.000386
_cell_length_b 23.752068
_cell_length_c 8.941579
_cell_angle_alpha 90.000000
_cell_angle_beta 90.000000
_cell_angle_gamma 90.000000
_cell_volume 3610.558850
_symmetry_space_group_name_H-M "P B C M"
_symmetry_group_IT_number 57
_symmetry_cell_setting 'orthorhombic'
loop_
_space_group_symop_operation_xyz
x,y,z
-x,-y,1/2+z
x,1/2-y,-z
-x,1/2+y,1/2-z
-x,-y,-z
x,y,1/2-z
-x,1/2+y,z
x,1/2-y,1/2+z
loop_
_atom_site_type_symbol
_atom_site_label
_atom_site_fract_x
_atom_site_fract_y
_atom_site_fract_z
Si Si1 0.728458 0.430915 0.428675
Si Si2 0.064414 0.692207 0.071814
Si Si3 0.049174 0.107307 0.575857
Si Si4 0.199169 0.191121 0.923541
Si Si5 0.833430 0.983441 0.070205
Si Si6 0.704413 0.899420 0.571163
Si Si7 0.237380 0.805947 0.428327
Si Si8 0.416012 0.489004 0.570719
O O1 0.738672 0.439333 0.250000
O O2 0.805969 0.456292 0.508853
O O3 0.719588 0.364806 0.457061
O O4 0.650733 0.465476 0.475468
O O5 0.066540 0.697997 0.250000
O O6 0.029563 0.750000 0.000000
O O7 0.151478 0.688234 0.003014
O O8 0.016159 0.637120 0.023655
O O9 0.023941 0.105527 0.750000
O O10 0.124367 0.149371 0.566463
O O11 0.083243 0.045905 0.531759
O O12 0.216404 0.199552 0.750000
O O13 0.181093 0.250000 0.000000
O O14 0.272242 0.160123 0.002600
O O15 0.827207 0.981809 0.250000
O O16 0.768469 0.942583 0.996230
O O17 0.712510 0.898138 0.750000
O O18 0.621044 0.927862 0.533402
O O19 0.274174 0.750000 0.500000
O O20 0.228661 0.798702 0.250000
O O21 0.500000 0.500000 0.500000
O O22 0.422420 0.492467 0.750000
#
# Coordination Sequence:
#
# PCOD9434910 Si02
#       8
#     8   8   8   8   8   8   8   8
#     4   9  19  35  54  76 103 132 161 197 244 295
#     4  11  21  32  48  69  94 127 168 213 258 301
#     4   9  18  31  45  66  96 128 165 209 253 294
#     4  10  19  29  44  67  94 128 169 207 244 287
#     4   9  17  29  48  72  97 127 164 204 245 291
#     4   9  17  30  46  66  97 130 161 197 235 280
#     4  10  20  36  56  75  98 128 163 206 251 294
#     4   9  18  32  52  79 104 126 154 189 233 284
#
# _framework density 17.725788000000001
#
# number of rings (size 3 to 8) (size 9 to 14) (size 15 to 20)
#    0.000    2.500    0.000    5.250    0.000    7.500 
#    0.000    0.625    0.000    0.750    0.000    3.500 
#    0.000    0.000    0.000    0.000    0.000    0.000 
#
# Total GULP energy -356720.340792 kJ/mol
# GULP energy per Si atom -5573.755325 kJ/mol
# Density = 1.768544 g / cm^3
# Si number density = 17.725788 Si / 1000 Ang^3
#
#
#
# Elastic Constant Matrix: (Units=GPa)
#
#
# Indices 1 2 3 4 5 6 
#
# 1 40.4391 12.4838 18.9373 0.0000 0.0000 0.0000
# 2 12.4838 73.6035 28.8586 0.0000 0.0000 0.0000
# 3 18.9373 28.8586 63.3288 0.0000 0.0000 0.0000
# 4 0.0000 0.0000 0.0000 29.0716 0.0000 0.0000
# 5 0.0000 0.0000 0.0000 0.0000 21.2757 0.0000
# 6 0.0000 0.0000 0.0000 0.0000 0.0000 22.6908
#
#
#
# Elastic Compliance Matrix: (Units=1/GPa)
#
#
# Indices 1 2 3 4 5 6 
#
# 1 0.028960 -0.001846 -0.007819 0.000000 0.000000 0.000000
# 2 -0.001846 0.016660 -0.007040 0.000000 0.000000 0.000000
# 3 -0.007819 -0.007040 0.021336 0.000000 0.000000 0.000000
# 4 0.000000 0.000000 0.000000 0.034398 0.000000 0.000000
# 5 0.000000 0.000000 0.000000 0.000000 0.047002 0.000000
# 6 0.000000 0.000000 0.000000 0.000000 0.000000 0.044071
#
#
# Mechanical properties :
#
#
# Convention : Reuss Voigt Hill
#
# Bulk Modulus (GPa) = 29.80890 33.10341 31.45615
# Shear Modulus (GPa) = 21.09548 22.41374 21.75461
#
# Velocity S-wave (km/s) = 3.45353 3.55980 3.50706
# Velocity P-wave (km/s) = 5.72326 5.96758 5.84670
#
# Compressibility (1/GPa) = 0.03354703
#
# Stress axis : x y z
#
# Youngs Moduli (GPa) = 34.53058 60.02562 46.86812
#
# Poissons Ratio (x) = 0.11083 0.36644
# Poissons Ratio (y) = 0.06375 0.32993
# Poissons Ratio (z) = 0.26998 0.42255
#
# Static dielectric constant tensor:
#      x y z
#    x 1.598030 0.000000 0.000000 
#    y 0.000000 1.714100 0.000000 
#    z 0.000000 0.000000 1.592370 
# 
# From -- ./inp_files/7364.got.cif
#   From: 2010.05.17/outbox.cif.g08.bks.cpg/sg57_4_cif.got.tgz:7364.got - 2010.06.03 13:58:18.
