data_PCOD9434732
_publ_section_title
;
Structure prediction by ZEFSAII (Michael W. Deem and Ramdas Pophale) SiO2 
 PCOD9434732
Probable space group: P B C M
;
_chemical_formula_sum "Si O2"
_cell_formula_units_Z 40
_cell_length_a 9.949503
_cell_length_b 8.595311
_cell_length_c 22.713463
_cell_angle_alpha 90.000000
_cell_angle_beta 90.000000
_cell_angle_gamma 90.000000
_cell_volume 1942.434291
_symmetry_space_group_name_H-M "P B C M"
_symmetry_group_IT_number 57
_symmetry_cell_setting 'orthorhombic'
loop_
_space_group_symop_operation_xyz
x,y,z
-x,-y,1/2+z
x,1/2-y,-z
-x,1/2+y,1/2-z
-x,-y,-z
x,y,1/2-z
-x,1/2+y,z
x,1/2-y,1/2+z
loop_
_atom_site_type_symbol
_atom_site_label
_atom_site_fract_x
_atom_site_fract_y
_atom_site_fract_z
Si Si1 0.807030 0.503276 0.321611
Si Si2 0.690935 0.995646 0.342147
Si Si3 0.442582 0.815700 0.152345
Si Si4 0.944773 0.815869 0.318300
Si Si5 0.414105 0.383406 0.039785
O O1 0.803300 0.503894 0.250000
O O2 0.659197 0.460073 0.342660
O O3 0.866632 0.667128 0.343319
O O4 0.912748 0.371620 0.342459
O O5 0.583746 0.866760 0.318919
O O6 0.839697 0.958410 0.321594
O O7 0.680602 0.971092 0.413079
O O8 0.632215 0.163067 0.325388
O O9 0.482599 0.796529 0.084204
O O10 0.969095 0.778955 0.250000
O O11 0.347781 0.250000 0.000000
O O12 0.500000 0.500000 0.000000
#
# Coordination Sequence:
#
# PCOD9434732 Si02
#       5
#     8   8   8   8   8
#     4  10  21  37  56  78 109 146 179 216 267 322
#     4  10  20  33  55  84 107 141 179 223 265 314
#     4  10  20  33  55  84 107 141 179 224 263 316
#     4  10  21  37  56  78 109 146 179 217 267 321
#     4  10  18  34  55  80 107 140 176 219 271 318
#
# _framework density 20.592717
#
# number of rings (size 3 to 8) (size 9 to 14) (size 15 to 20)
#    1.200    0.800    2.000    2.400    2.800    3.200 
#    0.000    0.000    0.000    2.400    0.000    0.000 
#    0.000    0.000    0.000    0.000    0.000    0.000 
#
# Total GULP energy -222886.095333 kJ/mol
# GULP energy per Si atom -5572.152383 kJ/mol
# Density = 2.054585 g / cm^3
# Si number density = 20.592717 Si / 1000 Ang^3
#
#
#
# Elastic Constant Matrix: (Units=GPa)
#
#
# Indices 1 2 3 4 5 6 
#
# 1 67.3071 -17.9656 -8.0386 0.0000 0.0000 0.0000
# 2 -17.9656 48.8438 -4.1040 0.0000 0.0000 0.0000
# 3 -8.0386 -4.1040 48.2891 0.0000 0.0000 0.0000
# 4 0.0000 0.0000 0.0000 23.5165 0.0000 0.0000
# 5 0.0000 0.0000 0.0000 0.0000 16.4104 0.0000
# 6 0.0000 0.0000 0.0000 0.0000 0.0000 26.8074
#
#
#
# Elastic Compliance Matrix: (Units=1/GPa)
#
#
# Indices 1 2 3 4 5 6 
#
# 1 0.017008 0.006540 0.003387 0.000000 0.000000 0.000000
# 2 0.006540 0.023136 0.003055 0.000000 0.000000 0.000000
# 3 0.003387 0.003055 0.021532 0.000000 0.000000 0.000000
# 4 0.000000 0.000000 0.000000 0.042523 0.000000 0.000000
# 5 0.000000 0.000000 0.000000 0.000000 0.060937 0.000000
# 6 0.000000 0.000000 0.000000 0.000000 0.000000 0.037303
#
#
# Mechanical properties :
#
#
# Convention : Reuss Voigt Hill
#
# Bulk Modulus (GPa) = 11.41032 11.58040 11.49536
# Shear Modulus (GPa) = 24.30872 26.31674 25.31273
#
# Velocity S-wave (km/s) = 3.43950 3.57874 3.50981
# Velocity P-wave (km/s) = 4.61806 4.76574 4.69248
#
# Compressibility (1/GPa) = 0.08763994
#
# Stress axis : x y z
#
# Youngs Moduli (GPa) = 58.79757 43.22321 46.44233
#
# Poissons Ratio (x) = -0.28269 -0.15730
# Poissons Ratio (y) = -0.38455 -0.14188
# Poissons Ratio (z) = -0.19915 -0.13205
#
# Static dielectric constant tensor:
#      x y z
#    x 1.710800 0.000000 0.000000 
#    y 0.000000 1.816230 0.000000 
#    z 0.000000 0.000000 1.722920 
# 
# From -- ./inp_files/28244.got.cif
#   From: 2010.05.17/outbox.cif.g08.bks.cpg/sg57_15_cif.got.tgz:28244.got - 2010.06.03 13:58:18.
