data_PCOD9434606
_publ_section_title
;
Structure prediction by ZEFSAII (Michael W. Deem and Ramdas Pophale) SiO2 
 PCOD9434606
Probable space group: P B C M
;
_chemical_formula_sum "Si O2"
_cell_formula_units_Z 40
_cell_length_a 26.736180
_cell_length_b 9.539701
_cell_length_c 8.564543
_cell_angle_alpha 90.000000
_cell_angle_beta 90.000000
_cell_angle_gamma 90.000000
_cell_volume 2184.430912
_symmetry_space_group_name_H-M "P B C M"
_symmetry_group_IT_number 57
_symmetry_cell_setting 'orthorhombic'
loop_
_space_group_symop_operation_xyz
x,y,z
-x,-y,1/2+z
x,1/2-y,-z
-x,1/2+y,1/2-z
-x,-y,-z
x,y,1/2-z
-x,1/2+y,z
x,1/2-y,1/2+z
loop_
_atom_site_type_symbol
_atom_site_label
_atom_site_fract_x
_atom_site_fract_y
_atom_site_fract_z
Si Si1 0.349097 0.090117 0.436807
Si Si2 0.545855 0.590720 0.563089
Si Si3 0.045502 0.591865 0.437022
Si Si4 0.244254 0.090930 0.563182
Si Si5 0.152917 0.908389 0.062931
O O1 0.348981 0.250000 0.500000
O O2 0.349271 0.090485 0.250000
O O3 0.401135 0.030349 0.501282
O O4 0.297010 0.029710 0.500283
O O5 0.541297 0.750000 0.500000
O O6 0.500000 0.500000 0.500000
O O7 0.546379 0.593624 0.750000
O O8 0.039754 0.750000 0.500000
O O9 0.046263 0.592695 0.250000
O O10 0.099097 0.539845 0.500713
O O11 0.000000 0.500000 0.500000
O O12 0.239895 0.250000 0.500000
O O13 0.245245 0.093766 0.750000
O O14 0.197843 0.002114 0.501049
O O15 0.152700 0.907326 0.250000
O O16 0.158781 0.750000 0.000000
#
# Coordination Sequence:
#
# PCOD9434606 Si02
#       5
#     8   8   8   8   8
#     4  10  18  32  53  79 108 143 181 224 272 324
#     4  11  21  36  56  81 110 145 183 226 274 327
#     4  11  22  39  60  85 113 147 185 227 273 325
#     4  11  21  36  57  84 112 144 184 230 273 321
#     4  11  22  39  59  83 113 149 184 223 274 331
#
# _framework density 18.311406000000002
#
# number of rings (size 3 to 8) (size 9 to 14) (size 15 to 20)
#    0.000    1.200    0.000   12.600    0.000    0.800 
#    0.000    5.000    0.000    0.000    0.000    0.000 
#    0.000    0.000    0.000    0.000    0.000    0.000 
#
# Total GULP energy -223517.234564 kJ/mol
# GULP energy per Si atom -5587.930864 kJ/mol
# Density = 1.826973 g / cm^3
# Si number density = 18.311406 Si / 1000 Ang^3
#
#
#
# Elastic Constant Matrix: (Units=GPa)
#
#
# Indices 1 2 3 4 5 6 
#
# 1 233.2068 74.5125 100.9628 0.0000 0.0000 0.0000
# 2 74.5125 44.8155 40.1693 0.0000 0.0000 0.0000
# 3 100.9628 40.1693 246.6170 0.0000 0.0000 0.0000
# 4 0.0000 0.0000 0.0000 28.8847 0.0000 0.0000
# 5 0.0000 0.0000 0.0000 0.0000 38.8284 0.0000
# 6 0.0000 0.0000 0.0000 0.0000 0.0000 37.4500
#
#
#
# Elastic Compliance Matrix: (Units=1/GPa)
#
#
# Indices 1 2 3 4 5 6 
#
# 1 0.009636 -0.014620 -0.001564 0.000000 0.000000 0.000000
# 2 -0.014620 0.048311 -0.001883 0.000000 0.000000 0.000000
# 3 -0.001564 -0.001883 0.005002 0.000000 0.000000 0.000000
# 4 0.000000 0.000000 0.000000 0.034620 0.000000 0.000000
# 5 0.000000 0.000000 0.000000 0.000000 0.025754 0.000000
# 6 0.000000 0.000000 0.000000 0.000000 0.000000 0.026702
#
#
# Mechanical properties :
#
#
# Convention : Reuss Voigt Hill
#
# Bulk Modulus (GPa) = 37.29429 106.21427 71.75428
# Shear Modulus (GPa) = 25.62803 41.63226 33.63015
#
# Velocity S-wave (km/s) = 3.74514 4.77337 4.29017
# Velocity P-wave (km/s) = 6.25398 9.40800 7.98820
#
# Compressibility (1/GPa) = 0.02681376
#
# Stress axis : x y z
#
# Youngs Moduli (GPa) = 103.77288 20.69939 199.92828
#
# Poissons Ratio (x) = 0.30263 0.31262
# Poissons Ratio (y) = 1.51721 0.37655
# Poissons Ratio (z) = 0.16227 0.03899
#
# Static dielectric constant tensor:
#      x y z
#    x 1.660120 0.000000 0.000000 
#    y 0.000000 1.726520 0.000000 
#    z 0.000000 0.000000 1.604260 
# 
# From -- ./inp_files/9649.got.cif
#   From: 2010.05.17/outbox.cif.g08.bks.cpg/sg57_5_cif.got.tgz:9649.got - 2010.06.03 13:58:18.
