data_PCOD9434991
_publ_section_title
;
Structure prediction by ZEFSAII (Michael W. Deem and Ramdas Pophale) SiO2 
 PCOD9434991
Probable space group: P B C M
;
_chemical_formula_sum "Si O2"
_cell_formula_units_Z 60
_cell_length_a 29.067100
_cell_length_b 13.237176
_cell_length_c 9.124533
_cell_angle_alpha 90.000000
_cell_angle_beta 90.000000
_cell_angle_gamma 90.000000
_cell_volume 3510.812971
_symmetry_space_group_name_H-M "P B C M"
_symmetry_group_IT_number 57
_symmetry_cell_setting 'orthorhombic'
loop_
_space_group_symop_operation_xyz
x,y,z
-x,-y,1/2+z
x,1/2-y,-z
-x,1/2+y,1/2-z
-x,-y,-z
x,y,1/2-z
-x,1/2+y,z
x,1/2-y,1/2+z
loop_
_atom_site_type_symbol
_atom_site_label
_atom_site_fract_x
_atom_site_fract_y
_atom_site_fract_z
Si Si1 0.398933 0.850693 0.574429
Si Si2 0.732991 0.641049 0.074491
Si Si3 0.977827 0.146977 0.077099
Si Si4 0.364548 0.055337 0.421779
Si Si5 0.491778 0.606113 0.918571
Si Si6 0.573305 0.750000 0.000000
Si Si7 0.071237 0.037586 0.424834
Si Si8 0.165206 0.140601 0.073764
O O1 0.377019 0.750000 0.500000
O O2 0.396151 0.844884 0.750000
O O3 0.451366 0.849952 0.518104
O O4 0.381373 0.959568 0.515823
O O5 0.731136 0.654213 0.250000
O O6 0.688098 0.578010 0.033783
O O7 0.783793 0.598883 0.037998
O O8 0.729596 0.750000 0.000000
O O9 0.971620 0.152750 0.250000
O O10 0.031568 0.120848 0.048702
O O11 0.965668 0.250000 0.000000
O O12 0.946873 0.058811 0.010699
O O13 0.366612 0.027690 0.250000
O O14 0.393422 0.161033 0.437060
O O15 0.476728 0.590168 0.750000
O O16 0.500000 0.500000 0.000000
O O17 0.536584 0.678335 0.914681
O O18 0.071618 0.017412 0.250000
O O19 0.121573 0.074146 0.470890
O O20 0.162679 0.152464 0.250000
O O21 0.161527 0.250000 0.000000
#
# Coordination Sequence:
#
# PCOD9434991 Si02
#       8
#     8   8   8   8   8   4   8   8
#     4  12  26  43  63  83 110 145 186 227 272 325
#     4   9  18  33  54  82 112 142 173 215 267 323
#     4  10  19  30  46  69 100 138 178 220 263 311
#     4  11  23  39  60  86 117 148 183 225 273 327
#     4  12  25  39  57  83 116 150 186 220 263 316
#     4  12  24  36  62  86 122 148 184 216 272 316
#     4   9  18  31  47  70 101 138 177 217 261 312
#     4   9  17  30  50  76 107 140 175 215 265 318
#
# _framework density 17.090057999999999
#
# number of rings (size 3 to 8) (size 9 to 14) (size 15 to 20)
#    0.000    1.600    2.667    2.800    0.000    3.200 
#    0.000    0.000    0.000    0.800    0.000    0.000 
#    0.000    0.000    0.000    0.000    0.000    0.000 
#
# Total GULP energy -334284.436319 kJ/mol
# GULP energy per Si atom -5571.407272 kJ/mol
# Density = 1.705116 g / cm^3
# Si number density = 17.090058 Si / 1000 Ang^3
#
#
#
# Elastic Constant Matrix: (Units=GPa)
#
#
# Indices 1 2 3 4 5 6 
#
# 1 136.6033 52.1007 38.1614 0.0000 0.0000 0.0000
# 2 52.1007 111.5590 47.9157 0.0000 0.0000 0.0000
# 3 38.1614 47.9157 67.6793 0.0000 0.0000 0.0000
# 4 0.0000 0.0000 0.0000 19.0255 0.0000 0.0000
# 5 0.0000 0.0000 0.0000 0.0000 18.6600 0.0000
# 6 0.0000 0.0000 0.0000 0.0000 0.0000 16.8413
#
#
#
# Elastic Compliance Matrix: (Units=1/GPa)
#
#
# Indices 1 2 3 4 5 6 
#
# 1 0.009347 -0.003020 -0.003132 0.000000 0.000000 0.000000
# 2 -0.003020 0.013856 -0.008107 0.000000 0.000000 0.000000
# 3 -0.003132 -0.008107 0.022282 0.000000 0.000000 0.000000
# 4 0.000000 0.000000 0.000000 0.052561 0.000000 0.000000
# 5 0.000000 0.000000 0.000000 0.000000 0.053591 0.000000
# 6 0.000000 0.000000 0.000000 0.000000 0.000000 0.059378
#
#
# Mechanical properties :
#
#
# Convention : Reuss Voigt Hill
#
# Bulk Modulus (GPa) = 58.94153 65.79968 62.37061
# Shear Modulus (GPa) = 20.39237 22.74960 21.57098
#
# Velocity S-wave (km/s) = 3.45806 3.65246 3.55659
# Velocity P-wave (km/s) = 7.10689 7.50817 7.31029
#
# Compressibility (1/GPa) = 0.01696597
#
# Stress axis : x y z
#
# Youngs Moduli (GPa) = 106.98166 72.16866 44.88016
#
# Poissons Ratio (x) = 0.21795 0.14059
# Poissons Ratio (y) = 0.32309 0.36385
# Poissons Ratio (z) = 0.33512 0.58509
#
# Static dielectric constant tensor:
#      x y z
#    x 1.598270 0.000000 0.000000 
#    y 0.000000 1.576400 0.000000 
#    z 0.000000 0.000000 1.572930 
# 
# From -- ./inp_files/10252.got.cif
#   From: 2010.05.17/outbox.cif.g08.bks.cpg/sg57_6_cif.got.tgz:10252.got - 2010.06.03 13:58:18.
