data_PCOD9434288
_publ_section_title
;
Structure prediction by ZEFSAII (Michael W. Deem and Ramdas Pophale) SiO2 
 PCOD9434288
Probable space group: P B C M
;
_chemical_formula_sum "Si O2"
_cell_formula_units_Z 56
_cell_length_a 9.254779
_cell_length_b 17.905793
_cell_length_c 17.304115
_cell_angle_alpha 90.000000
_cell_angle_beta 90.000000
_cell_angle_gamma 90.000000
_cell_volume 2867.536830
_symmetry_space_group_name_H-M "P B C M"
_symmetry_group_IT_number 57
_symmetry_cell_setting 'orthorhombic'
loop_
_space_group_symop_operation_xyz
x,y,z
-x,-y,1/2+z
x,1/2-y,-z
-x,1/2+y,1/2-z
-x,-y,-z
x,y,1/2-z
-x,1/2+y,z
x,1/2-y,1/2+z
loop_
_atom_site_type_symbol
_atom_site_label
_atom_site_fract_x
_atom_site_fract_y
_atom_site_fract_z
Si Si1 0.040926 0.559993 0.343908
Si Si2 0.289254 0.679833 0.555767
Si Si3 0.645711 0.085700 0.411856
Si Si4 0.494017 0.232025 0.342675
Si Si5 0.787889 0.658959 0.338833
Si Si6 0.591575 0.509027 0.335059
Si Si7 0.129633 0.910437 0.161558
O O1 0.041755 0.563459 0.250000
O O2 0.938508 0.628526 0.372425
O O3 0.970641 0.479480 0.363356
O O4 0.199018 0.566250 0.377861
O O5 0.261360 0.750000 0.500000
O O6 0.335398 0.613023 0.499047
O O7 0.419549 0.704473 0.612161
O O8 0.146665 0.658199 0.604009
O O9 0.580660 0.156091 0.363924
O O10 0.531773 0.019556 0.397945
O O11 0.495113 0.242428 0.250000
O O12 0.327708 0.218948 0.370131
O O13 0.816666 0.681550 0.250000
O O14 0.692871 0.582735 0.336639
O O15 0.521031 0.506122 0.250000
O O16 0.706694 0.443129 0.339751
O O17 0.094115 0.890152 0.250000
#
# Coordination Sequence:
#
# PCOD9434288 Si02
#       7
#     8   8   8   8   8   8   8
#     4   9  16  28  50  77  99 122 157 203 254 302
#     4  10  21  32  46  69  98 131 168 200 238 295
#     4  10  18  28  47  76 105 127 154 200 256 305
#     4   9  16  30  51  69  92 130 173 211 241 283
#     4   7  12  24  45  72  93 115 156 204 243 280
#     4   8  14  27  48  72  94 118 153 196 242 290
#     4   9  18  33  52  71  93 123 161 204 246 292
#
# _framework density 19.528956000000001
#
# number of rings (size 3 to 8) (size 9 to 14) (size 15 to 20)
#    0.000    3.143    0.000    4.286    0.000    1.143 
#    0.000    0.000    0.000   21.429    0.000   10.000 
#    0.000    0.000    0.000    0.000    0.000    0.000 
#
# Total GULP energy -311742.327813 kJ/mol
# GULP energy per Si atom -5566.827282 kJ/mol
# Density = 1.948451 g / cm^3
# Si number density = 19.528956 Si / 1000 Ang^3
#
#
#
# Elastic Constant Matrix: (Units=GPa)
#
#
# Indices 1 2 3 4 5 6 
#
# 1 75.7800 2.3809 2.9462 0.0000 0.0000 0.0000
# 2 2.3809 16.6743 4.1214 0.0000 0.0000 0.0000
# 3 2.9462 4.1214 47.7025 0.0000 0.0000 0.0000
# 4 0.0000 0.0000 0.0000 17.2305 0.0000 0.0000
# 5 0.0000 0.0000 0.0000 0.0000 4.1583 0.0000
# 6 0.0000 0.0000 0.0000 0.0000 0.0000 7.7790
#
#
#
# Elastic Compliance Matrix: (Units=1/GPa)
#
#
# Indices 1 2 3 4 5 6 
#
# 1 0.013277 -0.001730 -0.000671 0.000000 0.000000 0.000000
# 2 -0.001730 0.061507 -0.005207 0.000000 0.000000 0.000000
# 3 -0.000671 -0.005207 0.021455 0.000000 0.000000 0.000000
# 4 0.000000 0.000000 0.000000 0.058037 0.000000 0.000000
# 5 0.000000 0.000000 0.000000 0.000000 0.240483 0.000000
# 6 0.000000 0.000000 0.000000 0.000000 0.000000 0.128550
#
#
# Mechanical properties :
#
#
# Convention : Reuss Voigt Hill
#
# Bulk Modulus (GPa) = 12.34230 17.67264 15.00747
# Shear Modulus (GPa) = 8.84126 14.54746 11.69436
#
# Velocity S-wave (km/s) = 2.13004 2.73228 2.44974
# Velocity P-wave (km/s) = 3.51897 4.36152 3.96270
#
# Compressibility (1/GPa) = 0.08102221
#
# Stress axis : x y z
#
# Youngs Moduli (GPa) = 75.32093 16.25842 46.61010
#
# Poissons Ratio (x) = 0.02813 0.03125
# Poissons Ratio (y) = 0.13031 0.24271
# Poissons Ratio (z) = 0.05050 0.08466
#
# Static dielectric constant tensor:
#      x y z
#    x 1.682700 0.000000 0.000000 
#    y 0.000000 1.751990 0.000000 
#    z 0.000000 0.000000 1.709270 
# 
# From -- ./inp_files/21333.got.cif
#   From: 2010.05.17/outbox.cif.g08.bks.cpg/sg57_11_cif.got.tgz:21333.got - 2010.06.03 13:58:18.
