data_PCOD9434040
_publ_section_title
;
Structure prediction by ZEFSAII (Michael W. Deem and Ramdas Pophale) SiO2 
 PCOD9434040
Probable space group: P B C M
;
_chemical_formula_sum "Si O2"
_cell_formula_units_Z 64
_cell_length_a 5.329705
_cell_length_b 23.351220
_cell_length_c 29.466073
_cell_angle_alpha 90.000000
_cell_angle_beta 90.000000
_cell_angle_gamma 90.000000
_cell_volume 3667.203474
_symmetry_space_group_name_H-M "P B C M"
_symmetry_group_IT_number 57
_symmetry_cell_setting 'orthorhombic'
loop_
_space_group_symop_operation_xyz
x,y,z
-x,-y,1/2+z
x,1/2-y,-z
-x,1/2+y,1/2-z
-x,-y,-z
x,y,1/2-z
-x,1/2+y,z
x,1/2-y,1/2+z
loop_
_atom_site_type_symbol
_atom_site_label
_atom_site_fract_x
_atom_site_fract_y
_atom_site_fract_z
Si Si1 0.225515 0.258466 0.356071
Si Si2 0.725060 0.256957 0.302470
Si Si3 0.713410 0.956327 0.452019
Si Si4 0.787215 0.071585 0.007221
Si Si5 0.352408 0.813755 0.480406
Si Si6 0.277853 0.896135 0.198023
Si Si7 0.143211 0.218038 0.548402
Si Si8 0.221987 0.398029 0.144689
O O1 0.479712 0.240010 0.331200
O O2 0.204995 0.241867 0.409069
O O3 0.224987 0.328372 0.358813
O O4 0.981950 0.240284 0.327649
O O5 0.715383 0.237736 0.250000
O O6 0.723565 0.326478 0.301383
O O7 0.432372 0.944328 0.470751
O O8 0.756484 0.928727 0.403417
O O9 0.934922 0.934773 0.486119
O O10 0.751790 0.025311 0.453398
O O11 0.727687 0.138201 0.016184
O O12 0.377252 0.750000 0.500000
O O13 0.622518 0.824177 0.458534
O O14 0.125688 0.811831 0.444298
O O15 0.261887 0.915361 0.250000
O O16 0.536725 0.913829 0.174741
O O17 0.036105 0.914072 0.169413
O O18 0.115528 0.250000 0.500000
#
# Coordination Sequence:
#
# PCOD9434040 Si02
#       8
#     8   8   8   8   8   8   8   8
#     4  10  17  26  42  58  81 116 145 180 220 263
#     4   9  17  27  39  58  81 109 146 180 218 268
#     4  10  20  30  45  65  89 123 155 187 223 265
#     4  10  19  32  45  63  91 120 155 193 227 263
#     4  10  19  31  47  64  87 121 157 192 230 268
#     4   9  17  27  39  57  83 112 142 182 221 256
#     4  10  20  31  44  65  89 117 154 192 231 274
#     4  10  17  26  41  60  81 112 154 178 208 269
#
# _framework density 17.451989000000001
#
# number of rings (size 3 to 8) (size 9 to 14) (size 15 to 20)
#    0.000    2.250    0.000    4.500    0.000    5.000 
#    0.000    0.000    0.000    0.000    0.000    0.000 
#    0.000    0.000    0.000   90.000    0.000   23.250 
#
# Total GULP energy -356570.428059 kJ/mol
# GULP energy per Si atom -5571.412938 kJ/mol
# Density = 1.741227 g / cm^3
# Si number density = 17.451989 Si / 1000 Ang^3
#
#
#
# Elastic Constant Matrix: (Units=GPa)
#
#
# Indices 1 2 3 4 5 6 
#
# 1 139.1504 -4.0987 35.3043 0.0000 0.0000 0.0000
# 2 -4.0987 47.3162 1.6922 0.0000 0.0000 0.0000
# 3 35.3043 1.6922 103.6701 0.0000 0.0000 0.0000
# 4 0.0000 0.0000 0.0000 15.3172 0.0000 0.0000
# 5 0.0000 0.0000 0.0000 0.0000 23.2850 0.0000
# 6 0.0000 0.0000 0.0000 0.0000 0.0000 8.8677
#
#
#
# Elastic Compliance Matrix: (Units=1/GPa)
#
#
# Indices 1 2 3 4 5 6 
#
# 1 0.007895 0.000780 -0.002701 0.000000 0.000000 0.000000
# 2 0.000780 0.021224 -0.000612 0.000000 0.000000 0.000000
# 3 -0.002701 -0.000612 0.010576 0.000000 0.000000 0.000000
# 4 0.000000 0.000000 0.000000 0.065286 0.000000 0.000000
# 5 0.000000 0.000000 0.000000 0.000000 0.042946 0.000000
# 6 0.000000 0.000000 0.000000 0.000000 0.000000 0.112769
#
#
# Mechanical properties :
#
#
# Convention : Reuss Voigt Hill
#
# Bulk Modulus (GPa) = 28.87788 39.54803 34.21296
# Shear Modulus (GPa) = 18.03073 26.64323 22.33698
#
# Velocity S-wave (km/s) = 3.21777 3.91149 3.58146
# Velocity P-wave (km/s) = 5.51256 6.56581 6.06211
#
# Compressibility (1/GPa) = 0.03462858
#
# Stress axis : x y z
#
# Youngs Moduli (GPa) = 126.66553 47.11663 94.55475
#
# Poissons Ratio (x) = -0.03677 0.25542
# Poissons Ratio (y) = -0.09886 0.05789
# Poissons Ratio (z) = 0.34216 0.02885
#
# Static dielectric constant tensor:
#      x y z
#    x 1.657040 0.000000 0.000000 
#    y 0.000000 1.708080 0.000000 
#    z 0.000000 0.000000 1.640420 
# 
# From -- ./inp_files/26388.got.cif
#   From: 2010.05.17/outbox.cif.g08.bks.cpg/sg57_14_cif.got.tgz:26388.got - 2010.06.03 13:58:18.
