data_PCOD9434187
_publ_section_title
;
Structure prediction by ZEFSAII (Michael W. Deem and Ramdas Pophale) SiO2 
 PCOD9434187
Probable space group: P B C M
;
_chemical_formula_sum "Si O2"
_cell_formula_units_Z 64
_cell_length_a 27.227291
_cell_length_b 19.109964
_cell_length_c 8.616288
_cell_angle_alpha 90.000000
_cell_angle_beta 90.000000
_cell_angle_gamma 90.000000
_cell_volume 4483.162788
_symmetry_space_group_name_H-M "P B C M"
_symmetry_group_IT_number 57
_symmetry_cell_setting 'orthorhombic'
loop_
_space_group_symop_operation_xyz
x,y,z
-x,-y,1/2+z
x,1/2-y,-z
-x,1/2+y,1/2-z
-x,-y,-z
x,y,1/2-z
-x,1/2+y,z
x,1/2-y,1/2+z
loop_
_atom_site_type_symbol
_atom_site_label
_atom_site_fract_x
_atom_site_fract_y
_atom_site_fract_z
Si Si1 0.452775 0.541434 0.063030
Si Si2 0.397020 0.088960 0.937714
Si Si3 0.806279 0.827863 0.935253
Si Si4 0.301080 0.172358 0.563125
Si Si5 0.951363 0.461558 0.436453
Si Si6 0.896658 0.586317 0.936216
Si Si7 0.508483 0.672309 0.063793
Si Si8 0.005367 0.327847 0.063428
O O1 0.453703 0.541117 0.250000
O O2 0.407561 0.491754 0.015216
O O3 0.463367 0.621152 0.014613
O O4 0.500000 0.500000 0.000000
O O5 0.399685 0.092881 0.750000
O O6 0.344642 0.120169 0.984315
O O7 0.441189 0.136492 0.003740
O O8 0.805890 0.825042 0.750000
O O9 0.817097 0.750000 0.000000
O O10 0.752189 0.847213 0.996994
O O11 0.847694 0.880441 0.994910
O O12 0.312584 0.250000 0.500000
O O13 0.298377 0.175056 0.750000
O O14 0.950229 0.465898 0.250000
O O15 0.907547 0.507642 0.505669
O O16 0.000000 0.500000 0.500000
O O17 0.961053 0.380731 0.480962
O O18 0.894887 0.586755 0.750000
O O19 0.943263 0.635060 0.985153
O O20 0.510437 0.674388 0.250000
O O21 0.503794 0.750000 0.000000
O O22 0.006338 0.324853 0.250000
O O23 0.001191 0.250000 0.000000
#
# Coordination Sequence:
#
# PCOD9434187 Si02
#       8
#     8   8   8   8   8   8   8   8
#     4   8  15  27  40  56  77 103 133 166 201 238
#     4   9  17  29  44  59  78 105 138 171 205 242
#     4  11  21  32  45  61  83 110 139 174 209 244
#     4  10  19  30  43  59  80 106 135 170 205 240
#     4   9  17  29  42  60  84 111 142 176 211 248
#     4  10  19  31  45  62  83 111 145 177 210 250
#     4  10  18  26  39  58  82 109 137 167 200 239
#     4   9  18  28  41  61  85 111 140 171 203 241
#
# _framework density 14.275637
#
# number of rings (size 3 to 8) (size 9 to 14) (size 15 to 20)
#    0.000    2.500    0.000    4.875    0.000    6.500 
#    0.000    0.000    0.000    0.000    0.000    0.000 
#    0.000    1.000    0.000    9.250    0.000    2.500 
#
# Total GULP energy -356403.847228 kJ/mol
# GULP energy per Si atom -5568.810113 kJ/mol
# Density = 1.424314 g / cm^3
# Si number density = 14.275637 Si / 1000 Ang^3
#
#
#
# Elastic Constant Matrix: (Units=GPa)
#
#
# Indices 1 2 3 4 5 6 
#
# 1 90.2676 62.3148 29.4814 0.0000 0.0000 0.0000
# 2 62.3148 118.1354 28.5315 0.0000 0.0000 0.0000
# 3 29.4814 28.5315 44.0576 0.0000 0.0000 0.0000
# 4 0.0000 0.0000 0.0000 19.6075 0.0000 0.0000
# 5 0.0000 0.0000 0.0000 0.0000 16.5426 0.0000
# 6 0.0000 0.0000 0.0000 0.0000 0.0000 28.7095
#
#
#
# Elastic Compliance Matrix: (Units=1/GPa)
#
#
# Indices 1 2 3 4 5 6 
#
# 1 0.019307 -0.008374 -0.007497 0.000000 0.000000 0.000000
# 2 -0.008374 0.013666 -0.003247 0.000000 0.000000 0.000000
# 3 -0.007497 -0.003247 0.029817 0.000000 0.000000 0.000000
# 4 0.000000 0.000000 0.000000 0.051001 0.000000 0.000000
# 5 0.000000 0.000000 0.000000 0.000000 0.060450 0.000000
# 6 0.000000 0.000000 0.000000 0.000000 0.000000 0.034832
#
#
# Mechanical properties :
#
#
# Convention : Reuss Voigt Hill
#
# Bulk Modulus (GPa) = 40.72416 54.79066 47.75741
# Shear Modulus (GPa) = 19.57008 21.78079 20.67544
#
# Velocity S-wave (km/s) = 3.70655 3.91030 3.80979
# Velocity P-wave (km/s) = 6.84886 7.67145 7.27180
#
# Compressibility (1/GPa) = 0.02455545
#
# Stress axis : x y z
#
# Youngs Moduli (GPa) = 51.79383 73.17415 33.53835
#
# Poissons Ratio (x) = 0.61274 0.25143
# Poissons Ratio (y) = 0.43371 0.10889
# Poissons Ratio (z) = 0.38829 0.23757
#
# Static dielectric constant tensor:
#      x y z
#    x 1.447540 0.000000 0.000000 
#    y 0.000000 1.489680 0.000000 
#    z 0.000000 0.000000 1.477110 
# 
# From -- ./inp_files/9813.got.cif
#   From: 2010.05.17/outbox.cif.g08.bks.cpg/sg57_5_cif.got.tgz:9813.got - 2010.06.03 13:58:18.
