data_PCOD9434229
_publ_section_title
;
Structure prediction by ZEFSAII (Michael W. Deem and Ramdas Pophale) SiO2 
 PCOD9434229
Probable space group: P B C M
;
_chemical_formula_sum "Si O2"
_cell_formula_units_Z 48
_cell_length_a 10.498084
_cell_length_b 30.745101
_cell_length_c 9.228052
_cell_angle_alpha 90.000000
_cell_angle_beta 90.000000
_cell_angle_gamma 90.000000
_cell_volume 2978.489001
_symmetry_space_group_name_H-M "P B C M"
_symmetry_group_IT_number 57
_symmetry_cell_setting 'orthorhombic'
loop_
_space_group_symop_operation_xyz
x,y,z
-x,-y,1/2+z
x,1/2-y,-z
-x,1/2+y,1/2-z
-x,-y,-z
x,y,1/2-z
-x,1/2+y,z
x,1/2-y,1/2+z
loop_
_atom_site_type_symbol
_atom_site_label
_atom_site_fract_x
_atom_site_fract_y
_atom_site_fract_z
Si Si1 0.506259 0.118575 0.577017
Si Si2 0.518285 0.293510 0.581991
Si Si3 0.613496 0.474335 0.077223
Si Si4 0.122930 0.019327 0.076284
Si Si5 0.207709 0.207355 0.084114
Si Si6 0.766743 0.612253 0.074652
O O1 0.491995 0.124815 0.750000
O O2 0.554763 0.162668 0.502188
O O3 0.594926 0.076879 0.550396
O O4 0.368671 0.108284 0.505716
O O5 0.561476 0.250000 0.500000
O O6 0.557114 0.294189 0.750000
O O7 0.362862 0.292720 0.580104
O O8 0.601684 0.481495 0.250000
O O9 0.749786 0.493157 0.031888
O O10 0.500000 0.500000 0.000000
O O11 0.109810 0.015428 0.250000
O O12 0.149051 0.070095 0.043043
O O13 0.000000 0.000000 0.000000
O O14 0.167493 0.211390 0.250000
O O15 0.173449 0.158864 0.031284
O O16 0.163663 0.250000 0.000000
O O17 0.744375 0.613823 0.250000
#
# Coordination Sequence:
#
# PCOD9434229 Si02
#       6
#     8   8   8   8   8   8
#     4  10  18  27  44  71  96 123 161 203 246 294
#     4   9  16  26  40  61  93 129 159 194 241 292
#     4  10  20  33  51  73  98 128 166 208 248 294
#     4  10  21  36  51  70  98 131 167 208 252 299
#     4   8  14  23  37  59  86 118 150 184 229 278
#     4   9  17  30  46  64  93 129 160 196 244 291
#
# _framework density 16.115555000000001
#
# number of rings (size 3 to 8) (size 9 to 14) (size 15 to 20)
#    0.000    2.667    1.667    2.000    0.000    6.000 
#    0.000    0.000    0.000    0.000    0.000    1.167 
#    0.000    5.333    0.000    0.000    0.000    0.000 
#
# Total GULP energy -267375.069887 kJ/mol
# GULP energy per Si atom -5570.313956 kJ/mol
# Density = 1.607888 g / cm^3
# Si number density = 16.115555 Si / 1000 Ang^3
#
#
#
# Elastic Constant Matrix: (Units=GPa)
#
#
# Indices 1 2 3 4 5 6 
#
# 1 67.4951 61.4892 29.8938 0.0000 0.0000 0.0000
# 2 61.4892 182.0130 71.4979 0.0000 0.0000 0.0000
# 3 29.8938 71.4979 56.2910 0.0000 0.0000 0.0000
# 4 0.0000 0.0000 0.0000 30.7685 0.0000 0.0000
# 5 0.0000 0.0000 0.0000 0.0000 17.7326 0.0000
# 6 0.0000 0.0000 0.0000 0.0000 0.0000 12.4305
#
#
#
# Elastic Compliance Matrix: (Units=1/GPa)
#
#
# Indices 1 2 3 4 5 6 
#
# 1 0.021952 -0.005661 -0.004467 0.000000 0.000000 0.000000
# 2 -0.005661 0.012425 -0.012775 0.000000 0.000000 0.000000
# 3 -0.004467 -0.012775 0.036363 0.000000 0.000000 0.000000
# 4 0.000000 0.000000 0.000000 0.032501 0.000000 0.000000
# 5 0.000000 0.000000 0.000000 0.000000 0.056393 0.000000
# 6 0.000000 0.000000 0.000000 0.000000 0.000000 0.080448
#
#
# Mechanical properties :
#
#
# Convention : Reuss Voigt Hill
#
# Bulk Modulus (GPa) = 40.10699 70.17344 55.14022
# Shear Modulus (GPa) = 16.99527 21.71418 19.35473
#
# Velocity S-wave (km/s) = 3.25096 3.67468 3.46930
# Velocity P-wave (km/s) = 6.24763 7.85130 7.09492
#
# Compressibility (1/GPa) = 0.02493331
#
# Stress axis : x y z
#
# Youngs Moduli (GPa) = 45.55428 80.48378 27.50027
#
# Poissons Ratio (x) = 0.45563 0.12285
# Poissons Ratio (y) = 0.25789 0.35132
# Poissons Ratio (z) = 0.20350 1.02818
#
# Static dielectric constant tensor:
#      x y z
#    x 1.495760 0.000000 0.000000 
#    y 0.000000 1.574460 0.000000 
#    z 0.000000 0.000000 1.542800 
# 
# From -- ./inp_files/3531.got.cif
#   From: 2010.05.17/outbox.cif.g08.bks.cpg/sg57_2_cif.got.tgz:3531.got - 2010.06.03 13:58:18.
