data_PCOD9434305
_publ_section_title
;
Structure prediction by ZEFSAII (Michael W. Deem and Ramdas Pophale) SiO2 
 PCOD9434305
Probable space group: P B C M
;
_chemical_formula_sum "Si O2"
_cell_formula_units_Z 64
_cell_length_a 21.016766
_cell_length_b 21.163385
_cell_length_c 8.916086
_cell_angle_alpha 90.000000
_cell_angle_beta 90.000000
_cell_angle_gamma 90.000000
_cell_volume 3965.749428
_symmetry_space_group_name_H-M "P B C M"
_symmetry_group_IT_number 57
_symmetry_cell_setting 'orthorhombic'
loop_
_space_group_symop_operation_xyz
x,y,z
-x,-y,1/2+z
x,1/2-y,-z
-x,1/2+y,1/2-z
-x,-y,-z
x,y,1/2-z
-x,1/2+y,z
x,1/2-y,1/2+z
loop_
_atom_site_type_symbol
_atom_site_label
_atom_site_fract_x
_atom_site_fract_y
_atom_site_fract_z
Si Si1 0.444644 0.042037 0.070778
Si Si2 0.981631 0.815121 0.930159
Si Si3 0.686188 0.515226 0.919600
Si Si4 0.824434 0.506874 0.568707
Si Si5 0.578294 0.814053 0.928292
Si Si6 0.160483 0.354875 0.929421
Si Si7 0.288950 0.334476 0.419736
Si Si8 0.955829 0.445695 0.930352
O O1 0.448907 0.041062 0.250000
O O2 0.447287 0.116503 0.022723
O O3 0.376517 0.013663 0.019902
O O4 0.500000 0.000000 0.000000
O O5 0.985104 0.811599 0.750000
O O6 0.907488 0.825738 0.970604
O O7 0.020131 0.877054 0.980119
O O8 0.004692 0.750000 0.000000
O O9 0.670941 0.493924 0.750000
O O10 0.752846 0.484704 0.971638
O O11 0.704466 0.589446 0.911726
O O12 0.823849 0.517945 0.750000
O O13 0.839329 0.572429 0.484894
O O14 0.882211 0.459902 0.534584
O O15 0.572815 0.810230 0.750000
O O16 0.550086 0.750000 0.000000
O O17 0.652293 0.815082 0.977230
O O18 0.168385 0.352760 0.750000
O O19 0.220341 0.322388 0.009566
O O20 0.294866 0.309635 0.250000
O O21 0.963089 0.448793 0.750000
O O22 0.000000 0.500000 0.000000
#
# Coordination Sequence:
#
# PCOD9434305 Si02
#       8
#     8   8   8   8   8   8   8   8
#     4  10  20  33  51  75 102 134 166 201 242 288
#     4  10  22  35  46  64  92 125 161 202 249 300
#     4   8  15  28  45  69  97 125 157 194 238 289
#     4   9  17  29  49  72  95 123 157 201 250 295
#     4  10  20  33  49  71  98 131 169 205 242 285
#     4  10  18  29  44  65  93 124 162 203 240 284
#     4   9  17  29  45  65  92 128 165 200 238 279
#     4  10  19  33  51  73  95 121 161 206 252 299
#
# _framework density 16.138186000000001
#
# number of rings (size 3 to 8) (size 9 to 14) (size 15 to 20)
#    0.000    2.500    1.250    2.250    0.000    6.500 
#    0.000    1.250    0.000    0.000    0.000    0.875 
#    0.000    2.000    0.000    0.000    0.000    0.000 
#
# Total GULP energy -356681.814792 kJ/mol
# GULP energy per Si atom -5573.153356 kJ/mol
# Density = 1.610145 g / cm^3
# Si number density = 16.138186 Si / 1000 Ang^3
#
#
#
# Elastic Constant Matrix: (Units=GPa)
#
#
# Indices 1 2 3 4 5 6 
#
# 1 103.2983 59.3706 31.7222 0.0000 0.0000 0.0000
# 2 59.3706 101.9799 28.1817 0.0000 0.0000 0.0000
# 3 31.7222 28.1817 33.8481 0.0000 0.0000 0.0000
# 4 0.0000 0.0000 0.0000 22.7419 0.0000 0.0000
# 5 0.0000 0.0000 0.0000 0.0000 21.7101 0.0000
# 6 0.0000 0.0000 0.0000 0.0000 0.0000 12.6779
#
#
#
# Elastic Compliance Matrix: (Units=1/GPa)
#
#
# Indices 1 2 3 4 5 6 
#
# 1 0.016741 -0.007027 -0.009839 0.000000 0.000000 0.000000
# 2 -0.007027 0.015686 -0.006474 0.000000 0.000000 0.000000
# 3 -0.009839 -0.006474 0.044155 0.000000 0.000000 0.000000
# 4 0.000000 0.000000 0.000000 0.043972 0.000000 0.000000
# 5 0.000000 0.000000 0.000000 0.000000 0.046062 0.000000
# 6 0.000000 0.000000 0.000000 0.000000 0.000000 0.078877
#
#
# Mechanical properties :
#
#
# Convention : Reuss Voigt Hill
#
# Bulk Modulus (GPa) = 33.44297 53.07503 43.25900
# Shear Modulus (GPa) = 16.54859 19.41608 17.98234
#
# Velocity S-wave (km/s) = 3.20571 3.47236 3.34169
# Velocity P-wave (km/s) = 5.87111 7.00254 6.46164
#
# Compressibility (1/GPa) = 0.02990165
#
# Stress axis : x y z
#
# Youngs Moduli (GPa) = 59.73312 63.75022 22.64757
#
# Poissons Ratio (x) = 0.44800 0.22282
# Poissons Ratio (y) = 0.41977 0.14662
# Poissons Ratio (z) = 0.58769 0.41273
#
# Static dielectric constant tensor:
#      x y z
#    x 1.547620 0.000000 0.000000 
#    y 0.000000 1.559740 0.000000 
#    z 0.000000 0.000000 1.531240 
# 
# From -- ./inp_files/8733.got.cif
#   From: 2010.05.17/outbox.cif.g08.bks.cpg/sg57_5_cif.got.tgz:8733.got - 2010.06.03 13:58:18.
