data_PCOD9434954
_publ_section_title
;
Structure prediction by ZEFSAII (Michael W. Deem and Ramdas Pophale) SiO2 
 PCOD9434954
Probable space group: P B C M
;
_chemical_formula_sum "Si O2"
_cell_formula_units_Z 64
_cell_length_a 13.144316
_cell_length_b 35.374971
_cell_length_c 8.689426
_cell_angle_alpha 90.000000
_cell_angle_beta 90.000000
_cell_angle_gamma 90.000000
_cell_volume 4040.407540
_symmetry_space_group_name_H-M "P B C M"
_symmetry_group_IT_number 57
_symmetry_cell_setting 'orthorhombic'
loop_
_space_group_symop_operation_xyz
x,y,z
-x,-y,1/2+z
x,1/2-y,-z
-x,1/2+y,1/2-z
-x,-y,-z
x,y,1/2-z
-x,1/2+y,z
x,1/2-y,1/2+z
loop_
_atom_site_type_symbol
_atom_site_label
_atom_site_fract_x
_atom_site_fract_y
_atom_site_fract_z
Si Si1 0.114582 0.998666 0.434525
Si Si2 0.805028 0.157504 0.936008
Si Si3 0.999886 0.792247 0.435693
Si Si4 0.617434 0.208540 0.935674
Si Si5 0.196220 0.341089 0.064374
Si Si6 0.385306 0.208498 0.935895
Si Si7 0.118664 0.418143 0.934992
Si Si8 0.119962 0.920091 0.934031
O O1 0.111152 0.996470 0.250000
O O2 0.159766 0.960030 0.500761
O O3 0.158390 0.039896 0.477498
O O4 0.000000 0.000000 0.500000
O O5 0.806141 0.154686 0.750000
O O6 0.900541 0.183897 0.982042
O O7 0.701175 0.178122 0.984410
O O8 0.820551 0.116151 0.005111
O O9 0.001726 0.750000 0.500000
O O10 0.999111 0.790253 0.250000
O O11 0.899098 0.815015 0.485537
O O12 0.619982 0.210494 0.750000
O O13 0.501395 0.199422 0.982769
O O14 0.642777 0.250000 0.000000
O O15 0.195283 0.341908 0.250000
O O16 0.301060 0.321584 0.013380
O O17 0.178729 0.383233 0.004782
O O18 0.382803 0.210242 0.750000
O O19 0.360261 0.250000 0.000000
O O20 0.120709 0.415432 0.750000
O O21 0.999246 0.415587 0.982602
O O22 0.121630 0.921555 0.750000
#
# Coordination Sequence:
#
# PCOD9434954 Si02
#       8
#     8   8   8   8   8   8   8   8
#     4   9  17  29  45  66  93 124 156 187 223 269
#     4  10  19  31  46  65  91 122 153 187 229 273
#     4  10  20  30  41  61  87 119 152 181 221 270
#     4   9  18  32  49  67  89 118 155 196 235 273
#     4  10  19  30  45  65  91 121 152 187 226 270
#     4   9  18  32  48  67  89 117 155 195 234 271
#     4   9  18  30  44  66  93 121 152 183 220 267
#     4  10  19  30  45  68  94 123 155 187 226 273
#
# _framework density 15.839986
#
# number of rings (size 3 to 8) (size 9 to 14) (size 15 to 20)
#    0.000    2.500    1.250    2.250    0.000    4.500 
#    0.000    0.000    0.000    0.000    0.000    0.875 
#    0.000    0.000    0.000    0.000    0.000    0.000 
#
# Total GULP energy -356737.767040 kJ/mol
# GULP energy per Si atom -5574.027610 kJ/mol
# Density = 1.580393 g / cm^3
# Si number density = 15.839986 Si / 1000 Ang^3
#
#
#
# Elastic Constant Matrix: (Units=GPa)
#
#
# Indices 1 2 3 4 5 6 
#
# 1 83.9062 81.7093 22.9589 0.0000 0.0000 0.0000
# 2 81.7093 182.6913 34.6894 0.0000 0.0000 0.0000
# 3 22.9589 34.6894 13.4311 0.0000 0.0000 0.0000
# 4 0.0000 0.0000 0.0000 32.4678 0.0000 0.0000
# 5 0.0000 0.0000 0.0000 0.0000 7.8210 0.0000
# 6 0.0000 0.0000 0.0000 0.0000 0.0000 19.2212
#
#
#
# Elastic Compliance Matrix: (Units=1/GPa)
#
#
# Indices 1 2 3 4 5 6 
#
# 1 0.025468 -0.006131 -0.027699 0.000000 0.000000 0.000000
# 2 -0.006131 0.012217 -0.021074 0.000000 0.000000 0.000000
# 3 -0.027699 -0.021074 0.176232 0.000000 0.000000 0.000000
# 4 0.000000 0.000000 0.000000 0.030800 0.000000 0.000000
# 5 0.000000 0.000000 0.000000 0.000000 0.127861 0.000000
# 6 0.000000 0.000000 0.000000 0.000000 0.000000 0.052026
#
#
# Mechanical properties :
#
#
# Convention : Reuss Voigt Hill
#
# Bulk Modulus (GPa) = 9.60538 62.08266 35.84402
# Shear Modulus (GPa) = 8.78554 21.28007 15.03281
#
# Velocity S-wave (km/s) = 2.35764 3.66927 3.08399
# Velocity P-wave (km/s) = 3.67267 7.56506 5.94637
#
# Compressibility (1/GPa) = 0.10410837
#
# Stress axis : x y z
#
# Youngs Moduli (GPa) = 39.26521 81.85015 5.67433
#
# Poissons Ratio (x) = 0.50183 0.15717
# Poissons Ratio (y) = 0.24074 0.11958
# Poissons Ratio (z) = 1.08762 1.72494
#
# Static dielectric constant tensor:
#      x y z
#    x 1.538180 0.000000 0.000000 
#    y 0.000000 1.533430 0.000000 
#    z 0.000000 0.000000 1.532620 
# 
# From -- ./inp_files/5962.got.cif
#   From: 2010.05.17/outbox.cif.g08.bks.cpg/sg57_3_cif.got.tgz:5962.got - 2010.06.03 13:58:18.
