data_PCOD9434628
_publ_section_title
;
Structure prediction by ZEFSAII (Michael W. Deem and Ramdas Pophale) SiO2 
 PCOD9434628
Probable space group: P B C M
;
_chemical_formula_sum "Si O2"
_cell_formula_units_Z 56
_cell_length_a 19.406482
_cell_length_b 18.319671
_cell_length_c 8.985037
_cell_angle_alpha 90.000000
_cell_angle_beta 90.000000
_cell_angle_gamma 90.000000
_cell_volume 3194.363638
_symmetry_space_group_name_H-M "P B C M"
_symmetry_group_IT_number 57
_symmetry_cell_setting 'orthorhombic'
loop_
_space_group_symop_operation_xyz
x,y,z
-x,-y,1/2+z
x,1/2-y,-z
-x,1/2+y,1/2-z
-x,-y,-z
x,y,1/2-z
-x,1/2+y,z
x,1/2-y,1/2+z
loop_
_atom_site_type_symbol
_atom_site_label
_atom_site_fract_x
_atom_site_fract_y
_atom_site_fract_z
Si Si1 0.722453 0.889142 0.425744
Si Si2 0.694769 0.171724 0.071295
Si Si3 0.143160 0.175058 0.428329
Si Si4 0.798058 0.043449 0.075016
Si Si5 0.434556 0.592777 0.926421
Si Si6 0.579870 0.918304 0.926454
Si Si7 0.071499 0.477041 0.572817
O O1 0.719826 0.872615 0.250000
O O2 0.780968 0.841612 0.505981
O O3 0.647700 0.884329 0.499729
O O4 0.748862 0.972794 0.443089
O O5 0.690612 0.176167 0.250000
O O6 0.755238 0.114701 0.032303
O O7 0.707727 0.250000 0.000000
O O8 0.623916 0.139203 0.007063
O O9 0.117519 0.250000 0.500000
O O10 0.146629 0.180562 0.250000
O O11 0.095802 0.105270 0.467761
O O12 0.815858 0.047749 0.250000
O O13 0.866664 0.028714 0.982615
O O14 0.434851 0.607021 0.750000
O O15 0.418545 0.506454 0.948216
O O16 0.509481 0.607319 0.996178
O O17 0.578242 0.904451 0.750000
O O18 0.065802 0.480436 0.750000
O O19 0.000000 0.500000 0.500000
#
# Coordination Sequence:
#
# PCOD9434628 Si02
#       7
#     8   8   8   8   8   8   8
#     4  10  18  32  55  81 109 143 182 227 275 326
#     4  11  22  37  55  78 109 147 189 235 285 336
#     4  10  21  37  57  85 116 149 184 223 273 330
#     4   9  19  35  56  80 109 142 182 225 269 323
#     4  10  20  33  51  75 105 142 185 232 282 334
#     4  10  19  31  51  78 107 139 181 233 280 331
#     4  10  21  37  61  89 117 146 184 226 269 322
#
# _framework density 17.530878999999999
#
# number of rings (size 3 to 8) (size 9 to 14) (size 15 to 20)
#    0.000    2.000    1.429    2.571    0.000    4.571 
#    0.000    1.429    0.000    0.000    0.000    0.000 
#    0.000    0.000    0.000    0.000    0.000    0.000 
#
# Total GULP energy -312714.024601 kJ/mol
# GULP energy per Si atom -5584.179011 kJ/mol
# Density = 1.749098 g / cm^3
# Si number density = 17.530879 Si / 1000 Ang^3
#
#
#
# Elastic Constant Matrix: (Units=GPa)
#
#
# Indices 1 2 3 4 5 6 
#
# 1 144.1022 58.3618 69.0687 0.0000 0.0000 0.0000
# 2 58.3618 99.9815 53.8582 0.0000 0.0000 0.0000
# 3 69.0687 53.8582 79.1416 0.0000 0.0000 0.0000
# 4 0.0000 0.0000 0.0000 27.5740 0.0000 0.0000
# 5 0.0000 0.0000 0.0000 0.0000 36.4806 0.0000
# 6 0.0000 0.0000 0.0000 0.0000 0.0000 14.4592
#
#
#
# Elastic Compliance Matrix: (Units=1/GPa)
#
#
# Indices 1 2 3 4 5 6 
#
# 1 0.012227 -0.002193 -0.009178 0.000000 0.000000 0.000000
# 2 -0.002193 0.016184 -0.009100 0.000000 0.000000 0.000000
# 3 -0.009178 -0.009100 0.026838 0.000000 0.000000 0.000000
# 4 0.000000 0.000000 0.000000 0.036266 0.000000 0.000000
# 5 0.000000 0.000000 0.000000 0.000000 0.027412 0.000000
# 6 0.000000 0.000000 0.000000 0.000000 0.000000 0.069160
#
#
# Mechanical properties :
#
#
# Convention : Reuss Voigt Hill
#
# Bulk Modulus (GPa) = 69.89559 76.20028 73.04794
# Shear Modulus (GPa) = 21.38600 25.16521 23.27561
#
# Velocity S-wave (km/s) = 3.49650 3.79288 3.64770
# Velocity P-wave (km/s) = 7.50048 7.92098 7.71360
#
# Compressibility (1/GPa) = 0.01430705
#
# Stress axis : x y z
#
# Youngs Moduli (GPa) = 81.78717 61.79027 37.26019
#
# Poissons Ratio (x) = 0.13550 0.34198
# Poissons Ratio (y) = 0.17936 0.33906
# Poissons Ratio (z) = 0.75067 0.56227
#
# Static dielectric constant tensor:
#      x y z
#    x 1.564100 0.000000 0.000000 
#    y 0.000000 1.599220 0.000000 
#    z 0.000000 0.000000 1.581760 
# 
# From -- ./inp_files/8277.got.cif
#   From: 2010.05.17/outbox.cif.g08.bks.cpg/sg57_5_cif.got.tgz:8277.got - 2010.06.03 13:58:18.
