data_PCOD9434256
_publ_section_title
;
Structure prediction by ZEFSAII (Michael W. Deem and Ramdas Pophale) SiO2 
 PCOD9434256
Probable space group: P B C M
;
_chemical_formula_sum "Si O2"
_cell_formula_units_Z 64
_cell_length_a 22.572825
_cell_length_b 18.618785
_cell_length_c 8.728122
_cell_angle_alpha 90.000000
_cell_angle_beta 90.000000
_cell_angle_gamma 90.000000
_cell_volume 3668.242681
_symmetry_space_group_name_H-M "P B C M"
_symmetry_group_IT_number 57
_symmetry_cell_setting 'orthorhombic'
loop_
_space_group_symop_operation_xyz
x,y,z
-x,-y,1/2+z
x,1/2-y,-z
-x,1/2+y,1/2-z
-x,-y,-z
x,y,1/2-z
-x,1/2+y,z
x,1/2-y,1/2+z
loop_
_atom_site_type_symbol
_atom_site_label
_atom_site_fract_x
_atom_site_fract_y
_atom_site_fract_z
Si Si1 0.616393 0.168599 0.434349
Si Si2 0.939443 0.530921 0.066297
Si Si3 0.119454 0.171959 0.566142
Si Si4 0.183297 0.539669 0.565929
Si Si5 0.242777 0.400793 0.432705
Si Si6 0.738556 0.329708 0.066875
Si Si7 0.511632 0.830813 0.565546
Si Si8 0.640922 0.669284 0.433780
O O1 0.615141 0.250000 0.500000
O O2 0.621181 0.170471 0.250000
O O3 0.676655 0.137698 0.503969
O O4 0.552154 0.135876 0.478364
O O5 0.942824 0.535362 0.250000
O O6 0.884297 0.478700 0.024811
O O7 0.921885 0.608821 0.999790
O O8 0.000000 0.500000 0.000000
O O9 0.105243 0.250000 0.500000
O O10 0.115424 0.172324 0.750000
O O11 0.187214 0.150426 0.523117
O O12 0.188456 0.532137 0.750000
O O13 0.223796 0.479290 0.488599
O O14 0.207783 0.617759 0.524418
O O15 0.247879 0.399138 0.250000
O O16 0.303821 0.375177 0.505451
O O17 0.734386 0.324573 0.250000
O O18 0.745864 0.250000 0.000000
O O19 0.511644 0.750000 0.500000
O O20 0.511052 0.826499 0.750000
O O21 0.575831 0.861536 0.520638
O O22 0.645102 0.750000 0.500000
O O23 0.643446 0.673015 0.250000
#
# Coordination Sequence:
#
# PCOD9434256 Si02
#       8
#     8   8   8   8   8   8   8   8
#     4   9  15  25  42  65  92 122 158 201 248 295
#     4  10  20  37  59  81 107 140 174 208 248 296
#     4  10  20  34  53  79 108 138 174 214 253 295
#     4   9  20  37  55  74 100 133 165 199 243 296
#     4  10  20  32  49  73 100 131 168 209 253 300
#     4  10  19  32  51  76 101 126 159 201 249 297
#     4   8  15  25  38  59  88 123 161 201 245 293
#     4  10  18  28  43  65  96 131 167 207 250 296
#
# _framework density 17.447047000000001
#
# number of rings (size 3 to 8) (size 9 to 14) (size 15 to 20)
#    0.000    2.500    0.000    3.375    0.000    5.000 
#    0.000    0.625    0.000    2.250    0.000    0.000 
#    0.000    0.000    0.000    0.000    0.000    0.000 
#
# Total GULP energy -356622.043623 kJ/mol
# GULP energy per Si atom -5572.219432 kJ/mol
# Density = 1.740734 g / cm^3
# Si number density = 17.447047 Si / 1000 Ang^3
#
#
#
# Elastic Constant Matrix: (Units=GPa)
#
#
# Indices 1 2 3 4 5 6 
#
# 1 155.1140 80.6849 50.8348 0.0000 0.0000 0.0000
# 2 80.6849 80.1048 36.0821 0.0000 0.0000 0.0000
# 3 50.8348 36.0821 43.6352 0.0000 0.0000 0.0000
# 4 0.0000 0.0000 0.0000 21.8722 0.0000 0.0000
# 5 0.0000 0.0000 0.0000 0.0000 8.9963 0.0000
# 6 0.0000 0.0000 0.0000 0.0000 0.0000 -3.5624
#
#
#
# Elastic Compliance Matrix: (Units=1/GPa)
#
#
# Indices 1 2 3 4 5 6 
#
# 1 0.015111 -0.011619 -0.007997 0.000000 0.000000 0.000000
# 2 -0.011619 0.028826 -0.010301 0.000000 0.000000 0.000000
# 3 -0.007997 -0.010301 0.040752 0.000000 0.000000 0.000000
# 4 0.000000 0.000000 0.000000 0.045720 0.000000 0.000000
# 5 0.000000 0.000000 0.000000 0.000000 0.111157 0.000000
# 6 0.000000 0.000000 0.000000 0.000000 0.000000 -0.280708
#
#
# Mechanical properties :
#
#
# Convention : Reuss Voigt Hill
#
# Bulk Modulus (GPa) = 40.23171 68.22858 54.23015
# Shear Modulus (GPa) = 172.54767 12.87803 92.71285
#
# Velocity S-wave (km/s) = 9.95553 2.71978 7.29760
# Velocity P-wave (km/s) = 12.46032 7.00385 10.10726
#
# Compressibility (1/GPa) = 0.02485601
#
# Stress axis : x y z
#
# Youngs Moduli (GPa) = 66.17566 34.69062 24.53875
#
# Poissons Ratio (x) = 0.40305 0.19624
# Poissons Ratio (y) = 0.76886 0.25277
# Poissons Ratio (z) = 0.52922 0.35735
#
# Static dielectric constant tensor:
#      x y z
#    x 1.631790 0.000000 0.000000 
#    y 0.000000 1.567740 0.000000 
#    z 0.000000 0.000000 1.584810 
# 
# From -- ./inp_files/8607.got.cif
#   From: 2010.05.17/outbox.cif.g08.bks.cpg/sg57_5_cif.got.tgz:8607.got - 2010.06.03 13:58:18.
