data_PCOD9434148
_publ_section_title
;
Structure prediction by ZEFSAII (Michael W. Deem and Ramdas Pophale) SiO2 
 PCOD9434148
Probable space group: P B C M
;
_chemical_formula_sum "Si O2"
_cell_formula_units_Z 40
_cell_length_a 7.651472
_cell_length_b 10.900861
_cell_length_c 19.797822
_cell_angle_alpha 90.000000
_cell_angle_beta 90.000000
_cell_angle_gamma 90.000000
_cell_volume 1651.289466
_symmetry_space_group_name_H-M "P B C M"
_symmetry_group_IT_number 57
_symmetry_cell_setting 'orthorhombic'
loop_
_space_group_symop_operation_xyz
x,y,z
-x,-y,1/2+z
x,1/2-y,-z
-x,1/2+y,1/2-z
-x,-y,-z
x,y,1/2-z
-x,1/2+y,z
x,1/2-y,1/2+z
loop_
_atom_site_type_symbol
_atom_site_label
_atom_site_fract_x
_atom_site_fract_y
_atom_site_fract_z
Si Si1 0.278136 0.788622 0.074319
Si Si2 0.656512 0.869239 0.482383
Si Si3 0.036443 0.091918 0.750000
Si Si4 0.726407 0.471380 0.637191
Si Si5 0.659552 0.967008 0.630768
Si Si6 0.171507 0.356743 0.750000
O O1 0.482710 0.820987 0.056534
O O2 0.255679 0.673742 0.124245
O O3 0.223739 0.912999 0.113270
O O4 0.206690 0.750000 0.000000
O O5 0.768924 0.750000 0.500000
O O6 0.611172 0.923886 0.554893
O O7 0.748517 0.966411 0.435779
O O8 0.041320 0.240036 0.750000
O O9 0.143035 0.037126 0.813159
O O10 0.867973 0.004416 0.750000
O O11 0.528936 0.497127 0.662528
O O12 0.734773 0.857244 0.676772
#
# Coordination Sequence:
#
# PCOD9434148 Si02
#       6
#     8   8   4   8   8   4
#     4  10  17  32  66 109 141 156 208 278 358 405
#     4  10  17  32  63 106 137 163 210 285 349 400
#     4  12  31  50  66  88 142 188 245 280 342 404
#     4  11  21  40  69 104 134 174 218 291 344 410
#     4  11  21  39  71 103 139 171 228 284 348 410
#     4  12  31  52  64  92 136 200 237 286 336 408
#
# _framework density 24.223492
#
# number of rings (size 3 to 8) (size 9 to 14) (size 15 to 20)
#    0.000    1.200    6.000    3.000    5.600    0.000 
#    0.000    1.000    0.000    0.000    0.000    0.000 
#    0.000    0.000    0.000    0.000    0.000    0.000 
#
# Total GULP energy -222880.940578 kJ/mol
# GULP energy per Si atom -5572.023514 kJ/mol
# Density = 2.416836 g / cm^3
# Si number density = 24.223492 Si / 1000 Ang^3
#
#
#
# Elastic Constant Matrix: (Units=GPa)
#
#
# Indices 1 2 3 4 5 6 
#
# 1 20.2240 -1.9548 8.9839 0.0000 0.0000 0.0000
# 2 -1.9548 147.4817 21.6670 0.0000 0.0000 0.0000
# 3 8.9839 21.6670 113.0535 0.0000 0.0000 0.0000
# 4 0.0000 0.0000 0.0000 28.5160 0.0000 0.0000
# 5 0.0000 0.0000 0.0000 0.0000 18.6456 0.0000
# 6 0.0000 0.0000 0.0000 0.0000 0.0000 18.1729
#
#
#
# Elastic Compliance Matrix: (Units=1/GPa)
#
#
# Indices 1 2 3 4 5 6 
#
# 1 0.051504 0.001321 -0.004346 0.000000 0.000000 0.000000
# 2 0.001321 0.007011 -0.001449 0.000000 0.000000 0.000000
# 3 -0.004346 -0.001449 0.009468 0.000000 0.000000 0.000000
# 4 0.000000 0.000000 0.000000 0.035068 0.000000 0.000000
# 5 0.000000 0.000000 0.000000 0.000000 0.053632 0.000000
# 6 0.000000 0.000000 0.000000 0.000000 0.000000 0.055027
#
#
# Mechanical properties :
#
#
# Convention : Reuss Voigt Hill
#
# Bulk Modulus (GPa) = 16.93864 37.57238 27.25551
# Shear Modulus (GPa) = 20.80416 29.87111 25.33764
#
# Velocity S-wave (km/s) = 2.93378 3.51543 3.23769
# Velocity P-wave (km/s) = 4.29929 5.65880 5.02523
#
# Compressibility (1/GPa) = 0.05903660
#
# Stress axis : x y z
#
# Youngs Moduli (GPa) = 19.41581 142.63635 105.61484
#
# Poissons Ratio (x) = -0.18844 0.45900
# Poissons Ratio (y) = -0.02565 0.15300
# Poissons Ratio (z) = 0.08438 0.20663
#
# Static dielectric constant tensor:
#      x y z
#    x 2.020840 0.000000 0.000000 
#    y 0.000000 2.074650 0.000000 
#    z 0.000000 0.000000 2.061350 
# 
# From -- ./inp_files/20573.got.cif
#   From: 2010.05.17/outbox.cif.g08.bks.cpg/sg57_11_cif.got.tgz:20573.got - 2010.06.03 13:58:18.
