data_PCOD9434341
_publ_section_title
;
Structure prediction by ZEFSAII (Michael W. Deem and Ramdas Pophale) SiO2 
 PCOD9434341
Probable space group: P B C M
;
_chemical_formula_sum "Si O2"
_cell_formula_units_Z 44
_cell_length_a 20.282414
_cell_length_b 5.225173
_cell_length_c 19.611134
_cell_angle_alpha 90.000000
_cell_angle_beta 90.000000
_cell_angle_gamma 90.000000
_cell_volume 2078.370763
_symmetry_space_group_name_H-M "P B C M"
_symmetry_group_IT_number 57
_symmetry_cell_setting 'orthorhombic'
loop_
_space_group_symop_operation_xyz
x,y,z
-x,-y,1/2+z
x,1/2-y,-z
-x,1/2+y,1/2-z
-x,-y,-z
x,y,1/2-z
-x,1/2+y,z
x,1/2-y,1/2+z
loop_
_atom_site_type_symbol
_atom_site_label
_atom_site_fract_x
_atom_site_fract_y
_atom_site_fract_z
Si Si1 0.190974 0.968474 0.574912
Si Si2 0.750978 0.533278 0.077218
Si Si3 0.044293 0.609588 0.098241
Si Si4 0.367235 0.250000 0.000000
Si Si5 0.455823 0.959137 0.898270
Si Si6 0.962141 0.484918 0.750000
Si Si7 0.456354 0.447092 0.250000
O O1 0.208499 0.235666 0.610527
O O2 0.113957 0.923913 0.562927
O O3 0.229942 0.735655 0.609857
O O4 0.221048 0.999739 0.499618
O O5 0.676860 0.615830 0.059312
O O6 0.066839 0.591776 0.177688
O O7 0.005894 0.874249 0.085479
O O8 0.409133 0.037673 0.960264
O O9 0.513814 0.175473 0.901498
O O10 0.423313 0.999919 0.823257
O O11 0.025500 0.289859 0.750000
O O12 0.516151 0.656961 0.250000
#
# Coordination Sequence:
#
# PCOD9434341 Si02
#       7
#     8   8   8   4   8   4   4
#     4   9  17  33  47  64  90 122 157 185 231 288
#     4   9  20  33  47  63  91 129 158 194 231 276
#     4  10  18  29  48  70  92 118 149 195 245 292
#     4  10  20  34  54  76 100 136 174 208 248 290
#     4  10  20  32  52  80 108 131 164 208 251 298
#     4   8  16  28  42  66  92 114 146 186 240 294
#     4   8  16  32  48  70 106 142 158 188 254 304
#
# _framework density 21.170428999999999
#
# number of rings (size 3 to 8) (size 9 to 14) (size 15 to 20)
#    0.000    2.909    0.000    1.636    0.000    5.818 
#    0.000   10.909    0.000    5.455    0.000    0.000 
#    0.000    1.455    0.000    0.000    0.000    0.455 
#
# Total GULP energy -244954.820807 kJ/mol
# GULP energy per Si atom -5567.155018 kJ/mol
# Density = 2.112224 g / cm^3
# Si number density = 21.170429 Si / 1000 Ang^3
#
#
#
# Elastic Constant Matrix: (Units=GPa)
#
#
# Indices 1 2 3 4 5 6 
#
# 1 52.6417 14.4507 14.7105 0.0000 0.0000 0.0000
# 2 14.4507 152.4109 2.1128 0.0000 0.0000 0.0000
# 3 14.7105 2.1128 39.6294 0.0000 0.0000 0.0000
# 4 0.0000 0.0000 0.0000 15.6411 0.0000 0.0000
# 5 0.0000 0.0000 0.0000 0.0000 -14.4007 0.0000
# 6 0.0000 0.0000 0.0000 0.0000 0.0000 -20.6845
#
#
#
# Elastic Compliance Matrix: (Units=1/GPa)
#
#
# Indices 1 2 3 4 5 6 
#
# 1 0.021761 -0.001953 -0.007973 0.000000 0.000000 0.000000
# 2 -0.001953 0.006741 0.000365 0.000000 0.000000 0.000000
# 3 -0.007973 0.000365 0.028174 0.000000 0.000000 0.000000
# 4 0.000000 0.000000 0.000000 0.063934 0.000000 0.000000
# 5 0.000000 0.000000 0.000000 0.000000 -0.069441 0.000000
# 6 0.000000 0.000000 0.000000 0.000000 0.000000 -0.048345
#
#
# Mechanical properties :
#
#
# Convention : Reuss Voigt Hill
#
# Bulk Modulus (GPa) = 26.62796 34.13668 30.38232
# Shear Modulus (GPa) = 145.08032 10.33835 77.70933
#
# Velocity S-wave (km/s) = 8.28725 2.21224 6.06517
# Velocity P-wave (km/s) = 10.20669 4.76288 7.96434
#
# Compressibility (1/GPa) = 0.03755451
#
# Stress axis : x y z
#
# Youngs Moduli (GPa) = 45.95478 148.33963 35.49359
#
# Poissons Ratio (x) = 0.28966 0.28301
# Poissons Ratio (y) = 0.08973 -0.01297
# Poissons Ratio (z) = 0.36642 -0.05421
#
# Static dielectric constant tensor:
#      x y z
#    x 1.766610 0.000000 0.000000 
#    y 0.000000 1.951000 0.000000 
#    z 0.000000 0.000000 1.966090 
# 
# From -- ./inp_files/25682.got.cif
#   From: 2010.05.17/outbox.cif.g08.bks.cpg/sg57_13_cif.got.tgz:25682.got - 2010.06.03 13:58:18.
