data_PCOD9434748
_publ_section_title
;
Structure prediction by ZEFSAII (Michael W. Deem and Ramdas Pophale) SiO2 
 PCOD9434748
Probable space group: P B C M
;
_chemical_formula_sum "Si O2"
_cell_formula_units_Z 64
_cell_length_a 22.286615
_cell_length_b 18.208730
_cell_length_c 8.514761
_cell_angle_alpha 90.000000
_cell_angle_beta 90.000000
_cell_angle_gamma 90.000000
_cell_volume 3455.383294
_symmetry_space_group_name_H-M "P B C M"
_symmetry_group_IT_number 57
_symmetry_cell_setting 'orthorhombic'
loop_
_space_group_symop_operation_xyz
x,y,z
-x,-y,1/2+z
x,1/2-y,-z
-x,1/2+y,1/2-z
-x,-y,-z
x,y,1/2-z
-x,1/2+y,z
x,1/2-y,1/2+z
loop_
_atom_site_type_symbol
_atom_site_label
_atom_site_fract_x
_atom_site_fract_y
_atom_site_fract_z
Si Si1 0.755826 0.105849 0.559612
Si Si2 0.502740 0.169410 0.437986
Si Si3 0.878981 0.171971 0.561882
Si Si4 0.377578 0.902453 0.440359
Si Si5 0.935463 0.476822 0.936555
Si Si6 0.275934 0.332748 0.560138
Si Si7 0.817432 0.952382 0.939530
Si Si8 0.608734 0.927908 0.941242
O O1 0.754674 0.108611 0.750000
O O2 0.810254 0.157381 0.506152
O O3 0.688668 0.122255 0.505398
O O4 0.775756 0.022694 0.518762
O O5 0.487214 0.250000 0.500000
O O6 0.502147 0.170639 0.250000
O O7 0.568095 0.145500 0.496203
O O8 0.452766 0.110778 0.492429
O O9 0.900421 0.250000 0.500000
O O10 0.879393 0.171457 0.750000
O O11 0.916882 0.102861 0.502688
O O12 0.378910 0.900217 0.250000
O O13 0.386154 0.987476 0.490172
O O14 0.936620 0.473932 0.750000
O O15 0.882671 0.532096 0.990710
O O16 0.000000 0.500000 0.000000
O O17 0.276878 0.250000 0.500000
O O18 0.276695 0.331669 0.750000
O O19 0.217160 0.378976 0.511079
O O20 0.334528 0.378849 0.508384
O O21 0.822643 0.952483 0.750000
O O22 0.609610 0.928471 0.750000
#
# Coordination Sequence:
#
# PCOD9434748 Si02
#       8
#     8   8   8   8   8   8   8   8
#     4   8  15  30  55  80 104 138 179 220 271 330
#     4  11  23  37  50  72 104 141 182 229 280 334
#     4  10  20  36  58  87 119 153 190 231 278 331
#     4  10  18  34  58  80 102 137 181 228 280 334
#     4  11  22  38  61  88 117 152 193 234 277 327
#     4  10  19  33  55  82 111 144 181 225 278 334
#     4   9  17  34  57  80 109 144 182 222 270 331
#     4   9  18  34  57  78 102 139 184 227 277 335
#
# _framework density 18.521823999999999
#
# number of rings (size 3 to 8) (size 9 to 14) (size 15 to 20)
#    0.000    2.250    1.250    3.375    0.000    1.000 
#    0.000    6.875    0.000    1.500    0.000    0.000 
#    0.000    0.000    0.000    0.000    0.000    0.000 
#
# Total GULP energy -357209.334527 kJ/mol
# GULP energy per Si atom -5581.395852 kJ/mol
# Density = 1.847967 g / cm^3
# Si number density = 18.521824 Si / 1000 Ang^3
#
#
#
# Elastic Constant Matrix: (Units=GPa)
#
#
# Indices 1 2 3 4 5 6 
#
# 1 114.6881 8.7815 21.7609 0.0000 0.0000 0.0000
# 2 8.7815 44.7284 8.9286 0.0000 0.0000 0.0000
# 3 21.7609 8.9286 38.8488 0.0000 0.0000 0.0000
# 4 0.0000 0.0000 0.0000 26.8002 0.0000 0.0000
# 5 0.0000 0.0000 0.0000 0.0000 20.9504 0.0000
# 6 0.0000 0.0000 0.0000 0.0000 0.0000 16.7082
#
#
#
# Elastic Compliance Matrix: (Units=1/GPa)
#
#
# Indices 1 2 3 4 5 6 
#
# 1 0.009788 -0.000867 -0.005284 0.000000 0.000000 0.000000
# 2 -0.000867 0.023509 -0.004917 0.000000 0.000000 0.000000
# 3 -0.005284 -0.004917 0.029831 0.000000 0.000000 0.000000
# 4 0.000000 0.000000 0.000000 0.037313 0.000000 0.000000
# 5 0.000000 0.000000 0.000000 0.000000 0.047732 0.000000
# 6 0.000000 0.000000 0.000000 0.000000 0.000000 0.059851
#
#
# Mechanical properties :
#
#
# Convention : Reuss Voigt Hill
#
# Bulk Modulus (GPa) = 24.39512 30.80081 27.59796
# Shear Modulus (GPa) = 20.50664 23.47804 21.99234
#
# Velocity S-wave (km/s) = 3.33101 3.56418 3.44957
# Velocity P-wave (km/s) = 5.29092 5.79685 5.54965
#
# Compressibility (1/GPa) = 0.04099180
#
# Stress axis : x y z
#
# Youngs Moduli (GPa) = 102.16401 42.53687 33.52267
#
# Poissons Ratio (x) = 0.03688 0.17712
# Poissons Ratio (y) = 0.08858 0.16485
# Poissons Ratio (z) = 0.53979 0.20917
#
# Static dielectric constant tensor:
#      x y z
#    x 1.636550 0.000000 0.000000 
#    y 0.000000 1.615170 0.000000 
#    z 0.000000 0.000000 1.633910 
# 
# From -- ./inp_files/8447.got.cif
#   From: 2010.05.17/outbox.cif.g08.bks.cpg/sg57_5_cif.got.tgz:8447.got - 2010.06.03 13:58:18.
