data_PCOD9434847
_publ_section_title
;
Structure prediction by ZEFSAII (Michael W. Deem and Ramdas Pophale) SiO2 
 PCOD9434847
Probable space group: P B C M
;
_chemical_formula_sum "Si O2"
_cell_formula_units_Z 32
_cell_length_a 10.109274
_cell_length_b 13.990245
_cell_length_c 9.787572
_cell_angle_alpha 90.000000
_cell_angle_beta 90.000000
_cell_angle_gamma 90.000000
_cell_volume 1384.268249
_symmetry_space_group_name_H-M "P B C M"
_symmetry_group_IT_number 57
_symmetry_cell_setting 'orthorhombic'
loop_
_space_group_symop_operation_xyz
x,y,z
-x,-y,1/2+z
x,1/2-y,-z
-x,1/2+y,1/2-z
-x,-y,-z
x,y,1/2-z
-x,1/2+y,z
x,1/2-y,1/2+z
loop_
_atom_site_type_symbol
_atom_site_label
_atom_site_fract_x
_atom_site_fract_y
_atom_site_fract_z
Si Si1 0.976598 0.250000 0.500000
Si Si2 0.719361 0.606101 0.250000
Si Si3 0.245396 0.886209 0.557013
Si Si4 0.877170 0.928273 0.474739
Si Si5 0.456719 0.704861 0.250000
Si Si6 0.328677 0.898979 0.250000
O O1 0.877962 0.183436 0.410379
O O2 0.065757 0.171840 0.579771
O O3 0.809803 0.602010 0.383011
O O4 0.611172 0.687008 0.250000
O O5 0.630971 0.508995 0.250000
O O6 0.376756 0.841764 0.622539
O O7 0.250773 0.885479 0.391738
O O8 0.222422 0.996897 0.596747
O O9 0.000000 0.000000 0.500000
O O10 0.436581 0.817727 0.250000
#
# Coordination Sequence:
#
# PCOD9434847 Si02
#       6
#     4   4   8   8   4   4
#     4  10  18  38  62  92 126 166 222 264 326 374
#     4  10  24  42  60  96 132 162 216 274 319 374
#     4  10  21  39  65  94 123 172 219 256 323 386
#     4   9  21  39  62  91 126 166 212 277 314 377
#     4  12  22  41  64  95 130 168 210 262 318 401
#     4  10  20  41  64  89 118 178 208 252 309 397
#
# _framework density 23.116907999999999
#
# number of rings (size 3 to 8) (size 9 to 14) (size 15 to 20)
#    0.000    2.000    2.500    0.000    0.000    9.000 
#    9.000    3.750    0.000    1.500    0.000    0.000 
#    0.000    0.000    0.000    0.000    0.000    0.000 
#
# Total GULP energy -178407.147391 kJ/mol
# GULP energy per Si atom -5575.223356 kJ/mol
# Density = 2.306429 g / cm^3
# Si number density = 23.116908 Si / 1000 Ang^3
#
#
#
# Elastic Constant Matrix: (Units=GPa)
#
#
# Indices 1 2 3 4 5 6 
#
# 1 93.5131 30.9381 30.1614 0.0000 0.0000 0.0000
# 2 30.9381 135.6528 11.9364 0.0000 0.0000 0.0000
# 3 30.1614 11.9364 126.4449 0.0000 0.0000 0.0000
# 4 0.0000 0.0000 0.0000 9.2162 0.0000 0.0000
# 5 0.0000 0.0000 0.0000 0.0000 14.0496 0.0000
# 6 0.0000 0.0000 0.0000 0.0000 0.0000 47.3175
#
#
#
# Elastic Compliance Matrix: (Units=1/GPa)
#
#
# Indices 1 2 3 4 5 6 
#
# 1 0.012430 -0.002595 -0.002720 0.000000 0.000000 0.000000
# 2 -0.002595 0.007975 -0.000134 0.000000 0.000000 0.000000
# 3 -0.002720 -0.000134 0.008570 0.000000 0.000000 0.000000
# 4 0.000000 0.000000 0.000000 0.108505 0.000000 0.000000
# 5 0.000000 0.000000 0.000000 0.000000 0.071177 0.000000
# 6 0.000000 0.000000 0.000000 0.000000 0.000000 0.021134
#
#
# Mechanical properties :
#
#
# Convention : Reuss Voigt Hill
#
# Bulk Modulus (GPa) = 55.31936 55.74250 55.53093
# Shear Modulus (GPa) = 20.26637 32.95498 26.61067
#
# Velocity S-wave (km/s) = 2.96411 3.77978 3.39652
# Velocity P-wave (km/s) = 5.97468 6.57378 6.28138
#
# Compressibility (1/GPa) = 0.01807685
#
# Stress axis : x y z
#
# Youngs Moduli (GPa) = 80.45279 125.38433 116.68615
#
# Poissons Ratio (x) = 0.32543 0.31737
# Poissons Ratio (y) = 0.20881 0.01561
# Poissons Ratio (z) = 0.21882 0.01677
#
# Static dielectric constant tensor:
#      x y z
#    x 1.857560 0.000000 0.000000 
#    y 0.000000 1.926180 0.000000 
#    z 0.000000 0.000000 1.867170 
# 
# From -- ./inp_files/11368.got.cif
#   From: 2010.05.17/outbox.cif.g08.bks.cpg/sg57_6_cif.got.tgz:11368.got - 2010.06.03 13:58:18.
