data_PCOD9434834
_publ_section_title
;
Structure prediction by ZEFSAII (Michael W. Deem and Ramdas Pophale) SiO2 
 PCOD9434834
Probable space group: P B C M
;
_chemical_formula_sum "Si O2"
_cell_formula_units_Z 44
_cell_length_a 8.431687
_cell_length_b 18.611156
_cell_length_c 14.058975
_cell_angle_alpha 90.000000
_cell_angle_beta 90.000000
_cell_angle_gamma 90.000000
_cell_volume 2206.182749
_symmetry_space_group_name_H-M "P B C M"
_symmetry_group_IT_number 57
_symmetry_cell_setting 'orthorhombic'
loop_
_space_group_symop_operation_xyz
x,y,z
-x,-y,1/2+z
x,1/2-y,-z
-x,1/2+y,1/2-z
-x,-y,-z
x,y,1/2-z
-x,1/2+y,z
x,1/2-y,1/2+z
loop_
_atom_site_type_symbol
_atom_site_label
_atom_site_fract_x
_atom_site_fract_y
_atom_site_fract_z
Si Si1 0.009234 0.346003 0.750000
Si Si2 0.044434 0.223434 0.906342
Si Si3 0.322917 0.443265 0.750000
Si Si4 0.687075 0.323229 0.453440
Si Si5 0.216845 0.523296 0.250000
Si Si6 0.558983 0.052015 0.417149
Si Si7 0.934725 0.876725 0.250000
Si Si8 0.690079 0.381736 0.250000
O O1 0.158349 0.400319 0.750000
O O2 0.012052 0.292165 0.839548
O O3 0.856839 0.397363 0.750000
O O4 0.876702 0.189290 0.940631
O O5 0.129974 0.163605 0.842808
O O6 0.132627 0.250000 0.000000
O O7 0.418786 0.423172 0.653973
O O8 0.317270 0.531126 0.750000
O O9 0.623048 0.250000 0.500000
O O10 0.648949 0.384489 0.529074
O O11 0.626241 0.347770 0.348658
O O12 0.321704 0.514047 0.156143
O O13 0.089280 0.460715 0.250000
O O14 0.500000 0.000000 0.500000
O O15 0.122901 0.862378 0.250000
#
# Coordination Sequence:
#
# PCOD9434834 Si02
#       8
#     4   8   4   8   4   8   4   4
#     4  11  22  41  67  94 124 163 220 273 316 388
#     4   9  19  37  61  91 123 157 204 267 315 369
#     4  11  23  41  62  92 138 168 203 276 339 364
#     4  10  20  38  66  92 121 170 219 257 313 383
#     4  11  22  37  64  92 118 163 220 257 313 391
#     4  11  24  41  61  93 130 170 214 261 323 395
#     4   9  19  34  56  93 121 153 206 259 323 359
#     4  10  18  37  63  91 129 163 203 277 321 360
#
# _framework density 19.943950999999998
#
# number of rings (size 3 to 8) (size 9 to 14) (size 15 to 20)
#    0.000    1.818    2.727    2.727    0.000    2.909 
#    0.000    8.182    0.000    0.000    0.000    0.000 
#    0.000    0.000    0.000    0.000    0.000    0.000 
#
# Total GULP energy -245339.292474 kJ/mol
# GULP energy per Si atom -5575.893011 kJ/mol
# Density = 1.989856 g / cm^3
# Si number density = 19.943951 Si / 1000 Ang^3
#
#
#
# Elastic Constant Matrix: (Units=GPa)
#
#
# Indices 1 2 3 4 5 6 
#
# 1 41.6650 12.1055 23.8619 0.0000 0.0000 0.0000
# 2 12.1055 110.8879 51.3428 0.0000 0.0000 0.0000
# 3 23.8619 51.3428 169.9606 0.0000 0.0000 0.0000
# 4 0.0000 0.0000 0.0000 20.3635 0.0000 0.0000
# 5 0.0000 0.0000 0.0000 0.0000 -1.0735 0.0000
# 6 0.0000 0.0000 0.0000 0.0000 0.0000 12.2525
#
#
#
# Elastic Compliance Matrix: (Units=1/GPa)
#
#
# Indices 1 2 3 4 5 6 
#
# 1 0.026272 -0.001349 -0.003281 0.000000 0.000000 0.000000
# 2 -0.001349 0.010554 -0.002999 0.000000 0.000000 0.000000
# 3 -0.003281 -0.002999 0.007250 0.000000 0.000000 0.000000
# 4 0.000000 0.000000 0.000000 0.049108 0.000000 0.000000
# 5 0.000000 0.000000 0.000000 0.000000 -0.931523 0.000000
# 6 0.000000 0.000000 0.000000 0.000000 0.000000 0.081616
#
#
# Mechanical properties :
#
#
# Convention : Reuss Voigt Hill
#
# Bulk Modulus (GPa) = 34.69979 55.23710 44.96844
# Shear Modulus (GPa) = -6.83191 21.98871 7.57840
#
# Velocity S-wave (km/s) = -1.85283 3.32403 1.95143
# Velocity P-wave (km/s) = 3.58596 6.51832 5.26059
#
# Compressibility (1/GPa) = 0.02881862
#
# Stress axis : x y z
#
# Youngs Moduli (GPa) = 38.06339 94.75206 137.92617
#
# Poissons Ratio (x) = 0.12781 0.45254
# Poissons Ratio (y) = 0.05134 0.41361
# Poissons Ratio (z) = 0.12489 0.28414
#
# Static dielectric constant tensor:
#      x y z
#    x 1.715210 0.000000 0.000000 
#    y 0.000000 1.699330 0.000000 
#    z 0.000000 0.000000 1.745680 
# 
# From -- ./inp_files/16270.got.cif
#   From: 2010.05.17/outbox.cif.g08.bks.cpg/sg57_9_cif.got.tgz:16270.got - 2010.06.03 13:58:18.
