data_PCOD9434462
_publ_section_title
;
Structure prediction by ZEFSAII (Michael W. Deem and Ramdas Pophale) SiO2 
 PCOD9434462
Probable space group: P B C M
;
_chemical_formula_sum "Si O2"
_cell_formula_units_Z 56
_cell_length_a 17.347906
_cell_length_b 22.235838
_cell_length_c 8.991065
_cell_angle_alpha 90.000000
_cell_angle_beta 90.000000
_cell_angle_gamma 90.000000
_cell_volume 3468.260413
_symmetry_space_group_name_H-M "P B C M"
_symmetry_group_IT_number 57
_symmetry_cell_setting 'orthorhombic'
loop_
_space_group_symop_operation_xyz
x,y,z
-x,-y,1/2+z
x,1/2-y,-z
-x,1/2+y,1/2-z
-x,-y,-z
x,y,1/2-z
-x,1/2+y,z
x,1/2-y,1/2+z
loop_
_atom_site_type_symbol
_atom_site_label
_atom_site_fract_x
_atom_site_fract_y
_atom_site_fract_z
Si Si1 0.418256 0.812678 0.428809
Si Si2 0.094355 0.693299 0.576547
Si Si3 0.281675 0.524954 0.079744
Si Si4 0.745227 0.334163 0.579603
Si Si5 0.012888 0.910451 0.917912
Si Si6 0.120215 0.470750 0.078080
Si Si7 0.557745 0.451595 0.072385
O O1 0.450293 0.750000 0.500000
O O2 0.421018 0.807973 0.250000
O O3 0.330233 0.816635 0.487174
O O4 0.451522 0.879888 0.470536
O O5 0.054713 0.750000 0.500000
O O6 0.104569 0.702032 0.750000
O O7 0.176900 0.686177 0.497515
O O8 0.045582 0.635049 0.538006
O O9 0.303740 0.508798 0.250000
O O10 0.252097 0.593563 0.084091
O O11 0.208237 0.485059 0.034722
O O12 0.356843 0.527409 0.977819
O O13 0.739144 0.312171 0.750000
O O14 0.015765 0.885772 0.750000
O O15 0.069888 0.967862 0.920400
O O16 0.927260 0.929366 0.965949
O O17 0.119945 0.448858 0.250000
O O18 0.550690 0.453805 0.250000
O O19 0.500000 0.500000 0.000000
#
# Coordination Sequence:
#
# PCOD9434462 Si02
#       7
#     8   8   8   8   8   8   8
#     4  10  20  33  49  73 100 133 171 206 244 299
#     4  12  23  33  45  62  90 128 167 207 248 293
#     4   9  17  31  51  72  99 131 164 202 245 292
#     4  10  18  31  47  67  96 130 166 203 240 286
#     4  10  19  32  47  68  95 124 162 203 243 285
#     4   9  17  31  49  71  96 125 159 198 243 287
#     4  10  21  35  52  76 105 135 171 209 255 307
#
# _framework density 16.146422000000001
#
# number of rings (size 3 to 8) (size 9 to 14) (size 15 to 20)
#    0.000    2.000    1.429    3.429    0.000    3.429 
#    0.000    0.000    0.000    0.000    0.000    1.000 
#    0.000    4.571    0.000    0.000    0.000    0.000 
#
# Total GULP energy -312057.315558 kJ/mol
# GULP energy per Si atom -5572.452064 kJ/mol
# Density = 1.610967 g / cm^3
# Si number density = 16.146422 Si / 1000 Ang^3
#
#
#
# Elastic Constant Matrix: (Units=GPa)
#
#
# Indices 1 2 3 4 5 6 
#
# 1 62.2684 34.4271 26.4014 0.0000 0.0000 0.0000
# 2 34.4271 65.0537 29.4422 0.0000 0.0000 0.0000
# 3 26.4014 29.4422 73.2056 0.0000 0.0000 0.0000
# 4 0.0000 0.0000 0.0000 25.7747 0.0000 0.0000
# 5 0.0000 0.0000 0.0000 0.0000 22.6408 0.0000
# 6 0.0000 0.0000 0.0000 0.0000 0.0000 3.9764
#
#
#
# Elastic Compliance Matrix: (Units=1/GPa)
#
#
# Indices 1 2 3 4 5 6 
#
# 1 0.023756 -0.010629 -0.004293 0.000000 0.000000 0.000000
# 2 -0.010629 0.023548 -0.005637 0.000000 0.000000 0.000000
# 3 -0.004293 -0.005637 0.017476 0.000000 0.000000 0.000000
# 4 0.000000 0.000000 0.000000 0.038798 0.000000 0.000000
# 5 0.000000 0.000000 0.000000 0.000000 0.044168 0.000000
# 6 0.000000 0.000000 0.000000 0.000000 0.000000 0.251482
#
#
# Mechanical properties :
#
#
# Convention : Reuss Voigt Hill
#
# Bulk Modulus (GPa) = 42.26265 42.34100 42.30182
# Shear Modulus (GPa) = 11.15488 17.82885 14.49187
#
# Velocity S-wave (km/s) = 2.63127 3.32655 2.99913
# Velocity P-wave (km/s) = 5.95507 6.40583 6.18456
#
# Compressibility (1/GPa) = 0.02366155
#
# Stress axis : x y z
#
# Youngs Moduli (GPa) = 42.09399 42.46567 57.22271
#
# Poissons Ratio (x) = 0.45138 0.24564
# Poissons Ratio (y) = 0.44743 0.32259
# Poissons Ratio (z) = 0.18070 0.23940
#
# Static dielectric constant tensor:
#      x y z
#    x 1.515280 0.000000 0.000000 
#    y 0.000000 1.617130 0.000000 
#    z 0.000000 0.000000 1.554780 
# 
# From -- ./inp_files/6991.got.cif
#   From: 2010.05.17/outbox.cif.g08.bks.cpg/sg57_4_cif.got.tgz:6991.got - 2010.06.03 13:58:18.
