data_PCOD9434767
_publ_section_title
;
Structure prediction by ZEFSAII (Michael W. Deem and Ramdas Pophale) SiO2 
 PCOD9434767
Probable space group: P B C M
;
_chemical_formula_sum "Si O2"
_cell_formula_units_Z 60
_cell_length_a 9.875817
_cell_length_b 16.451258
_cell_length_c 16.502991
_cell_angle_alpha 90.000000
_cell_angle_beta 90.000000
_cell_angle_gamma 90.000000
_cell_volume 2681.234568
_symmetry_space_group_name_H-M "P B C M"
_symmetry_group_IT_number 57
_symmetry_cell_setting 'orthorhombic'
loop_
_space_group_symop_operation_xyz
x,y,z
-x,-y,1/2+z
x,1/2-y,-z
-x,1/2+y,1/2-z
-x,-y,-z
x,y,1/2-z
-x,1/2+y,z
x,1/2-y,1/2+z
loop_
_atom_site_type_symbol
_atom_site_label
_atom_site_fract_x
_atom_site_fract_y
_atom_site_fract_z
Si Si1 0.762619 0.432391 0.535537
Si Si2 0.411797 0.526608 0.617575
Si Si3 0.107155 0.659005 0.605232
Si Si4 0.181405 0.568526 0.750000
Si Si5 0.137252 0.253842 0.157720
Si Si6 0.375581 0.158149 0.413838
Si Si7 0.343028 0.725674 0.094605
Si Si8 0.692248 0.897378 0.094150
O O1 0.638578 0.444215 0.471434
O O2 0.874507 0.390673 0.477764
O O3 0.721317 0.364050 0.600314
O O4 0.779834 0.522317 0.570679
O O5 0.293092 0.544852 0.679733
O O6 0.424040 0.430055 0.614458
O O7 0.553654 0.569772 0.633032
O O8 0.077257 0.598649 0.678295
O O9 0.245624 0.707082 0.633170
O O10 0.992686 0.727645 0.602593
O O11 0.095581 0.238711 0.250000
O O12 0.234721 0.182697 0.126743
O O13 0.228157 0.334514 0.148698
O O14 0.497727 0.218652 0.388530
O O15 0.347407 0.148980 0.509982
O O16 0.333695 0.750000 0.000000
#
# Coordination Sequence:
#
# PCOD9434767 Si02
#       8
#     8   8   8   4   8   8   8   8
#     4   9  18  37  67  96 119 161 209 269 320 381
#     4  10  20  37  68  98 129 161 211 273 331 388
#     4  10  23  42  63  86 131 179 221 254 316 400
#     4  10  22  40  64  86 126 184 212 256 322 398
#     4  12  28  43  60  90 136 177 217 268 322 388
#     4  11  22  40  67 100 129 162 211 277 333 383
#     4  10  18  34  65  96 121 155 206 264 325 382
#     4  11  21  40  68 101 133 159 213 283 334 383
#
# _framework density 22.377752000000001
#
# number of rings (size 3 to 8) (size 9 to 14) (size 15 to 20)
#    0.000    1.600    3.333    2.000    5.600    3.733 
#    0.000    2.667    1.467    0.000    0.000    0.000 
#    0.000    0.000    0.000    0.000    0.000    0.000 
#
# Total GULP energy -334063.880034 kJ/mol
# GULP energy per Si atom -5567.731334 kJ/mol
# Density = 2.232682 g / cm^3
# Si number density = 22.377752 Si / 1000 Ang^3
#
#
#
# Elastic Constant Matrix: (Units=GPa)
#
#
# Indices 1 2 3 4 5 6 
#
# 1 62.1259 2.4651 -9.7338 0.0000 0.0000 0.0000
# 2 2.4651 71.8818 -7.2681 0.0000 0.0000 0.0000
# 3 -9.7338 -7.2681 24.8115 0.0000 0.0000 0.0000
# 4 0.0000 0.0000 0.0000 -3.4447 0.0000 0.0000
# 5 0.0000 0.0000 0.0000 0.0000 25.2243 0.0000
# 6 0.0000 0.0000 0.0000 0.0000 0.0000 33.7863
#
#
#
# Elastic Compliance Matrix: (Units=1/GPa)
#
#
# Indices 1 2 3 4 5 6 
#
# 1 0.017151 0.000095 0.006756 0.000000 0.000000 0.000000
# 2 0.000095 0.014337 0.004237 0.000000 0.000000 0.000000
# 3 0.006756 0.004237 0.044196 0.000000 0.000000 0.000000
# 4 0.000000 0.000000 0.000000 -0.290304 0.000000 0.000000
# 5 0.000000 0.000000 0.000000 0.000000 0.039644 0.000000
# 6 0.000000 0.000000 0.000000 0.000000 0.000000 0.029598
#
#
# Mechanical properties :
#
#
# Convention : Reuss Voigt Hill
#
# Bulk Modulus (GPa) = 10.21863 14.41618 12.31740
# Shear Modulus (GPa) = -37.05491 22.67024 -7.19233
#
# Velocity S-wave (km/s) = -4.07367 3.18633 -1.79472
# Velocity P-wave (km/s) = 4.18927 4.47137 1.10524
#
# Compressibility (1/GPa) = 0.09786052
#
# Stress axis : x y z
#
# Youngs Moduli (GPa) = 58.30504 69.75021 22.62662
#
# Poissons Ratio (x) = -0.00662 -0.15287
# Poissons Ratio (y) = -0.00554 -0.09587
# Poissons Ratio (z) = -0.39393 -0.29553
#
# Static dielectric constant tensor:
#      x y z
#    x 1.896860 0.000000 0.000000 
#    y 0.000000 1.915570 0.000000 
#    z 0.000000 0.000000 1.803410 
# 
# From -- ./inp_files/21282.got.cif
#   From: 2010.05.17/outbox.cif.g08.bks.cpg/sg57_11_cif.got.tgz:21282.got - 2010.06.03 13:58:18.
