data_PCOD9434782
_publ_section_title
;
Structure prediction by ZEFSAII (Michael W. Deem and Ramdas Pophale) SiO2 
 PCOD9434782
Probable space group: P B C M
;
_chemical_formula_sum "Si O2"
_cell_formula_units_Z 60
_cell_length_a 13.881334
_cell_length_b 12.209329
_cell_length_c 15.973848
_cell_angle_alpha 90.000000
_cell_angle_beta 90.000000
_cell_angle_gamma 90.000000
_cell_volume 2707.276093
_symmetry_space_group_name_H-M "P B C M"
_symmetry_group_IT_number 57
_symmetry_cell_setting 'orthorhombic'
loop_
_space_group_symop_operation_xyz
x,y,z
-x,-y,1/2+z
x,1/2-y,-z
-x,1/2+y,1/2-z
-x,-y,-z
x,y,1/2-z
-x,1/2+y,z
x,1/2-y,1/2+z
loop_
_atom_site_type_symbol
_atom_site_label
_atom_site_fract_x
_atom_site_fract_y
_atom_site_fract_z
Si Si1 0.106361 0.789834 0.343382
Si Si2 0.342987 0.027068 0.338062
Si Si3 0.736291 0.157421 0.425186
Si Si4 0.827942 0.018581 0.951768
Si Si5 0.601524 0.750000 0.500000
Si Si6 0.095738 0.320848 0.652772
Si Si7 0.286227 0.214205 0.656693
Si Si8 0.524795 0.071899 0.418818
O O1 0.099013 0.834601 0.250000
O O2 0.204584 0.721738 0.355067
O O3 0.109051 0.887363 0.409203
O O4 0.013213 0.715579 0.358457
O O5 0.312068 0.978200 0.250000
O O6 0.314491 0.155860 0.338039
O O7 0.457382 0.017590 0.348625
O O8 0.279936 0.976855 0.411358
O O9 0.723895 0.250000 0.500000
O O10 0.806567 0.058962 0.455532
O O11 0.634396 0.102993 0.402590
O O12 0.872227 0.905809 0.919005
O O13 0.665658 0.819072 0.432552
O O14 0.530332 0.816837 0.558595
O O15 0.106473 0.363092 0.750000
O O16 0.170923 0.219629 0.647781
O O17 0.311656 0.167892 0.750000
O O18 0.500000 0.000000 0.500000
#
# Coordination Sequence:
#
# PCOD9434782 Si02
#       8
#     8   8   8   8   4   8   8   8
#     4  10  21  36  56  83 115 149 185 231 287 335
#     4   9  17  30  55  82 102 137 186 227 269 327
#     4  10  21  36  54  80 113 149 188 228 275 333
#     4  10  18  35  58  82 111 146 187 229 275 338
#     4  10  20  34  56  80 110 150 184 226 292 330
#     4   9  18  35  59  85 110 144 186 232 282 333
#     4   8  16  33  54  80 110 139 183 232 274 332
#     4  11  20  35  55  77 110 147 182 226 280 331
#
# _framework density 22.162496999999998
#
# number of rings (size 3 to 8) (size 9 to 14) (size 15 to 20)
#    0.000    2.400    2.000    2.000    0.000    1.067 
#    3.600    2.000    0.000    1.600    0.000    0.000 
#    0.000    0.000    0.000    0.000    0.000    0.000 
#
# Total GULP energy -334158.445600 kJ/mol
# GULP energy per Si atom -5569.307427 kJ/mol
# Density = 2.211205 g / cm^3
# Si number density = 22.162497 Si / 1000 Ang^3
#
#
#
# Elastic Constant Matrix: (Units=GPa)
#
#
# Indices 1 2 3 4 5 6 
#
# 1 116.9149 6.7725 9.9499 0.0000 0.0000 0.0000
# 2 6.7725 19.0348 -9.3506 0.0000 0.0000 0.0000
# 3 9.9499 -9.3506 38.9952 0.0000 0.0000 0.0000
# 4 0.0000 0.0000 0.0000 12.1856 0.0000 0.0000
# 5 0.0000 0.0000 0.0000 0.0000 18.5667 0.0000
# 6 0.0000 0.0000 0.0000 0.0000 0.0000 23.5439
#
#
#
# Elastic Compliance Matrix: (Units=1/GPa)
#
#
# Indices 1 2 3 4 5 6 
#
# 1 0.009142 -0.004986 -0.003528 0.000000 0.000000 0.000000
# 2 -0.004986 0.062269 0.016204 0.000000 0.000000 0.000000
# 3 -0.003528 0.016204 0.030430 0.000000 0.000000 0.000000
# 4 0.000000 0.000000 0.000000 0.082064 0.000000 0.000000
# 5 0.000000 0.000000 0.000000 0.000000 0.053860 0.000000
# 6 0.000000 0.000000 0.000000 0.000000 0.000000 0.042474
#
#
# Mechanical properties :
#
#
# Convention : Reuss Voigt Hill
#
# Bulk Modulus (GPa) = 8.53097 21.07649 14.80373
# Shear Modulus (GPa) = 16.45093 22.03077 19.24085
#
# Velocity S-wave (km/s) = 2.72745 3.15629 2.94967
# Velocity P-wave (km/s) = 3.71164 4.77635 4.27725
#
# Compressibility (1/GPa) = 0.11721990
#
# Stress axis : x y z
#
# Youngs Moduli (GPa) = 109.38141 16.05931 32.86246
#
# Poissons Ratio (x) = 0.08007 0.11595
# Poissons Ratio (y) = 0.54538 -0.53249
# Poissons Ratio (z) = 0.38593 -0.26022
#
# Static dielectric constant tensor:
#      x y z
#    x 1.874540 0.000000 0.000000 
#    y 0.000000 1.962810 0.000000 
#    z 0.000000 0.000000 1.883150 
# 
# From -- ./inp_files/21982.got.cif
#   From: 2010.05.17/outbox.cif.g08.bks.cpg/sg57_11_cif.got.tgz:21982.got - 2010.06.03 13:58:18.
