data_PCOD9434675
_publ_section_title
;
Structure prediction by ZEFSAII (Michael W. Deem and Ramdas Pophale) SiO2 
 PCOD9434675
Probable space group: P B C M
;
_chemical_formula_sum "Si O2"
_cell_formula_units_Z 56
_cell_length_a 15.403481
_cell_length_b 12.886609
_cell_length_c 14.791724
_cell_angle_alpha 90.000000
_cell_angle_beta 90.000000
_cell_angle_gamma 90.000000
_cell_volume 2936.137051
_symmetry_space_group_name_H-M "P B C M"
_symmetry_group_IT_number 57
_symmetry_cell_setting 'orthorhombic'
loop_
_space_group_symop_operation_xyz
x,y,z
-x,-y,1/2+z
x,1/2-y,-z
-x,1/2+y,1/2-z
-x,-y,-z
x,y,1/2-z
-x,1/2+y,z
x,1/2-y,1/2+z
loop_
_atom_site_type_symbol
_atom_site_label
_atom_site_fract_x
_atom_site_fract_y
_atom_site_fract_z
Si Si1 0.919086 0.971783 0.146071
Si Si2 0.114352 0.482801 0.852825
Si Si3 0.768609 0.032788 0.485520
Si Si4 0.405828 0.631282 0.012283
Si Si5 0.508968 0.969930 0.144013
Si Si6 0.336970 0.330939 0.076325
Si Si7 0.159627 0.248147 0.890686
O O1 0.913093 0.005772 0.250000
O O2 0.896736 0.849461 0.140800
O O3 0.846112 0.028093 0.086762
O O4 0.016904 0.992617 0.114576
O O5 0.122233 0.519162 0.750000
O O6 0.128501 0.358840 0.856684
O O7 0.185473 0.532546 0.917932
O O8 0.696839 0.119966 0.471848
O O9 0.713850 0.926126 0.472196
O O10 0.431507 0.569955 0.920362
O O11 0.430117 0.750000 0.000000
O O12 0.455329 0.573800 0.094606
O O13 0.489664 0.983249 0.250000
O O14 0.585423 0.883934 0.130842
O O15 0.260516 0.274929 0.132514
O O16 0.367263 0.250000 0.000000
O O17 0.155517 0.250000 0.000000
#
# Coordination Sequence:
#
# PCOD9434675 Si02
#       7
#     8   8   8   8   8   8   8
#     4  10  21  36  56  80 112 150 194 242 288 344
#     4  11  21  35  54  82 114 149 192 243 294 342
#     4  10  20  37  57  80 114 153 193 235 287 347
#     4  10  23  43  62  88 125 159 196 244 295 355
#     4  10  22  39  65  92 118 155 200 244 291 351
#     4   9  16  33  57  86 117 143 189 237 288 344
#     4  10  18  33  56  80 110 147 185 238 294 341
#
# _framework density 19.072678
#
# number of rings (size 3 to 8) (size 9 to 14) (size 15 to 20)
#    0.000    2.000    4.286    1.286    0.000    6.857 
#    2.571    0.000    0.000    0.000    0.000    0.000 
#    0.000    0.000    0.000    0.000    0.000    0.000 
#
# Total GULP energy -312483.308844 kJ/mol
# GULP energy per Si atom -5580.059086 kJ/mol
# Density = 1.902927 g / cm^3
# Si number density = 19.072678 Si / 1000 Ang^3
#
#
#
# Elastic Constant Matrix: (Units=GPa)
#
#
# Indices 1 2 3 4 5 6 
#
# 1 45.2396 -2.2394 -3.3044 0.0000 0.0000 0.0000
# 2 -2.2394 56.7188 -6.7912 0.0000 0.0000 0.0000
# 3 -3.3044 -6.7912 100.2948 0.0000 0.0000 0.0000
# 4 0.0000 0.0000 0.0000 12.4732 0.0000 0.0000
# 5 0.0000 0.0000 0.0000 0.0000 -570.4800 0.0000
# 6 0.0000 0.0000 0.0000 0.0000 0.0000 9.4379
#
#
#
# Elastic Compliance Matrix: (Units=1/GPa)
#
#
# Indices 1 2 3 4 5 6 
#
# 1 0.022211 0.000972 0.000798 0.000000 0.000000 0.000000
# 2 0.000972 0.017818 0.001239 0.000000 0.000000 0.000000
# 3 0.000798 0.001239 0.010081 0.000000 0.000000 0.000000
# 4 0.000000 0.000000 0.000000 0.080172 0.000000 0.000000
# 5 0.000000 0.000000 0.000000 0.000000 -0.001753 0.000000
# 6 0.000000 0.000000 0.000000 0.000000 0.000000 0.105956
#
#
# Mechanical properties :
#
#
# Convention : Reuss Voigt Hill
#
# Bulk Modulus (GPa) = 17.81692 19.73145 18.77418
# Shear Modulus (GPa) = 20.22856 -95.40788 -37.58966
#
# Velocity S-wave (km/s) = 3.26023 -7.08039 -4.44426
# Velocity P-wave (km/s) = 4.85118 7.51497 4.05837
#
# Compressibility (1/GPa) = 0.05612642
#
# Stress axis : x y z
#
# Youngs Moduli (GPa) = 45.02289 56.12453 99.19899
#
# Poissons Ratio (x) = -0.05458 -0.07912
# Poissons Ratio (y) = -0.04378 -0.12286
# Poissons Ratio (z) = -0.03591 -0.06951
#
# Static dielectric constant tensor:
#      x y z
#    x 1.679360 0.000000 0.000000 
#    y 0.000000 1.675260 0.000000 
#    z 0.000000 0.000000 1.678810 
# 
# From -- ./inp_files/18608.got.cif
#   From: 2010.05.17/outbox.cif.g08.bks.cpg/sg57_10_cif.got.tgz:18608.got - 2010.06.03 13:58:18.
