data_PCOD9434743
_publ_section_title
;
Structure prediction by ZEFSAII (Michael W. Deem and Ramdas Pophale) SiO2 
 PCOD9434743
Probable space group: P B C M
;
_chemical_formula_sum "Si O2"
_cell_formula_units_Z 52
_cell_length_a 14.153090
_cell_length_b 9.204229
_cell_length_c 20.823771
_cell_angle_alpha 90.000000
_cell_angle_beta 90.000000
_cell_angle_gamma 90.000000
_cell_volume 2712.676861
_symmetry_space_group_name_H-M "P B C M"
_symmetry_group_IT_number 57
_symmetry_cell_setting 'orthorhombic'
loop_
_space_group_symop_operation_xyz
x,y,z
-x,-y,1/2+z
x,1/2-y,-z
-x,1/2+y,1/2-z
-x,-y,-z
x,y,1/2-z
-x,1/2+y,z
x,1/2-y,1/2+z
loop_
_atom_site_type_symbol
_atom_site_label
_atom_site_fract_x
_atom_site_fract_y
_atom_site_fract_z
Si Si1 0.099862 0.422586 0.006077
Si Si2 0.680831 0.587206 0.750000
Si Si3 0.420764 0.645994 0.884678
Si Si4 0.272460 0.073983 0.250000
Si Si5 0.454882 0.875611 0.250000
Si Si6 0.744149 0.591364 0.892471
Si Si7 0.756315 0.559674 0.391827
Si Si8 0.562730 0.451908 0.940231
O O1 0.156244 0.445325 0.073378
O O2 0.086385 0.250000 0.000000
O O3 0.165354 0.467598 0.945532
O O4 0.000000 0.500000 0.000000
O O5 0.712676 0.755062 0.750000
O O6 0.566185 0.588085 0.750000
O O7 0.723807 0.536369 0.819383
O O8 0.422884 0.710191 0.813290
O O9 0.330886 0.549383 0.902403
O O10 0.507015 0.533366 0.883595
O O11 0.435314 0.781251 0.930457
O O12 0.220616 0.033420 0.183663
O O13 0.379352 0.009025 0.250000
O O14 0.730692 0.767552 0.895855
O O15 0.666295 0.518192 0.938323
O O16 0.500000 0.500000 0.000000
#
# Coordination Sequence:
#
# PCOD9434743 Si02
#       8
#     8   4   8   4   4   8   8   8
#     4  10  22  40  64  85 111 144 187 238 297 357
#     4  10  18  34  57  78 115 151 196 238 284 343
#     4  11  23  34  54  80 116 156 194 239 280 340
#     4   8  18  32  57  81 115 156 190 236 285 337
#     4  10  20  32  52  81 114 157 198 232 285 330
#     4  10  21  38  58  82 113 151 191 244 292 346
#     4   9  19  39  59  85 113 149 194 238 290 349
#     4  12  24  36  51  78 116 159 198 238 280 335
#
# _framework density 19.169256000000001
#
# number of rings (size 3 to 8) (size 9 to 14) (size 15 to 20)
#    0.000    1.846    1.538    2.308    4.308    4.308 
#    0.000    0.769    0.000    0.000    0.000    0.000 
#    0.000    0.000    0.000    0.000    0.000    0.000 
#
# Total GULP energy -289827.944595 kJ/mol
# GULP energy per Si atom -5573.614319 kJ/mol
# Density = 1.912563 g / cm^3
# Si number density = 19.169256 Si / 1000 Ang^3
#
#
#
# Elastic Constant Matrix: (Units=GPa)
#
#
# Indices 1 2 3 4 5 6 
#
# 1 125.9929 42.2917 65.8197 0.0000 0.0000 0.0000
# 2 42.2917 66.9770 35.0011 0.0000 0.0000 0.0000
# 3 65.8197 35.0011 157.5992 0.0000 0.0000 0.0000
# 4 0.0000 0.0000 0.0000 20.4432 0.0000 0.0000
# 5 0.0000 0.0000 0.0000 0.0000 20.9231 0.0000
# 6 0.0000 0.0000 0.0000 0.0000 0.0000 31.2369
#
#
#
# Elastic Compliance Matrix: (Units=1/GPa)
#
#
# Indices 1 2 3 4 5 6 
#
# 1 0.011687 -0.005463 -0.003668 0.000000 0.000000 0.000000
# 2 -0.005463 0.019444 -0.002037 0.000000 0.000000 0.000000
# 3 -0.003668 -0.002037 0.008329 0.000000 0.000000 0.000000
# 4 0.000000 0.000000 0.000000 0.048916 0.000000 0.000000
# 5 0.000000 0.000000 0.000000 0.000000 0.047794 0.000000
# 6 0.000000 0.000000 0.000000 0.000000 0.000000 0.032013
#
#
# Mechanical properties :
#
#
# Convention : Reuss Voigt Hill
#
# Bulk Modulus (GPa) = 58.39149 70.75491 64.57320
# Shear Modulus (GPa) = 25.48072 28.35107 26.91590
#
# Velocity S-wave (km/s) = 3.64984 3.84993 3.75122
# Velocity P-wave (km/s) = 6.94902 7.53348 7.24715
#
# Compressibility (1/GPa) = 0.01712578
#
# Stress axis : x y z
#
# Youngs Moduli (GPa) = 85.56822 51.42884 120.05793
#
# Poissons Ratio (x) = 0.28094 0.44032
# Poissons Ratio (y) = 0.46744 0.24455
# Poissons Ratio (z) = 0.31383 0.10476
#
# Static dielectric constant tensor:
#      x y z
#    x 1.651700 0.000000 0.000000 
#    y 0.000000 1.661800 0.000000 
#    z 0.000000 0.000000 1.882740 
# 
# From -- ./inp_files/25346.got.cif
#   From: 2010.05.17/outbox.cif.g08.bks.cpg/sg57_13_cif.got.tgz:25346.got - 2010.06.03 13:58:18.
