data_PCOD9434776
_publ_section_title
;
Structure prediction by ZEFSAII (Michael W. Deem and Ramdas Pophale) SiO2 
 PCOD9434776
Probable space group: P B C M
;
_chemical_formula_sum "Si O2"
_cell_formula_units_Z 44
_cell_length_a 14.927139
_cell_length_b 13.530559
_cell_length_c 9.044977
_cell_angle_alpha 90.000000
_cell_angle_beta 90.000000
_cell_angle_gamma 90.000000
_cell_volume 1826.836933
_symmetry_space_group_name_H-M "P B C M"
_symmetry_group_IT_number 57
_symmetry_cell_setting 'orthorhombic'
loop_
_space_group_symop_operation_xyz
x,y,z
-x,-y,1/2+z
x,1/2-y,-z
-x,1/2+y,1/2-z
-x,-y,-z
x,y,1/2-z
-x,1/2+y,z
x,1/2-y,1/2+z
loop_
_atom_site_type_symbol
_atom_site_label
_atom_site_fract_x
_atom_site_fract_y
_atom_site_fract_z
Si Si1 0.282854 0.870537 0.420330
Si Si2 0.893433 0.111538 0.421121
Si Si3 0.650316 0.593745 0.750000
Si Si4 0.911952 0.588758 0.413451
Si Si5 0.428676 0.210453 0.250000
Si Si6 0.717559 0.892159 0.942505
Si Si7 0.369808 0.638290 0.250000
O O1 0.305531 0.834813 0.250000
O O2 0.178556 0.851354 0.459647
O O3 0.328891 0.841609 0.581171
O O4 0.292334 0.990372 0.409386
O O5 0.862993 0.124189 0.250000
O O6 0.995761 0.146586 0.435839
O O7 0.901134 0.994757 0.461649
O O8 0.570140 0.671289 0.750000
O O9 0.711429 0.616638 0.614018
O O10 0.623427 0.480863 0.750000
O O11 0.923429 0.539830 0.250000
O O12 0.816770 0.642393 0.402217
O O13 0.367793 0.165541 0.380547
O O14 0.529649 0.177017 0.250000
#
# Coordination Sequence:
#
# PCOD9434776 Si02
#       7
#     8   8   4   8   4   8   4
#     4  10  18  35  55  83 125 164 202 259 318 372
#     4   9  15  24  45  76 116 157 201 247 293 362
#     4  10  24  38  60  86 118 166 206 262 328 392
#     4   9  16  26  44  74 115 164 197 240 298 353
#     4  12  22  42  61  83 121 162 213 271 320 387
#     4  10  19  36  53  80 121 160 200 253 314 371
#     4  10  24  40  63  89 121 168 213 265 330 383
#
# _framework density 24.085346000000001
#
# number of rings (size 3 to 8) (size 9 to 14) (size 15 to 20)
#    0.000    2.182    2.727    2.182    3.818    3.636 
#    1.636    0.000    0.000    0.000    0.000    0.000 
#    0.000   52.364    0.000    0.000    0.000    0.182 
#
# Total GULP energy -245126.182337 kJ/mol
# GULP energy per Si atom -5571.049599 kJ/mol
# Density = 2.403053 g / cm^3
# Si number density = 24.085346 Si / 1000 Ang^3
#
#
#
# Elastic Constant Matrix: (Units=GPa)
#
#
# Indices 1 2 3 4 5 6 
#
# 1 183.0328 11.6318 77.7794 0.0000 0.0000 0.0000
# 2 11.6318 61.2951 50.4749 0.0000 0.0000 0.0000
# 3 77.7794 50.4749 218.2093 0.0000 0.0000 0.0000
# 4 0.0000 0.0000 0.0000 23.4953 0.0000 0.0000
# 5 0.0000 0.0000 0.0000 0.0000 -10.0635 0.0000
# 6 0.0000 0.0000 0.0000 0.0000 0.0000 -20.9066
#
#
#
# Elastic Compliance Matrix: (Units=1/GPa)
#
#
# Indices 1 2 3 4 5 6 
#
# 1 0.006473 0.000830 -0.002499 0.000000 0.000000 0.000000
# 2 0.000830 0.020260 -0.004982 0.000000 0.000000 0.000000
# 3 -0.002499 -0.004982 0.006626 0.000000 0.000000 0.000000
# 4 0.000000 0.000000 0.000000 0.042562 0.000000 0.000000
# 5 0.000000 0.000000 0.000000 0.000000 -0.099369 0.000000
# 6 0.000000 0.000000 0.000000 0.000000 0.000000 -0.047832
#
#
# Mechanical properties :
#
#
# Convention : Reuss Voigt Hill
#
# Bulk Modulus (GPa) = 49.86204 82.47882 66.17043
# Shear Modulus (GPa) = -97.48008 20.01512 -38.73248
#
# Velocity S-wave (km/s) = -6.36872 2.88585 -4.01451
# Velocity P-wave (km/s) = 5.77353 6.73965 2.45858
#
# Compressibility (1/GPa) = 0.02005534
#
# Stress axis : x y z
#
# Youngs Moduli (GPa) = 154.49371 49.35911 150.92157
#
# Poissons Ratio (x) = -0.04095 0.37716
# Poissons Ratio (y) = -0.12817 0.75190
# Poissons Ratio (z) = 0.38609 0.24591
#
# Static dielectric constant tensor:
#      x y z
#    x 1.907880 0.000000 0.000000 
#    y 0.000000 2.013110 0.000000 
#    z 0.000000 0.000000 1.950600 
# 
# From -- ./inp_files/4507.got.cif
#   From: 2010.05.17/outbox.cif.g08.bks.cpg/sg57_3_cif.got.tgz:4507.got - 2010.06.03 13:58:18.
