data_PCOD9434094
_publ_section_title
;
Structure prediction by ZEFSAII (Michael W. Deem and Ramdas Pophale) SiO2 
 PCOD9434094
Probable space group: P B C M
;
_chemical_formula_sum "Si O2"
_cell_formula_units_Z 64
_cell_length_a 15.806331
_cell_length_b 8.141937
_cell_length_c 28.599311
_cell_angle_alpha 90.000000
_cell_angle_beta 90.000000
_cell_angle_gamma 90.000000
_cell_volume 3680.564054
_symmetry_space_group_name_H-M "P B C M"
_symmetry_group_IT_number 57
_symmetry_cell_setting 'orthorhombic'
loop_
_space_group_symop_operation_xyz
x,y,z
-x,-y,1/2+z
x,1/2-y,-z
-x,1/2+y,1/2-z
-x,-y,-z
x,y,1/2-z
-x,1/2+y,z
x,1/2-y,1/2+z
loop_
_atom_site_type_symbol
_atom_site_label
_atom_site_fract_x
_atom_site_fract_y
_atom_site_fract_z
Si Si1 0.375531 0.901386 0.804302
Si Si2 0.627732 0.085714 0.929377
Si Si3 0.909115 0.589668 0.693440
Si Si4 0.533371 0.408780 0.600815
Si Si5 0.270798 0.588699 0.840525
Si Si6 0.592565 0.565371 0.983623
Si Si7 0.905355 0.294957 0.306382
Si Si8 0.266079 0.267247 0.194236
O O1 0.403395 0.901074 0.750000
O O2 0.447085 0.902813 0.844325
O O3 0.320001 0.736857 0.813833
O O4 0.321332 0.067797 0.812607
O O5 0.564411 0.945137 0.909245
O O6 0.705297 0.108416 0.894709
O O7 0.567517 0.243592 0.923255
O O8 0.650756 0.045153 0.982627
O O9 0.909319 0.605411 0.750000
O O10 0.895910 0.398007 0.683382
O O11 0.828751 0.692693 0.676268
O O12 0.001743 0.647310 0.678084
O O13 0.591120 0.539447 0.571819
O O14 0.172364 0.609576 0.829004
O O15 0.297923 0.405271 0.825790
O O16 0.395794 0.250000 0.000000
O O17 0.500000 0.500000 0.000000
O O18 0.899742 0.317340 0.250000
O O19 0.261184 0.244025 0.250000
#
# Coordination Sequence:
#
# PCOD9434094 Si02
#       8
#     8   8   8   8   8   8   8   8
#     4  10  21  36  50  70 101 141 176 213 250 302
#     4  10  21  34  53  77  99 133 169 217 265 317
#     4   9  17  28  47  70  95 131 178 219 255 302
#     4  10  20  35  54  72 101 132 172 218 261 309
#     4  11  21  32  51  70 105 137 173 210 260 309
#     4  10  18  31  55  78  98 122 161 216 273 319
#     4  10  17  29  45  68  99 133 174 215 256 305
#     4  10  19  31  49  68  96 136 173 210 254 301
#
# _framework density 17.388638
#
# number of rings (size 3 to 8) (size 9 to 14) (size 15 to 20)
#    0.000    2.000    1.250    5.250    3.500    2.000 
#    0.000    3.750    0.000    0.000    0.000    0.000 
#    0.000    1.000    5.250    1.625    0.250    0.125 
#
# Total GULP energy -356622.711098 kJ/mol
# GULP energy per Si atom -5572.229861 kJ/mol
# Density = 1.734906 g / cm^3
# Si number density = 17.388638 Si / 1000 Ang^3
#
#
#
# Elastic Constant Matrix: (Units=GPa)
#
#
# Indices 1 2 3 4 5 6 
#
# 1 22.4411 5.3908 7.0073 0.0000 0.0000 0.0000
# 2 5.3908 92.3049 11.4453 0.0000 0.0000 0.0000
# 3 7.0073 11.4453 64.7485 0.0000 0.0000 0.0000
# 4 0.0000 0.0000 0.0000 13.0869 0.0000 0.0000
# 5 0.0000 0.0000 0.0000 0.0000 15.4373 0.0000
# 6 0.0000 0.0000 0.0000 0.0000 0.0000 14.5604
#
#
#
# Elastic Compliance Matrix: (Units=1/GPa)
#
#
# Indices 1 2 3 4 5 6 
#
# 1 0.046530 -0.002140 -0.004657 0.000000 0.000000 0.000000
# 2 -0.002140 0.011175 -0.001744 0.000000 0.000000 0.000000
# 3 -0.004657 -0.001744 0.016257 0.000000 0.000000 0.000000
# 4 0.000000 0.000000 0.000000 0.076412 0.000000 0.000000
# 5 0.000000 0.000000 0.000000 0.000000 0.064778 0.000000
# 6 0.000000 0.000000 0.000000 0.000000 0.000000 0.068680
#
#
# Mechanical properties :
#
#
# Convention : Reuss Voigt Hill
#
# Bulk Modulus (GPa) = 17.58119 25.24237 21.41178
# Shear Modulus (GPa) = 15.63120 18.99363 17.31242
#
# Velocity S-wave (km/s) = 3.00147 3.30858 3.15876
# Velocity P-wave (km/s) = 4.70579 5.39849 5.06400
#
# Compressibility (1/GPa) = 0.05687899
#
# Stress axis : x y z
#
# Youngs Moduli (GPa) = 21.49174 89.48661 61.51337
#
# Poissons Ratio (x) = 0.19150 0.28649
# Poissons Ratio (y) = 0.04599 0.10726
# Poissons Ratio (z) = 0.10009 0.15604
#
# Static dielectric constant tensor:
#      x y z
#    x 1.596290 0.000000 0.000000 
#    y 0.000000 1.691860 0.000000 
#    z 0.000000 0.000000 1.629350 
# 
# From -- ./inp_files/29888.got.cif
#   From: 2010.05.17/outbox.cif.g08.bks.cpg/sg57_15_cif.got.tgz:29888.got - 2010.06.03 13:58:18.
