data_PCOD9434565
_publ_section_title
;
Structure prediction by ZEFSAII (Michael W. Deem and Ramdas Pophale) SiO2 
 PCOD9434565
Probable space group: P B C M
;
_chemical_formula_sum "Si O2"
_cell_formula_units_Z 56
_cell_length_a 13.793120
_cell_length_b 29.240589
_cell_length_c 8.637204
_cell_angle_alpha 90.000000
_cell_angle_beta 90.000000
_cell_angle_gamma 90.000000
_cell_volume 3483.548074
_symmetry_space_group_name_H-M "P B C M"
_symmetry_group_IT_number 57
_symmetry_cell_setting 'orthorhombic'
loop_
_space_group_symop_operation_xyz
x,y,z
-x,-y,1/2+z
x,1/2-y,-z
-x,1/2+y,1/2-z
-x,-y,-z
x,y,1/2-z
-x,1/2+y,z
x,1/2-y,1/2+z
loop_
_atom_site_type_symbol
_atom_site_label
_atom_site_fract_x
_atom_site_fract_y
_atom_site_fract_z
Si Si1 0.602341 0.016686 0.562941
Si Si2 0.775888 0.200665 0.562680
Si Si3 0.791561 0.532075 0.934314
Si Si4 0.003032 0.200365 0.564218
Si Si5 0.299438 0.606965 0.568635
Si Si6 0.083105 0.107978 0.066215
Si Si7 0.903195 0.052393 0.569017
O O1 0.603085 0.016951 0.750000
O O2 0.628628 0.068222 0.505541
O O3 0.500000 0.000000 0.500000
O O4 0.689890 0.984480 0.505587
O O5 0.745779 0.250000 0.500000
O O6 0.772597 0.201055 0.750000
O O7 0.712919 0.157834 0.503122
O O8 0.889313 0.193514 0.519792
O O9 0.786555 0.530646 0.750000
O O10 0.826271 0.581408 0.992254
O O11 0.871358 0.495243 0.993156
O O12 0.031833 0.250000 0.500000
O O13 0.008159 0.199863 0.750000
O O14 0.064962 0.158835 0.496740
O O15 0.324273 0.612371 0.750000
O O16 0.192917 0.583951 0.562438
O O17 0.091669 0.108239 0.250000
O O18 0.989147 0.078537 0.015398
O O19 0.928016 0.045654 0.750000
#
# Coordination Sequence:
#
# PCOD9434565 Si02
#       7
#     8   8   8   8   8   8   8
#     4  10  20  36  56  76  99 128 162 205 256 309
#     4   9  16  28  44  66  95 130 166 201 239 283
#     4  11  22  35  50  72  98 128 166 207 249 300
#     4  10  19  32  48  68  97 134 174 212 249 289
#     4   8  15  29  48  68  95 131 164 196 242 295
#     4  12  22  32  47  70  99 135 173 208 247 294
#     4  10  18  32  48  67  98 135 169 204 245 291
#
# _framework density 16.075564
#
# number of rings (size 3 to 8) (size 9 to 14) (size 15 to 20)
#    0.000    2.000    1.429    5.143    0.000    0.571 
#    0.000    1.429    0.000    0.000    0.000    1.000 
#    0.000    2.286    0.000    0.000    0.000    0.000 
#
# Total GULP energy -312427.405636 kJ/mol
# GULP energy per Si atom -5579.060815 kJ/mol
# Density = 1.603898 g / cm^3
# Si number density = 16.075564 Si / 1000 Ang^3
#
#
#
# Elastic Constant Matrix: (Units=GPa)
#
#
# Indices 1 2 3 4 5 6 
#
# 1 58.0466 60.9231 20.4628 0.0000 0.0000 0.0000
# 2 60.9231 158.2631 41.1532 0.0000 0.0000 0.0000
# 3 20.4628 41.1532 75.3077 0.0000 0.0000 0.0000
# 4 0.0000 0.0000 0.0000 27.7082 0.0000 0.0000
# 5 0.0000 0.0000 0.0000 0.0000 21.5807 0.0000
# 6 0.0000 0.0000 0.0000 0.0000 0.0000 19.5694
#
#
#
# Elastic Compliance Matrix: (Units=1/GPa)
#
#
# Indices 1 2 3 4 5 6 
#
# 1 0.029185 -0.010692 -0.002087 0.000000 0.000000 0.000000
# 2 -0.010692 0.011282 -0.003260 0.000000 0.000000 0.000000
# 3 -0.002087 -0.003260 0.015628 0.000000 0.000000 0.000000
# 4 0.000000 0.000000 0.000000 0.036090 0.000000 0.000000
# 5 0.000000 0.000000 0.000000 0.000000 0.046338 0.000000
# 6 0.000000 0.000000 0.000000 0.000000 0.000000 0.051100
#
#
# Mechanical properties :
#
#
# Convention : Reuss Voigt Hill
#
# Bulk Modulus (GPa) = 41.63903 59.63283 50.63593
# Shear Modulus (GPa) = 21.76679 25.04354 23.40517
#
# Velocity S-wave (km/s) = 3.68371 3.95126 3.81983
# Velocity P-wave (km/s) = 6.63711 7.61528 7.14296
#
# Compressibility (1/GPa) = 0.02401593
#
# Stress axis : x y z
#
# Youngs Moduli (GPa) = 34.26388 88.63531 63.98941
#
# Poissons Ratio (x) = 0.94769 0.13357
# Poissons Ratio (y) = 0.36635 0.20861
# Poissons Ratio (z) = 0.07152 0.28896
#
# Static dielectric constant tensor:
#      x y z
#    x 1.518570 0.000000 0.000000 
#    y 0.000000 1.565030 0.000000 
#    z 0.000000 0.000000 1.539520 
# 
# From -- ./inp_files/5911.got.cif
#   From: 2010.05.17/outbox.cif.g08.bks.cpg/sg57_3_cif.got.tgz:5911.got - 2010.06.03 13:58:18.
