data_PCOD9434772
_publ_section_title
;
Structure prediction by ZEFSAII (Michael W. Deem and Ramdas Pophale) SiO2 
 PCOD9434772
Probable space group: P B C M
;
_chemical_formula_sum "Si O2"
_cell_formula_units_Z 40
_cell_length_a 23.801790
_cell_length_b 7.642744
_cell_length_c 10.195841
_cell_angle_alpha 90.000000
_cell_angle_beta 90.000000
_cell_angle_gamma 90.000000
_cell_volume 1854.735507
_symmetry_space_group_name_H-M "P B C M"
_symmetry_group_IT_number 57
_symmetry_cell_setting 'orthorhombic'
loop_
_space_group_symop_operation_xyz
x,y,z
-x,-y,1/2+z
x,1/2-y,-z
-x,1/2+y,1/2-z
-x,-y,-z
x,y,1/2-z
-x,1/2+y,z
x,1/2-y,1/2+z
loop_
_atom_site_type_symbol
_atom_site_label
_atom_site_fract_x
_atom_site_fract_y
_atom_site_fract_z
Si Si1 0.327780 0.035738 0.984335
Si Si2 0.449416 0.077386 0.588425
Si Si3 0.934146 0.040002 0.994433
Si Si4 0.859684 0.071572 0.750000
Si Si5 0.126622 0.505879 0.250000
Si Si6 0.726601 0.994509 0.750000
Si Si7 0.253937 0.419006 0.250000
O O1 0.389272 0.982734 0.931378
O O2 0.280708 0.994142 0.877408
O O3 0.326878 0.250000 0.000000
O O4 0.308321 0.954717 0.121199
O O5 0.440378 0.250000 0.500000
O O6 0.459453 0.096155 0.750000
O O7 0.500000 0.000000 0.500000
O O8 0.893864 0.994478 0.873188
O O9 0.930586 0.250000 0.000000
O O10 0.907317 0.955800 0.122173
O O11 0.000000 0.000000 0.000000
O O12 0.867178 0.282423 0.750000
O O13 0.792468 0.044268 0.750000
O O14 0.187879 0.427384 0.250000
O O15 0.727781 0.782856 0.750000
#
# Coordination Sequence:
#
# PCOD9434772 Si02
#       7
#     8   8   8   4   4   4   4
#     4   9  19  34  57  82 111 144 192 236 289 336
#     4  11  23  40  64  91 125 164 207 256 310 367
#     4  10  21  36  54  76 105 140 180 224 274 334
#     4  10  21  37  51  79 111 142 180 220 287 342
#     4  10  21  35  55  75 109 144 172 222 285 338
#     4  10  20  33  56  81 106 142 185 238 273 342
#     4  10  18  35  54  81 104 138 187 230 273 338
#
# _framework density 21.566417000000001
#
# number of rings (size 3 to 8) (size 9 to 14) (size 15 to 20)
#    0.000    2.000    1.000    2.400    5.600    1.600 
#    0.000    2.000    0.000    0.000    0.000    0.000 
#    0.000    0.000    0.000    0.000    0.000    0.000 
#
# Total GULP energy -222887.394263 kJ/mol
# GULP energy per Si atom -5572.184857 kJ/mol
# Density = 2.151733 g / cm^3
# Si number density = 21.566417 Si / 1000 Ang^3
#
#
#
# Elastic Constant Matrix: (Units=GPa)
#
#
# Indices 1 2 3 4 5 6 
#
# 1 169.6763 -10.5803 90.8422 0.0000 0.0000 0.0000
# 2 -10.5803 17.8265 3.0832 0.0000 0.0000 0.0000
# 3 90.8422 3.0832 211.9007 0.0000 0.0000 0.0000
# 4 0.0000 0.0000 0.0000 -10.4792 0.0000 0.0000
# 5 0.0000 0.0000 0.0000 0.0000 45.7385 0.0000
# 6 0.0000 0.0000 0.0000 0.0000 0.0000 29.8524
#
#
#
# Elastic Compliance Matrix: (Units=1/GPa)
#
#
# Indices 1 2 3 4 5 6 
#
# 1 0.008146 0.005452 -0.003571 0.000000 0.000000 0.000000
# 2 0.005452 0.059887 -0.003209 0.000000 0.000000 0.000000
# 3 -0.003571 -0.003209 0.006297 0.000000 0.000000 0.000000
# 4 0.000000 0.000000 0.000000 -0.095427 0.000000 0.000000
# 5 0.000000 0.000000 0.000000 0.000000 0.021863 0.000000
# 6 0.000000 0.000000 0.000000 0.000000 0.000000 0.033498
#
#
# Mechanical properties :
#
#
# Convention : Reuss Voigt Hill
#
# Bulk Modulus (GPa) = 13.95205 62.89931 38.42568
# Shear Modulus (GPa) = 82.22135 34.09289 58.15712
#
# Velocity S-wave (km/s) = 6.18122 3.98028 5.19856
# Velocity P-wave (km/s) = 7.57804 7.09593 7.34094
#
# Compressibility (1/GPa) = 0.07167408
#
# Stress axis : x y z
#
# Youngs Moduli (GPa) = 122.76537 16.69803 158.80737
#
# Poissons Ratio (x) = -0.09104 0.56716
# Poissons Ratio (y) = -0.66935 0.50958
# Poissons Ratio (z) = 0.43844 0.05358
#
# Static dielectric constant tensor:
#      x y z
#    x 1.783390 0.000000 0.000000 
#    y 0.000000 1.703980 0.000000 
#    z 0.000000 0.000000 1.717040 
# 
# From -- ./inp_files/6311.got.cif
#   From: 2010.05.17/outbox.cif.g08.bks.cpg/sg57_4_cif.got.tgz:6311.got - 2010.06.03 13:58:18.
