data_PCOD9434144
_publ_section_title
;
Structure prediction by ZEFSAII (Michael W. Deem and Ramdas Pophale) SiO2 
 PCOD9434144
Probable space group: P B C M
;
_chemical_formula_sum "Si O2"
_cell_formula_units_Z 48
_cell_length_a 9.189156
_cell_length_b 18.948744
_cell_length_c 14.245673
_cell_angle_alpha 90.000000
_cell_angle_beta 90.000000
_cell_angle_gamma 90.000000
_cell_volume 2480.498816
_symmetry_space_group_name_H-M "P B C M"
_symmetry_group_IT_number 57
_symmetry_cell_setting 'orthorhombic'
loop_
_space_group_symop_operation_xyz
x,y,z
-x,-y,1/2+z
x,1/2-y,-z
-x,1/2+y,1/2-z
-x,-y,-z
x,y,1/2-z
-x,1/2+y,z
x,1/2-y,1/2+z
loop_
_atom_site_type_symbol
_atom_site_label
_atom_site_fract_x
_atom_site_fract_y
_atom_site_fract_z
Si Si1 0.819239 0.086029 0.962958
Si Si2 0.018344 0.873891 0.646563
Si Si3 0.828199 0.270857 0.107690
Si Si4 0.494109 0.230798 0.645905
Si Si5 0.727185 0.947611 0.859474
Si Si6 0.509445 0.868575 0.516722
O O1 0.885796 0.149722 0.900133
O O2 0.806102 0.016863 0.900210
O O3 0.908674 0.085133 0.059810
O O4 0.655501 0.107582 0.995774
O O5 0.061038 0.901590 0.750000
O O6 0.070841 0.792405 0.642869
O O7 0.845938 0.884828 0.637963
O O8 0.669771 0.275298 0.153106
O O9 0.798612 0.250000 0.000000
O O10 0.431162 0.232610 0.750000
O O11 0.438851 0.166040 0.581691
O O12 0.477954 0.303718 0.589874
O O13 0.681846 0.956854 0.750000
O O14 0.599774 0.929486 0.932542
#
# Coordination Sequence:
#
# PCOD9434144 Si02
#       6
#     8   8   8   8   8   8
#     4  10  20  38  59  84 114 153 198 244 285 344
#     4  10  20  36  59  84 111 152 196 240 293 349
#     4   9  16  33  57  86 107 139 196 243 280 328
#     4  10  17  32  59  85 110 144 191 243 282 333
#     4  11  24  38  55  83 123 159 189 237 305 360
#     4  10  20  37  55  85 116 150 192 237 291 351
#
# _framework density 19.350946
#
# number of rings (size 3 to 8) (size 9 to 14) (size 15 to 20)
#    0.000    2.000    5.000    2.000    0.000    4.000 
#    9.000    0.833    0.000    1.000    0.000    0.000 
#    0.000    0.000    0.000    0.000    0.000    0.000 
#
# Total GULP energy -267278.681295 kJ/mol
# GULP energy per Si atom -5568.305860 kJ/mol
# Density = 1.930690 g / cm^3
# Si number density = 19.350946 Si / 1000 Ang^3
#
#
#
# Elastic Constant Matrix: (Units=GPa)
#
#
# Indices 1 2 3 4 5 6 
#
# 1 32.3914 19.7742 13.0772 0.0000 0.0000 0.0000
# 2 19.7742 58.1288 25.0260 0.0000 0.0000 0.0000
# 3 13.0772 25.0260 115.8381 0.0000 0.0000 0.0000
# 4 0.0000 0.0000 0.0000 10.8117 0.0000 0.0000
# 5 0.0000 0.0000 0.0000 0.0000 10.3586 0.0000
# 6 0.0000 0.0000 0.0000 0.0000 0.0000 9.6144
#
#
#
# Elastic Compliance Matrix: (Units=1/GPa)
#
#
# Indices 1 2 3 4 5 6 
#
# 1 0.039267 -0.012624 -0.001706 0.000000 0.000000 0.000000
# 2 -0.012624 0.023026 -0.003549 0.000000 0.000000 0.000000
# 3 -0.001706 -0.003549 0.009592 0.000000 0.000000 0.000000
# 4 0.000000 0.000000 0.000000 0.092493 0.000000 0.000000
# 5 0.000000 0.000000 0.000000 0.000000 0.096538 0.000000
# 6 0.000000 0.000000 0.000000 0.000000 0.000000 0.104010
#
#
# Mechanical properties :
#
#
# Convention : Reuss Voigt Hill
#
# Bulk Modulus (GPa) = 27.67962 35.79035 31.73498
# Shear Modulus (GPa) = 12.11457 16.05567 14.08512
#
# Velocity S-wave (km/s) = 2.50480 2.88359 2.70085
# Velocity P-wave (km/s) = 4.76450 5.44264 5.11482
#
# Compressibility (1/GPa) = 0.03612766
#
# Stress axis : x y z
#
# Youngs Moduli (GPa) = 25.46640 43.42998 104.25217
#
# Poissons Ratio (x) = 0.54824 0.17783
# Poissons Ratio (y) = 0.32148 0.37003
# Poissons Ratio (z) = 0.04344 0.15415
#
# Static dielectric constant tensor:
#      x y z
#    x 1.677550 0.000000 0.000000 
#    y 0.000000 1.745470 0.000000 
#    z 0.000000 0.000000 1.510800 
# 
# From -- ./inp_files/16538.got.cif
#   From: 2010.05.17/outbox.cif.g08.bks.cpg/sg57_9_cif.got.tgz:16538.got - 2010.06.03 13:58:18.
