data_PCOD9434467
_publ_section_title
;
Structure prediction by ZEFSAII (Michael W. Deem and Ramdas Pophale) SiO2 
 PCOD9434467
Probable space group: P B C M
;
_chemical_formula_sum "Si O2"
_cell_formula_units_Z 64
_cell_length_a 19.598895
_cell_length_b 22.224011
_cell_length_c 8.747348
_cell_angle_alpha 90.000000
_cell_angle_beta 90.000000
_cell_angle_gamma 90.000000
_cell_volume 3810.047887
_symmetry_space_group_name_H-M "P B C M"
_symmetry_group_IT_number 57
_symmetry_cell_setting 'orthorhombic'
loop_
_space_group_symop_operation_xyz
x,y,z
-x,-y,1/2+z
x,1/2-y,-z
-x,1/2+y,1/2-z
-x,-y,-z
x,y,1/2-z
-x,1/2+y,z
x,1/2-y,1/2+z
loop_
_atom_site_type_symbol
_atom_site_label
_atom_site_fract_x
_atom_site_fract_y
_atom_site_fract_z
Si Si1 0.027584 0.315695 0.434086
Si Si2 0.540380 0.441943 0.565677
Si Si3 0.830710 0.874417 0.072027
Si Si4 0.406545 0.113231 0.435569
Si Si5 0.711286 0.688927 0.429013
Si Si6 0.822865 0.485616 0.570945
Si Si7 0.041045 0.557879 0.933054
Si Si8 0.328604 0.989549 0.066351
O O1 0.009169 0.250000 0.500000
O O2 0.022635 0.312287 0.250000
O O3 0.105894 0.332810 0.472744
O O4 0.986532 0.376095 0.482975
O O5 0.500000 0.500000 0.500000
O O6 0.545241 0.446182 0.750000
O O7 0.485842 0.390300 0.522341
O O8 0.615256 0.441754 0.493444
O O9 0.813691 0.862222 0.250000
O O10 0.847202 0.944771 0.060475
O O11 0.765918 0.861597 0.968509
O O12 0.405136 0.113037 0.250000
O O13 0.362195 0.168936 0.492229
O O14 0.363652 0.053399 0.480626
O O15 0.736851 0.750000 0.500000
O O16 0.705979 0.696545 0.250000
O O17 0.821607 0.469505 0.750000
O O18 0.880204 0.448405 0.482402
O O19 0.746355 0.482013 0.504027
O O20 0.033765 0.554929 0.750000
O O21 0.000000 0.500000 0.000000
O O22 0.324569 0.988195 0.250000
#
# Coordination Sequence:
#
# PCOD9434467 Si02
#       8
#     8   8   8   8   8   8   8   8
#     4  10  22  39  56  78 106 138 180 225 267 318
#     4   9  16  28  45  68  94 126 161 202 248 298
#     4  10  20  35  51  73 103 136 176 220 258 309
#     4   8  16  29  45  64  93 128 167 205 249 301
#     4  11  21  33  46  67  97 136 178 217 255 304
#     4  11  21  34  53  79 108 139 176 218 266 320
#     4  11  22  38  57  80 110 142 179 223 270 324
#     4  10  18  31  48  72 100 131 166 204 254 313
#
# _framework density 16.797689999999999
#
# number of rings (size 3 to 8) (size 9 to 14) (size 15 to 20)
#    0.000    2.000    2.500    3.000    0.000    3.000 
#    0.000    1.875    0.000    0.000    0.000    0.875 
#    0.000    4.000    0.000    0.000    0.000    0.000 
#
# Total GULP energy -356534.810911 kJ/mol
# GULP energy per Si atom -5570.856420 kJ/mol
# Density = 1.675946 g / cm^3
# Si number density = 16.797690 Si / 1000 Ang^3
#
#
#
# Elastic Constant Matrix: (Units=GPa)
#
#
# Indices 1 2 3 4 5 6 
#
# 1 100.0816 36.1865 25.3628 0.0000 0.0000 0.0000
# 2 36.1865 63.8467 23.3982 0.0000 0.0000 0.0000
# 3 25.3628 23.3982 45.7947 0.0000 0.0000 0.0000
# 4 0.0000 0.0000 0.0000 16.7363 0.0000 0.0000
# 5 0.0000 0.0000 0.0000 0.0000 27.6714 0.0000
# 6 0.0000 0.0000 0.0000 0.0000 0.0000 23.1080
#
#
#
# Elastic Compliance Matrix: (Units=1/GPa)
#
#
# Indices 1 2 3 4 5 6 
#
# 1 0.013221 -0.005918 -0.004299 0.000000 0.000000 0.000000
# 2 -0.005918 0.021920 -0.007922 0.000000 0.000000 0.000000
# 3 -0.004299 -0.007922 0.028265 0.000000 0.000000 0.000000
# 4 0.000000 0.000000 0.000000 0.059750 0.000000 0.000000
# 5 0.000000 0.000000 0.000000 0.000000 0.036138 0.000000
# 6 0.000000 0.000000 0.000000 0.000000 0.000000 0.043275
#
#
# Mechanical properties :
#
#
# Convention : Reuss Voigt Hill
#
# Bulk Modulus (GPa) = 36.86144 42.17977 39.52061
# Shear Modulus (GPa) = 20.17026 21.82151 20.99588
#
# Velocity S-wave (km/s) = 3.46898 3.60818 3.53927
# Velocity P-wave (km/s) = 6.16742 6.52101 6.34668
#
# Compressibility (1/GPa) = 0.02712862
#
# Stress axis : x y z
#
# Youngs Moduli (GPa) = 75.63763 45.62062 35.37943
#
# Poissons Ratio (x) = 0.26998 0.15208
# Poissons Ratio (y) = 0.44762 0.28028
# Poissons Ratio (z) = 0.32513 0.36141
#
# Static dielectric constant tensor:
#      x y z
#    x 1.591870 0.000000 0.000000 
#    y 0.000000 1.591520 0.000000 
#    z 0.000000 0.000000 1.570990 
# 
# From -- ./inp_files/7431.got.cif
#   From: 2010.05.17/outbox.cif.g08.bks.cpg/sg57_4_cif.got.tgz:7431.got - 2010.06.03 13:58:18.
