data_PCOD9434524
_publ_section_title
;
Structure prediction by ZEFSAII (Michael W. Deem and Ramdas Pophale) SiO2 
 PCOD9434524
Probable space group: P B C M
;
_chemical_formula_sum "Si O2"
_cell_formula_units_Z 64
_cell_length_a 15.436755
_cell_length_b 24.374949
_cell_length_c 8.844747
_cell_angle_alpha 90.000000
_cell_angle_beta 90.000000
_cell_angle_gamma 90.000000
_cell_volume 3328.013978
_symmetry_space_group_name_H-M "P B C M"
_symmetry_group_IT_number 57
_symmetry_cell_setting 'orthorhombic'
loop_
_space_group_symop_operation_xyz
x,y,z
-x,-y,1/2+z
x,1/2-y,-z
-x,1/2+y,1/2-z
-x,-y,-z
x,y,1/2-z
-x,1/2+y,z
x,1/2-y,1/2+z
loop_
_atom_site_type_symbol
_atom_site_label
_atom_site_fract_x
_atom_site_fract_y
_atom_site_fract_z
Si Si1 0.893100 0.398091 0.931259
Si Si2 0.237642 0.309308 0.431050
Si Si3 0.065366 0.128482 0.569546
Si Si4 0.542647 0.191055 0.431884
Si Si5 0.870573 0.515211 0.425805
Si Si6 0.616371 0.887014 0.567064
Si Si7 0.664156 0.004359 0.925212
Si Si8 0.697040 0.118438 0.431622
O O1 0.895999 0.398839 0.750000
O O2 0.797113 0.379176 0.981974
O O3 0.903486 0.460085 0.993596
O O4 0.971649 0.362616 0.996156
O O5 0.257808 0.250000 0.500000
O O6 0.246133 0.307608 0.250000
O O7 0.139556 0.327583 0.469395
O O8 0.302652 0.354768 0.496868
O O9 0.057319 0.125991 0.750000
O O10 0.098807 0.069997 0.507636
O O11 0.523184 0.250000 0.500000
O O12 0.543251 0.195423 0.250000
O O13 0.469191 0.146921 0.472367
O O14 0.635273 0.167408 0.483859
O O15 0.897545 0.515827 0.250000
O O16 0.766042 0.511993 0.430696
O O17 0.626104 0.887448 0.750000
O O18 0.614249 0.950530 0.517889
O O19 0.641599 0.014519 0.750000
O O20 0.657002 0.060533 0.016092
O O21 0.697691 0.118797 0.250000
#
# Coordination Sequence:
#
# PCOD9434524 Si02
#       8
#     8   8   8   8   8   8   8   8
#     4  10  20  34  54  78 109 147 185 227 276 328
#     4  11  24  39  57  80 111 149 189 234 282 337
#     4  11  22  35  52  78 109 143 186 230 274 327
#     4  10  22  40  61  84 111 145 188 235 281 331
#     4  10  18  31  52  79 113 149 183 222 269 325
#     4  10  20  37  60  86 117 147 182 227 278 338
#     4   9  18  32  54  85 117 150 183 222 276 335
#     4   9  20  38  57  81 114 149 186 232 282 332
#
# _framework density 19.230688000000001
#
# number of rings (size 3 to 8) (size 9 to 14) (size 15 to 20)
#    0.000    2.000    1.250    2.250    0.000    5.500 
#    0.000    0.625    0.000    3.000    0.000    0.000 
#    0.000    0.000    0.000    0.000    0.000    0.000 
#
# Total GULP energy -357436.742845 kJ/mol
# GULP energy per Si atom -5584.949107 kJ/mol
# Density = 1.918692 g / cm^3
# Si number density = 19.230688 Si / 1000 Ang^3
#
#
#
# Elastic Constant Matrix: (Units=GPa)
#
#
# Indices 1 2 3 4 5 6 
#
# 1 52.0629 7.1849 11.1794 0.0000 0.0000 0.0000
# 2 7.1849 8.4872 -3.7183 0.0000 0.0000 0.0000
# 3 11.1794 -3.7183 20.2229 0.0000 0.0000 0.0000
# 4 0.0000 0.0000 0.0000 23.6489 0.0000 0.0000
# 5 0.0000 0.0000 0.0000 0.0000 20.2543 0.0000
# 6 0.0000 0.0000 0.0000 0.0000 0.0000 22.9877
#
#
#
# Elastic Compliance Matrix: (Units=1/GPa)
#
#
# Indices 1 2 3 4 5 6 
#
# 1 0.028620 -0.033890 -0.022052 0.000000 0.000000 0.000000
# 2 -0.033890 0.168277 0.049675 0.000000 0.000000 0.000000
# 3 -0.022052 0.049675 0.070773 0.000000 0.000000 0.000000
# 4 0.000000 0.000000 0.000000 0.042285 0.000000 0.000000
# 5 0.000000 0.000000 0.000000 0.000000 0.049372 0.000000
# 6 0.000000 0.000000 0.000000 0.000000 0.000000 0.043502
#
#
# Mechanical properties :
#
#
# Convention : Reuss Voigt Hill
#
# Bulk Modulus (GPa) = 3.91947 12.22943 8.07445
# Shear Modulus (GPa) = 9.99183 17.78664 13.88924
#
# Velocity S-wave (km/s) = 2.28190 3.04453 2.69037
# Velocity P-wave (km/s) = 2.99755 4.32805 3.72272
#
# Compressibility (1/GPa) = 0.25513684
#
# Stress axis : x y z
#
# Youngs Moduli (GPa) = 34.94091 5.94257 14.12959
#
# Poissons Ratio (x) = 0.20139 0.31159
# Poissons Ratio (y) = 1.18414 -0.70189
# Poissons Ratio (z) = 0.77053 -0.29520
#
# Static dielectric constant tensor:
#      x y z
#    x 1.711480 0.000000 0.000000 
#    y 0.000000 1.631770 0.000000 
#    z 0.000000 0.000000 1.646040 
# 
# From -- ./inp_files/5584.got.cif
#   From: 2010.05.17/outbox.cif.g08.bks.cpg/sg57_3_cif.got.tgz:5584.got - 2010.06.03 13:58:18.
