data_PCOD9434731
_publ_section_title
;
Structure prediction by ZEFSAII (Michael W. Deem and Ramdas Pophale) SiO2 
 PCOD9434731
Probable space group: P B C M
;
_chemical_formula_sum "Si O2"
_cell_formula_units_Z 40
_cell_length_a 10.535033
_cell_length_b 13.444138
_cell_length_c 16.898524
_cell_angle_alpha 90.000000
_cell_angle_beta 90.000000
_cell_angle_gamma 90.000000
_cell_volume 2393.412941
_symmetry_space_group_name_H-M "P B C M"
_symmetry_group_IT_number 57
_symmetry_cell_setting 'orthorhombic'
loop_
_space_group_symop_operation_xyz
x,y,z
-x,-y,1/2+z
x,1/2-y,-z
-x,1/2+y,1/2-z
-x,-y,-z
x,y,1/2-z
-x,1/2+y,z
x,1/2-y,1/2+z
loop_
_atom_site_type_symbol
_atom_site_label
_atom_site_fract_x
_atom_site_fract_y
_atom_site_fract_z
Si Si1 0.878211 0.390929 0.656442
Si Si2 0.309806 0.484233 0.452562
Si Si3 0.537632 0.349417 0.049251
Si Si4 0.100199 0.480940 0.570220
Si Si5 0.220756 0.671120 0.655254
O O1 0.864847 0.403076 0.750000
O O2 0.784728 0.467678 0.611525
O O3 0.838635 0.278515 0.635128
O O4 0.022552 0.412099 0.630012
O O5 0.391208 0.574465 0.489721
O O6 0.408778 0.402497 0.422943
O O7 0.224816 0.441752 0.525031
O O8 0.637508 0.330960 0.119545
O O9 0.512052 0.250000 0.000000
O O10 0.142251 0.582575 0.613546
O O11 0.000000 0.500000 0.500000
O O12 0.220254 0.658672 0.750000
#
# Coordination Sequence:
#
# PCOD9434731 Si02
#       5
#     8   8   8   8   8
#     4  10  19  34  55  79 110 142 176 219 272 331
#     4   9  19  33  52  81  99 139 180 221 267 310
#     4  10  18  34  55  73 107 136 181 224 262 321
#     4   9  19  34  53  78 106 139 179 223 268 316
#     4  10  20  34  56  79 106 145 180 219 275 329
#
# _framework density 16.712536
#
# number of rings (size 3 to 8) (size 9 to 14) (size 15 to 20)
#    0.000    2.400    2.000    0.600    0.000    0.800 
#    7.200    0.000    0.000    1.200    0.000    0.000 
#    0.000    0.000    0.000    0.000    0.000    0.000 
#
# Total GULP energy -222828.141258 kJ/mol
# GULP energy per Si atom -5570.703531 kJ/mol
# Density = 1.667450 g / cm^3
# Si number density = 16.712536 Si / 1000 Ang^3
#
#
#
# Elastic Constant Matrix: (Units=GPa)
#
#
# Indices 1 2 3 4 5 6 
#
# 1 106.3584 71.0100 40.6585 0.0000 0.0000 0.0000
# 2 71.0100 80.5695 45.5665 0.0000 0.0000 0.0000
# 3 40.6585 45.5665 68.0220 0.0000 0.0000 0.0000
# 4 0.0000 0.0000 0.0000 26.2487 0.0000 0.0000
# 5 0.0000 0.0000 0.0000 0.0000 17.1201 0.0000
# 6 0.0000 0.0000 0.0000 0.0000 0.0000 29.8055
#
#
#
# Elastic Compliance Matrix: (Units=1/GPa)
#
#
# Indices 1 2 3 4 5 6 
#
# 1 0.022848 -0.019985 -0.000270 0.000000 0.000000 0.000000
# 2 -0.019985 0.037462 -0.013150 0.000000 0.000000 0.000000
# 3 -0.000270 -0.013150 0.023671 0.000000 0.000000 0.000000
# 4 0.000000 0.000000 0.000000 0.038097 0.000000 0.000000
# 5 0.000000 0.000000 0.000000 0.000000 0.058411 0.000000
# 6 0.000000 0.000000 0.000000 0.000000 0.000000 0.033551
#
#
# Mechanical properties :
#
#
# Convention : Reuss Voigt Hill
#
# Bulk Modulus (GPa) = 58.23025 63.26888 60.74957
# Shear Modulus (GPa) = 17.44765 21.14918 19.29842
#
# Velocity S-wave (km/s) = 3.23458 3.56120 3.40181
# Velocity P-wave (km/s) = 6.99056 7.40600 7.20128
#
# Compressibility (1/GPa) = 0.01717320
#
# Stress axis : x y z
#
# Youngs Moduli (GPa) = 43.76783 26.69378 42.24591
#
# Poissons Ratio (x) = 0.53346 0.01139
# Poissons Ratio (y) = 0.87468 0.55552
# Poissons Ratio (z) = 0.01180 0.35102
#
# Static dielectric constant tensor:
#      x y z
#    x 1.573140 0.000000 0.000000 
#    y 0.000000 1.555650 0.000000 
#    z 0.000000 0.000000 1.562760 
# 
# From -- ./inp_files/15936.got.cif
#   From: 2010.05.17/outbox.cif.g08.bks.cpg/sg57_8_cif.got.tgz:15936.got - 2010.06.03 13:58:18.
