data_PCOD9434850
_publ_section_title
;
Structure prediction by ZEFSAII (Michael W. Deem and Ramdas Pophale) SiO2 
 PCOD9434850
Probable space group: P B C M
;
_chemical_formula_sum "Si O2"
_cell_formula_units_Z 44
_cell_length_a 7.916838
_cell_length_b 13.548725
_cell_length_c 20.118841
_cell_angle_alpha 90.000000
_cell_angle_beta 90.000000
_cell_angle_gamma 90.000000
_cell_volume 2158.008468
_symmetry_space_group_name_H-M "P B C M"
_symmetry_group_IT_number 57
_symmetry_cell_setting 'orthorhombic'
loop_
_space_group_symop_operation_xyz
x,y,z
-x,-y,1/2+z
x,1/2-y,-z
-x,1/2+y,1/2-z
-x,-y,-z
x,y,1/2-z
-x,1/2+y,z
x,1/2-y,1/2+z
loop_
_atom_site_type_symbol
_atom_site_label
_atom_site_fract_x
_atom_site_fract_y
_atom_site_fract_z
Si Si1 0.953378 0.173256 0.750000
Si Si2 0.166627 0.357459 0.750000
Si Si3 0.658481 0.343855 0.889277
Si Si4 0.707160 0.911305 0.895093
Si Si5 0.216665 0.877374 0.750000
Si Si6 0.188468 0.634183 0.887420
Si Si7 0.977665 0.386004 0.518938
O O1 0.810777 0.259189 0.750000
O O2 0.919224 0.120886 0.680322
O O3 0.121875 0.240102 0.750000
O O4 0.259883 0.384906 0.682308
O O5 0.980086 0.409635 0.750000
O O6 0.475985 0.373000 0.915369
O O7 0.688940 0.397982 0.818288
O O8 0.682472 0.225622 0.881908
O O9 0.811839 0.376135 0.936051
O O10 0.855954 0.862235 0.938680
O O11 0.723124 0.029900 0.901755
O O12 0.063733 0.663103 0.948123
O O13 0.000000 0.500000 0.500000
#
# Coordination Sequence:
#
# PCOD9434850 Si02
#       7
#     4   4   8   8   4   8   8
#     4   8  17  36  61  83 118 158 201 248 315 361
#     4  10  18  38  64  92 117 166 206 254 312 368
#     4  11  21  41  63  91 130 166 203 272 311 363
#     4  11  22  38  67  91 124 167 216 250 313 388
#     4   8  17  34  65  83 121 162 195 248 321 351
#     4  10  21  39  62  89 126 167 204 260 317 365
#     4  10  22  40  61  90 122 166 211 257 318 376
#
# _framework density 20.38917
#
# number of rings (size 3 to 8) (size 9 to 14) (size 15 to 20)
#    0.545    1.455    1.818    1.636    0.000    2.909 
#    0.000   16.364    0.000    0.000    0.000    0.000 
#    0.000    0.000    0.000    0.000    0.000    0.000 
#
# Total GULP energy -245247.967743 kJ/mol
# GULP energy per Si atom -5573.817449 kJ/mol
# Density = 2.034276 g / cm^3
# Si number density = 20.389170 Si / 1000 Ang^3
#
#
#
# Elastic Constant Matrix: (Units=GPa)
#
#
# Indices 1 2 3 4 5 6 
#
# 1 155.2287 41.5658 54.0069 0.0000 0.0000 0.0000
# 2 41.5658 86.7964 13.9672 0.0000 0.0000 0.0000
# 3 54.0069 13.9672 125.2484 0.0000 0.0000 0.0000
# 4 0.0000 0.0000 0.0000 24.8990 0.0000 0.0000
# 5 0.0000 0.0000 0.0000 0.0000 -2.3471 0.0000
# 6 0.0000 0.0000 0.0000 0.0000 0.0000 29.6607
#
#
#
# Elastic Compliance Matrix: (Units=1/GPa)
#
#
# Indices 1 2 3 4 5 6 
#
# 1 0.008538 -0.003560 -0.003285 0.000000 0.000000 0.000000
# 2 -0.003560 0.013216 0.000061 0.000000 0.000000 0.000000
# 3 -0.003285 0.000061 0.009394 0.000000 0.000000 0.000000
# 4 0.000000 0.000000 0.000000 0.040162 0.000000 0.000000
# 5 0.000000 0.000000 0.000000 0.000000 -0.426054 0.000000
# 6 0.000000 0.000000 0.000000 0.000000 0.000000 0.033715
#
#
# Mechanical properties :
#
#
# Convention : Reuss Voigt Hill
#
# Bulk Modulus (GPa) = 56.87951 65.15038 61.01495
# Shear Modulus (GPa) = -16.57816 27.62476 5.52330
#
# Velocity S-wave (km/s) = -2.85456 3.68485 1.64767
# Velocity P-wave (km/s) = 4.13434 7.08004 5.79740
#
# Compressibility (1/GPa) = 0.01758102
#
# Stress axis : x y z
#
# Youngs Moduli (GPa) = 117.12009 75.66396 106.45514
#
# Poissons Ratio (x) = 0.26939 0.34967
# Poissons Ratio (y) = 0.41698 -0.00653
# Poissons Ratio (z) = 0.38470 -0.00464
#
# Static dielectric constant tensor:
#      x y z
#    x 1.691670 0.000000 0.000000 
#    y 0.000000 1.786980 0.000000 
#    z 0.000000 0.000000 1.778530 
# 
# From -- ./inp_files/20864.got.cif
#   From: 2010.05.17/outbox.cif.g08.bks.cpg/sg57_11_cif.got.tgz:20864.got - 2010.06.03 13:58:18.
