data_PCOD9434001
_publ_section_title
;
Structure prediction by ZEFSAII (Michael W. Deem and Ramdas Pophale) SiO2 
 PCOD9434001
Probable space group: P B C M
;
_chemical_formula_sum "Si O2"
_cell_formula_units_Z 64
_cell_length_a 8.107908
_cell_length_b 24.966495
_cell_length_c 15.840838
_cell_angle_alpha 90.000000
_cell_angle_beta 90.000000
_cell_angle_gamma 90.000000
_cell_volume 3206.598179
_symmetry_space_group_name_H-M "P B C M"
_symmetry_group_IT_number 57
_symmetry_cell_setting 'orthorhombic'
loop_
_space_group_symop_operation_xyz
x,y,z
-x,-y,1/2+z
x,1/2-y,-z
-x,1/2+y,1/2-z
-x,-y,-z
x,y,1/2-z
-x,1/2+y,z
x,1/2-y,1/2+z
loop_
_atom_site_type_symbol
_atom_site_label
_atom_site_fract_x
_atom_site_fract_y
_atom_site_fract_z
Si Si1 0.194841 0.633241 0.845858
Si Si2 0.307891 0.437914 0.500000
Si Si3 0.805159 0.366759 0.845858
Si Si4 0.215739 0.250000 0.402723
Si Si5 0.701341 0.059352 0.000000
Si Si6 0.204005 0.366061 0.657039
Si Si7 0.795995 0.633939 0.657039
Si Si8 0.161228 0.750000 0.148522
O O1 0.250645 0.620703 0.750000
O O2 0.250040 0.693851 0.869413
O O3 0.995434 0.636093 0.843643
O O4 0.243714 0.591148 0.916567
O O5 0.237384 0.498108 0.500000
O O6 0.504375 0.441613 0.500000
O O7 0.255673 0.405033 0.582463
O O8 0.255673 0.405034 0.417537
O O9 0.749355 0.379297 0.750000
O O10 0.756286 0.408852 0.916567
O O11 0.749960 0.306149 0.869413
O O12 0.004566 0.363907 0.843643
O O13 0.266629 0.250000 0.500000
O O14 0.266376 0.194421 0.359623
O O15 0.266376 0.305579 0.359623
O O16 0.014996 0.250000 0.397856
O O17 0.257796 0.384060 0.750000
O O18 0.742204 0.615940 0.750000
O O19 0.126335 0.750000 0.250000
#
# Coordination Sequence:
#
# PCOD9434001 Si02
#       8
#     8   8   8   8   8   8   8   8
#     4   9  19  36  60  88 113 144 181 227 281 331
#     4  11  25  42  53  78 108 155 198 229 284 329
#     4   9  19  36  60  88 113 144 181 227 281 331
#     4  10  16  28  56  90 119 142 172 217 278 339
#     4  11  25  40  57  74 112 151 194 241 274 333
#     4  10  20  37  61  87 116 144 181 230 277 332
#     4  10  20  37  61  87 116 144 181 230 277 332
#     4   8  16  30  52  87 120 141 172 216 277 343
#
# _framework density 19.958846000000001
#
# number of rings (size 3 to 8) (size 9 to 14) (size 15 to 20)
#    0.000    2.250    1.250    3.375    5.250    4.000 
#    0.000    7.500    0.000    3.000    0.000    0.000 
#    0.000    0.000    0.000    0.000    0.000    0.000 
#
# Total GULP energy -357216.501698 kJ/mol
# GULP energy per Si atom -5581.507839 kJ/mol
# Density = 1.991342 g / cm^3
# Si number density = 19.958846 Si / 1000 Ang^3
#
#
#
# Elastic Constant Matrix: (Units=GPa)
#
#
# Indices 1 2 3 4 5 6 
#
# 1 15.7967 16.7534 14.4386 0.0000 0.0000 0.0000
# 2 16.7534 192.4113 113.1473 0.0000 0.0000 0.0000
# 3 14.4386 113.1473 175.7381 0.0000 0.0000 0.0000
# 4 0.0000 0.0000 0.0000 -37.4773 0.0000 0.0000
# 5 0.0000 0.0000 0.0000 0.0000 -25.8587 0.0000
# 6 0.0000 0.0000 0.0000 0.0000 0.0000 37.6455
#
#
#
# Elastic Compliance Matrix: (Units=1/GPa)
#
#
# Indices 1 2 3 4 5 6 
#
# 1 0.070695 -0.004409 -0.002969 0.000000 0.000000 0.000000
# 2 -0.004409 0.008639 -0.005200 0.000000 0.000000 0.000000
# 3 -0.002969 -0.005200 0.009282 0.000000 0.000000 0.000000
# 4 0.000000 0.000000 0.000000 -0.026683 0.000000 0.000000
# 5 0.000000 0.000000 0.000000 0.000000 -0.038672 0.000000
# 6 0.000000 0.000000 0.000000 0.000000 0.000000 0.026564
#
#
# Mechanical properties :
#
#
# Convention : Reuss Voigt Hill
#
# Bulk Modulus (GPa) = 15.75830 74.73609 45.24719
# Shear Modulus (GPa) = 52.01054 10.83569 31.42311
#
# Velocity S-wave (km/s) = 5.11033 2.33255 3.97217
# Velocity P-wave (km/s) = 6.53706 6.69184 6.61491
#
# Compressibility (1/GPa) = 0.06345863
#
# Stress axis : x y z
#
# Youngs Moduli (GPa) = 14.14535 115.75626 107.73459
#
# Poissons Ratio (x) = 0.51041 0.31990
# Poissons Ratio (y) = 0.06237 0.56019
# Poissons Ratio (z) = 0.04200 0.60191
#
# Static dielectric constant tensor:
#      x y z
#    x 1.707430 0.000000 0.000000 
#    y 0.000000 1.725120 0.000000 
#    z 0.000000 0.000000 1.693970 
# 
# From -- ./inp_files/16970.got.cif
#   From: 2010.05.17/outbox.cif.g08.bks.cpg/sg57_9_cif.got.tgz:16970.got - 2010.06.03 13:58:18.
