data_PCOD9434828
_publ_section_title
;
Structure prediction by ZEFSAII (Michael W. Deem and Ramdas Pophale) SiO2 
 PCOD9434828
Probable space group: P B C M
;
_chemical_formula_sum "Si O2"
_cell_formula_units_Z 64
_cell_length_a 11.889665
_cell_length_b 12.276451
_cell_length_c 25.061548
_cell_angle_alpha 90.000000
_cell_angle_beta 90.000000
_cell_angle_gamma 90.000000
_cell_volume 3658.055968
_symmetry_space_group_name_H-M "P B C M"
_symmetry_group_IT_number 57
_symmetry_cell_setting 'orthorhombic'
loop_
_space_group_symop_operation_xyz
x,y,z
-x,-y,1/2+z
x,1/2-y,-z
-x,1/2+y,1/2-z
-x,-y,-z
x,y,1/2-z
-x,1/2+y,z
x,1/2-y,1/2+z
loop_
_atom_site_type_symbol
_atom_site_label
_atom_site_fract_x
_atom_site_fract_y
_atom_site_fract_z
Si Si1 0.768070 0.061159 0.497765
Si Si2 0.903454 0.111609 0.105042
Si Si3 0.303753 0.338776 0.546515
Si Si4 0.072082 0.421443 0.311334
Si Si5 0.192208 0.534817 0.690049
Si Si6 0.267095 0.804403 0.104073
Si Si7 0.855448 0.806353 0.640928
Si Si8 0.442973 0.670240 0.050792
O O1 0.866765 0.076521 0.454681
O O2 0.769915 0.148374 0.546042
O O3 0.651008 0.081618 0.465543
O O4 0.762014 0.944124 0.525063
O O5 0.821906 0.211664 0.119660
O O6 0.030770 0.153114 0.111302
O O7 0.888381 0.011977 0.146238
O O8 0.306049 0.250000 0.500000
O O9 0.240040 0.289800 0.596972
O O10 0.432002 0.371525 0.561119
O O11 0.101604 0.448912 0.250000
O O12 0.117407 0.303195 0.327336
O O13 0.936093 0.421641 0.314457
O O14 0.232381 0.554344 0.750000
O O15 0.263764 0.598080 0.645917
O O16 0.183077 0.406781 0.677763
O O17 0.386253 0.744579 0.096295
O O18 0.451833 0.750000 0.000000
#
# Coordination Sequence:
#
# PCOD9434828 Si02
#       8
#     8   8   8   8   8   8   8   8
#     4  10  19  35  55  77 116 148 186 226 273 329
#     4  10  21  34  54  83 114 147 184 222 279 333
#     4  11  21  32  50  81 113 150 186 219 273 335
#     4  10  21  37  55  78 112 148 185 233 275 323
#     4  10  20  35  57  79 102 142 191 230 269 328
#     4  10  18  37  57  82 107 144 186 229 276 328
#     4  11  21  35  51  81 117 143 184 220 283 336
#     4   8  18  33  54  77 103 143 187 225 265 319
#
# _framework density 17.495632000000001
#
# number of rings (size 3 to 8) (size 9 to 14) (size 15 to 20)
#    0.000    2.000    2.500    2.625    0.000    2.500 
#    0.000    0.000    0.000    1.500    0.000    0.000 
#    0.000    0.000    0.000    0.000    0.000    0.000 
#
# Total GULP energy -356960.231774 kJ/mol
# GULP energy per Si atom -5577.503621 kJ/mol
# Density = 1.745581 g / cm^3
# Si number density = 17.495632 Si / 1000 Ang^3
#
#
#
# Elastic Constant Matrix: (Units=GPa)
#
#
# Indices 1 2 3 4 5 6 
#
# 1 40.0656 0.9189 25.5174 0.0000 0.0000 0.0000
# 2 0.9189 72.5052 26.8139 0.0000 0.0000 0.0000
# 3 25.5174 26.8139 101.1303 0.0000 0.0000 0.0000
# 4 0.0000 0.0000 0.0000 16.1052 0.0000 0.0000
# 5 0.0000 0.0000 0.0000 0.0000 6.4173 0.0000
# 6 0.0000 0.0000 0.0000 0.0000 0.0000 16.9525
#
#
#
# Elastic Compliance Matrix: (Units=1/GPa)
#
#
# Indices 1 2 3 4 5 6 
#
# 1 0.030208 0.002701 -0.008338 0.000000 0.000000 0.000000
# 2 0.002701 0.015533 -0.004800 0.000000 0.000000 0.000000
# 3 -0.008338 -0.004800 0.013265 0.000000 0.000000 0.000000
# 4 0.000000 0.000000 0.000000 0.062092 0.000000 0.000000
# 5 0.000000 0.000000 0.000000 0.000000 0.155830 0.000000
# 6 0.000000 0.000000 0.000000 0.000000 0.000000 0.058988
#
#
# Mechanical properties :
#
#
# Convention : Reuss Voigt Hill
#
# Bulk Modulus (GPa) = 26.22552 35.57795 30.90174
# Shear Modulus (GPa) = 13.53179 18.59171 16.06175
#
# Velocity S-wave (km/s) = 2.78409 3.26337 3.03321
# Velocity P-wave (km/s) = 5.03559 5.88038 5.47431
#
# Compressibility (1/GPa) = 0.03813080
#
# Stress axis : x y z
#
# Youngs Moduli (GPa) = 33.10427 64.37912 75.38755
#
# Poissons Ratio (x) = -0.17387 0.62859
# Poissons Ratio (y) = -0.08941 0.36185
# Poissons Ratio (z) = 0.27603 0.30901
#
# Static dielectric constant tensor:
#      x y z
#    x 1.596080 0.000000 0.000000 
#    y 0.000000 1.604850 0.000000 
#    z 0.000000 0.000000 1.589350 
# 
# From -- ./inp_files/28676.got.cif
#   From: 2010.05.17/outbox.cif.g08.bks.cpg/sg57_15_cif.got.tgz:28676.got - 2010.06.03 13:58:18.
