data_PCOD9434599
_publ_section_title
;
Structure prediction by ZEFSAII (Michael W. Deem and Ramdas Pophale) SiO2 
 PCOD9434599
Probable space group: P B C M
;
_chemical_formula_sum "Si O2"
_cell_formula_units_Z 64
_cell_length_a 9.392630
_cell_length_b 20.293563
_cell_length_c 19.371440
_cell_angle_alpha 90.000000
_cell_angle_beta 90.000000
_cell_angle_gamma 90.000000
_cell_volume 3692.388796
_symmetry_space_group_name_H-M "P B C M"
_symmetry_group_IT_number 57
_symmetry_cell_setting 'orthorhombic'
loop_
_space_group_symop_operation_xyz
x,y,z
-x,-y,1/2+z
x,1/2-y,-z
-x,1/2+y,1/2-z
-x,-y,-z
x,y,1/2-z
-x,1/2+y,z
x,1/2-y,1/2+z
loop_
_atom_site_type_symbol
_atom_site_label
_atom_site_fract_x
_atom_site_fract_y
_atom_site_fract_z
Si Si1 0.397648 0.069815 0.436242
Si Si2 0.780505 0.277945 0.608188
Si Si3 0.152311 0.846505 0.469153
Si Si4 0.509507 0.201636 0.667929
Si Si5 0.319929 0.180344 0.169817
Si Si6 0.579711 0.078685 0.925826
Si Si7 0.933333 0.936539 0.964734
Si Si8 0.995819 0.872473 0.827738
O O1 0.395690 0.127856 0.380218
O O2 0.501251 0.083384 0.500271
O O3 0.236402 0.064505 0.465156
O O4 0.433029 0.997811 0.404768
O O5 0.866294 0.212985 0.584004
O O6 0.764060 0.318080 0.536423
O O7 0.637968 0.248861 0.641431
O O8 0.871769 0.324765 0.657288
O O9 0.254948 0.901515 0.436634
O O10 0.004450 0.874868 0.496060
O O11 0.523027 0.190403 0.750000
O O12 0.369499 0.245539 0.654074
O O13 0.517810 0.133399 0.626135
O O14 0.358495 0.167699 0.250000
O O15 0.151166 0.168388 0.163290
O O16 0.986012 0.928497 0.885810
O O17 0.000000 0.000000 0.000000
O O18 0.000428 0.898011 0.750000
#
# Coordination Sequence:
#
# PCOD9434599 Si02
#       8
#     8   8   8   8   8   8   8   8
#     4  10  20  33  52  75  99 134 169 206 252 299
#     4   9  17  29  50  74 102 128 166 206 253 300
#     4   9  17  30  48  75 101 131 162 211 251 290
#     4  10  20  34  52  74 102 135 168 210 255 300
#     4   9  19  34  51  73 100 131 168 208 252 300
#     4  10  20  33  50  74 102 131 170 207 251 300
#     4  10  18  32  53  73 101 133 168 206 248 297
#     4   9  18  32  51  74 100 132 168 209 250 297
#
# _framework density 17.332951999999999
#
# number of rings (size 3 to 8) (size 9 to 14) (size 15 to 20)
#    0.000    2.500    1.250    1.125    0.000    3.000 
#    0.000    2.500    0.000    0.750    0.000    0.000 
#    0.000    0.000    0.000    0.000    0.000    0.000 
#
# Total GULP energy -356576.839710 kJ/mol
# GULP energy per Si atom -5571.513120 kJ/mol
# Density = 1.729350 g / cm^3
# Si number density = 17.332952 Si / 1000 Ang^3
#
#
#
# Elastic Constant Matrix: (Units=GPa)
#
#
# Indices 1 2 3 4 5 6 
#
# 1 33.6115 23.5317 16.1642 0.0000 0.0000 0.0000
# 2 23.5317 83.2257 34.9701 0.0000 0.0000 0.0000
# 3 16.1642 34.9701 53.8584 0.0000 0.0000 0.0000
# 4 0.0000 0.0000 0.0000 28.0588 0.0000 0.0000
# 5 0.0000 0.0000 0.0000 0.0000 18.6559 0.0000
# 6 0.0000 0.0000 0.0000 0.0000 0.0000 20.9216
#
#
#
# Elastic Compliance Matrix: (Units=1/GPa)
#
#
# Indices 1 2 3 4 5 6 
#
# 1 0.038533 -0.008300 -0.006175 0.000000 0.000000 0.000000
# 2 -0.008300 0.018311 -0.009399 0.000000 0.000000 0.000000
# 3 -0.006175 -0.009399 0.026523 0.000000 0.000000 0.000000
# 4 0.000000 0.000000 0.000000 0.035639 0.000000 0.000000
# 5 0.000000 0.000000 0.000000 0.000000 0.053602 0.000000
# 6 0.000000 0.000000 0.000000 0.000000 0.000000 0.047798
#
#
# Mechanical properties :
#
#
# Convention : Reuss Voigt Hill
#
# Bulk Modulus (GPa) = 28.07483 35.55863 31.81673
# Shear Modulus (GPa) = 17.85541 19.92923 18.89232
#
# Velocity S-wave (km/s) = 3.21307 3.39453 3.30504
# Velocity P-wave (km/s) = 5.47701 5.99361 5.74112
#
# Compressibility (1/GPa) = 0.03561910
#
# Stress axis : x y z
#
# Youngs Moduli (GPa) = 25.95211 54.61065 37.70315
#
# Poissons Ratio (x) = 0.45328 0.23283
# Poissons Ratio (y) = 0.21541 0.35435
# Poissons Ratio (z) = 0.16026 0.51326
#
# Static dielectric constant tensor:
#      x y z
#    x 1.586970 0.000000 0.000000 
#    y 0.000000 1.598960 0.000000 
#    z 0.000000 0.000000 1.582130 
# 
# From -- ./inp_files/24680.got.cif
#   From: 2010.05.17/outbox.cif.g08.bks.cpg/sg57_13_cif.got.tgz:24680.got - 2010.06.03 13:58:18.
