data_PCOD9434970
_publ_section_title
;
Structure prediction by ZEFSAII (Michael W. Deem and Ramdas Pophale) SiO2 
 PCOD9434970
Probable space group: P B C M
;
_chemical_formula_sum "Si O2"
_cell_formula_units_Z 56
_cell_length_a 26.710704
_cell_length_b 14.553121
_cell_length_c 8.539297
_cell_angle_alpha 90.000000
_cell_angle_beta 90.000000
_cell_angle_gamma 90.000000
_cell_volume 3319.430603
_symmetry_space_group_name_H-M "P B C M"
_symmetry_group_IT_number 57
_symmetry_cell_setting 'orthorhombic'
loop_
_space_group_symop_operation_xyz
x,y,z
-x,-y,1/2+z
x,1/2-y,-z
-x,1/2+y,1/2-z
-x,-y,-z
x,y,1/2-z
-x,1/2+y,z
x,1/2-y,1/2+z
loop_
_atom_site_type_symbol
_atom_site_label
_atom_site_fract_x
_atom_site_fract_y
_atom_site_fract_z
Si Si1 0.021556 0.353828 0.437637
Si Si2 0.075781 0.971849 0.437627
Si Si3 0.371029 0.527497 0.438974
Si Si4 0.164510 0.648476 0.062054
Si Si5 0.537166 0.146486 0.561830
Si Si6 0.279667 0.850807 0.939151
Si Si7 0.424347 0.148109 0.561470
O O1 0.026276 0.250000 0.500000
O O2 0.022774 0.350786 0.250000
O O3 0.062708 0.427241 0.496810
O O4 0.968894 0.401592 0.486927
O O5 0.075691 0.976212 0.250000
O O6 0.127049 0.927859 0.497547
O O7 0.369129 0.526580 0.250000
O O8 0.418785 0.586817 0.489825
O O9 0.319990 0.574776 0.494996
O O10 0.383268 0.424653 0.493600
O O11 0.162207 0.649645 0.250000
O O12 0.222224 0.631563 0.012797
O O13 0.150361 0.750000 0.000000
O O14 0.542932 0.250000 0.500000
O O15 0.540492 0.144746 0.750000
O O16 0.480696 0.117309 0.514805
O O17 0.280515 0.848779 0.750000
O O18 0.294146 0.750000 0.000000
O O19 0.416163 0.250000 0.500000
O O20 0.423950 0.150756 0.750000
#
# Coordination Sequence:
#
# PCOD9434970 Si02
#       7
#     8   8   8   8   8   8   8
#     4  10  20  33  50  74 105 137 168 204 245 288
#     4  10  20  33  51  75 102 134 170 205 242 288
#     4  10  19  32  49  69  93 122 155 194 238 282
#     4  10  19  32  50  72  98 129 163 200 242 287
#     4  10  19  30  45  68  95 123 152 185 229 283
#     4   9  19  33  49  70  96 124 155 193 239 287
#     4   9  19  33  48  66  91 121 154 192 233 279
#
# _framework density 16.870362
#
# number of rings (size 3 to 8) (size 9 to 14) (size 15 to 20)
#    0.000    2.286    0.000    3.000    0.000    6.286 
#    0.000    0.000    0.000    0.857    0.000    2.000 
#    0.000    0.000    0.000    0.000    0.000    0.000 
#
# Total GULP energy -312407.732799 kJ/mol
# GULP energy per Si atom -5578.709514 kJ/mol
# Density = 1.683196 g / cm^3
# Si number density = 16.870362 Si / 1000 Ang^3
#
#
#
# Elastic Constant Matrix: (Units=GPa)
#
#
# Indices 1 2 3 4 5 6 
#
# 1 90.7270 75.4685 16.9380 0.0000 0.0000 0.0000
# 2 75.4685 129.8802 21.4696 0.0000 0.0000 0.0000
# 3 16.9380 21.4696 16.1400 0.0000 0.0000 0.0000
# 4 0.0000 0.0000 0.0000 27.2835 0.0000 0.0000
# 5 0.0000 0.0000 0.0000 0.0000 16.7421 0.0000
# 6 0.0000 0.0000 0.0000 0.0000 0.0000 39.2158
#
#
#
# Elastic Compliance Matrix: (Units=1/GPa)
#
#
# Indices 1 2 3 4 5 6 
#
# 1 0.022078 -0.011535 -0.007826 0.000000 0.000000 0.000000
# 2 -0.011535 0.015896 -0.009040 0.000000 0.000000 0.000000
# 3 -0.007826 -0.009040 0.082195 0.000000 0.000000 0.000000
# 4 0.000000 0.000000 0.000000 0.036652 0.000000 0.000000
# 5 0.000000 0.000000 0.000000 0.000000 0.059729 0.000000
# 6 0.000000 0.000000 0.000000 0.000000 0.000000 0.025500
#
#
# Mechanical properties :
#
#
# Convention : Reuss Voigt Hill
#
# Bulk Modulus (GPa) = 15.78073 51.61106 33.69589
# Shear Modulus (GPa) = 15.62615 24.83970 20.23292
#
# Velocity S-wave (km/s) = 3.04673 3.84133 3.46687
# Velocity P-wave (km/s) = 4.66382 7.09462 6.00353
#
# Compressibility (1/GPa) = 0.06336844
#
# Stress axis : x y z
#
# Youngs Moduli (GPa) = 45.29324 62.90701 12.16612
#
# Poissons Ratio (x) = 0.72565 0.09521
# Poissons Ratio (y) = 0.52247 0.10998
# Poissons Ratio (z) = 0.35445 0.56868
#
# Static dielectric constant tensor:
#      x y z
#    x 1.575570 0.000000 0.000000 
#    y 0.000000 1.544330 0.000000 
#    z 0.000000 0.000000 1.570790 
# 
# From -- ./inp_files/8101.got.cif
#   From: 2010.05.17/outbox.cif.g08.bks.cpg/sg57_5_cif.got.tgz:8101.got - 2010.06.03 13:58:18.
