data_PCOD9434938
_publ_section_title
;
Structure prediction by ZEFSAII (Michael W. Deem and Ramdas Pophale) SiO2 
 PCOD9434938
Probable space group: P B C M
;
_chemical_formula_sum "Si O2"
_cell_formula_units_Z 64
_cell_length_a 33.311692
_cell_length_b 14.296271
_cell_length_c 7.712914
_cell_angle_alpha 90.000000
_cell_angle_beta 90.000000
_cell_angle_gamma 90.000000
_cell_volume 3673.143990
_symmetry_space_group_name_H-M "P B C M"
_symmetry_group_IT_number 57
_symmetry_cell_setting 'orthorhombic'
loop_
_space_group_symop_operation_xyz
x,y,z
-x,-y,1/2+z
x,1/2-y,-z
-x,1/2+y,1/2-z
-x,-y,-z
x,y,1/2-z
-x,1/2+y,z
x,1/2-y,1/2+z
loop_
_atom_site_type_symbol
_atom_site_label
_atom_site_fract_x
_atom_site_fract_y
_atom_site_fract_z
Si Si1 0.317279 0.859953 0.540490
Si Si2 0.142117 0.860246 0.540772
Si Si3 0.391877 0.522669 0.451633
Si Si4 0.980769 0.858209 0.543817
Si Si5 0.468621 0.640461 0.957362
Si Si6 0.061718 0.543731 0.043252
Si Si7 0.770461 0.139694 0.041961
Si Si8 0.442155 0.141660 0.958781
O O1 0.322795 0.750000 0.500000
O O2 0.317115 0.865342 0.750000
O O3 0.354088 0.921917 0.472249
O O4 0.273177 0.892985 0.477373
O O5 0.137216 0.750000 0.500000
O O6 0.142973 0.867873 0.750000
O O7 0.103984 0.918196 0.474279
O O8 0.186058 0.893844 0.476353
O O9 0.381862 0.505879 0.250000
O O10 0.431622 0.586387 0.460695
O O11 0.407195 0.424832 0.528624
O O12 0.973813 0.750000 0.500000
O O13 0.982449 0.864699 0.750000
O O14 0.023729 0.896395 0.473644
O O15 0.948056 0.934723 0.485945
O O16 0.466653 0.627970 0.750000
O O17 0.513227 0.612414 0.020884
O O18 0.464757 0.750000 0.000000
O O19 0.062576 0.558554 0.250000
O O20 0.770375 0.127672 0.250000
O O21 0.770579 0.250000 0.000000
O O22 0.443166 0.132352 0.750000
O O23 0.436354 0.250000 0.000000
#
# Coordination Sequence:
#
# PCOD9434938 Si02
#       8
#     8   8   8   8   8   8   8   8
#     4   9  17  28  42  61  87 113 136 163 198 244
#     4   9  16  26  42  63  87 113 142 175 208 245
#     4  10  19  30  44  63  85 109 138 171 204 241
#     4  10  19  30  44  61  85 116 146 179 217 254
#     4  10  19  30  44  62  84 110 137 166 201 242
#     4   9  18  30  43  62  86 113 146 180 213 252
#     4   8  14  25  40  59  83 111 138 164 200 244
#     4   9  19  33  46  60  80 106 137 173 209 242
#
# _framework density 17.423767000000002
#
# number of rings (size 3 to 8) (size 9 to 14) (size 15 to 20)
#    0.000    2.750    0.000    1.875    0.000    3.500 
#    0.000    0.000    0.000    0.000    0.000    0.875 
#    0.000    2.000    0.000    0.000    0.000    0.000 
#
# Total GULP energy -356551.124454 kJ/mol
# GULP energy per Si atom -5571.111320 kJ/mol
# Density = 1.738411 g / cm^3
# Si number density = 17.423767 Si / 1000 Ang^3
#
#
#
# Elastic Constant Matrix: (Units=GPa)
#
#
# Indices 1 2 3 4 5 6 
#
# 1 175.9856 79.0144 5.3342 0.0000 0.0000 0.0000
# 2 79.0144 86.5305 -9.2042 0.0000 0.0000 0.0000
# 3 5.3342 -9.2042 30.0563 0.0000 0.0000 0.0000
# 4 0.0000 0.0000 0.0000 15.2609 0.0000 0.0000
# 5 0.0000 0.0000 0.0000 0.0000 5.1976 0.0000
# 6 0.0000 0.0000 0.0000 0.0000 0.0000 55.0631
#
#
#
# Elastic Compliance Matrix: (Units=1/GPa)
#
#
# Indices 1 2 3 4 5 6 
#
# 1 0.010273 -0.009897 -0.004854 0.000000 0.000000 0.000000
# 2 -0.009897 0.021480 0.008334 0.000000 0.000000 0.000000
# 3 -0.004854 0.008334 0.036685 0.000000 0.000000 0.000000
# 4 0.000000 0.000000 0.000000 0.065527 0.000000 0.000000
# 5 0.000000 0.000000 0.000000 0.000000 0.192395 0.000000
# 6 0.000000 0.000000 0.000000 0.000000 0.000000 0.018161
#
#
# Mechanical properties :
#
#
# Convention : Reuss Voigt Hill
#
# Bulk Modulus (GPa) = 17.98396 49.20680 33.59538
# Shear Modulus (GPa) = 13.30180 29.59955 21.45067
#
# Velocity S-wave (km/s) = 2.76602 4.12613 3.51253
# Velocity P-wave (km/s) = 4.53267 7.14160 5.98111
#
# Compressibility (1/GPa) = 0.05560509
#
# Stress axis : x y z
#
# Youngs Moduli (GPa) = 97.34281 46.55390 27.25942
#
# Poissons Ratio (x) = 0.46074 0.13232
# Poissons Ratio (y) = 0.96340 -0.22719
# Poissons Ratio (z) = 0.47250 -0.38800
#
# Static dielectric constant tensor:
#      x y z
#    x 1.649660 0.000000 0.000000 
#    y 0.000000 1.590830 0.000000 
#    z 0.000000 0.000000 1.635240 
# 
# From -- ./inp_files/10341.got.cif
#   From: 2010.05.17/outbox.cif.g08.bks.cpg/sg57_6_cif.got.tgz:10341.got - 2010.06.03 13:58:18.
