data_PCOD9434888
_publ_section_title
;
Structure prediction by ZEFSAII (Michael W. Deem and Ramdas Pophale) SiO2 
 PCOD9434888
Probable space group: P B C M
;
_chemical_formula_sum "Si O2"
_cell_formula_units_Z 64
_cell_length_a 18.761967
_cell_length_b 25.432426
_cell_length_c 9.152687
_cell_angle_alpha 90.000000
_cell_angle_beta 90.000000
_cell_angle_gamma 90.000000
_cell_volume 4367.317522
_symmetry_space_group_name_H-M "P B C M"
_symmetry_group_IT_number 57
_symmetry_cell_setting 'orthorhombic'
loop_
_space_group_symop_operation_xyz
x,y,z
-x,-y,1/2+z
x,1/2-y,-z
-x,1/2+y,1/2-z
-x,-y,-z
x,y,1/2-z
-x,1/2+y,z
x,1/2-y,1/2+z
loop_
_atom_site_type_symbol
_atom_site_label
_atom_site_fract_x
_atom_site_fract_y
_atom_site_fract_z
Si Si1 0.322896 0.389340 0.579933
Si Si2 0.942997 0.695604 0.575416
Si Si3 0.003703 0.081811 0.574628
Si Si4 0.774790 0.695368 0.924364
Si Si5 0.265427 0.508982 0.579502
Si Si6 0.596969 0.043725 0.081288
Si Si7 0.113327 0.989954 0.924369
Si Si8 0.460367 0.422851 0.418587
O O1 0.326610 0.374370 0.750000
O O2 0.271597 0.351017 0.491444
O O3 0.291133 0.448296 0.572064
O O4 0.400986 0.391188 0.507900
O O5 0.965639 0.750000 0.500000
O O6 0.950169 0.701300 0.750000
O O7 0.983053 0.642162 0.531339
O O8 0.858873 0.687427 0.543964
O O9 0.991215 0.079701 0.750000
O O10 0.939324 0.054018 0.490249
O O11 0.073785 0.045845 0.546556
O O12 0.766209 0.698057 0.750000
O O13 0.753789 0.750000 0.000000
O O14 0.259843 0.523355 0.750000
O O15 0.327338 0.542019 0.499720
O O16 0.189820 0.513088 0.500060
O O17 0.603566 0.059834 0.250000
O O18 0.567621 0.983459 0.080992
O O19 0.536994 0.076500 0.995995
O O20 0.119935 0.984377 0.750000
O O21 0.464663 0.406189 0.250000
#
# Coordination Sequence:
#
# PCOD9434888 Si02
#       8
#     8   8   8   8   8   8   8   8
#     4  10  19  29  42  61  84 113 148 181 214 255
#     4   9  18  31  47  65  86 113 145 182 222 264
#     4   9  18  32  46  62  87 116 145 180 223 267
#     4  10  19  31  45  62  85 112 143 180 220 258
#     4  10  19  29  42  61  86 115 146 179 216 259
#     4   9  16  26  40  58  82 110 140 174 207 243
#     4  10  19  30  45  64  86 115 150 184 220 265
#     4   9  16  26  40  58  81 110 141 172 208 246
#
# _framework density 14.654305000000001
#
# number of rings (size 3 to 8) (size 9 to 14) (size 15 to 20)
#    0.000    2.500    0.000    3.000    0.000    7.000 
#    0.000    0.000    0.000    0.000    0.000    0.000 
#    0.000    1.000    0.000    8.500    0.000    6.250 
#
# Total GULP energy -356791.488366 kJ/mol
# GULP energy per Si atom -5574.867006 kJ/mol
# Density = 1.462095 g / cm^3
# Si number density = 14.654305 Si / 1000 Ang^3
#
#
#
# Elastic Constant Matrix: (Units=GPa)
#
#
# Indices 1 2 3 4 5 6 
#
# 1 108.2059 30.6433 63.0238 0.0000 0.0000 0.0000
# 2 30.6433 64.9052 33.1224 0.0000 0.0000 0.0000
# 3 63.0238 33.1224 97.4991 0.0000 0.0000 0.0000
# 4 0.0000 0.0000 0.0000 21.8765 0.0000 0.0000
# 5 0.0000 0.0000 0.0000 0.0000 28.4583 0.0000
# 6 0.0000 0.0000 0.0000 0.0000 0.0000 16.3909
#
#
#
# Elastic Compliance Matrix: (Units=1/GPa)
#
#
# Indices 1 2 3 4 5 6 
#
# 1 0.015180 -0.002612 -0.008925 0.000000 0.000000 0.000000
# 2 -0.002612 0.019088 -0.004796 0.000000 0.000000 0.000000
# 3 -0.008925 -0.004796 0.017655 0.000000 0.000000 0.000000
# 4 0.000000 0.000000 0.000000 0.045711 0.000000 0.000000
# 5 0.000000 0.000000 0.000000 0.000000 0.035139 0.000000
# 6 0.000000 0.000000 0.000000 0.000000 0.000000 0.061009
#
#
# Mechanical properties :
#
#
# Convention : Reuss Voigt Hill
#
# Bulk Modulus (GPa) = 51.93083 58.24325 55.08704
# Shear Modulus (GPa) = 21.47155 22.93319 22.20237
#
# Velocity S-wave (km/s) = 3.83195 3.96023 3.89662
# Velocity P-wave (km/s) = 7.42244 7.79374 7.61035
#
# Compressibility (1/GPa) = 0.01925638
#
# Stress axis : x y z
#
# Youngs Moduli (GPa) = 65.87823 52.38933 56.64187
#
# Poissons Ratio (x) = 0.13685 0.50551
# Poissons Ratio (y) = 0.17208 0.27166
# Poissons Ratio (z) = 0.58794 0.25126
#
# Static dielectric constant tensor:
#      x y z
#    x 1.466470 0.000000 0.000000 
#    y 0.000000 1.466720 0.000000 
#    z 0.000000 0.000000 1.488150 
# 
# From -- ./inp_files/7414.got.cif
#   From: 2010.05.17/outbox.cif.g08.bks.cpg/sg57_4_cif.got.tgz:7414.got - 2010.06.03 13:58:18.
