data_PCOD9434464
_publ_section_title
;
Structure prediction by ZEFSAII (Michael W. Deem and Ramdas Pophale) SiO2 
 PCOD9434464
Probable space group: P B C M
;
_chemical_formula_sum "Si O2"
_cell_formula_units_Z 64
_cell_length_a 15.315544
_cell_length_b 30.679600
_cell_length_c 8.648538
_cell_angle_alpha 90.000000
_cell_angle_beta 90.000000
_cell_angle_gamma 90.000000
_cell_volume 4063.729749
_symmetry_space_group_name_H-M "P B C M"
_symmetry_group_IT_number 57
_symmetry_cell_setting 'orthorhombic'
loop_
_space_group_symop_operation_xyz
x,y,z
-x,-y,1/2+z
x,1/2-y,-z
-x,1/2+y,1/2-z
-x,-y,-z
x,y,1/2-z
-x,1/2+y,z
x,1/2-y,1/2+z
loop_
_atom_site_type_symbol
_atom_site_label
_atom_site_fract_x
_atom_site_fract_y
_atom_site_fract_z
Si Si1 0.674884 0.462798 0.936909
Si Si2 0.874179 0.026468 0.063303
Si Si3 0.363051 0.443083 0.935259
Si Si4 0.946085 0.564524 0.434146
Si Si5 0.491045 0.203745 0.435554
Si Si6 0.537297 0.391308 0.938286
Si Si7 0.793524 0.614342 0.565974
Si Si8 0.705279 0.704607 0.935193
O O1 0.671897 0.464261 0.750000
O O2 0.776634 0.460380 0.983013
O O3 0.617218 0.421742 0.988906
O O4 0.636018 0.508140 0.998767
O O5 0.875368 0.020835 0.250000
O O6 0.951904 0.059941 0.023198
O O7 0.901085 0.980643 0.988004
O O8 0.363591 0.445078 0.750000
O O9 0.446885 0.414720 0.986399
O O10 0.275518 0.418969 0.990727
O O11 0.939626 0.568031 0.250000
O O12 0.890140 0.602414 0.511192
O O13 0.524276 0.250000 0.500000
O O14 0.491624 0.205787 0.250000
O O15 0.538542 0.159223 0.486988
O O16 0.390940 0.199167 0.492162
O O17 0.537128 0.391008 0.750000
O O18 0.787560 0.609182 0.750000
O O19 0.763281 0.662924 0.524537
O O20 0.696446 0.707138 0.750000
O O21 0.741239 0.750000 0.000000
#
# Coordination Sequence:
#
# PCOD9434464 Si02
#       8
#     8   8   8   8   8   8   8   8
#     4  10  19  33  49  66  93 128 162 196 235 277
#     4   9  18  31  47  68  93 121 156 196 236 276
#     4  11  20  31  45  67  96 128 163 195 226 269
#     4  10  19  30  47  69  93 121 155 195 236 278
#     4  10  18  31  48  68  93 121 155 193 235 276
#     4   9  19  32  47  67  94 127 159 193 233 278
#     4  11  21  32  47  69  95 127 160 191 232 284
#     4  10  20  32  48  69  93 121 155 192 236 282
#
# _framework density 15.749079
#
# number of rings (size 3 to 8) (size 9 to 14) (size 15 to 20)
#    0.000    2.000    2.500    3.000    0.000    2.000 
#    0.000    1.875    0.000    0.000    0.000    0.875 
#    0.000    4.000    0.000    0.000    0.000    0.000 
#
# Total GULP energy -356992.091242 kJ/mol
# GULP energy per Si atom -5578.001426 kJ/mol
# Density = 1.571323 g / cm^3
# Si number density = 15.749079 Si / 1000 Ang^3
#
#
#
# Elastic Constant Matrix: (Units=GPa)
#
#
# Indices 1 2 3 4 5 6 
#
# 1 73.2572 54.0525 16.4852 0.0000 0.0000 0.0000
# 2 54.0525 141.0254 29.2902 0.0000 0.0000 0.0000
# 3 16.4852 29.2902 24.5505 0.0000 0.0000 0.0000
# 4 0.0000 0.0000 0.0000 22.4833 0.0000 0.0000
# 5 0.0000 0.0000 0.0000 0.0000 15.7286 0.0000
# 6 0.0000 0.0000 0.0000 0.0000 0.0000 22.6610
#
#
#
# Elastic Compliance Matrix: (Units=1/GPa)
#
#
# Indices 1 2 3 4 5 6 
#
# 1 0.019592 -0.006350 -0.005579 0.000000 0.000000 0.000000
# 2 -0.006350 0.011485 -0.009438 0.000000 0.000000 0.000000
# 3 -0.005579 -0.009438 0.055739 0.000000 0.000000 0.000000
# 4 0.000000 0.000000 0.000000 0.044478 0.000000 0.000000
# 5 0.000000 0.000000 0.000000 0.000000 0.063578 0.000000
# 6 0.000000 0.000000 0.000000 0.000000 0.000000 0.044129
#
#
# Mechanical properties :
#
#
# Convention : Reuss Voigt Hill
#
# Bulk Modulus (GPa) = 22.68585 48.72101 35.70343
# Shear Modulus (GPa) = 16.86742 21.44159 19.15450
#
# Velocity S-wave (km/s) = 3.27618 3.69379 3.49123
# Velocity P-wave (km/s) = 5.36162 7.01392 6.24267
#
# Compressibility (1/GPa) = 0.04408035
#
# Stress axis : x y z
#
# Youngs Moduli (GPa) = 51.04232 87.06851 17.94073
#
# Poissons Ratio (x) = 0.55292 0.10009
# Poissons Ratio (y) = 0.32414 0.16933
# Poissons Ratio (z) = 0.28477 0.82179
#
# Static dielectric constant tensor:
#      x y z
#    x 1.523100 0.000000 0.000000 
#    y 0.000000 1.529400 0.000000 
#    z 0.000000 0.000000 1.533140 
# 
# From -- ./inp_files/5991.got.cif
#   From: 2010.05.17/outbox.cif.g08.bks.cpg/sg57_3_cif.got.tgz:5991.got - 2010.06.03 13:58:18.
