data_PCOD9434550
_publ_section_title
;
Structure prediction by ZEFSAII (Michael W. Deem and Ramdas Pophale) SiO2 
 PCOD9434550
Probable space group: P B C M
;
_chemical_formula_sum "Si O2"
_cell_formula_units_Z 64
_cell_length_a 21.898625
_cell_length_b 9.225215
_cell_length_c 15.997803
_cell_angle_alpha 90.000000
_cell_angle_beta 90.000000
_cell_angle_gamma 90.000000
_cell_volume 3231.868544
_symmetry_space_group_name_H-M "P B C M"
_symmetry_group_IT_number 57
_symmetry_cell_setting 'orthorhombic'
loop_
_space_group_symop_operation_xyz
x,y,z
-x,-y,1/2+z
x,1/2-y,-z
-x,1/2+y,1/2-z
-x,-y,-z
x,y,1/2-z
-x,1/2+y,z
x,1/2-y,1/2+z
loop_
_atom_site_type_symbol
_atom_site_label
_atom_site_fract_x
_atom_site_fract_y
_atom_site_fract_z
Si Si1 0.030865 0.121041 0.650798
Si Si2 0.760663 0.613818 0.850252
Si Si3 0.102002 0.646355 0.920708
Si Si4 0.473815 0.249088 0.152792
Si Si5 0.632816 0.606784 0.557334
Si Si6 0.133182 0.584006 0.154841
Si Si7 0.138540 0.144342 0.151556
Si Si8 0.554012 0.043536 0.937377
O O1 0.014241 0.107574 0.750000
O O2 0.078478 0.253602 0.642701
O O3 0.969783 0.134522 0.598244
O O4 0.070248 0.982703 0.620345
O O5 0.749535 0.603808 0.750000
O O6 0.697589 0.601180 0.898344
O O7 0.806078 0.486373 0.880437
O O8 0.801167 0.759005 0.864151
O O9 0.130894 0.745625 0.848314
O O10 0.131025 0.488664 0.911685
O O11 0.113626 0.750000 0.000000
O O12 0.485852 0.258515 0.250000
O O13 0.420511 0.361082 0.124841
O O14 0.533920 0.304309 0.102652
O O15 0.450555 0.087988 0.129527
O O16 0.631277 0.750000 0.500000
O O17 0.614072 0.476875 0.494310
O O18 0.132094 0.528819 0.250000
O O19 0.139503 0.099636 0.250000
O O20 0.500000 0.000000 0.000000
#
# Coordination Sequence:
#
# PCOD9434550 Si02
#       8
#     8   8   8   8   8   8   8   8
#     4   9  18  34  54  73  94 128 173 218 270 331
#     4   9  18  35  58  78  94 126 185 236 264 309
#     4  12  23  31  45  74 108 135 164 210 274 339
#     4  10  18  31  54  83 113 147 187 225 261 309
#     4   9  18  31  51  78 109 142 173 212 264 316
#     4   9  19  35  54  73  95 130 175 220 268 324
#     4   9  19  35  54  73  95 130 176 225 272 319
#     4   9  18  32  51  80 114 146 178 216 272 325
#
# _framework density 19.802783999999999
#
# number of rings (size 3 to 8) (size 9 to 14) (size 15 to 20)
#    0.000    2.500    0.000    5.250    0.000    5.000 
#    0.000    2.500    0.000   15.000    0.000    8.750 
#    0.000    0.000    0.000    0.000    0.000    0.000 
#
# Total GULP energy -356761.108901 kJ/mol
# GULP energy per Si atom -5574.392327 kJ/mol
# Density = 1.975771 g / cm^3
# Si number density = 19.802784 Si / 1000 Ang^3
#
#
#
# Elastic Constant Matrix: (Units=GPa)
#
#
# Indices 1 2 3 4 5 6 
#
# 1 104.9552 20.7641 33.3976 0.0000 0.0000 0.0000
# 2 20.7641 62.6532 6.9372 0.0000 0.0000 0.0000
# 3 33.3976 6.9372 65.4695 0.0000 0.0000 0.0000
# 4 0.0000 0.0000 0.0000 16.3293 0.0000 0.0000
# 5 0.0000 0.0000 0.0000 0.0000 33.4428 0.0000
# 6 0.0000 0.0000 0.0000 0.0000 0.0000 3.0553
#
#
#
# Elastic Compliance Matrix: (Units=1/GPa)
#
#
# Indices 1 2 3 4 5 6 
#
# 1 0.012030 -0.003347 -0.005782 0.000000 0.000000 0.000000
# 2 -0.003347 0.017081 -0.000103 0.000000 0.000000 0.000000
# 3 -0.005782 -0.000103 0.018235 0.000000 0.000000 0.000000
# 4 0.000000 0.000000 0.000000 0.061240 0.000000 0.000000
# 5 0.000000 0.000000 0.000000 0.000000 0.029902 0.000000
# 6 0.000000 0.000000 0.000000 0.000000 0.000000 0.327305
#
#
# Mechanical properties :
#
#
# Convention : Reuss Voigt Hill
#
# Bulk Modulus (GPa) = 34.62246 39.47508 37.04877
# Shear Modulus (GPa) = 10.12385 22.03073 16.07729
#
# Velocity S-wave (km/s) = 2.26350 3.33904 2.85242
# Velocity P-wave (km/s) = 4.93486 5.90280 5.44040
#
# Compressibility (1/GPa) = 0.02888299
#
# Stress axis : x y z
#
# Youngs Moduli (GPa) = 83.12629 58.54330 54.84023
#
# Poissons Ratio (x) = 0.19592 0.31709
# Poissons Ratio (y) = 0.27819 0.00564
# Poissons Ratio (z) = 0.48065 0.00602
#
# Static dielectric constant tensor:
#      x y z
#    x 1.717130 0.000000 0.000000 
#    y 0.000000 1.739680 0.000000 
#    z 0.000000 0.000000 1.775400 
# 
# From -- ./inp_files/23013.got.cif
#   From: 2010.05.17/outbox.cif.g08.bks.cpg/sg57_12_cif.got.tgz:23013.got - 2010.06.03 13:58:18.
