data_PCOD9434101
_publ_section_title
;
Structure prediction by ZEFSAII (Michael W. Deem and Ramdas Pophale) SiO2 
 PCOD9434101
Probable space group: P B C M
;
_chemical_formula_sum "Si O2"
_cell_formula_units_Z 40
_cell_length_a 25.093304
_cell_length_b 7.368430
_cell_length_c 10.839003
_cell_angle_alpha 90.000000
_cell_angle_beta 90.000000
_cell_angle_gamma 90.000000
_cell_volume 2004.112730
_symmetry_space_group_name_H-M "P B C M"
_symmetry_group_IT_number 57
_symmetry_cell_setting 'orthorhombic'
loop_
_space_group_symop_operation_xyz
x,y,z
-x,-y,1/2+z
x,1/2-y,-z
-x,1/2+y,1/2-z
-x,-y,-z
x,y,1/2-z
-x,1/2+y,z
x,1/2-y,1/2+z
loop_
_atom_site_type_symbol
_atom_site_label
_atom_site_fract_x
_atom_site_fract_y
_atom_site_fract_z
Si Si1 0.783249 0.250000 0.500000
Si Si2 0.937127 0.534699 0.750000
Si Si3 0.437156 0.532718 1.000000
Si Si4 0.122474 0.470678 0.500000
Si Si5 0.714686 0.250001 0.750000
Si Si6 0.062872 0.034702 0.250000
Si Si7 0.389250 0.958045 0.750000
Si Si8 0.610751 0.458045 0.250000
O O1 0.821557 0.425870 0.499999
O O2 0.748457 0.250001 0.624810
O O3 0.909466 0.471680 0.623499
O O4 0.929978 0.749999 0.750000
O O5 1.000000 0.499998 0.750000
O O6 0.410567 0.458840 0.875684
O O7 0.426758 0.750000 0.000000
O O8 0.500000 0.500000 0.000000
O O9 0.410567 0.458840 0.124316
O O10 0.127843 0.250000 0.500000
O O11 0.090534 0.528319 0.623499
O O12 0.673981 0.421653 0.750000
O O13 0.673981 0.078348 0.750000
O O14 0.411757 0.750000 0.750000
#
# Coordination Sequence:
#
# PCOD9434101 Si02
#       8
#     4   4   8   8   4   4   4   4
#     4  12  22  36  66  82 106 152 200 240 282 342
#     4  10  21  36  57  80 115 154 181 226 287 342
#     4  10  17  29  49  75 102 142 167 209 262 318
#     4  10  23  39  54  85 117 141 188 242 282 334
#     4  10  20  36  58  86  98 148 206 226 288 324
#     4  10  21  36  57  80 115 154 181 226 287 342
#     4   8  17  31  49  72 104 130 177 220 254 322
#     4   8  17  31  49  72 104 130 177 220 254 322
#
# _framework density 19.958959
#
# number of rings (size 3 to 8) (size 9 to 14) (size 15 to 20)
#    0.600    1.600    0.000    3.600    2.800    0.000 
#    0.000    0.000    0.000    7.200    0.000    0.000 
#    0.000    0.000    0.000    0.000    0.000    0.000 
#
# Total GULP energy -223048.318362 kJ/mol
# GULP energy per Si atom -5576.207959 kJ/mol
# Density = 1.991353 g / cm^3
# Si number density = 19.958959 Si / 1000 Ang^3
#
#
#
# Elastic Constant Matrix: (Units=GPa)
#
#
# Indices 1 2 3 4 5 6 
#
# 1 175.0734 18.8751 136.9741 0.0000 0.0000 0.0000
# 2 18.8751 75.1295 32.0742 0.0000 0.0000 0.0000
# 3 136.9741 32.0742 275.1064 0.0000 0.0000 0.0000
# 4 0.0000 0.0000 0.0000 -9.5018 0.0000 0.0000
# 5 0.0000 0.0000 0.0000 0.0000 54.7965 0.0000
# 6 0.0000 0.0000 0.0000 0.0000 0.0000 34.0621
#
#
#
# Elastic Compliance Matrix: (Units=1/GPa)
#
#
# Indices 1 2 3 4 5 6 
#
# 1 0.009367 -0.000381 -0.004619 0.000000 0.000000 0.000000
# 2 -0.000381 0.014023 -0.001445 0.000000 0.000000 0.000000
# 3 -0.004619 -0.001445 0.006103 0.000000 0.000000 0.000000
# 4 0.000000 0.000000 0.000000 -0.105244 0.000000 0.000000
# 5 0.000000 0.000000 0.000000 0.000000 0.018249 0.000000
# 6 0.000000 0.000000 0.000000 0.000000 0.000000 0.029358
#
#
# Mechanical properties :
#
#
# Convention : Reuss Voigt Hill
#
# Bulk Modulus (GPa) = 60.23328 100.12845 80.18087
# Shear Modulus (GPa) = -514.55638 38.36375 -238.09631
#
# Velocity S-wave (km/s) = -16.07380 4.38897 -10.93398
# Velocity P-wave (km/s) = 17.72696 8.71551 10.91524
#
# Compressibility (1/GPa) = 0.01660212
#
# Stress axis : x y z
#
# Youngs Moduli (GPa) = 106.75641 71.31107 163.84274
#
# Poissons Ratio (x) = 0.02719 0.75685
# Poissons Ratio (y) = 0.04070 0.23677
# Poissons Ratio (z) = 0.49315 0.10305
#
# Static dielectric constant tensor:
#      x y z
#    x 1.676520 0.000000 0.000000 
#    y 0.000000 1.715000 0.000000 
#    z 0.000000 0.000000 1.784310 
# 
# From -- ./inp_files/9670.got.cif
#   From: 2010.05.17/outbox.cif.g08.bks.cpg/sg57_5_cif.got.tgz:9670.got - 2010.06.03 13:58:18.
