data_PCOD9434125
_publ_section_title
;
Structure prediction by ZEFSAII (Michael W. Deem and Ramdas Pophale) SiO2 
 PCOD9434125
Probable space group: P B C M
;
_chemical_formula_sum "Si O2"
_cell_formula_units_Z 36
_cell_length_a 14.572907
_cell_length_b 5.583337
_cell_length_c 18.618978
_cell_angle_alpha 90.000000
_cell_angle_beta 90.000000
_cell_angle_gamma 90.000000
_cell_volume 1514.941539
_symmetry_space_group_name_H-M "P B C M"
_symmetry_group_IT_number 57
_symmetry_cell_setting 'orthorhombic'
loop_
_space_group_symop_operation_xyz
x,y,z
-x,-y,1/2+z
x,1/2-y,-z
-x,1/2+y,1/2-z
-x,-y,-z
x,y,1/2-z
-x,1/2+y,z
x,1/2-y,1/2+z
loop_
_atom_site_type_symbol
_atom_site_label
_atom_site_fract_x
_atom_site_fract_y
_atom_site_fract_z
Si Si1 0.555459 0.635473 0.750000
Si Si2 0.243595 0.890062 0.095722
Si Si3 0.031230 0.716574 0.580437
Si Si4 0.297433 0.108694 0.876078
Si Si5 0.854246 0.580389 0.750000
Si Si6 0.166588 0.579609 0.750000
O O1 0.497101 0.389560 0.750000
O O2 0.617493 0.627608 0.678076
O O3 0.137831 0.852670 0.073546
O O4 0.296109 0.642336 0.080780
O O5 0.233720 0.911189 0.182297
O O6 0.284331 0.149447 0.077913
O O7 0.991100 0.750000 0.500000
O O8 0.983236 0.481383 0.613343
O O9 0.210312 0.088476 0.821445
O O10 0.893956 0.316349 0.750000
O O11 0.894668 0.843963 0.750000
#
# Coordination Sequence:
#
# PCOD9434125 Si02
#       6
#     4   8   8   8   4   4
#     4  11  20  31  48  75 112 143 166 197 248 307
#     4  10  17  31  50  68  96 132 169 205 246 295
#     4  10  21  36  52  72  99 130 167 217 269 303
#     4   9  17  28  45  69  95 131 166 197 236 288
#     4   7  12  22  36  56  82 111 144 175 216 260
#     4   8  14  23  40  61  82 112 148 186 226 271
#
# _framework density 23.763292
#
# number of rings (size 3 to 8) (size 9 to 14) (size 15 to 20)
#    0.000    2.667    0.000    4.000    0.000    1.778 
#    0.000    1.111    0.000    0.000    0.000    0.000 
#    0.000   17.778    0.000    0.000    0.000    0.000 
#
# Total GULP energy -200822.771905 kJ/mol
# GULP energy per Si atom -5578.410331 kJ/mol
# Density = 2.370921 g / cm^3
# Si number density = 23.763292 Si / 1000 Ang^3
#
#
#
# Elastic Constant Matrix: (Units=GPa)
#
#
# Indices 1 2 3 4 5 6 
#
# 1 95.6038 71.6558 5.6506 0.0000 0.0000 0.0000
# 2 71.6558 351.4879 26.3325 0.0000 0.0000 0.0000
# 3 5.6506 26.3325 55.6822 0.0000 0.0000 0.0000
# 4 0.0000 0.0000 0.0000 24.2271 0.0000 0.0000
# 5 0.0000 0.0000 0.0000 0.0000 -90.2182 0.0000
# 6 0.0000 0.0000 0.0000 0.0000 0.0000 41.4286
#
#
#
# Elastic Compliance Matrix: (Units=1/GPa)
#
#
# Indices 1 2 3 4 5 6 
#
# 1 0.012347 -0.002512 -0.000065 0.000000 0.000000 0.000000
# 2 -0.002512 0.003461 -0.001382 0.000000 0.000000 0.000000
# 3 -0.000065 -0.001382 0.018619 0.000000 0.000000 0.000000
# 4 0.000000 0.000000 0.000000 0.041276 0.000000 0.000000
# 5 0.000000 0.000000 0.000000 0.000000 -0.011084 0.000000
# 6 0.000000 0.000000 0.000000 0.000000 0.000000 0.024138
#
#
# Mechanical properties :
#
#
# Convention : Reuss Voigt Hill
#
# Bulk Modulus (GPa) = 37.72325 78.89463 58.30894
# Shear Modulus (GPa) = 47.38893 21.69648 34.54270
#
# Velocity S-wave (km/s) = 4.47050 3.02491 3.81677
# Velocity P-wave (km/s) = 6.52351 6.74332 6.63433
#
# Compressibility (1/GPa) = 0.02650885
#
# Stress axis : x y z
#
# Youngs Moduli (GPa) = 80.99430 288.95916 53.70843
#
# Poissons Ratio (x) = 0.72591 0.00349
# Poissons Ratio (y) = 0.20347 0.07421
# Poissons Ratio (z) = 0.00526 0.39924
#
# Static dielectric constant tensor:
#      x y z
#    x 1.840750 0.000000 0.000000 
#    y 0.000000 2.122880 0.000000 
#    z 0.000000 0.000000 1.981440 
# 
# From -- ./inp_files/25233.got.cif
#   From: 2010.05.17/outbox.cif.g08.bks.cpg/sg57_13_cif.got.tgz:25233.got - 2010.06.03 13:58:18.
