data_PCOD9434873
_publ_section_title
;
Structure prediction by ZEFSAII (Michael W. Deem and Ramdas Pophale) SiO2 
 PCOD9434873
Probable space group: P B C M
;
_chemical_formula_sum "Si O2"
_cell_formula_units_Z 64
_cell_length_a 18.888676
_cell_length_b 26.877999
_cell_length_c 8.761864
_cell_angle_alpha 90.000000
_cell_angle_beta 90.000000
_cell_angle_gamma 90.000000
_cell_volume 4448.309110
_symmetry_space_group_name_H-M "P B C M"
_symmetry_group_IT_number 57
_symmetry_cell_setting 'orthorhombic'
loop_
_space_group_symop_operation_xyz
x,y,z
-x,-y,1/2+z
x,1/2-y,-z
-x,1/2+y,1/2-z
-x,-y,-z
x,y,1/2-z
-x,1/2+y,z
x,1/2-y,1/2+z
loop_
_atom_site_type_symbol
_atom_site_label
_atom_site_fract_x
_atom_site_fract_y
_atom_site_fract_z
Si Si1 0.329893 0.005743 0.568245
Si Si2 0.960865 0.451481 0.066781
Si Si3 0.455901 0.546183 0.567617
Si Si4 0.825605 0.992147 0.932775
Si Si5 0.917377 0.606636 0.432978
Si Si6 0.413554 0.392633 0.433483
Si Si7 0.827908 0.695312 0.567185
Si Si8 0.674064 0.804294 0.567892
O O1 0.333800 0.002188 0.750000
O O2 0.377699 0.961823 0.497153
O O3 0.249599 0.004750 0.512785
O O4 0.365996 0.058830 0.525509
O O5 0.967768 0.450727 0.250000
O O6 0.878795 0.462256 0.029579
O O7 0.000000 0.500000 0.000000
O O8 0.004313 0.406202 0.994657
O O9 0.500000 0.500000 0.500000
O O10 0.454290 0.542200 0.750000
O O11 0.504952 0.593546 0.529208
O O12 0.815527 0.991820 0.750000
O O13 0.866740 0.940748 0.971814
O O14 0.918587 0.611008 0.250000
O O15 0.883863 0.655082 0.508763
O O16 0.407984 0.385925 0.250000
O O17 0.382837 0.345073 0.518008
O O18 0.843228 0.750000 0.500000
O O19 0.825643 0.697155 0.750000
O O20 0.750257 0.681058 0.503064
O O21 0.657032 0.750000 0.500000
O O22 0.680483 0.801287 0.750000
#
# Coordination Sequence:
#
# PCOD9434873 Si02
#       8
#     8   8   8   8   8   8   8   8
#     4  10  19  28  42  63  87 114 145 178 212 251
#     4   9  17  29  43  61  85 114 145 179 216 255
#     4   9  17  29  44  60  83 111 140 175 212 251
#     4   9  18  29  42  61  87 116 146 177 211 253
#     4  10  19  31  46  64  85 113 148 182 217 259
#     4   9  18  31  44  61  84 113 146 178 213 254
#     4  11  21  33  47  63  86 114 145 182 218 255
#     4  11  21  32  46  63  85 113 144 181 217 252
#
# _framework density 14.38749
#
# number of rings (size 3 to 8) (size 9 to 14) (size 15 to 20)
#    0.000    2.250    0.000    6.750    0.000    8.000 
#    0.000    0.000    0.000    0.000    0.000    0.000 
#    0.000    1.000    0.000    8.250    0.000    4.875 
#
# Total GULP energy -356733.042926 kJ/mol
# GULP energy per Si atom -5573.953796 kJ/mol
# Density = 1.435474 g / cm^3
# Si number density = 14.387490 Si / 1000 Ang^3
#
#
#
# Elastic Constant Matrix: (Units=GPa)
#
#
# Indices 1 2 3 4 5 6 
#
# 1 83.8602 33.9510 39.4382 0.0000 0.0000 0.0000
# 2 33.9510 55.8680 32.7273 0.0000 0.0000 0.0000
# 3 39.4382 32.7273 73.4641 0.0000 0.0000 0.0000
# 4 0.0000 0.0000 0.0000 21.7032 0.0000 0.0000
# 5 0.0000 0.0000 0.0000 0.0000 26.5136 0.0000
# 6 0.0000 0.0000 0.0000 0.0000 0.0000 27.7226
#
#
#
# Elastic Compliance Matrix: (Units=1/GPa)
#
#
# Indices 1 2 3 4 5 6 
#
# 1 0.017797 -0.007061 -0.006408 0.000000 0.000000 0.000000
# 2 -0.007061 0.027022 -0.008247 0.000000 0.000000 0.000000
# 3 -0.006408 -0.008247 0.020726 0.000000 0.000000 0.000000
# 4 0.000000 0.000000 0.000000 0.046076 0.000000 0.000000
# 5 0.000000 0.000000 0.000000 0.000000 0.037716 0.000000
# 6 0.000000 0.000000 0.000000 0.000000 0.000000 0.036072
#
#
# Mechanical properties :
#
#
# Convention : Reuss Voigt Hill
#
# Bulk Modulus (GPa) = 45.22521 47.26947 46.24734
# Shear Modulus (GPa) = 21.16731 22.32627 21.74679
#
# Velocity S-wave (km/s) = 3.83982 3.94354 3.89203
# Velocity P-wave (km/s) = 7.15269 7.32538 7.23955
#
# Compressibility (1/GPa) = 0.02211156
#
# Stress axis : x y z
#
# Youngs Moduli (GPa) = 56.18855 37.00755 48.24782
#
# Poissons Ratio (x) = 0.26132 0.30920
# Poissons Ratio (y) = 0.39676 0.39790
# Poissons Ratio (z) = 0.36008 0.30520
#
# Static dielectric constant tensor:
#      x y z
#    x 1.485140 0.000000 0.000000 
#    y 0.000000 1.466050 0.000000 
#    z 0.000000 0.000000 1.478340 
# 
# From -- ./inp_files/7405.got.cif
#   From: 2010.05.17/outbox.cif.g08.bks.cpg/sg57_4_cif.got.tgz:7405.got - 2010.06.03 13:58:18.
