data_PCOD9434806
_publ_section_title
;
Structure prediction by ZEFSAII (Michael W. Deem and Ramdas Pophale) SiO2 
 PCOD9434806
Probable space group: P B C M
;
_chemical_formula_sum "Si O2"
_cell_formula_units_Z 40
_cell_length_a 24.143163
_cell_length_b 9.556123
_cell_length_c 9.492912
_cell_angle_alpha 90.000000
_cell_angle_beta 90.000000
_cell_angle_gamma 90.000000
_cell_volume 2190.157527
_symmetry_space_group_name_H-M "P B C M"
_symmetry_group_IT_number 57
_symmetry_cell_setting 'orthorhombic'
loop_
_space_group_symop_operation_xyz
x,y,z
-x,-y,1/2+z
x,1/2-y,-z
-x,1/2+y,1/2-z
-x,-y,-z
x,y,1/2-z
-x,1/2+y,z
x,1/2-y,1/2+z
loop_
_atom_site_type_symbol
_atom_site_label
_atom_site_fract_x
_atom_site_fract_y
_atom_site_fract_z
Si Si1 0.960128 0.145475 0.750000
Si Si2 0.539790 0.604112 0.916570
Si Si3 0.251605 0.896350 0.085123
Si Si4 0.128636 0.915841 0.474998
Si Si5 0.071357 0.977152 0.750000
Si Si6 0.331282 0.103599 0.583258
O O1 0.925493 0.080548 0.621587
O O2 0.953082 0.315544 0.750000
O O3 0.022033 0.088416 0.750000
O O4 0.525537 0.617681 0.750000
O O5 0.604210 0.558461 0.923459
O O6 0.536186 0.750000 0.000000
O O7 0.500000 0.500000 0.000000
O O8 0.266559 0.877366 0.250000
O O9 0.252309 0.750000 0.000000
O O10 0.188670 0.957475 0.081377
O O11 0.292435 0.996875 0.000087
O O12 0.135116 0.750000 0.500000
O O13 0.111023 0.990614 0.616634
O O14 0.327098 0.250000 0.500000
O O15 0.316966 0.116862 0.750000
#
# Coordination Sequence:
#
# PCOD9434806 Si02
#       6
#     4   8   8   8   4   8
#     4  10  18  36  50  78 104 136 177 222 275 338
#     4  10  21  38  61  88 119 158 197 239 286 340
#     4  11  22  37  60  86 113 148 197 245 288 342
#     4   9  19  33  54  77 103 140 182 225 279 334
#     4  10  20  32  56  74 104 138 175 224 279 334
#     4  10  22  40  61  86 120 157 193 235 292 345
#
# _framework density 18.263527
#
# number of rings (size 3 to 8) (size 9 to 14) (size 15 to 20)
#    0.000    2.000    1.000    2.400    5.600    3.200 
#    0.000    2.000    0.000    0.000    0.000    0.000 
#    0.000    0.000    0.000    0.000    0.000    0.000 
#
# Total GULP energy -222907.145983 kJ/mol
# GULP energy per Si atom -5572.678650 kJ/mol
# Density = 1.822196 g / cm^3
# Si number density = 18.263527 Si / 1000 Ang^3
#
#
#
# Elastic Constant Matrix: (Units=GPa)
#
#
# Indices 1 2 3 4 5 6 
#
# 1 98.7457 51.5151 61.5099 0.0000 0.0000 0.0000
# 2 51.5151 46.3725 34.7975 0.0000 0.0000 0.0000
# 3 61.5099 34.7975 164.9302 0.0000 0.0000 0.0000
# 4 0.0000 0.0000 0.0000 24.2466 0.0000 0.0000
# 5 0.0000 0.0000 0.0000 0.0000 57.0436 0.0000
# 6 0.0000 0.0000 0.0000 0.0000 0.0000 -0.7525
#
#
#
# Elastic Compliance Matrix: (Units=1/GPa)
#
#
# Indices 1 2 3 4 5 6 
#
# 1 0.026486 -0.026152 -0.004360 0.000000 0.000000 0.000000
# 2 -0.026152 0.051442 -0.001100 0.000000 0.000000 0.000000
# 3 -0.004360 -0.001100 0.007921 0.000000 0.000000 0.000000
# 4 0.000000 0.000000 0.000000 0.041243 0.000000 0.000000
# 5 0.000000 0.000000 0.000000 0.000000 0.017530 0.000000
# 6 0.000000 0.000000 0.000000 0.000000 0.000000 -1.328865
#
#
# Mechanical properties :
#
#
# Convention : Reuss Voigt Hill
#
# Bulk Modulus (GPa) = 44.19854 67.29925 55.74890
# Shear Modulus (GPa) = -4.49044 26.92261 11.21608
#
# Velocity S-wave (km/s) = -1.56972 3.84359 2.48084
# Velocity P-wave (km/s) = 4.57904 7.52506 6.22873
#
# Compressibility (1/GPa) = 0.02262518
#
# Stress axis : x y z
#
# Youngs Moduli (GPa) = 37.75541 19.43946 126.23886
#
# Poissons Ratio (x) = 0.50837 0.55045
# Poissons Ratio (y) = 0.98736 0.13890
# Poissons Ratio (z) = 0.16463 0.02139
#
# Static dielectric constant tensor:
#      x y z
#    x 1.622560 0.000000 0.000000 
#    y 0.000000 1.613540 0.000000 
#    z 0.000000 0.000000 1.614990 
# 
# From -- ./inp_files/6266.got.cif
#   From: 2010.05.17/outbox.cif.g08.bks.cpg/sg57_4_cif.got.tgz:6266.got - 2010.06.03 13:58:18.
