data_PCOD9434143
_publ_section_title
;
Structure prediction by ZEFSAII (Michael W. Deem and Ramdas Pophale) SiO2 
 PCOD9434143
Probable space group: P B C M
;
_chemical_formula_sum "Si O2"
_cell_formula_units_Z 48
_cell_length_a 11.451680
_cell_length_b 12.176579
_cell_length_c 18.833342
_cell_angle_alpha 90.000000
_cell_angle_beta 90.000000
_cell_angle_gamma 90.000000
_cell_volume 2626.164265
_symmetry_space_group_name_H-M "P B C M"
_symmetry_group_IT_number 57
_symmetry_cell_setting 'orthorhombic'
loop_
_space_group_symop_operation_xyz
x,y,z
-x,-y,1/2+z
x,1/2-y,-z
-x,1/2+y,1/2-z
-x,-y,-z
x,y,1/2-z
-x,1/2+y,z
x,1/2-y,1/2+z
loop_
_atom_site_type_symbol
_atom_site_label
_atom_site_fract_x
_atom_site_fract_y
_atom_site_fract_z
Si Si1 0.259054 0.008582 0.530402
Si Si2 0.331042 0.899939 0.383573
Si Si3 0.089013 0.350278 0.948023
Si Si4 0.430244 0.297248 0.077488
Si Si5 0.717208 0.869230 0.669452
Si Si6 0.821124 0.294294 0.579535
O O1 0.133533 0.047860 0.497327
O O2 0.333481 0.108767 0.561452
O O3 0.321546 0.957355 0.461473
O O4 0.244106 0.910364 0.586290
O O5 0.457136 0.845016 0.383486
O O6 0.231556 0.805654 0.374933
O O7 0.315421 0.002385 0.332018
O O8 0.166373 0.356748 0.877605
O O9 0.957611 0.325905 0.922606
O O10 0.120979 0.250000 0.000000
O O11 0.375813 0.201769 0.125416
O O12 0.464176 0.250000 0.000000
O O13 0.729627 0.830591 0.750000
O O14 0.797700 0.250000 0.500000
#
# Coordination Sequence:
#
# PCOD9434143 Si02
#       6
#     8   8   8   8   8   8
#     4  10  17  32  56  95 115 144 182 238 292 335
#     4  10  22  35  58  87 118 150 182 239 295 345
#     4  10  17  36  59  88 116 149 189 241 288 338
#     4  12  20  36  63  89 115 147 195 242 285 341
#     4  11  24  41  57  79 114 159 198 235 294 347
#     4   9  19  31  56  91 120 141 184 238 290 341
#
# _framework density 18.277608000000001
#
# number of rings (size 3 to 8) (size 9 to 14) (size 15 to 20)
#    0.000    1.667    5.000    2.500    2.333    2.000 
#    0.000    0.833    0.000    0.000    0.000    0.000 
#    0.000    0.000    0.000    0.000    0.000    0.000 
#
# Total GULP energy -267329.457718 kJ/mol
# GULP energy per Si atom -5569.363702 kJ/mol
# Density = 1.823601 g / cm^3
# Si number density = 18.277608 Si / 1000 Ang^3
#
#
#
# Elastic Constant Matrix: (Units=GPa)
#
#
# Indices 1 2 3 4 5 6 
#
# 1 86.2776 59.5370 8.9972 0.0000 0.0000 0.0000
# 2 59.5370 63.6978 17.0874 0.0000 0.0000 0.0000
# 3 8.9972 17.0874 66.0878 0.0000 0.0000 0.0000
# 4 0.0000 0.0000 0.0000 9.1475 0.0000 0.0000
# 5 0.0000 0.0000 0.0000 0.0000 2.0071 0.0000
# 6 0.0000 0.0000 0.0000 0.0000 0.0000 13.9989
#
#
#
# Elastic Compliance Matrix: (Units=1/GPa)
#
#
# Indices 1 2 3 4 5 6 
#
# 1 0.033513 -0.032344 0.003800 0.000000 0.000000 0.000000
# 2 -0.032344 0.048084 -0.008029 0.000000 0.000000 0.000000
# 3 0.003800 -0.008029 0.016690 0.000000 0.000000 0.000000
# 4 0.000000 0.000000 0.000000 0.109320 0.000000 0.000000
# 5 0.000000 0.000000 0.000000 0.000000 0.498229 0.000000
# 6 0.000000 0.000000 0.000000 0.000000 0.000000 0.071434
#
#
# Mechanical properties :
#
#
# Convention : Reuss Voigt Hill
#
# Bulk Modulus (GPa) = 39.77405 43.03406 41.40406
# Shear Modulus (GPa) = 5.82210 13.72680 9.77445
#
# Velocity S-wave (km/s) = 1.78670 2.74344 2.31503
# Velocity P-wave (km/s) = 5.10536 5.79923 5.46332
#
# Compressibility (1/GPa) = 0.02514202
#
# Stress axis : x y z
#
# Youngs Moduli (GPa) = 29.83881 20.79692 59.91603
#
# Poissons Ratio (x) = 0.67265 -0.22769
# Poissons Ratio (y) = 0.96510 0.48108
# Poissons Ratio (z) = -0.11339 0.16698
#
# Static dielectric constant tensor:
#      x y z
#    x 1.658410 0.000000 0.000000 
#    y 0.000000 1.679340 0.000000 
#    z 0.000000 0.000000 1.597880 
# 
# From -- ./inp_files/21811.got.cif
#   From: 2010.05.17/outbox.cif.g08.bks.cpg/sg57_11_cif.got.tgz:21811.got - 2010.06.03 13:58:18.
