data_PCOD9434098
_publ_section_title
;
Structure prediction by ZEFSAII (Michael W. Deem and Ramdas Pophale) SiO2 
 PCOD9434098
Probable space group: P B C M
;
_chemical_formula_sum "Si O2"
_cell_formula_units_Z 64
_cell_length_a 15.937238
_cell_length_b 9.949819
_cell_length_c 25.292437
_cell_angle_alpha 90.000000
_cell_angle_beta 90.000000
_cell_angle_gamma 90.000000
_cell_volume 4010.688342
_symmetry_space_group_name_H-M "P B C M"
_symmetry_group_IT_number 57
_symmetry_cell_setting 'orthorhombic'
loop_
_space_group_symop_operation_xyz
x,y,z
-x,-y,1/2+z
x,1/2-y,-z
-x,1/2+y,1/2-z
-x,-y,-z
x,y,1/2-z
-x,1/2+y,z
x,1/2-y,1/2+z
loop_
_atom_site_type_symbol
_atom_site_label
_atom_site_fract_x
_atom_site_fract_y
_atom_site_fract_z
Si Si1 0.401838 0.781275 0.185844
Si Si2 0.979716 0.962960 0.387719
Si Si3 0.544170 0.578828 0.185844
Si Si4 0.282785 0.291906 0.686280
Si Si5 0.128226 0.480004 0.689370
Si Si6 0.788310 0.249351 0.343541
Si Si7 0.827505 0.551251 0.688752
Si Si8 0.089813 0.771532 0.561525
O O1 0.390550 0.778155 0.250000
O O2 0.460739 0.657399 0.169450
O O3 0.310252 0.776341 0.160466
O O4 0.447140 0.922149 0.172541
O O5 0.048749 0.028253 0.348590
O O6 0.903805 0.914729 0.350186
O O7 0.945835 0.080146 0.425787
O O8 0.023570 0.840264 0.417954
O O9 0.544171 0.585360 0.250000
O O10 0.627796 0.656340 0.166427
O O11 0.287761 0.302988 0.750000
O O12 0.205405 0.387425 0.670597
O O13 0.253546 0.141014 0.674416
O O14 0.107227 0.445092 0.750000
O O15 0.162759 0.631965 0.686432
O O16 0.807754 0.105389 0.317874
O O17 0.827569 0.246430 0.402202
O O18 0.849032 0.580500 0.750000
O O19 0.105609 0.750000 0.500000
#
# Coordination Sequence:
#
# PCOD9434098 Si02
#       8
#     8   8   8   8   8   8   8   8
#     4  10  18  30  45  69 100 127 157 190 226 281
#     4  10  20  32  50  74  95 124 165 197 244 291
#     4   9  18  28  43  65  95 131 161 188 224 270
#     4   9  17  28  41  61  95 136 162 184 222 266
#     4  10  17  29  47  67  99 134 160 192 227 284
#     4  10  20  31  48  69  94 129 167 196 243 289
#     4  10  19  29  43  69 104 133 159 193 229 283
#     4  10  21  37  53  70  92 121 164 214 254 286
#
# _framework density 15.957361000000001
#
# number of rings (size 3 to 8) (size 9 to 14) (size 15 to 20)
#    0.000    2.250    1.250    2.625    1.750    0.000 
#    0.000    3.750    0.000    0.000    0.000    0.875 
#    0.000    0.000    0.000    0.000    0.000    0.000 
#
# Total GULP energy -356833.326216 kJ/mol
# GULP energy per Si atom -5575.520722 kJ/mol
# Density = 1.592104 g / cm^3
# Si number density = 15.957361 Si / 1000 Ang^3
#
#
#
# Elastic Constant Matrix: (Units=GPa)
#
#
# Indices 1 2 3 4 5 6 
#
# 1 69.7547 18.0949 18.6148 0.0000 0.0000 0.0000
# 2 18.0949 68.9145 17.5452 0.0000 0.0000 0.0000
# 3 18.6148 17.5452 59.4038 0.0000 0.0000 0.0000
# 4 0.0000 0.0000 0.0000 12.0722 0.0000 0.0000
# 5 0.0000 0.0000 0.0000 0.0000 9.0798 0.0000
# 6 0.0000 0.0000 0.0000 0.0000 0.0000 26.2472
#
#
#
# Elastic Compliance Matrix: (Units=1/GPa)
#
#
# Indices 1 2 3 4 5 6 
#
# 1 0.016278 -0.003217 -0.004151 0.000000 0.000000 0.000000
# 2 -0.003217 0.016327 -0.003814 0.000000 0.000000 0.000000
# 3 -0.004151 -0.003814 0.019261 0.000000 0.000000 0.000000
# 4 0.000000 0.000000 0.000000 0.082835 0.000000 0.000000
# 5 0.000000 0.000000 0.000000 0.000000 0.110134 0.000000
# 6 0.000000 0.000000 0.000000 0.000000 0.000000 0.038099
#
#
# Mechanical properties :
#
#
# Convention : Reuss Voigt Hill
#
# Bulk Modulus (GPa) = 33.89626 34.06476 33.98051
# Shear Modulus (GPa) = 15.86635 19.06771 17.46703
#
# Velocity S-wave (km/s) = 3.15667 3.46051 3.31207
# Velocity P-wave (km/s) = 5.87996 6.11232 5.99727
#
# Compressibility (1/GPa) = 0.02950178
#
# Stress axis : x y z
#
# Youngs Moduli (GPa) = 61.43174 61.25001 51.91829
#
# Poissons Ratio (x) = 0.19707 0.21550
# Poissons Ratio (y) = 0.19765 0.19801
# Poissons Ratio (z) = 0.25498 0.23360
#
# Static dielectric constant tensor:
#      x y z
#    x 1.533550 0.000000 0.000000 
#    y 0.000000 1.560000 0.000000 
#    z 0.000000 0.000000 1.499470 
# 
# From -- ./inp_files/27598.got.cif
#   From: 2010.05.17/outbox.cif.g08.bks.cpg/sg57_14_cif.got.tgz:27598.got - 2010.06.03 13:58:18.
