data_PCOD9434774
_publ_section_title
;
Structure prediction by ZEFSAII (Michael W. Deem and Ramdas Pophale) SiO2 
 PCOD9434774
Probable space group: P B C M
;
_chemical_formula_sum "Si O2"
_cell_formula_units_Z 48
_cell_length_a 8.808079
_cell_length_b 17.909826
_cell_length_c 14.181592
_cell_angle_alpha 90.000000
_cell_angle_beta 90.000000
_cell_angle_gamma 90.000000
_cell_volume 2237.162621
_symmetry_space_group_name_H-M "P B C M"
_symmetry_group_IT_number 57
_symmetry_cell_setting 'orthorhombic'
loop_
_space_group_symop_operation_xyz
x,y,z
-x,-y,1/2+z
x,1/2-y,-z
-x,1/2+y,1/2-z
-x,-y,-z
x,y,1/2-z
-x,1/2+y,z
x,1/2-y,1/2+z
loop_
_atom_site_type_symbol
_atom_site_label
_atom_site_fract_x
_atom_site_fract_y
_atom_site_fract_z
Si Si1 0.563314 0.718087 0.103186
Si Si2 0.276739 0.632682 0.148767
Si Si3 0.011722 0.134328 0.464804
Si Si4 0.877239 0.781843 0.355895
Si Si5 0.448142 0.025696 0.643421
Si Si6 0.299500 0.440533 0.551697
O O1 0.397963 0.700050 0.144328
O O2 0.693721 0.771778 0.144452
O O3 0.641860 0.636663 0.097662
O O4 0.536680 0.750000 0.000000
O O5 0.193860 0.637292 0.250000
O O6 0.369404 0.555592 0.149192
O O7 0.163434 0.627161 0.060991
O O8 0.058687 0.158284 0.570088
O O9 0.062330 0.203944 0.398859
O O10 0.118234 0.063625 0.441895
O O11 0.928653 0.795286 0.250000
O O12 0.445191 0.057531 0.750000
O O13 0.617616 0.008253 0.604932
O O14 0.359789 0.063057 0.556251
#
# Coordination Sequence:
#
# PCOD9434774 Si02
#       6
#     8   8   8   8   8   8
#     4  10  18  35  55  80 110 140 178 224 274 322
#     4  10  21  34  53  79 109 145 184 224 270 329
#     4  10  20  34  51  81 111 145 178 222 274 326
#     4  10  19  34  53  78 107 144 185 219 266 323
#     4   9  19  35  56  79 103 143 189 227 267 315
#     4   9  18  35  55  78 108 139 180 231 270 314
#
# _framework density 21.455749999999998
#
# number of rings (size 3 to 8) (size 9 to 14) (size 15 to 20)
#    0.000    2.333    3.333    1.000    2.333    6.000 
#    0.000    0.000    0.000    9.000    0.000    0.000 
#    0.000    0.000    0.000    0.000    0.000    0.000 
#
# Total GULP energy -267406.091827 kJ/mol
# GULP energy per Si atom -5570.960246 kJ/mol
# Density = 2.140692 g / cm^3
# Si number density = 21.455750 Si / 1000 Ang^3
#
#
#
# Elastic Constant Matrix: (Units=GPa)
#
#
# Indices 1 2 3 4 5 6 
#
# 1 76.7583 3.1241 40.5379 0.0000 0.0000 0.0000
# 2 3.1241 6.5399 -4.0884 0.0000 0.0000 0.0000
# 3 40.5379 -4.0884 133.7195 0.0000 0.0000 0.0000
# 4 0.0000 0.0000 0.0000 8.2853 0.0000 0.0000
# 5 0.0000 0.0000 0.0000 0.0000 75.2797 0.0000
# 6 0.0000 0.0000 0.0000 0.0000 0.0000 11.7755
#
#
#
# Elastic Compliance Matrix: (Units=1/GPa)
#
#
# Indices 1 2 3 4 5 6 
#
# 1 0.016260 -0.011060 -0.005267 0.000000 0.000000 0.000000
# 2 -0.011060 0.163411 0.008349 0.000000 0.000000 0.000000
# 3 -0.005267 0.008349 0.009330 0.000000 0.000000 0.000000
# 4 0.000000 0.000000 0.000000 0.120696 0.000000 0.000000
# 5 0.000000 0.000000 0.000000 0.000000 0.013284 0.000000
# 6 0.000000 0.000000 0.000000 0.000000 0.000000 0.084922
#
#
# Mechanical properties :
#
#
# Convention : Reuss Voigt Hill
#
# Bulk Modulus (GPa) = 5.77886 32.90722 19.34304
# Shear Modulus (GPa) = 10.38330 30.89769 20.64049
#
# Velocity S-wave (km/s) = 2.20225 3.79894 3.10498
# Velocity P-wave (km/s) = 3.02750 5.88329 4.67862
#
# Compressibility (1/GPa) = 0.17304438
#
# Stress axis : x y z
#
# Youngs Moduli (GPa) = 61.50092 6.11954 107.17572
#
# Poissons Ratio (x) = 0.06768 0.56454
# Poissons Ratio (y) = 0.68021 -0.89482
# Poissons Ratio (z) = 0.32395 -0.05109
#
# Static dielectric constant tensor:
#      x y z
#    x 1.839710 0.000000 0.000000 
#    y 0.000000 1.792300 0.000000 
#    z 0.000000 0.000000 1.796460 
# 
# From -- ./inp_files/16557.got.cif
#   From: 2010.05.17/outbox.cif.g08.bks.cpg/sg57_9_cif.got.tgz:16557.got - 2010.06.03 13:58:18.
