data_PCOD9434331
_publ_section_title
;
Structure prediction by ZEFSAII (Michael W. Deem and Ramdas Pophale) SiO2 
 PCOD9434331
Probable space group: P B C M
;
_chemical_formula_sum "Si O2"
_cell_formula_units_Z 48
_cell_length_a 10.152128
_cell_length_b 25.895868
_cell_length_c 10.789350
_cell_angle_alpha 90.000000
_cell_angle_beta 90.000000
_cell_angle_gamma 90.000000
_cell_volume 2836.500334
_symmetry_space_group_name_H-M "P B C M"
_symmetry_group_IT_number 57
_symmetry_cell_setting 'orthorhombic'
loop_
_space_group_symop_operation_xyz
x,y,z
-x,-y,1/2+z
x,1/2-y,-z
-x,1/2+y,1/2-z
-x,-y,-z
x,y,1/2-z
-x,1/2+y,z
x,1/2-y,1/2+z
loop_
_atom_site_type_symbol
_atom_site_label
_atom_site_fract_x
_atom_site_fract_y
_atom_site_fract_z
Si Si1 0.504070 0.446953 0.881906
Si Si2 0.854122 0.093542 0.603510
Si Si3 0.434148 0.627543 0.892280
Si Si4 0.731354 0.506530 0.995514
Si Si5 0.658949 0.706568 0.604502
Si Si6 0.145491 0.388269 0.398169
O O1 0.506446 0.419170 0.750000
O O2 0.630865 0.483927 0.893125
O O3 0.510680 0.410304 0.001879
O O4 0.371128 0.479915 0.894747
O O5 0.862480 0.082312 0.750000
O O6 0.723008 0.128112 0.586784
O O7 0.992481 0.118562 0.565844
O O8 0.827302 0.039723 0.533832
O O9 0.456741 0.608608 0.750000
O O10 0.514120 0.680516 0.902115
O O11 0.802699 0.558699 0.956978
O O12 0.671766 0.750000 0.500000
O O13 0.679971 0.722283 0.750000
O O14 0.761942 0.660467 0.574105
O O15 0.152629 0.394590 0.250000
#
# Coordination Sequence:
#
# PCOD9434331 Si02
#       6
#     8   8   8   8   8   8
#     4  10  19  28  47  78 108 140 176 213 251 292
#     4   9  18  31  50  76 106 142 176 206 244 308
#     4   9  18  35  55  75 103 134 171 213 258 308
#     4  10  18  29  46  73 112 145 175 207 248 299
#     4  10  21  38  58  78  98 129 172 222 270 314
#     4  10  19  33  52  74 104 141 178 210 255 310
#
# _framework density 16.922260999999999
#
# number of rings (size 3 to 8) (size 9 to 14) (size 15 to 20)
#    0.000    2.333    1.667    1.500    0.000    4.667 
#    0.000    0.833    0.000    6.000    0.000    0.000 
#    0.000    0.000    0.000    0.000    0.000    0.000 
#
# Total GULP energy -267303.842313 kJ/mol
# GULP energy per Si atom -5568.830048 kJ/mol
# Density = 1.688375 g / cm^3
# Si number density = 16.922261 Si / 1000 Ang^3
#
#
#
# Elastic Constant Matrix: (Units=GPa)
#
#
# Indices 1 2 3 4 5 6 
#
# 1 111.0800 58.7348 36.4317 0.0000 0.0000 0.0000
# 2 58.7348 81.8956 43.1204 0.0000 0.0000 0.0000
# 3 36.4317 43.1204 79.4038 0.0000 0.0000 0.0000
# 4 0.0000 0.0000 0.0000 23.2083 0.0000 0.0000
# 5 0.0000 0.0000 0.0000 0.0000 4.7061 0.0000
# 6 0.0000 0.0000 0.0000 0.0000 0.0000 12.9193
#
#
#
# Elastic Compliance Matrix: (Units=1/GPa)
#
#
# Indices 1 2 3 4 5 6 
#
# 1 0.014615 -0.009735 -0.001419 0.000000 0.000000 0.000000
# 2 -0.009735 0.023584 -0.008341 0.000000 0.000000 0.000000
# 3 -0.001419 -0.008341 0.017775 0.000000 0.000000 0.000000
# 4 0.000000 0.000000 0.000000 0.043088 0.000000 0.000000
# 5 0.000000 0.000000 0.000000 0.000000 0.212491 0.000000
# 6 0.000000 0.000000 0.000000 0.000000 0.000000 0.077404
#
#
# Mechanical properties :
#
#
# Convention : Reuss Voigt Hill
#
# Bulk Modulus (GPa) = 58.87843 60.99479 59.93661
# Shear Modulus (GPa) = 11.53117 17.10625 14.31871
#
# Velocity S-wave (km/s) = 2.61323 3.18287 2.91202
# Velocity P-wave (km/s) = 6.63131 7.04485 6.84121
#
# Compressibility (1/GPa) = 0.01698415
#
# Stress axis : x y z
#
# Youngs Moduli (GPa) = 68.42121 42.40161 56.26004
#
# Poissons Ratio (x) = 0.41277 0.07985
# Poissons Ratio (y) = 0.66606 0.46926
# Poissons Ratio (z) = 0.09711 0.35367
#
# Static dielectric constant tensor:
#      x y z
#    x 1.606260 0.000000 0.000000 
#    y 0.000000 1.553610 0.000000 
#    z 0.000000 0.000000 1.600040 
# 
# From -- ./inp_files/11994.got.cif
#   From: 2010.05.17/outbox.cif.g08.bks.cpg/sg57_6_cif.got.tgz:11994.got - 2010.06.03 13:58:18.
