data_PCOD9434966
_publ_section_title
;
Structure prediction by ZEFSAII (Michael W. Deem and Ramdas Pophale) SiO2 
 PCOD9434966
Probable space group: P B C M
;
_chemical_formula_sum "Si O2"
_cell_formula_units_Z 64
_cell_length_a 30.659972
_cell_length_b 14.035891
_cell_length_c 7.606437
_cell_angle_alpha 90.000000
_cell_angle_beta 90.000000
_cell_angle_gamma 90.000000
_cell_volume 3273.354289
_symmetry_space_group_name_H-M "P B C M"
_symmetry_group_IT_number 57
_symmetry_cell_setting 'orthorhombic'
loop_
_space_group_symop_operation_xyz
x,y,z
-x,-y,1/2+z
x,1/2-y,-z
-x,1/2+y,1/2-z
-x,-y,-z
x,y,1/2-z
-x,1/2+y,z
x,1/2-y,1/2+z
loop_
_atom_site_type_symbol
_atom_site_label
_atom_site_fract_x
_atom_site_fract_y
_atom_site_fract_z
Si Si1 0.845164 0.638929 0.038098
Si Si2 0.573730 0.862719 0.538493
Si Si3 0.986264 0.359031 0.459769
Si Si4 0.661367 0.958957 0.955591
Si Si5 0.479729 0.636389 0.039210
Si Si6 0.615372 0.138819 0.040756
Si Si7 0.747663 0.639025 0.038827
Si Si8 0.071490 0.469744 0.544483
O O1 0.844615 0.630298 0.250000
O O2 0.796344 0.616366 0.971624
O O3 0.883945 0.572507 0.968367
O O4 0.854121 0.750000 0.000000
O O5 0.576058 0.750000 0.500000
O O6 0.572846 0.874385 0.750000
O O7 0.617537 0.911056 0.467232
O O8 0.526514 0.900002 0.470641
O O9 0.976456 0.250000 0.500000
O O10 0.988892 0.370979 0.250000
O O11 0.950271 0.433941 0.529363
O O12 0.033269 0.391054 0.531781
O O13 0.661887 0.931980 0.750000
O O14 0.707002 0.922051 0.030268
O O15 0.652884 0.071067 0.969447
O O16 0.479388 0.624462 0.250000
O O17 0.432361 0.605370 0.969709
O O18 0.480421 0.750000 0.000000
O O19 0.614672 0.128662 0.250000
O O20 0.620781 0.250000 0.000000
O O21 0.749547 0.627330 0.250000
O O22 0.739171 0.750000 0.000000
O O23 0.079938 0.488539 0.750000
#
# Coordination Sequence:
#
# PCOD9434966 Si02
#       8
#     8   8   8   8   8   8   8   8
#     4   9  17  30  48  70  95 124 157 192 231 272
#     4   9  17  29  45  66  94 123 149 179 217 266
#     4  10  19  30  45  67  97 130 162 198 239 281
#     4  10  20  32  47  69  95 122 150 183 227 274
#     4   8  15  28  44  63  87 115 146 180 219 262
#     4  10  20  34  51  68  87 114 150 190 229 270
#     4   9  18  32  50  72  98 125 152 187 230 275
#     4   9  18  31  47  68  94 127 166 202 236 277
#
# _framework density 19.551808999999999
#
# number of rings (size 3 to 8) (size 9 to 14) (size 15 to 20)
#    0.000    2.750    0.000    1.500    0.000    4.000 
#    0.000    0.000    0.000    0.750    0.000    1.750 
#    0.000    0.000    0.000    0.000    0.000    0.000 
#
# Total GULP energy -356951.579688 kJ/mol
# GULP energy per Si atom -5577.368433 kJ/mol
# Density = 1.950731 g / cm^3
# Si number density = 19.551809 Si / 1000 Ang^3
#
#
#
# Elastic Constant Matrix: (Units=GPa)
#
#
# Indices 1 2 3 4 5 6 
#
# 1 182.1507 88.4649 2.5396 0.0000 0.0000 0.0000
# 2 88.4649 95.4796 -9.7426 0.0000 0.0000 0.0000
# 3 2.5396 -9.7426 47.5554 0.0000 0.0000 0.0000
# 4 0.0000 0.0000 0.0000 20.6091 0.0000 0.0000
# 5 0.0000 0.0000 0.0000 0.0000 3.8405 0.0000
# 6 0.0000 0.0000 0.0000 0.0000 0.0000 32.1121
#
#
#
# Elastic Compliance Matrix: (Units=1/GPa)
#
#
# Indices 1 2 3 4 5 6 
#
# 1 0.010276 -0.009782 -0.002553 0.000000 0.000000 0.000000
# 2 -0.009782 0.020008 0.004621 0.000000 0.000000 0.000000
# 3 -0.002553 0.004621 0.022111 0.000000 0.000000 0.000000
# 4 0.000000 0.000000 0.000000 0.048522 0.000000 0.000000
# 5 0.000000 0.000000 0.000000 0.000000 0.260383 0.000000
# 6 0.000000 0.000000 0.000000 0.000000 0.000000 0.031141
#
#
# Mechanical properties :
#
#
# Convention : Reuss Voigt Hill
#
# Bulk Modulus (GPa) = 27.04942 54.18994 40.61968
# Shear Modulus (GPa) = 11.89934 27.57392 19.73663
#
# Velocity S-wave (km/s) = 2.46967 3.75947 3.18064
# Velocity P-wave (km/s) = 4.69011 6.82796 5.85740
#
# Compressibility (1/GPa) = 0.03696937
#
# Stress axis : x y z
#
# Youngs Moduli (GPa) = 97.31200 49.97980 45.22590
#
# Poissons Ratio (x) = 0.48889 0.11545
# Poissons Ratio (y) = 0.95188 -0.20901
# Poissons Ratio (z) = 0.24841 -0.23098
#
# Static dielectric constant tensor:
#      x y z
#    x 1.725820 0.000000 0.000000 
#    y 0.000000 1.673300 0.000000 
#    z 0.000000 0.000000 2.080150 
# 
# From -- ./inp_files/10348.got.cif
#   From: 2010.05.17/outbox.cif.g08.bks.cpg/sg57_6_cif.got.tgz:10348.got - 2010.06.03 13:58:18.
