data_PCOD9434443
_publ_section_title
;
Structure prediction by ZEFSAII (Michael W. Deem and Ramdas Pophale) SiO2 
 PCOD9434443
Probable space group: P B C M
;
_chemical_formula_sum "Si O2"
_cell_formula_units_Z 56
_cell_length_a 9.836918
_cell_length_b 23.264099
_cell_length_c 13.937038
_cell_angle_alpha 90.000000
_cell_angle_beta 90.000000
_cell_angle_gamma 90.000000
_cell_volume 3189.449812
_symmetry_space_group_name_H-M "P B C M"
_symmetry_group_IT_number 57
_symmetry_cell_setting 'orthorhombic'
loop_
_space_group_symop_operation_xyz
x,y,z
-x,-y,1/2+z
x,1/2-y,-z
-x,1/2+y,1/2-z
-x,-y,-z
x,y,1/2-z
-x,1/2+y,z
x,1/2-y,1/2+z
loop_
_atom_site_type_symbol
_atom_site_label
_atom_site_fract_x
_atom_site_fract_y
_atom_site_fract_z
Si Si1 0.495109 0.190214 0.546223
Si Si2 0.953527 0.815790 0.015660
Si Si3 0.151845 0.851077 0.862076
Si Si4 0.509092 0.970208 0.360672
Si Si5 0.399432 0.584244 0.045798
Si Si6 0.782977 0.283196 0.138766
Si Si7 0.731013 0.876053 0.141210
O O1 0.455274 0.250000 0.500000
O O2 0.506689 0.140537 0.466186
O O3 0.644703 0.195768 0.591027
O O4 0.389963 0.169849 0.626105
O O5 0.846010 0.856500 0.067598
O O6 0.087147 0.807012 0.082120
O O7 0.901832 0.750000 0.000000
O O8 0.009939 0.843893 0.918022
O O9 0.137612 0.865786 0.750000
O O10 0.254565 0.894371 0.915251
O O11 0.213550 0.786296 0.867733
O O12 0.469224 0.961296 0.250000
O O13 0.405293 0.944058 0.439071
O O14 0.652252 0.936131 0.375798
O O15 0.536632 0.036371 0.385258
O O16 0.789459 0.299230 0.250000
O O17 0.782529 0.875022 0.250000
#
# Coordination Sequence:
#
# PCOD9434443 Si02
#       7
#     8   8   8   8   8   8   8
#     4  11  18  32  52  83 115 136 174 222 280 329
#     4  10  19  35  51  77 109 147 182 224 276 330
#     4  10  19  32  54  80 105 141 182 222 275 328
#     4   9  20  36  55  79 109 148 189 224 270 327
#     4  10  18  34  57  79 109 143 180 228 278 322
#     4  10  18  30  52  80 112 140 177 221 269 331
#     4  10  21  35  52  75 108 148 186 222 270 325
#
# _framework density 17.557887999999998
#
# number of rings (size 3 to 8) (size 9 to 14) (size 15 to 20)
#    0.000    2.000    2.857    2.143    0.000    1.143 
#    0.000    0.714    0.000   11.143    0.000    0.000 
#    0.000    0.000    0.000    0.000    0.000    0.000 
#
# Total GULP energy -312217.516491 kJ/mol
# GULP energy per Si atom -5575.312794 kJ/mol
# Density = 1.751793 g / cm^3
# Si number density = 17.557888 Si / 1000 Ang^3
#
#
#
# Elastic Constant Matrix: (Units=GPa)
#
#
# Indices 1 2 3 4 5 6 
#
# 1 60.8722 16.5027 42.2026 0.0000 0.0000 0.0000
# 2 16.5027 82.6518 35.1677 0.0000 0.0000 0.0000
# 3 42.2026 35.1677 120.7604 0.0000 0.0000 0.0000
# 4 0.0000 0.0000 0.0000 18.7702 0.0000 0.0000
# 5 0.0000 0.0000 0.0000 0.0000 22.4557 0.0000
# 6 0.0000 0.0000 0.0000 0.0000 0.0000 8.7663
#
#
#
# Elastic Compliance Matrix: (Units=1/GPa)
#
#
# Indices 1 2 3 4 5 6 
#
# 1 0.021797 -0.001268 -0.007248 0.000000 0.000000 0.000000
# 2 -0.001268 0.013884 -0.003600 0.000000 0.000000 0.000000
# 3 -0.007248 -0.003600 0.011862 0.000000 0.000000 0.000000
# 4 0.000000 0.000000 0.000000 0.053276 0.000000 0.000000
# 5 0.000000 0.000000 0.000000 0.000000 0.044532 0.000000
# 6 0.000000 0.000000 0.000000 0.000000 0.000000 0.114073
#
#
# Mechanical properties :
#
#
# Convention : Reuss Voigt Hill
#
# Bulk Modulus (GPa) = 42.89922 50.22560 46.56241
# Shear Modulus (GPa) = 17.15694 21.35919 19.25807
#
# Velocity S-wave (km/s) = 3.12935 3.49162 3.31544
# Velocity P-wave (km/s) = 6.12725 6.70247 6.42130
#
# Compressibility (1/GPa) = 0.02331045
#
# Stress axis : x y z
#
# Youngs Moduli (GPa) = 45.87846 72.02560 84.30066
#
# Poissons Ratio (x) = 0.09133 0.61102
# Poissons Ratio (y) = 0.05818 0.30349
# Poissons Ratio (z) = 0.33253 0.25930
#
# Static dielectric constant tensor:
#      x y z
#    x 1.579170 0.000000 0.000000 
#    y 0.000000 1.617480 0.000000 
#    z 0.000000 0.000000 1.626630 
# 
# From -- ./inp_files/16739.got.cif
#   From: 2010.05.17/outbox.cif.g08.bks.cpg/sg57_9_cif.got.tgz:16739.got - 2010.06.03 13:58:18.
