data_PCOD9434660
_publ_section_title
;
Structure prediction by ZEFSAII (Michael W. Deem and Ramdas Pophale) SiO2 
 PCOD9434660
Probable space group: P B C M
;
_chemical_formula_sum "Si O2"
_cell_formula_units_Z 48
_cell_length_a 5.041646
_cell_length_b 21.454970
_cell_length_c 24.461972
_cell_angle_alpha 90.000000
_cell_angle_beta 90.000000
_cell_angle_gamma 90.000000
_cell_volume 2646.011484
_symmetry_space_group_name_H-M "P B C M"
_symmetry_group_IT_number 57
_symmetry_cell_setting 'orthorhombic'
loop_
_space_group_symop_operation_xyz
x,y,z
-x,-y,1/2+z
x,1/2-y,-z
-x,1/2+y,1/2-z
-x,-y,-z
x,y,1/2-z
-x,1/2+y,z
x,1/2-y,1/2+z
loop_
_atom_site_type_symbol
_atom_site_label
_atom_site_fract_x
_atom_site_fract_y
_atom_site_fract_z
Si Si1 0.530239 0.986745 0.128738
Si Si2 0.438453 0.361583 0.070252
Si Si3 0.927353 0.277146 0.438574
Si Si4 0.032125 0.044097 0.185495
Si Si5 0.387730 0.594055 0.452501
Si Si6 0.886643 0.648818 0.102280
O O1 0.576387 0.914702 0.115990
O O2 0.746399 0.017440 0.168709
O O3 0.557919 0.026121 0.072400
O O4 0.245645 0.000877 0.154598
O O5 0.656958 0.308512 0.081433
O O6 0.158139 0.328704 0.060026
O O7 0.541381 0.394925 0.014965
O O8 0.887729 0.250000 0.500000
O O9 0.026173 0.220036 0.401405
O O10 0.070017 0.044308 0.250000
O O11 0.071657 0.112649 0.159078
O O12 0.086102 0.612442 0.439065
O O13 0.586945 0.638974 0.418320
#
# Coordination Sequence:
#
# PCOD9434660 Si02
#       6
#     8   8   8   8   8   8
#     4  10  22  35  55  85 107 137 186 225 280 327
#     4  12  21  33  53  79 119 152 177 209 270 325
#     4  12  21  33  52  78 120 157 183 205 253 332
#     4  10  21  40  62  77 100 135 183 246 288 314
#     4  10  18  33  51  77 115 145 175 219 256 324
#     4  10  20  33  53  82 105 142 190 220 257 318
#
# _framework density 18.140512000000001
#
# number of rings (size 3 to 8) (size 9 to 14) (size 15 to 20)
#    0.000    1.333    3.333    3.500    0.000    0.000 
#    0.000    6.667    0.000    6.000    0.000    0.000 
#    0.000    0.000    0.000    0.000    0.000    0.000 
#
# Total GULP energy -268123.692466 kJ/mol
# GULP energy per Si atom -5585.910260 kJ/mol
# Density = 1.809922 g / cm^3
# Si number density = 18.140512 Si / 1000 Ang^3
#
#
#
# Elastic Constant Matrix: (Units=GPa)
#
#
# Indices 1 2 3 4 5 6 
#
# 1 50.9938 -5.9387 -19.4427 0.0000 0.0000 0.0000
# 2 -5.9387 85.3755 24.6039 0.0000 0.0000 0.0000
# 3 -19.4427 24.6039 45.3936 0.0000 0.0000 0.0000
# 4 0.0000 0.0000 0.0000 8.3062 0.0000 0.0000
# 5 0.0000 0.0000 0.0000 0.0000 12.3447 0.0000
# 6 0.0000 0.0000 0.0000 0.0000 0.0000 18.0879
#
#
#
# Elastic Compliance Matrix: (Units=1/GPa)
#
#
# Indices 1 2 3 4 5 6 
#
# 1 0.023600 -0.001507 0.010925 0.000000 0.000000 0.000000
# 2 -0.001507 0.013977 -0.008221 0.000000 0.000000 0.000000
# 3 0.010925 -0.008221 0.031165 0.000000 0.000000 0.000000
# 4 0.000000 0.000000 0.000000 0.120392 0.000000 0.000000
# 5 0.000000 0.000000 0.000000 0.000000 0.081006 0.000000
# 6 0.000000 0.000000 0.000000 0.000000 0.000000 0.055285
#
#
# Mechanical properties :
#
#
# Convention : Reuss Voigt Hill
#
# Bulk Modulus (GPa) = 14.05754 20.02311 17.04032
# Shear Modulus (GPa) = 14.41983 19.91712 17.16847
#
# Velocity S-wave (km/s) = 2.82245 3.31711 3.07973
# Velocity P-wave (km/s) = 4.28809 5.07274 4.69683
#
# Compressibility (1/GPa) = 0.07113620
#
# Stress axis : x y z
#
# Youngs Moduli (GPa) = 42.37258 71.54400 32.08737
#
# Poissons Ratio (x) = 0.10780 -0.35055
# Poissons Ratio (y) = 0.06385 0.26380
# Poissons Ratio (z) = -0.46292 0.58819
#
# Static dielectric constant tensor:
#      x y z
#    x 1.614020 0.000000 0.000000 
#    y 0.000000 1.635830 0.000000 
#    z 0.000000 0.000000 1.590430 
# 
# From -- ./inp_files/23690.got.cif
#   From: 2010.05.17/outbox.cif.g08.bks.cpg/sg57_12_cif.got.tgz:23690.got - 2010.06.03 13:58:18.
