data_PCOD9434661
_publ_section_title
;
Structure prediction by ZEFSAII (Michael W. Deem and Ramdas Pophale) SiO2 
 PCOD9434661
Probable space group: P B C M
;
_chemical_formula_sum "Si O2"
_cell_formula_units_Z 64
_cell_length_a 20.371469
_cell_length_b 20.483847
_cell_length_c 8.577012
_cell_angle_alpha 90.000000
_cell_angle_beta 90.000000
_cell_angle_gamma 90.000000
_cell_volume 3579.067494
_symmetry_space_group_name_H-M "P B C M"
_symmetry_group_IT_number 57
_symmetry_cell_setting 'orthorhombic'
loop_
_space_group_symop_operation_xyz
x,y,z
-x,-y,1/2+z
x,1/2-y,-z
-x,1/2+y,1/2-z
-x,-y,-z
x,y,1/2-z
-x,1/2+y,z
x,1/2-y,1/2+z
loop_
_atom_site_type_symbol
_atom_site_label
_atom_site_fract_x
_atom_site_fract_y
_atom_site_fract_z
Si Si1 0.345945 0.916615 0.561652
Si Si2 0.113198 0.887013 0.563201
Si Si3 0.018184 0.072085 0.937412
Si Si4 0.611560 0.678905 0.436701
Si Si5 0.539726 0.178831 0.438125
Si Si6 0.156632 0.033921 0.939099
Si Si7 0.763323 0.179945 0.565030
Si Si8 0.304415 0.440557 0.438855
O O1 0.344633 0.916014 0.750000
O O2 0.410866 0.877858 0.509378
O O3 0.283623 0.875872 0.503277
O O4 0.339347 0.991723 0.512193
O O5 0.115842 0.883613 0.750000
O O6 0.162904 0.835572 0.490238
O O7 0.038078 0.882070 0.507123
O O8 0.139834 0.959278 0.514311
O O9 0.013908 0.072750 0.750000
O O10 0.094635 0.079170 0.983798
O O11 0.000000 0.000000 0.000000
O O12 0.631076 0.750000 0.500000
O O13 0.612830 0.680106 0.250000
O O14 0.535665 0.667512 0.487344
O O15 0.657756 0.621812 0.497928
O O16 0.560317 0.250000 0.500000
O O17 0.541274 0.180937 0.250000
O O18 0.158131 0.033025 0.750000
O O19 0.228443 0.055377 0.992200
O O20 0.742217 0.250000 0.500000
O O21 0.759481 0.179945 0.750000
O O22 0.304624 0.438288 0.250000
#
# Coordination Sequence:
#
# PCOD9434661 Si02
#       8
#     8   8   8   8   8   8   8   8
#     4  10  20  36  56  79 110 145 181 222 271 326
#     4  10  18  33  52  73 103 140 180 225 270 318
#     4   9  16  27  46  74 103 136 176 219 264 314
#     4  10  21  38  57  80 106 136 179 226 273 329
#     4   9  19  35  55  77 105 143 184 226 269 319
#     4   8  15  29  50  75 106 140 172 210 263 320
#     4  12  24  36  52  76 108 148 189 229 273 326
#     4  10  19  34  56  81 111 147 177 215 274 328
#
# _framework density 17.881753
#
# number of rings (size 3 to 8) (size 9 to 14) (size 15 to 20)
#    0.000    2.250    1.250    3.375    0.000    3.000 
#    0.000    1.250    0.000    0.750    0.000    3.500 
#    0.000    0.000    0.000    0.000    0.000    0.000 
#
# Total GULP energy -356977.825405 kJ/mol
# GULP energy per Si atom -5577.778522 kJ/mol
# Density = 1.784105 g / cm^3
# Si number density = 17.881753 Si / 1000 Ang^3
#
#
#
# Elastic Constant Matrix: (Units=GPa)
#
#
# Indices 1 2 3 4 5 6 
#
# 1 121.1783 74.8174 19.0910 0.0000 0.0000 0.0000
# 2 74.8174 110.7799 22.5995 0.0000 0.0000 0.0000
# 3 19.0910 22.5995 18.6376 0.0000 0.0000 0.0000
# 4 0.0000 0.0000 0.0000 24.6613 0.0000 0.0000
# 5 0.0000 0.0000 0.0000 0.0000 24.6725 0.0000
# 6 0.0000 0.0000 0.0000 0.0000 0.0000 17.3319
#
#
#
# Elastic Compliance Matrix: (Units=1/GPa)
#
#
# Indices 1 2 3 4 5 6 
#
# 1 0.014367 -0.008903 -0.003921 0.000000 0.000000 0.000000
# 2 -0.008903 0.017511 -0.012114 0.000000 0.000000 0.000000
# 3 -0.003921 -0.012114 0.072360 0.000000 0.000000 0.000000
# 4 0.000000 0.000000 0.000000 0.040549 0.000000 0.000000
# 5 0.000000 0.000000 0.000000 0.000000 0.040531 0.000000
# 6 0.000000 0.000000 0.000000 0.000000 0.000000 0.057697
#
#
# Mechanical properties :
#
#
# Convention : Reuss Voigt Hill
#
# Bulk Modulus (GPa) = 18.39494 53.73461 36.06478
# Shear Modulus (GPa) = 16.07657 22.27233 19.17445
#
# Velocity S-wave (km/s) = 3.00167 3.53304 3.27814
# Velocity P-wave (km/s) = 4.72469 6.83801 5.87712
#
# Compressibility (1/GPa) = 0.05436277
#
# Stress axis : x y z
#
# Youngs Moduli (GPa) = 69.60422 57.10656 13.81979
#
# Poissons Ratio (x) = 0.50843 0.05418
# Poissons Ratio (y) = 0.61970 0.16741
# Poissons Ratio (z) = 0.27289 0.69178
#
# Static dielectric constant tensor:
#      x y z
#    x 1.648640 0.000000 0.000000 
#    y 0.000000 1.566850 0.000000 
#    z 0.000000 0.000000 1.606380 
# 
# From -- ./inp_files/7125.got.cif
#   From: 2010.05.17/outbox.cif.g08.bks.cpg/sg57_4_cif.got.tgz:7125.got - 2010.06.03 13:58:18.
