data_PCOD9434689
_publ_section_title
;
Structure prediction by ZEFSAII (Michael W. Deem and Ramdas Pophale) SiO2 
 PCOD9434689
Probable space group: P B C M
;
_chemical_formula_sum "Si O2"
_cell_formula_units_Z 64
_cell_length_a 23.201474
_cell_length_b 8.292089
_cell_length_c 14.173364
_cell_angle_alpha 90.000000
_cell_angle_beta 90.000000
_cell_angle_gamma 90.000000
_cell_volume 2726.794895
_symmetry_space_group_name_H-M "P B C M"
_symmetry_group_IT_number 57
_symmetry_cell_setting 'orthorhombic'
loop_
_space_group_symop_operation_xyz
x,y,z
-x,-y,1/2+z
x,1/2-y,-z
-x,1/2+y,1/2-z
-x,-y,-z
x,y,1/2-z
-x,1/2+y,z
x,1/2-y,1/2+z
loop_
_atom_site_type_symbol
_atom_site_label
_atom_site_fract_x
_atom_site_fract_y
_atom_site_fract_z
Si Si1 0.647582 0.181244 0.362762
Si Si2 0.146841 0.817360 0.644322
Si Si3 0.084629 0.150470 0.144230
Si Si4 0.181615 0.488898 0.535029
Si Si5 0.025386 0.685971 0.605463
Si Si6 0.584138 0.681144 0.364560
Si Si7 0.468365 0.528442 0.136640
Si Si8 0.314005 0.009993 0.037257
O O1 0.655865 0.161859 0.250000
O O2 0.674452 0.042693 0.428987
O O3 0.673411 0.347959 0.400890
O O4 0.578907 0.166547 0.383210
O O5 0.168750 0.844242 0.750000
O O6 0.171057 0.650671 0.599115
O O7 0.163754 0.954793 0.569866
O O8 0.077849 0.789255 0.648781
O O9 0.105461 0.125417 0.250000
O O10 0.039234 0.294645 0.142222
O O11 0.138877 0.143057 0.077158
O O12 0.045657 0.996846 0.115059
O O13 0.247730 0.442493 0.543648
O O14 0.023659 0.750000 0.500000
O O15 0.592093 0.669530 0.250000
O O16 0.559759 0.857881 0.387091
O O17 0.532596 0.562248 0.397580
O O18 0.642177 0.636783 0.417918
O O19 0.474339 0.527608 0.250000
#
# Coordination Sequence:
#
# PCOD9434689 Si02
#       8
#     8   8   8   8   8   8   8   8
#     4  10  21  38  60  87 119 151 195 254 303 354
#     4  10  18  33  57  85 116 151 194 251 308 358
#     4  11  22  38  61  90 122 159 200 248 304 365
#     4  10  21  36  54  85 118 157 204 247 294 357
#     4  11  20  36  61  88 120 154 194 251 310 362
#     4  10  20  36  61  92 124 158 197 246 299 361
#     4   9  19  37  62  92 125 157 196 249 309 360
#     4  11  23  36  60  90 117 160 206 240 300 362
#
# _framework density 23.470779
#
# number of rings (size 3 to 8) (size 9 to 14) (size 15 to 20)
#    0.000    1.750    2.500    5.250    0.000    6.500 
#    0.000    0.000    2.750    0.000    0.000    0.000 
#    0.000    0.000    0.000    0.000    0.000    0.000 
#
# Total GULP energy -358167.612383 kJ/mol
# GULP energy per Si atom -5596.368943 kJ/mol
# Density = 2.341736 g / cm^3
# Si number density = 23.470779 Si / 1000 Ang^3
#
#
#
# Elastic Constant Matrix: (Units=GPa)
#
#
# Indices 1 2 3 4 5 6 
#
# 1 195.6352 47.9408 52.8933 0.0000 0.0000 0.0000
# 2 47.9408 65.3795 28.9248 0.0000 0.0000 0.0000
# 3 52.8933 28.9248 182.4724 0.0000 0.0000 0.0000
# 4 0.0000 0.0000 0.0000 16.6649 0.0000 0.0000
# 5 0.0000 0.0000 0.0000 0.0000 -74.7114 0.0000
# 6 0.0000 0.0000 0.0000 0.0000 0.0000 16.2460
#
#
#
# Elastic Compliance Matrix: (Units=1/GPa)
#
#
# Indices 1 2 3 4 5 6 
#
# 1 0.006470 -0.004210 -0.001208 0.000000 0.000000 0.000000
# 2 -0.004210 0.019188 -0.001821 0.000000 0.000000 0.000000
# 3 -0.001208 -0.001821 0.006119 0.000000 0.000000 0.000000
# 4 0.000000 0.000000 0.000000 0.060006 0.000000 0.000000
# 5 0.000000 0.000000 0.000000 0.000000 -0.013385 0.000000
# 6 0.000000 0.000000 0.000000 0.000000 0.000000 0.061554
#
#
# Mechanical properties :
#
#
# Convention : Reuss Voigt Hill
#
# Bulk Modulus (GPa) = 57.80771 78.11166 67.95968
# Shear Modulus (GPa) = 31.21171 12.55512 21.88341
#
# Velocity S-wave (km/s) = 3.65061 2.31535 3.05678
# Velocity P-wave (km/s) = 6.51555 6.36400 6.44022
#
# Compressibility (1/GPa) = 0.01729873
#
# Stress axis : x y z
#
# Youngs Moduli (GPa) = 154.56537 52.11622 163.42044
#
# Poissons Ratio (x) = 0.21939 0.19743
# Poissons Ratio (y) = 0.65066 0.29765
# Poissons Ratio (z) = 0.18673 0.09492
#
# Static dielectric constant tensor:
#      x y z
#    x 1.874240 0.000000 0.000000 
#    y 0.000000 1.586590 0.000000 
#    z 0.000000 0.000000 1.894280 
# 
# From -- ./inp_files/19543.got.cif
#   From: 2010.05.17/outbox.cif.g08.bks.cpg/sg57_10_cif.got.tgz:19543.got - 2010.06.03 13:58:18.
