data_PCOD9434509
_publ_section_title
;
Structure prediction by ZEFSAII (Michael W. Deem and Ramdas Pophale) SiO2 
 PCOD9434509
Probable space group: P B C M
;
_chemical_formula_sum "Si O2"
_cell_formula_units_Z 64
_cell_length_a 9.875185
_cell_length_b 27.597138
_cell_length_c 13.714074
_cell_angle_alpha 90.000000
_cell_angle_beta 90.000000
_cell_angle_gamma 90.000000
_cell_volume 3737.453295
_symmetry_space_group_name_H-M "P B C M"
_symmetry_group_IT_number 57
_symmetry_cell_setting 'orthorhombic'
loop_
_space_group_symop_operation_xyz
x,y,z
-x,-y,1/2+z
x,1/2-y,-z
-x,1/2+y,1/2-z
-x,-y,-z
x,y,1/2-z
-x,1/2+y,z
x,1/2-y,1/2+z
loop_
_atom_site_type_symbol
_atom_site_label
_atom_site_fract_x
_atom_site_fract_y
_atom_site_fract_z
Si Si1 0.490512 0.431601 0.635916
Si Si2 0.106054 0.245111 0.135677
Si Si3 0.530707 0.316353 0.866267
Si Si4 0.036313 0.902090 0.635100
Si Si5 0.247023 0.990189 0.635813
Si Si6 0.166143 0.800319 0.632178
Si Si7 0.771812 0.576328 0.490142
Si Si8 0.267581 0.315108 0.509744
O O1 0.465387 0.440059 0.750000
O O2 0.536575 0.375178 0.628158
O O3 0.609767 0.467248 0.603904
O O4 0.353864 0.439008 0.576974
O O5 0.119014 0.253286 0.250000
O O6 0.196365 0.282888 0.074147
O O7 0.946955 0.240390 0.109289
O O8 0.169662 0.193531 0.103366
O O9 0.502185 0.304906 0.750000
O O10 0.676918 0.294842 0.895483
O O11 0.412880 0.301999 0.942593
O O12 0.002972 0.895747 0.750000
O O13 0.140205 0.946649 0.627156
O O14 0.109361 0.852706 0.599592
O O15 0.905514 0.915963 0.573529
O O16 0.256684 0.002961 0.750000
O O17 0.208799 0.036596 0.572874
O O18 0.169130 0.802707 0.750000
O O19 0.732390 0.630086 0.526354
#
# Coordination Sequence:
#
# PCOD9434509 Si02
#       8
#     8   8   8   8   8   8   8   8
#     4   9  17  30  49  76 106 133 168 216 257 300
#     4  10  20  36  54  75 104 133 171 221 266 314
#     4   9  16  30  54  81 106 131 166 216 269 312
#     4  10  18  31  51  78 103 130 172 221 266 305
#     4  10  20  33  48  71 108 144 178 212 252 310
#     4   9  16  30  55  79 101 133 169 218 273 308
#     4  11  20  31  50  76 105 140 174 210 264 315
#     4  10  21  33  51  79 104 134 176 215 264 319
#
# _framework density 17.12396
#
# number of rings (size 3 to 8) (size 9 to 14) (size 15 to 20)
#    0.000    2.250    2.500    1.500    0.000    1.500 
#    0.000    2.500    0.000    0.000    0.000    1.750 
#    0.000    0.000    0.000    0.000    0.000    0.000 
#
# Total GULP energy -356411.163048 kJ/mol
# GULP energy per Si atom -5568.924423 kJ/mol
# Density = 1.708498 g / cm^3
# Si number density = 17.123960 Si / 1000 Ang^3
#
#
#
# Elastic Constant Matrix: (Units=GPa)
#
#
# Indices 1 2 3 4 5 6 
#
# 1 124.2781 24.8226 43.5985 0.0000 0.0000 0.0000
# 2 24.8226 60.6307 36.0048 0.0000 0.0000 0.0000
# 3 43.5985 36.0048 71.6113 0.0000 0.0000 0.0000
# 4 0.0000 0.0000 0.0000 23.9193 0.0000 0.0000
# 5 0.0000 0.0000 0.0000 0.0000 -28.6747 0.0000
# 6 0.0000 0.0000 0.0000 0.0000 0.0000 19.5769
#
#
#
# Elastic Compliance Matrix: (Units=1/GPa)
#
#
# Indices 1 2 3 4 5 6 
#
# 1 0.010253 -0.000700 -0.005890 0.000000 0.000000 0.000000
# 2 -0.000700 0.023562 -0.011420 0.000000 0.000000 0.000000
# 3 -0.005890 -0.011420 0.023292 0.000000 0.000000 0.000000
# 4 0.000000 0.000000 0.000000 0.041807 0.000000 0.000000
# 5 0.000000 0.000000 0.000000 0.000000 -0.034874 0.000000
# 6 0.000000 0.000000 0.000000 0.000000 0.000000 0.051081
#
#
# Mechanical properties :
#
#
# Convention : Reuss Voigt Hill
#
# Bulk Modulus (GPa) = 47.42478 51.70800 49.56639
# Shear Modulus (GPa) = 31.61171 13.10393 22.35782
#
# Velocity S-wave (km/s) = 4.30123 2.76930 3.61729
# Velocity P-wave (km/s) = 7.24034 6.36295 6.81578
#
# Compressibility (1/GPa) = 0.02108602
#
# Stress axis : x y z
#
# Youngs Moduli (GPa) = 97.53636 42.44204 42.93269
#
# Poissons Ratio (x) = 0.02969 0.25288
# Poissons Ratio (y) = 0.06824 0.49031
# Poissons Ratio (z) = 0.57451 0.48470
#
# Static dielectric constant tensor:
#      x y z
#    x 1.612120 0.000000 0.000000 
#    y 0.000000 1.601520 0.000000 
#    z 0.000000 0.000000 1.567570 
# 
# From -- ./inp_files/17046.got.cif
#   From: 2010.05.17/outbox.cif.g08.bks.cpg/sg57_9_cif.got.tgz:17046.got - 2010.06.03 13:58:18.
