data_PCOD9434042
_publ_section_title
;
Structure prediction by ZEFSAII (Michael W. Deem and Ramdas Pophale) SiO2 
 PCOD9434042
Probable space group: P B C M
;
_chemical_formula_sum "Si O2"
_cell_formula_units_Z 56
_cell_length_a 18.452150
_cell_length_b 22.885156
_cell_length_c 8.670012
_cell_angle_alpha 90.000000
_cell_angle_beta 90.000000
_cell_angle_gamma 90.000000
_cell_volume 3661.175540
_symmetry_space_group_name_H-M "P B C M"
_symmetry_group_IT_number 57
_symmetry_cell_setting 'orthorhombic'
loop_
_space_group_symop_operation_xyz
x,y,z
-x,-y,1/2+z
x,1/2-y,-z
-x,1/2+y,1/2-z
-x,-y,-z
x,y,1/2-z
-x,1/2+y,z
x,1/2-y,1/2+z
loop_
_atom_site_type_symbol
_atom_site_label
_atom_site_fract_x
_atom_site_fract_y
_atom_site_fract_z
Si Si1 0.170569 0.466960 0.934165
Si Si2 0.872505 0.401319 0.437114
Si Si3 0.975340 0.937016 0.435014
Si Si4 0.325680 0.031644 0.935230
Si Si5 0.625189 0.100485 0.065145
Si Si6 0.480637 0.064065 0.935168
Si Si7 0.746754 0.315108 0.435508
O O1 0.166606 0.466274 0.750000
O O2 0.155968 0.534438 0.986626
O O3 0.104973 0.428113 0.000191
O O4 0.250349 0.450359 0.989584
O O5 0.870473 0.401701 0.250000
O O6 0.817783 0.351345 0.489476
O O7 0.957119 0.395761 0.481222
O O8 0.972334 0.939376 0.250000
O O9 0.000000 0.000000 0.500000
O O10 0.318304 0.032424 0.750000
O O11 0.395873 0.070820 0.976192
O O12 0.344577 0.964240 0.979582
O O13 0.625879 0.103579 0.250000
O O14 0.542678 0.104847 0.005235
O O15 0.677432 0.148733 0.993797
O O16 0.486329 0.063717 0.750000
O O17 0.500000 0.000000 0.000000
O O18 0.746939 0.250000 0.500000
O O19 0.746399 0.313823 0.250000
#
# Coordination Sequence:
#
# PCOD9434042 Si02
#       7
#     8   8   8   8   8   8   8
#     4  10  17  26  41  63  87 117 147 175 216 261
#     4   8  16  29  43  58  81 113 146 180 222 261
#     4   9  16  27  41  60  82 110 144 178 216 262
#     4   9  17  27  41  63  89 116 148 180 213 259
#     4  10  19  31  45  63  85 115 151 186 227 266
#     4   9  17  28  42  62  86 115 148 182 220 264
#     4  11  21  34  48  65  87 116 153 193 227 263
#
# _framework density 15.295633
#
# number of rings (size 3 to 8) (size 9 to 14) (size 15 to 20)
#    0.000    2.571    1.429    3.857    0.000    2.857 
#    0.000    2.143    0.000    0.000    0.000    0.000 
#    0.000    1.143    0.000    7.714    0.000    5.571 
#
# Total GULP energy -311806.421144 kJ/mol
# GULP energy per Si atom -5567.971806 kJ/mol
# Density = 1.526082 g / cm^3
# Si number density = 15.295633 Si / 1000 Ang^3
#
#
#
# Elastic Constant Matrix: (Units=GPa)
#
#
# Indices 1 2 3 4 5 6 
#
# 1 180.4751 49.6278 47.1033 0.0000 0.0000 0.0000
# 2 49.6278 50.5548 17.9709 0.0000 0.0000 0.0000
# 3 47.1033 17.9709 43.9949 0.0000 0.0000 0.0000
# 4 0.0000 0.0000 0.0000 14.1965 0.0000 0.0000
# 5 0.0000 0.0000 0.0000 0.0000 26.7474 0.0000
# 6 0.0000 0.0000 0.0000 0.0000 0.0000 12.7061
#
#
#
# Elastic Compliance Matrix: (Units=1/GPa)
#
#
# Indices 1 2 3 4 5 6 
#
# 1 0.009202 -0.006470 -0.007209 0.000000 0.000000 0.000000
# 2 -0.006470 0.027690 -0.004383 0.000000 0.000000 0.000000
# 3 -0.007209 -0.004383 0.032239 0.000000 0.000000 0.000000
# 4 0.000000 0.000000 0.000000 0.070440 0.000000 0.000000
# 5 0.000000 0.000000 0.000000 0.000000 0.037387 0.000000
# 6 0.000000 0.000000 0.000000 0.000000 0.000000 0.078702
#
#
# Mechanical properties :
#
#
# Convention : Reuss Voigt Hill
#
# Bulk Modulus (GPa) = 30.29793 56.04764 43.17279
# Shear Modulus (GPa) = 16.51328 21.41818 18.96573
#
# Velocity S-wave (km/s) = 3.28930 3.74609 3.52510
# Velocity P-wave (km/s) = 5.85468 7.44536 6.69741
#
# Compressibility (1/GPa) = 0.03300556
#
# Stress axis : x y z
#
# Youngs Moduli (GPa) = 108.67612 36.11360 31.01879
#
# Poissons Ratio (x) = 0.23367 0.22361
# Poissons Ratio (y) = 0.70318 0.13597
# Poissons Ratio (z) = 0.78342 0.15830
#
# Static dielectric constant tensor:
#      x y z
#    x 1.556210 0.000000 0.000000 
#    y 0.000000 1.464420 0.000000 
#    z 0.000000 0.000000 1.510880 
# 
# From -- ./inp_files/7062.got.cif
#   From: 2010.05.17/outbox.cif.g08.bks.cpg/sg57_4_cif.got.tgz:7062.got - 2010.06.03 13:58:18.
