data_PCOD9434635
_publ_section_title
;
Structure prediction by ZEFSAII (Michael W. Deem and Ramdas Pophale) SiO2 
 PCOD9434635
Probable space group: P B C M
;
_chemical_formula_sum "Si O2"
_cell_formula_units_Z 60
_cell_length_a 17.283633
_cell_length_b 21.303298
_cell_length_c 8.532903
_cell_angle_alpha 90.000000
_cell_angle_beta 90.000000
_cell_angle_gamma 90.000000
_cell_volume 3141.801098
_symmetry_space_group_name_H-M "P B C M"
_symmetry_group_IT_number 57
_symmetry_cell_setting 'orthorhombic'
loop_
_space_group_symop_operation_xyz
x,y,z
-x,-y,1/2+z
x,1/2-y,-z
-x,1/2+y,1/2-z
-x,-y,-z
x,y,1/2-z
-x,1/2+y,z
x,1/2-y,1/2+z
loop_
_atom_site_type_symbol
_atom_site_label
_atom_site_fract_x
_atom_site_fract_y
_atom_site_fract_z
Si Si1 0.435483 0.681827 0.937757
Si Si2 0.281707 0.451927 0.932414
Si Si3 0.306694 0.589753 0.438057
Si Si4 0.167652 0.679912 0.438516
Si Si5 0.164345 0.359175 0.434830
Si Si6 0.992097 0.820968 0.938411
Si Si7 0.267775 0.250000 0.500000
Si Si8 0.609350 0.647643 0.574719
O O1 0.429217 0.681250 0.750000
O O2 0.525528 0.670438 0.979296
O O3 0.411246 0.750000 0.000000
O O4 0.381993 0.628174 0.009504
O O5 0.261633 0.451238 0.750000
O O6 0.302755 0.521195 0.987693
O O7 0.211181 0.422503 0.032001
O O8 0.352657 0.404355 0.964670
O O9 0.305289 0.584442 0.250000
O O10 0.232480 0.630942 0.490294
O O11 0.182997 0.750000 0.500000
O O12 0.169762 0.682680 0.250000
O O13 0.079951 0.661439 0.483578
O O14 0.171448 0.341763 0.250000
O O15 0.075452 0.361527 0.484177
O O16 0.206659 0.305416 0.541252
O O17 0.985556 0.822220 0.750000
O O18 0.980399 0.750000 0.000000
O O19 0.330322 0.294529 0.414042
O O20 0.601478 0.620743 0.750000
#
# Coordination Sequence:
#
# PCOD9434635 Si02
#       8
#     8   8   8   8   8   8   4   8
#     4  11  23  40  62  92 122 151 193 242 293 348
#     4  11  24  40  60  85 115 155 202 244 289 351
#     4  11  23  42  63  84 115 156 200 246 296 347
#     4   9  20  37  60  88 117 150 191 242 294 345
#     4  11  22  36  56  85 121 157 193 236 288 347
#     4  10  19  33  55  86 120 152 190 237 290 346
#     4  10  18  32  56  84 116 150 188 230 280 342
#     4  10  22  39  59  85 120 156 193 237 290 347
#
# _framework density 19.097325000000001
#
# number of rings (size 3 to 8) (size 9 to 14) (size 15 to 20)
#    0.000    1.600    1.333    4.400    0.000    9.067 
#    0.000    0.667    0.000    0.000    0.000    0.000 
#    0.000    0.000    0.000    0.000    0.000    0.000 
#
# Total GULP energy -334649.660834 kJ/mol
# GULP energy per Si atom -5577.494347 kJ/mol
# Density = 1.905386 g / cm^3
# Si number density = 19.097325 Si / 1000 Ang^3
#
#
#
# Elastic Constant Matrix: (Units=GPa)
#
#
# Indices 1 2 3 4 5 6 
#
# 1 92.7426 37.2259 30.6224 0.0000 0.0000 0.0000
# 2 37.2259 99.3895 32.8689 0.0000 0.0000 0.0000
# 3 30.6224 32.8689 53.9243 0.0000 0.0000 0.0000
# 4 0.0000 0.0000 0.0000 26.8886 0.0000 0.0000
# 5 0.0000 0.0000 0.0000 0.0000 26.8033 0.0000
# 6 0.0000 0.0000 0.0000 0.0000 0.0000 -34.5433
#
#
#
# Elastic Compliance Matrix: (Units=1/GPa)
#
#
# Indices 1 2 3 4 5 6 
#
# 1 0.014082 -0.003294 -0.005989 0.000000 0.000000 0.000000
# 2 -0.003294 0.013372 -0.006280 0.000000 0.000000 0.000000
# 3 -0.005989 -0.006280 0.025774 0.000000 0.000000 0.000000
# 4 0.000000 0.000000 0.000000 0.037191 0.000000 0.000000
# 5 0.000000 0.000000 0.000000 0.000000 0.037309 0.000000
# 6 0.000000 0.000000 0.000000 0.000000 0.000000 -0.028949
#
#
# Mechanical properties :
#
#
# Convention : Reuss Voigt Hill
#
# Bulk Modulus (GPa) = 45.24617 49.72118 47.48368
# Shear Modulus (GPa) = 36.42404 13.51900 24.97152
#
# Velocity S-wave (km/s) = 4.37199 2.66353 3.61999
# Velocity P-wave (km/s) = 7.01638 5.96250 6.51079
#
# Compressibility (1/GPa) = 0.02210132
#
# Stress axis : x y z
#
# Youngs Moduli (GPa) = 71.01174 74.78300 38.79908
#
# Poissons Ratio (x) = 0.24631 0.23238
# Poissons Ratio (y) = 0.23389 0.24367
# Poissons Ratio (z) = 0.42531 0.46966
#
# Static dielectric constant tensor:
#      x y z
#    x 1.676680 0.000000 0.000000 
#    y 0.000000 1.627860 0.000000 
#    z 0.000000 0.000000 1.665360 
# 
# From -- ./inp_files/6869.got.cif
#   From: 2010.05.17/outbox.cif.g08.bks.cpg/sg57_4_cif.got.tgz:6869.got - 2010.06.03 13:58:18.
