data_PCOD9434166
_publ_section_title
;
Structure prediction by ZEFSAII (Michael W. Deem and Ramdas Pophale) SiO2 
 PCOD9434166
Probable space group: P B C M
;
_chemical_formula_sum "Si O2"
_cell_formula_units_Z 44
_cell_length_a 6.432675
_cell_length_b 14.092435
_cell_length_c 24.711983
_cell_angle_alpha 90.000000
_cell_angle_beta 90.000000
_cell_angle_gamma 90.000000
_cell_volume 2240.192025
_symmetry_space_group_name_H-M "P B C M"
_symmetry_group_IT_number 57
_symmetry_cell_setting 'orthorhombic'
loop_
_space_group_symop_operation_xyz
x,y,z
-x,-y,1/2+z
x,1/2-y,-z
-x,1/2+y,1/2-z
-x,-y,-z
x,y,1/2-z
-x,1/2+y,z
x,1/2-y,1/2+z
loop_
_atom_site_type_symbol
_atom_site_label
_atom_site_fract_x
_atom_site_fract_y
_atom_site_fract_z
Si Si1 0.491762 0.123993 0.139270
Si Si2 0.523679 0.906864 0.367575
Si Si3 0.855193 0.278350 0.135534
Si Si4 0.766855 0.755029 0.063928
Si Si5 0.930656 0.261715 0.750000
Si Si6 0.251470 0.081521 0.250000
Si Si7 0.441457 0.874834 0.250000
O O1 0.690680 0.192538 0.142109
O O2 0.340901 0.166766 0.093944
O O3 0.370732 0.117487 0.196387
O O4 0.553528 0.017468 0.124733
O O5 0.282893 0.872750 0.370897
O O6 0.651913 0.845686 0.409889
O O7 0.571579 0.882377 0.304776
O O8 0.990940 0.278538 0.190767
O O9 0.997515 0.261146 0.084172
O O10 0.746032 0.750000 0.000000
O O11 0.691530 0.222161 0.750000
O O12 0.022480 0.369270 0.750000
O O13 0.283849 0.966786 0.250000
#
# Coordination Sequence:
#
# PCOD9434166 Si02
#       7
#     8   8   8   8   4   4   4
#     4  10  21  40  62  88 119 154 190 239 293 357
#     4   9  21  40  62  87 122 152 190 237 297 350
#     4  10  21  37  58  88 117 151 193 237 291 352
#     4  11  24  40  59  84 113 156 204 247 288 333
#     4  10  17  34  57  87 118 157 180 232 295 346
#     4  10  17  35  61  90 122 149 186 234 287 365
#     4   8  18  35  60  93 124 148 184 232 292 361
#
# _framework density 19.641172999999998
#
# number of rings (size 3 to 8) (size 9 to 14) (size 15 to 20)
#    0.000    2.182    1.818    0.545    0.000    8.000 
#    3.273    1.818    0.000    0.000    0.000    0.000 
#    0.000    0.000    0.000    0.000    0.000    0.000 
#
# Total GULP energy -245317.458345 kJ/mol
# GULP energy per Si atom -5575.396781 kJ/mol
# Density = 1.959647 g / cm^3
# Si number density = 19.641173 Si / 1000 Ang^3
#
#
#
# Elastic Constant Matrix: (Units=GPa)
#
#
# Indices 1 2 3 4 5 6 
#
# 1 57.9991 32.7098 32.5444 0.0000 0.0000 0.0000
# 2 32.7098 79.4549 37.6209 0.0000 0.0000 0.0000
# 3 32.5444 37.6209 168.4430 0.0000 0.0000 0.0000
# 4 0.0000 0.0000 0.0000 16.6296 0.0000 0.0000
# 5 0.0000 0.0000 0.0000 0.0000 154.3834 0.0000
# 6 0.0000 0.0000 0.0000 0.0000 0.0000 11.4599
#
#
#
# Elastic Compliance Matrix: (Units=1/GPa)
#
#
# Indices 1 2 3 4 5 6 
#
# 1 0.023473 -0.008405 -0.002658 0.000000 0.000000 0.000000
# 2 -0.008405 0.017084 -0.002192 0.000000 0.000000 0.000000
# 3 -0.002658 -0.002192 0.006940 0.000000 0.000000 0.000000
# 4 0.000000 0.000000 0.000000 0.060134 0.000000 0.000000
# 5 0.000000 0.000000 0.000000 0.000000 0.006477 0.000000
# 6 0.000000 0.000000 0.000000 0.000000 0.000000 0.087261
#
#
# Mechanical properties :
#
#
# Convention : Reuss Voigt Hill
#
# Bulk Modulus (GPa) = 47.64740 56.84969 52.24855
# Shear Modulus (GPa) = 21.28807 50.02937 35.65872
#
# Velocity S-wave (km/s) = 3.29576 5.05242 4.26550
# Velocity P-wave (km/s) = 6.22851 7.93996 7.13573
#
# Compressibility (1/GPa) = 0.02098751
#
# Stress axis : x y z
#
# Youngs Moduli (GPa) = 42.60175 58.53573 144.09710
#
# Poissons Ratio (x) = 0.49199 0.38301
# Poissons Ratio (y) = 0.35806 0.31581
# Poissons Ratio (z) = 0.11324 0.12829
#
# Static dielectric constant tensor:
#      x y z
#    x 1.732750 0.000000 0.000000 
#    y 0.000000 1.694630 0.000000 
#    z 0.000000 0.000000 1.695980 
# 
# From -- ./inp_files/27904.got.cif
#   From: 2010.05.17/outbox.cif.g08.bks.cpg/sg57_14_cif.got.tgz:27904.got - 2010.06.03 13:58:18.
