data_PCOD9434862
_publ_section_title
;
Structure prediction by ZEFSAII (Michael W. Deem and Ramdas Pophale) SiO2 
 PCOD9434862
Probable space group: P B C M
;
_chemical_formula_sum "Si O2"
_cell_formula_units_Z 40
_cell_length_a 9.840688
_cell_length_b 12.767075
_cell_length_c 14.142588
_cell_angle_alpha 90.000000
_cell_angle_beta 90.000000
_cell_angle_gamma 90.000000
_cell_volume 1776.829525
_symmetry_space_group_name_H-M "P B C M"
_symmetry_group_IT_number 57
_symmetry_cell_setting 'orthorhombic'
loop_
_space_group_symop_operation_xyz
x,y,z
-x,-y,1/2+z
x,1/2-y,-z
-x,1/2+y,1/2-z
-x,-y,-z
x,y,1/2-z
-x,1/2+y,z
x,1/2-y,1/2+z
loop_
_atom_site_type_symbol
_atom_site_label
_atom_site_fract_x
_atom_site_fract_y
_atom_site_fract_z
Si Si1 0.613034 0.868902 0.750000
Si Si2 0.056693 0.424952 0.250000
Si Si3 0.400276 0.146762 0.456671
Si Si4 0.743073 0.084649 0.750000
Si Si5 0.081520 0.559870 0.083117
Si Si6 0.930575 0.680091 0.250000
Si Si7 0.315675 0.591381 0.545792
O O1 0.553022 0.832554 0.848832
O O2 0.769344 0.833460 0.750000
O O3 0.626326 0.994986 0.750000
O O4 0.127921 0.470390 0.157227
O O5 0.045005 0.302686 0.250000
O O6 0.897006 0.460417 0.250000
O O7 0.329990 0.250000 0.500000
O O8 0.533904 0.125330 0.518321
O O9 0.316762 0.037617 0.452078
O O10 0.725824 0.135724 0.852065
O O11 0.996045 0.634417 0.153197
O O12 0.205505 0.618127 0.033217
O O13 0.000000 0.500000 0.000000
#
# Coordination Sequence:
#
# PCOD9434862 Si02
#       7
#     4   4   8   4   8   4   8
#     4  10  20  42  60  82 131 161 208 268 322 374
#     4  11  23  37  60  98 125 165 211 259 323 386
#     4  10  23  40  62  92 120 170 218 266 318 372
#     4  10  18  42  61  87 133 163 196 264 331 367
#     4  11  21  42  64  90 131 169 208 257 326 395
#     4  11  25  39  61  99 127 169 211 275 326 385
#     4  10  22  40  66  91 125 172 213 259 321 392
#
# _framework density 22.512007000000001
#
# number of rings (size 3 to 8) (size 9 to 14) (size 15 to 20)
#    0.000    1.600    4.000    1.200    2.800    4.800 
#    0.000    3.000    0.000    0.000    0.000    0.000 
#    0.000    0.000    0.000    0.000    0.000    0.000 
#
# Total GULP energy -223277.410664 kJ/mol
# GULP energy per Si atom -5581.935267 kJ/mol
# Density = 2.246077 g / cm^3
# Si number density = 22.512007 Si / 1000 Ang^3
#
#
#
# Elastic Constant Matrix: (Units=GPa)
#
#
# Indices 1 2 3 4 5 6 
#
# 1 55.0880 -13.9046 23.4887 0.0000 0.0000 0.0000
# 2 -13.9046 88.6776 25.3195 0.0000 0.0000 0.0000
# 3 23.4887 25.3195 184.4052 0.0000 0.0000 0.0000
# 4 0.0000 0.0000 0.0000 2.8605 0.0000 0.0000
# 5 0.0000 0.0000 0.0000 0.0000 33.3318 0.0000
# 6 0.0000 0.0000 0.0000 0.0000 0.0000 10.1497
#
#
#
# Elastic Compliance Matrix: (Units=1/GPa)
#
#
# Indices 1 2 3 4 5 6 
#
# 1 0.020554 0.004132 -0.003185 0.000000 0.000000 0.000000
# 2 0.004132 0.012568 -0.002252 0.000000 0.000000 0.000000
# 3 -0.003185 -0.002252 0.006138 0.000000 0.000000 0.000000
# 4 0.000000 0.000000 0.000000 0.349590 0.000000 0.000000
# 5 0.000000 0.000000 0.000000 0.000000 0.030001 0.000000
# 6 0.000000 0.000000 0.000000 0.000000 0.000000 0.098525
#
#
# Mechanical properties :
#
#
# Convention : Reuss Voigt Hill
#
# Bulk Modulus (GPa) = 27.28547 44.21977 35.75262
# Shear Modulus (GPa) = 9.39491 28.81955 19.10723
#
# Velocity S-wave (km/s) = 2.04508 3.58185 2.91650
# Velocity P-wave (km/s) = 4.20989 6.06561 5.22086
#
# Compressibility (1/GPa) = 0.03664954
#
# Stress axis : x y z
#
# Youngs Moduli (GPa) = 48.65217 79.56870 162.92502
#
# Poissons Ratio (x) = -0.32881 0.51899
# Poissons Ratio (y) = -0.20105 0.36690
# Poissons Ratio (z) = 0.15498 0.17919
#
# Static dielectric constant tensor:
#      x y z
#    x 1.793780 0.000000 0.000000 
#    y 0.000000 1.949770 0.000000 
#    z 0.000000 0.000000 1.849340 
# 
# From -- ./inp_files/12784.got.cif
#   From: 2010.05.17/outbox.cif.g08.bks.cpg/sg57_7_cif.got.tgz:12784.got - 2010.06.03 13:58:18.
