data_PCOD9434880
_publ_section_title
;
Structure prediction by ZEFSAII (Michael W. Deem and Ramdas Pophale) SiO2 
 PCOD9434880
Probable space group: P B C M
;
_chemical_formula_sum "Si O2"
_cell_formula_units_Z 64
_cell_length_a 19.033578
_cell_length_b 25.570207
_cell_length_c 9.124171
_cell_angle_alpha 90.000000
_cell_angle_beta 90.000000
_cell_angle_gamma 90.000000
_cell_volume 4440.665863
_symmetry_space_group_name_H-M "P B C M"
_symmetry_group_IT_number 57
_symmetry_cell_setting 'orthorhombic'
loop_
_space_group_symop_operation_xyz
x,y,z
-x,-y,1/2+z
x,1/2-y,-z
-x,1/2+y,1/2-z
-x,-y,-z
x,y,1/2-z
-x,1/2+y,z
x,1/2-y,1/2+z
loop_
_atom_site_type_symbol
_atom_site_label
_atom_site_fract_x
_atom_site_fract_y
_atom_site_fract_z
Si Si1 0.609393 0.510747 0.075350
Si Si2 0.243081 0.492755 0.420355
Si Si3 0.494096 0.917693 0.073467
Si Si4 0.906994 0.533489 0.924983
Si Si5 0.182422 0.889340 0.578535
Si Si6 0.443631 0.804333 0.425424
Si Si7 0.949257 0.425654 0.077065
Si Si8 0.722235 0.195764 0.575453
O O1 0.607412 0.516282 0.250000
O O2 0.573328 0.454560 0.038524
O O3 0.688430 0.514111 0.017519
O O4 0.560121 0.554389 0.001342
O O5 0.262324 0.485135 0.250000
O O6 0.175126 0.456580 0.454064
O O7 0.213657 0.551943 0.436048
O O8 0.502224 0.918728 0.250000
O O9 0.482028 0.857727 0.027776
O O10 0.911549 0.519014 0.750000
O O11 0.966784 0.577067 0.949366
O O12 0.928632 0.484176 0.024347
O O13 0.181614 0.876306 0.750000
O O14 0.103753 0.889653 0.513262
O O15 0.232051 0.850588 0.490312
O O16 0.466094 0.750000 0.500000
O O17 0.451126 0.799210 0.250000
O O18 0.360603 0.812019 0.456727
O O19 0.936333 0.419823 0.250000
O O20 0.743411 0.250000 0.500000
O O21 0.730378 0.198724 0.750000
#
# Coordination Sequence:
#
# PCOD9434880 Si02
#       8
#     8   8   8   8   8   8   8   8
#     4  10  19  29  43  63  84 110 146 181 212 253
#     4   9  17  28  41  58  83 113 141 171 209 251
#     4   9  18  32  45  59  84 114 141 173 215 258
#     4   8  15  26  38  55  80 108 137 167 200 240
#     4  10  19  29  41  59  83 112 145 176 208 249
#     4   9  18  31  47  65  85 110 141 177 215 256
#     4   9  15  24  39  57  78 106 138 170 202 235
#     4  10  19  31  45  62  84 109 139 175 213 249
#
# _framework density 14.412252000000001
#
# number of rings (size 3 to 8) (size 9 to 14) (size 15 to 20)
#    0.000    2.750    0.000    3.000    0.000    5.500 
#    0.000    0.000    0.000    0.000    0.000    0.000 
#    0.000    1.000    0.000    6.500    0.000    5.125 
#
# Total GULP energy -356342.923534 kJ/mol
# GULP energy per Si atom -5567.858180 kJ/mol
# Density = 1.437945 g / cm^3
# Si number density = 14.412252 Si / 1000 Ang^3
#
#
#
# Elastic Constant Matrix: (Units=GPa)
#
#
# Indices 1 2 3 4 5 6 
#
# 1 88.9513 32.4893 38.4771 0.0000 0.0000 0.0000
# 2 32.4893 69.5940 28.1070 0.0000 0.0000 0.0000
# 3 38.4771 28.1070 45.5802 0.0000 0.0000 0.0000
# 4 0.0000 0.0000 0.0000 21.6253 0.0000 0.0000
# 5 0.0000 0.0000 0.0000 0.0000 25.0414 0.0000
# 6 0.0000 0.0000 0.0000 0.0000 0.0000 16.4240
#
#
#
# Elastic Compliance Matrix: (Units=1/GPa)
#
#
# Indices 1 2 3 4 5 6 
#
# 1 0.018181 -0.003048 -0.013468 0.000000 0.000000 0.000000
# 2 -0.003048 0.019646 -0.009541 0.000000 0.000000 0.000000
# 3 -0.013468 -0.009541 0.039192 0.000000 0.000000 0.000000
# 4 0.000000 0.000000 0.000000 0.046242 0.000000 0.000000
# 5 0.000000 0.000000 0.000000 0.000000 0.039934 0.000000
# 6 0.000000 0.000000 0.000000 0.000000 0.000000 0.060886
#
#
# Mechanical properties :
#
#
# Convention : Reuss Voigt Hill
#
# Bulk Modulus (GPa) = 40.15464 44.69694 42.42579
# Shear Modulus (GPa) = 17.57480 19.62162 18.59821
#
# Velocity S-wave (km/s) = 3.49583 3.69379 3.59617
# Velocity P-wave (km/s) = 6.64954 7.01945 6.83699
#
# Compressibility (1/GPa) = 0.02490372
#
# Stress axis : x y z
#
# Youngs Moduli (GPa) = 55.00127 50.90216 25.51524
#
# Poissons Ratio (x) = 0.15517 0.34365
# Poissons Ratio (y) = 0.16766 0.24344
# Poissons Ratio (z) = 0.74077 0.48566
#
# Static dielectric constant tensor:
#      x y z
#    x 1.491110 0.000000 0.000000 
#    y 0.000000 1.464030 0.000000 
#    z 0.000000 0.000000 1.478910 
# 
# From -- ./inp_files/7358.got.cif
#   From: 2010.05.17/outbox.cif.g08.bks.cpg/sg57_4_cif.got.tgz:7358.got - 2010.06.03 13:58:18.
