data_PCOD9434753
_publ_section_title
;
Structure prediction by ZEFSAII (Michael W. Deem and Ramdas Pophale) SiO2 
 PCOD9434753
Probable space group: P B C M
;
_chemical_formula_sum "Si O2"
_cell_formula_units_Z 48
_cell_length_a 11.367432
_cell_length_b 17.293713
_cell_length_c 14.094173
_cell_angle_alpha 90.000000
_cell_angle_beta 90.000000
_cell_angle_gamma 90.000000
_cell_volume 2770.704501
_symmetry_space_group_name_H-M "P B C M"
_symmetry_group_IT_number 57
_symmetry_cell_setting 'orthorhombic'
loop_
_space_group_symop_operation_xyz
x,y,z
-x,-y,1/2+z
x,1/2-y,-z
-x,1/2+y,1/2-z
-x,-y,-z
x,y,1/2-z
-x,1/2+y,z
x,1/2-y,1/2+z
loop_
_atom_site_type_symbol
_atom_site_label
_atom_site_fract_x
_atom_site_fract_y
_atom_site_fract_z
Si Si1 0.220613 0.523057 0.750000
Si Si2 0.399917 0.667196 0.750000
Si Si3 0.343802 0.551918 0.426180
Si Si4 0.343919 0.355094 0.750000
Si Si5 0.627129 0.156983 0.250000
Si Si6 0.539857 0.891703 0.074393
Si Si7 0.873337 0.510771 0.454010
Si Si8 0.246473 0.325721 0.952336
O O1 0.304491 0.598035 0.750000
O O2 0.302689 0.445455 0.750000
O O3 0.144200 0.519055 0.846149
O O4 0.344894 0.752319 0.750000
O O5 0.482444 0.656380 0.841569
O O6 0.327241 0.612453 0.342409
O O7 0.402339 0.471918 0.389168
O O8 0.436978 0.585358 0.501518
O O9 0.225506 0.530740 0.481737
O O10 0.484634 0.350762 0.750000
O O11 0.291797 0.316890 0.844801
O O12 0.640170 0.847696 0.016095
O O13 0.839437 0.601206 0.453248
O O14 0.000000 0.500000 0.500000
O O15 0.193100 0.250000 0.000000
#
# Coordination Sequence:
#
# PCOD9434753 Si02
#       8
#     4   4   8   4   4   8   8   8
#     4  10  20  39  60  81 108 149 203 230 277 357
#     4  12  22  32  53  87 122 156 183 222 298 361
#     4  10  20  35  55  82 112 147 193 238 283 343
#     4  10  18  34  59  81 115 156 184 220 287 362
#     4  12  22  31  52  87 125 151 180 236 288 346
#     4  10  19  33  56  81 114 148 185 232 289 355
#     4  10  22  41  63  81 107 158 200 238 282 333
#     4  10  20  35  58  89 116 143 191 242 286 334
#
# _framework density 17.324113000000001
#
# number of rings (size 3 to 8) (size 9 to 14) (size 15 to 20)
#    0.000    1.667    3.333    2.500    0.000    0.667 
#    0.000    4.167    0.000    0.000    0.000    0.000 
#    0.000    0.000    0.000    0.000    0.000    0.000 
#
# Total GULP energy -268050.240073 kJ/mol
# GULP energy per Si atom -5584.380002 kJ/mol
# Density = 1.728468 g / cm^3
# Si number density = 17.324113 Si / 1000 Ang^3
#
#
#
# Elastic Constant Matrix: (Units=GPa)
#
#
# Indices 1 2 3 4 5 6 
#
# 1 79.1127 19.0007 37.1156 0.0000 0.0000 0.0000
# 2 19.0007 94.4785 67.6249 0.0000 0.0000 0.0000
# 3 37.1156 67.6249 127.4460 0.0000 0.0000 0.0000
# 4 0.0000 0.0000 0.0000 11.7595 0.0000 0.0000
# 5 0.0000 0.0000 0.0000 0.0000 12.4276 0.0000
# 6 0.0000 0.0000 0.0000 0.0000 0.0000 9.2897
#
#
#
# Elastic Compliance Matrix: (Units=1/GPa)
#
#
# Indices 1 2 3 4 5 6 
#
# 1 0.014642 0.000173 -0.004356 0.000000 0.000000 0.000000
# 2 0.000173 0.017068 -0.009107 0.000000 0.000000 0.000000
# 3 -0.004356 -0.009107 0.013947 0.000000 0.000000 0.000000
# 4 0.000000 0.000000 0.000000 0.085038 0.000000 0.000000
# 5 0.000000 0.000000 0.000000 0.000000 0.080466 0.000000
# 6 0.000000 0.000000 0.000000 0.000000 0.000000 0.107646
#
#
# Mechanical properties :
#
#
# Convention : Reuss Voigt Hill
#
# Bulk Modulus (GPa) = 52.41659 60.94661 56.68160
# Shear Modulus (GPa) = 14.21475 18.51510 16.36493
#
# Velocity S-wave (km/s) = 2.86758 3.27272 3.07682
# Velocity P-wave (km/s) = 6.42543 7.03829 6.73883
#
# Compressibility (1/GPa) = 0.01907793
#
# Stress axis : x y z
#
# Youngs Moduli (GPa) = 68.29553 58.58866 71.69768
#
# Poissons Ratio (x) = -0.01015 0.31233
# Poissons Ratio (y) = -0.01183 0.65296
# Poissons Ratio (z) = 0.29751 0.53357
#
# Static dielectric constant tensor:
#      x y z
#    x 1.543830 0.000000 0.000000 
#    y 0.000000 1.612360 0.000000 
#    z 0.000000 0.000000 1.600840 
# 
# From -- ./inp_files/12982.got.cif
#   From: 2010.05.17/outbox.cif.g08.bks.cpg/sg57_7_cif.got.tgz:12982.got - 2010.06.03 13:58:18.
