data_PCOD9434846
_publ_section_title
;
Structure prediction by ZEFSAII (Michael W. Deem and Ramdas Pophale) SiO2 
 PCOD9434846
Probable space group: P B C M
;
_chemical_formula_sum "Si O2"
_cell_formula_units_Z 64
_cell_length_a 16.130910
_cell_length_b 8.153667
_cell_length_c 24.497264
_cell_angle_alpha 90.000000
_cell_angle_beta 90.000000
_cell_angle_gamma 90.000000
_cell_volume 3222.028824
_symmetry_space_group_name_H-M "P B C M"
_symmetry_group_IT_number 57
_symmetry_cell_setting 'orthorhombic'
loop_
_space_group_symop_operation_xyz
x,y,z
-x,-y,1/2+z
x,1/2-y,-z
-x,1/2+y,1/2-z
-x,-y,-z
x,y,1/2-z
-x,1/2+y,z
x,1/2-y,1/2+z
loop_
_atom_site_type_symbol
_atom_site_label
_atom_site_fract_x
_atom_site_fract_y
_atom_site_fract_z
Si Si1 0.690602 0.485896 0.310667
Si Si2 0.764796 0.125928 0.577368
Si Si3 0.769963 0.654364 0.688210
Si Si4 0.113587 0.092447 0.906623
Si Si5 0.382686 0.012040 0.633200
Si Si6 0.528826 0.202687 0.685773
Si Si7 0.726625 0.004261 0.035068
Si Si8 0.062961 0.731926 0.564892
O O1 0.715254 0.423469 0.250000
O O2 0.729797 0.398836 0.362811
O O3 0.721891 0.672286 0.314006
O O4 0.592406 0.451935 0.314247
O O5 0.723787 0.012600 0.530416
O O6 0.747162 0.310797 0.556391
O O7 0.864263 0.103660 0.579371
O O8 0.791119 0.617542 0.750000
O O9 0.849995 0.653387 0.650341
O O10 0.704602 0.524028 0.664766
O O11 0.030850 0.184811 0.923447
O O12 0.193270 0.101244 0.946883
O O13 0.086655 0.901809 0.906156
O O14 0.444362 0.148251 0.657251
O O15 0.426423 0.842957 0.650329
O O16 0.355261 0.038768 0.570151
O O17 0.517929 0.249457 0.750000
O O18 0.071177 0.750000 0.500000
#
# Coordination Sequence:
#
# PCOD9434846 Si02
#       8
#     8   8   8   8   8   8   8   8
#     4  10  22  38  61  90 118 157 207 253 301 355
#     4  10  18  38  62  86 119 160 195 245 297 374
#     4  10  22  41  59  82 123 162 203 256 304 362
#     4  10  22  36  56  90 115 156 201 247 310 353
#     4  11  21  38  60  89 121 155 205 248 306 361
#     4  11  21  34  59  91 121 158 203 253 300 351
#     4   9  19  37  60  87 121 158 192 242 312 359
#     4  11  21  36  60  89 120 151 198 251 302 357
#
# _framework density 19.86326
#
# number of rings (size 3 to 8) (size 9 to 14) (size 15 to 20)
#    0.000    1.750    3.750    2.250    1.750    1.000 
#    0.000    3.750    0.000    0.000    0.000    0.000 
#    0.000    0.000    0.000    0.000    0.000    0.000 
#
# Total GULP energy -357118.128929 kJ/mol
# GULP energy per Si atom -5579.970765 kJ/mol
# Density = 1.981805 g / cm^3
# Si number density = 19.863260 Si / 1000 Ang^3
#
#
#
# Elastic Constant Matrix: (Units=GPa)
#
#
# Indices 1 2 3 4 5 6 
#
# 1 116.4390 13.5069 62.7894 0.0000 0.0000 0.0000
# 2 13.5069 31.7406 20.9821 0.0000 0.0000 0.0000
# 3 62.7894 20.9821 128.0397 0.0000 0.0000 0.0000
# 4 0.0000 0.0000 0.0000 21.0311 0.0000 0.0000
# 5 0.0000 0.0000 0.0000 0.0000 29.4834 0.0000
# 6 0.0000 0.0000 0.0000 0.0000 0.0000 2.1426
#
#
#
# Elastic Compliance Matrix: (Units=1/GPa)
#
#
# Indices 1 2 3 4 5 6 
#
# 1 0.011726 -0.001333 -0.005532 0.000000 0.000000 0.000000
# 2 -0.001333 0.035484 -0.005161 0.000000 0.000000 0.000000
# 3 -0.005532 -0.005161 0.011369 0.000000 0.000000 0.000000
# 4 0.000000 0.000000 0.000000 0.047549 0.000000 0.000000
# 5 0.000000 0.000000 0.000000 0.000000 0.033917 0.000000
# 6 0.000000 0.000000 0.000000 0.000000 0.000000 0.466716
#
#
# Mechanical properties :
#
#
# Convention : Reuss Voigt Hill
#
# Bulk Modulus (GPa) = 28.96297 52.30845 40.63571
# Shear Modulus (GPa) = 7.78425 22.46081 15.12253
#
# Velocity S-wave (km/s) = 1.98177 3.36634 2.76222
# Velocity P-wave (km/s) = 4.45527 6.44214 5.53853
#
# Compressibility (1/GPa) = 0.03452685
#
# Stress axis : x y z
#
# Youngs Moduli (GPa) = 85.28192 28.18137 87.96173
#
# Poissons Ratio (x) = 0.03757 0.48658
# Poissons Ratio (y) = 0.11368 0.45399
# Poissons Ratio (z) = 0.47176 0.14545
#
# Static dielectric constant tensor:
#      x y z
#    x 1.693420 0.000000 0.000000 
#    y 0.000000 1.779460 0.000000 
#    z 0.000000 0.000000 1.702660 
# 
# From -- ./inp_files/27493.got.cif
#   From: 2010.05.17/outbox.cif.g08.bks.cpg/sg57_14_cif.got.tgz:27493.got - 2010.06.03 13:58:18.
