data_PCOD9434707
_publ_section_title
;
Structure prediction by ZEFSAII (Michael W. Deem and Ramdas Pophale) SiO2 
 PCOD9434707
Probable space group: P B C M
;
_chemical_formula_sum "Si O2"
_cell_formula_units_Z 44
_cell_length_a 8.356182
_cell_length_b 27.219954
_cell_length_c 7.657333
_cell_angle_alpha 90.000000
_cell_angle_beta 90.000000
_cell_angle_gamma 90.000000
_cell_volume 1741.697833
_symmetry_space_group_name_H-M "P B C M"
_symmetry_group_IT_number 57
_symmetry_cell_setting 'orthorhombic'
loop_
_space_group_symop_operation_xyz
x,y,z
-x,-y,1/2+z
x,1/2-y,-z
-x,1/2+y,1/2-z
-x,-y,-z
x,y,1/2-z
-x,1/2+y,z
x,1/2-y,1/2+z
loop_
_atom_site_type_symbol
_atom_site_label
_atom_site_fract_x
_atom_site_fract_y
_atom_site_fract_z
Si Si1 0.534471 0.887137 0.939502
Si Si2 0.766817 0.803019 0.458078
Si Si3 0.128897 0.819329 0.951950
Si Si4 0.076252 0.933276 0.539582
Si Si5 0.342327 0.834376 0.250000
Si Si6 0.733922 0.976904 0.450678
O O1 0.453511 0.884234 0.750000
O O2 0.429267 0.867947 0.097480
O O3 0.607159 0.941542 0.959456
O O4 0.681487 0.848262 0.947485
O O5 0.689777 0.750000 0.500000
O O6 0.757467 0.811213 0.250000
O O7 0.949188 0.800589 0.519415
O O8 0.171404 0.813949 0.750000
O O9 0.108224 0.877240 0.001675
O O10 0.253007 0.801735 0.095524
O O11 0.062566 0.938675 0.750000
O O12 0.907408 0.949968 0.460474
O O13 0.218694 0.969354 0.478862
O O14 0.685128 0.981621 0.250000
#
# Coordination Sequence:
#
# PCOD9434707 Si02
#       6
#     8   8   8   8   4   8
#     4  12  24  44  69  99 136 179 224 282 335 395
#     4  12  24  45  76 107 132 165 224 289 336 392
#     4  11  23  44  69  99 136 179 223 281 334 394
#     4   9  19  33  59  96 130 169 223 283 336 378
#     4  12  26  44  68  94 142 188 224 256 342 410
#     4  10  18  33  60  96 131 170 223 284 334 381
#
# _framework density 25.262706999999999
#
# number of rings (size 3 to 8) (size 9 to 14) (size 15 to 20)
#    0.000    1.091    4.545    2.727    1.273    0.727 
#    0.000    1.818    0.000    0.000    0.000    0.000 
#    0.000    0.000    0.000    0.000    0.000    0.000 
#
# Total GULP energy -245445.755716 kJ/mol
# GULP energy per Si atom -5578.312630 kJ/mol
# Density = 2.520521 g / cm^3
# Si number density = 25.262707 Si / 1000 Ang^3
#
#
#
# Elastic Constant Matrix: (Units=GPa)
#
#
# Indices 1 2 3 4 5 6 
#
# 1 60.8607 13.5784 22.8928 0.0000 0.0000 0.0000
# 2 13.5784 114.8149 8.6285 0.0000 0.0000 0.0000
# 3 22.8928 8.6285 162.6693 0.0000 0.0000 0.0000
# 4 0.0000 0.0000 0.0000 -39.1906 0.0000 0.0000
# 5 0.0000 0.0000 0.0000 0.0000 -4.1948 0.0000
# 6 0.0000 0.0000 0.0000 0.0000 0.0000 -15.1118
#
#
#
# Elastic Compliance Matrix: (Units=1/GPa)
#
#
# Indices 1 2 3 4 5 6 
#
# 1 0.017761 -0.001920 -0.002398 0.000000 0.000000 0.000000
# 2 -0.001920 0.008952 -0.000205 0.000000 0.000000 0.000000
# 3 -0.002398 -0.000205 0.006496 0.000000 0.000000 0.000000
# 4 0.000000 0.000000 0.000000 -0.025516 0.000000 0.000000
# 5 0.000000 0.000000 0.000000 0.000000 -0.238391 0.000000
# 6 0.000000 0.000000 0.000000 0.000000 0.000000 -0.066173
#
#
# Mechanical properties :
#
#
# Convention : Reuss Voigt Hill
#
# Bulk Modulus (GPa) = 41.38409 47.61605 44.50007
# Shear Modulus (GPa) = -17.87172 7.85024 -5.01074
#
# Velocity S-wave (km/s) = -2.66265 1.76471 -1.40988
# Velocity P-wave (km/s) = 2.63896 4.80016 3.87335
#
# Compressibility (1/GPa) = 0.02416388
#
# Stress axis : x y z
#
# Youngs Moduli (GPa) = 56.30219 111.70498 153.94719
#
# Poissons Ratio (x) = 0.21451 0.36912
# Poissons Ratio (y) = 0.10812 0.03150
# Poissons Ratio (z) = 0.13500 0.02285
#
# Static dielectric constant tensor:
#      x y z
#    x 2.032840 0.000000 0.000000 
#    y 0.000000 2.621070 0.000000 
#    z 0.000000 0.000000 1.748620 
# 
# From -- ./inp_files/1873.got.cif
#   From: 2010.05.17/outbox.cif.g08.bks.cpg/sg57_1_cif.got.tgz:1873.got - 2010.06.03 13:58:18.
