data_PCOD9434347
_publ_section_title
;
Structure prediction by ZEFSAII (Michael W. Deem and Ramdas Pophale) SiO2 
 PCOD9434347
Probable space group: P B C M
;
_chemical_formula_sum "Si O2"
_cell_formula_units_Z 64
_cell_length_a 17.014298
_cell_length_b 24.384647
_cell_length_c 8.790805
_cell_angle_alpha 90.000000
_cell_angle_beta 90.000000
_cell_angle_gamma 90.000000
_cell_volume 3647.196434
_symmetry_space_group_name_H-M "P B C M"
_symmetry_group_IT_number 57
_symmetry_cell_setting 'orthorhombic'
loop_
_space_group_symop_operation_xyz
x,y,z
-x,-y,1/2+z
x,1/2-y,-z
-x,1/2+y,1/2-z
-x,-y,-z
x,y,1/2-z
-x,1/2+y,z
x,1/2-y,1/2+z
loop_
_atom_site_type_symbol
_atom_site_label
_atom_site_fract_x
_atom_site_fract_y
_atom_site_fract_z
Si Si1 0.805970 0.474464 0.932552
Si Si2 0.034965 0.590660 0.431568
Si Si3 0.429367 0.811619 0.932640
Si Si4 0.224476 0.311301 0.567254
Si Si5 0.124763 0.689704 0.568220
Si Si6 0.866616 0.588924 0.932065
Si Si7 0.398042 0.189048 0.432675
Si Si8 0.284830 0.623331 0.930565
O O1 0.797244 0.470571 0.750000
O O2 0.891310 0.448318 0.971002
O O3 0.810376 0.538079 0.976699
O O4 0.740765 0.436340 0.009292
O O5 0.025042 0.590050 0.250000
O O6 0.061238 0.650491 0.489495
O O7 0.954157 0.575282 0.511823
O O8 0.425156 0.807556 0.750000
O O9 0.516526 0.834053 0.976777
O O10 0.420440 0.750000 0.000000
O O11 0.360962 0.850662 0.992276
O O12 0.215084 0.250000 0.500000
O O13 0.219504 0.308134 0.750000
O O14 0.162203 0.354387 0.504029
O O15 0.312314 0.333180 0.522865
O O16 0.121578 0.750000 0.500000
O O17 0.113317 0.690228 0.750000
O O18 0.210096 0.662803 0.536525
O O19 0.866477 0.593016 0.750000
O O20 0.398653 0.250000 0.500000
O O21 0.397786 0.191840 0.250000
O O22 0.295754 0.621719 0.750000
#
# Coordination Sequence:
#
# PCOD9434347 Si02
#       8
#     8   8   8   8   8   8   8   8
#     4   9  20  37  55  74 100 133 168 208 252 297
#     4  10  20  35  54  75  98 129 168 209 252 296
#     4  10  18  29  48  75 106 137 170 207 248 296
#     4  10  20  36  56  79 106 134 166 205 251 301
#     4  10  20  33  48  69 100 136 169 204 248 297
#     4  11  22  36  55  79 103 129 164 206 253 302
#     4   8  16  30  49  73 101 133 166 203 247 294
#     4  10  20  32  49  74 103 135 171 210 250 294
#
# _framework density 17.547726000000001
#
# number of rings (size 3 to 8) (size 9 to 14) (size 15 to 20)
#    0.000    2.250    0.000    3.000    0.000    5.500 
#    0.000    2.500    0.000    0.750    0.000    0.000 
#    0.000    0.000    0.000    0.000    0.000    0.000 
#
# Total GULP energy -356907.811624 kJ/mol
# GULP energy per Si atom -5576.684557 kJ/mol
# Density = 1.750779 g / cm^3
# Si number density = 17.547726 Si / 1000 Ang^3
#
#
#
# Elastic Constant Matrix: (Units=GPa)
#
#
# Indices 1 2 3 4 5 6 
#
# 1 50.3185 7.1717 16.8339 0.0000 0.0000 0.0000
# 2 7.1717 74.6571 22.2213 0.0000 0.0000 0.0000
# 3 16.8339 22.2213 34.9629 0.0000 0.0000 0.0000
# 4 0.0000 0.0000 0.0000 22.3936 0.0000 0.0000
# 5 0.0000 0.0000 0.0000 0.0000 19.7213 0.0000
# 6 0.0000 0.0000 0.0000 0.0000 0.0000 14.8072
#
#
#
# Elastic Compliance Matrix: (Units=1/GPa)
#
#
# Indices 1 2 3 4 5 6 
#
# 1 0.023805 0.001387 -0.012343 0.000000 0.000000 0.000000
# 2 0.001387 0.016600 -0.011219 0.000000 0.000000 0.000000
# 3 -0.012343 -0.011219 0.041675 0.000000 0.000000 0.000000
# 4 0.000000 0.000000 0.000000 0.044656 0.000000 0.000000
# 5 0.000000 0.000000 0.000000 0.000000 0.050707 0.000000
# 6 0.000000 0.000000 0.000000 0.000000 0.000000 0.067535
#
#
# Mechanical properties :
#
#
# Convention : Reuss Voigt Hill
#
# Bulk Modulus (GPa) = 26.50337 28.04359 27.27348
# Shear Modulus (GPa) = 16.56157 18.96520 17.76338
#
# Velocity S-wave (km/s) = 3.07547 3.29109 3.18510
# Velocity P-wave (km/s) = 5.26761 5.51885 5.39469
#
# Compressibility (1/GPa) = 0.03773105
#
# Stress axis : x y z
#
# Youngs Moduli (GPa) = 42.00778 60.23922 23.99524
#
# Poissons Ratio (x) = -0.08356 0.29618
# Poissons Ratio (y) = -0.05827 0.26919
# Poissons Ratio (z) = 0.51851 0.67580
#
# Static dielectric constant tensor:
#      x y z
#    x 1.621990 0.000000 0.000000 
#    y 0.000000 1.577480 0.000000 
#    z 0.000000 0.000000 1.581820 
# 
# From -- ./inp_files/5642.got.cif
#   From: 2010.05.17/outbox.cif.g08.bks.cpg/sg57_3_cif.got.tgz:5642.got - 2010.06.03 13:58:18.
