data_PCOD9434038
_publ_section_title
;
Structure prediction by ZEFSAII (Michael W. Deem and Ramdas Pophale) SiO2 
 PCOD9434038
Probable space group: P B C M
;
_chemical_formula_sum "Si O2"
_cell_formula_units_Z 64
_cell_length_a 22.190260
_cell_length_b 18.363054
_cell_length_c 8.574679
_cell_angle_alpha 90.000000
_cell_angle_beta 90.000000
_cell_angle_gamma 90.000000
_cell_volume 3494.018282
_symmetry_space_group_name_H-M "P B C M"
_symmetry_group_IT_number 57
_symmetry_cell_setting 'orthorhombic'
loop_
_space_group_symop_operation_xyz
x,y,z
-x,-y,1/2+z
x,1/2-y,-z
-x,1/2+y,1/2-z
-x,-y,-z
x,y,1/2-z
-x,1/2+y,z
x,1/2-y,1/2+z
loop_
_atom_site_type_symbol
_atom_site_label
_atom_site_fract_x
_atom_site_fract_y
_atom_site_fract_z
Si Si1 0.130544 0.422192 0.437381
Si Si2 0.868429 0.086273 0.936669
Si Si3 0.495384 0.666611 0.437318
Si Si4 0.000552 0.917397 0.062431
Si Si5 0.753103 0.168163 0.434765
Si Si6 0.757130 0.832534 0.937782
Si Si7 0.625649 0.832782 0.937856
Si Si8 0.628604 0.166880 0.935367
O O1 0.131771 0.430724 0.250000
O O2 0.133362 0.501432 0.516439
O O3 0.065291 0.387009 0.481194
O O4 0.187295 0.376222 0.492450
O O5 0.862914 0.093779 0.750000
O O6 0.934989 0.115096 0.987567
O O7 0.812801 0.125710 0.016767
O O8 0.496695 0.750000 0.500000
O O9 0.491032 0.668229 0.250000
O O10 0.560734 0.634193 0.484436
O O11 0.434001 0.632931 0.504435
O O12 0.002678 0.919690 0.250000
O O13 0.000000 0.000000 0.000000
O O14 0.758534 0.250000 0.500000
O O15 0.746719 0.171177 0.250000
O O16 0.691570 0.134397 0.505096
O O17 0.760968 0.832451 0.750000
O O18 0.690877 0.864018 0.984115
O O19 0.759639 0.750000 0.000000
O O20 0.625210 0.830137 0.750000
O O21 0.625798 0.750000 0.000000
O O22 0.628175 0.169164 0.750000
O O23 0.629061 0.250000 0.000000
#
# Coordination Sequence:
#
# PCOD9434038 Si02
#       8
#     8   8   8   8   8   8   8   8
#     4  10  19  33  52  76 100 127 161 199 239 286
#     4  10  19  34  54  76  98 125 159 199 241 286
#     4   9  14  22  36  57  84 116 152 193 234 277
#     4   8  16  30  50  72  96 122 155 196 239 282
#     4  11  21  34  50  71  99 131 162 198 241 289
#     4  10  19  32  48  70  99 133 166 202 245 290
#     4   8  15  25  39  59  87 120 156 194 237 281
#     4  10  17  26  40  61  89 122 156 193 234 281
#
# _framework density 18.317018999999998
#
# number of rings (size 3 to 8) (size 9 to 14) (size 15 to 20)
#    0.000    2.500    0.000    5.250    0.000    2.000 
#    0.000    0.625    0.000    0.000    0.000    0.875 
#    0.000    0.000    0.000    0.000    0.000    0.000 
#
# Total GULP energy -356303.874886 kJ/mol
# GULP energy per Si atom -5567.248045 kJ/mol
# Density = 1.827533 g / cm^3
# Si number density = 18.317019 Si / 1000 Ang^3
#
#
#
# Elastic Constant Matrix: (Units=GPa)
#
#
# Indices 1 2 3 4 5 6 
#
# 1 229.0250 29.6579 47.1697 0.0000 0.0000 0.0000
# 2 29.6579 11.2220 3.7395 0.0000 0.0000 0.0000
# 3 47.1697 3.7395 77.0263 0.0000 0.0000 0.0000
# 4 0.0000 0.0000 0.0000 18.1690 0.0000 0.0000
# 5 0.0000 0.0000 0.0000 0.0000 22.8058 0.0000
# 6 0.0000 0.0000 0.0000 0.0000 0.0000 120.9987
#
#
#
# Elastic Compliance Matrix: (Units=1/GPa)
#
#
# Indices 1 2 3 4 5 6 
#
# 1 0.007559 -0.018737 -0.003719 0.000000 0.000000 0.000000
# 2 -0.018737 0.137022 0.004822 0.000000 0.000000 0.000000
# 3 -0.003719 0.004822 0.015026 0.000000 0.000000 0.000000
# 4 0.000000 0.000000 0.000000 0.055039 0.000000 0.000000
# 5 0.000000 0.000000 0.000000 0.000000 0.043848 0.000000
# 6 0.000000 0.000000 0.000000 0.000000 0.000000 0.008265
#
#
# Mechanical properties :
#
#
# Convention : Reuss Voigt Hill
#
# Bulk Modulus (GPa) = 8.04255 53.15639 30.59947
# Shear Modulus (GPa) = 14.55717 48.17512 31.36614
#
# Velocity S-wave (km/s) = 2.82216 5.13399 4.14261
# Velocity P-wave (km/s) = 3.87553 8.01418 6.29471
#
# Compressibility (1/GPa) = 0.12433866
#
# Stress axis : x y z
#
# Youngs Moduli (GPa) = 132.29772 7.29809 66.55110
#
# Poissons Ratio (x) = 0.13674 0.24752
# Poissons Ratio (y) = 2.47887 -0.32092
# Poissons Ratio (z) = 0.49204 -0.03519
#
# Static dielectric constant tensor:
#      x y z
#    x 1.734770 0.000000 0.000000 
#    y 0.000000 1.591710 0.000000 
#    z 0.000000 0.000000 1.619920 
# 
# From -- ./inp_files/8754.got.cif
#   From: 2010.05.17/outbox.cif.g08.bks.cpg/sg57_5_cif.got.tgz:8754.got - 2010.06.03 13:58:18.
