data_PCOD9434218
_publ_section_title
;
Structure prediction by ZEFSAII (Michael W. Deem and Ramdas Pophale) SiO2 
 PCOD9434218
Probable space group: P B C M
;
_chemical_formula_sum "Si O2"
_cell_formula_units_Z 56
_cell_length_a 19.803266
_cell_length_b 18.605816
_cell_length_c 8.697255
_cell_angle_alpha 90.000000
_cell_angle_beta 90.000000
_cell_angle_gamma 90.000000
_cell_volume 3204.555122
_symmetry_space_group_name_H-M "P B C M"
_symmetry_group_IT_number 57
_symmetry_cell_setting 'orthorhombic'
loop_
_space_group_symop_operation_xyz
x,y,z
-x,-y,1/2+z
x,1/2-y,-z
-x,1/2+y,1/2-z
-x,-y,-z
x,y,1/2-z
-x,1/2+y,z
x,1/2-y,1/2+z
loop_
_atom_site_type_symbol
_atom_site_label
_atom_site_fract_x
_atom_site_fract_y
_atom_site_fract_z
Si Si1 0.556333 0.330936 0.564667
Si Si2 0.704204 0.169650 0.064098
Si Si3 0.069863 0.470755 0.566927
Si Si4 0.590524 0.830782 0.566123
Si Si5 0.724044 0.603357 0.566681
Si Si6 0.200024 0.543400 0.434992
Si Si7 0.864869 0.672365 0.934894
O O1 0.556175 0.250000 0.500000
O O2 0.556350 0.328897 0.750000
O O3 0.629754 0.360585 0.517819
O O4 0.483292 0.361661 0.517328
O O5 0.705419 0.172792 0.250000
O O6 0.763699 0.116490 0.015428
O O7 0.711291 0.250000 0.000000
O O8 0.066390 0.465967 0.750000
O O9 0.130318 0.523904 0.516318
O O10 0.089910 0.392813 0.498506
O O11 0.000000 0.500000 0.500000
O O12 0.596329 0.750000 0.500000
O O13 0.591629 0.826172 0.750000
O O14 0.654304 0.875679 0.510642
O O15 0.715997 0.610822 0.750000
O O16 0.748968 0.522682 0.534453
O O17 0.787217 0.653778 0.519492
O O18 0.188819 0.544753 0.250000
O O19 0.868138 0.671882 0.750000
O O20 0.883780 0.750000 0.000000
#
# Coordination Sequence:
#
# PCOD9434218 Si02
#       7
#     8   8   8   8   8   8   8
#     4   8  15  27  43  65  92 126 165 207 254 301
#     4   9  17  32  54  75  98 128 166 212 259 304
#     4  11  22  38  60  83 109 140 172 209 253 305
#     4  10  18  27  42  65  95 129 169 212 253 298
#     4   9  18  31  47  68  98 134 170 206 248 299
#     4   9  19  36  55  75 100 132 167 204 251 310
#     4  10  20  35  55  81 110 141 177 214 254 303
#
# _framework density 17.475124999999998
#
# number of rings (size 3 to 8) (size 9 to 14) (size 15 to 20)
#    0.000    2.571    0.000    3.429    0.000    5.143 
#    0.000    1.429    0.000    1.714    0.000    0.000 
#    0.000    0.000    0.000    0.000    0.000    0.000 
#
# Total GULP energy -312086.378747 kJ/mol
# GULP energy per Si atom -5572.971049 kJ/mol
# Density = 1.743535 g / cm^3
# Si number density = 17.475125 Si / 1000 Ang^3
#
#
#
# Elastic Constant Matrix: (Units=GPa)
#
#
# Indices 1 2 3 4 5 6 
#
# 1 155.4940 79.7648 53.0200 0.0000 0.0000 0.0000
# 2 79.7648 82.1842 35.1367 0.0000 0.0000 0.0000
# 3 53.0200 35.1367 47.9834 0.0000 0.0000 0.0000
# 4 0.0000 0.0000 0.0000 23.0726 0.0000 0.0000
# 5 0.0000 0.0000 0.0000 0.0000 24.7044 0.0000
# 6 0.0000 0.0000 0.0000 0.0000 0.0000 20.1031
#
#
#
# Elastic Compliance Matrix: (Units=1/GPa)
#
#
# Indices 1 2 3 4 5 6 
#
# 1 0.014877 -0.010788 -0.008538 0.000000 0.000000 0.000000
# 2 -0.010788 0.025537 -0.006779 0.000000 0.000000 0.000000
# 3 -0.008538 -0.006779 0.035239 0.000000 0.000000 0.000000
# 4 0.000000 0.000000 0.000000 0.043342 0.000000 0.000000
# 5 0.000000 0.000000 0.000000 0.000000 0.040479 0.000000
# 6 0.000000 0.000000 0.000000 0.000000 0.000000 0.049744
#
#
# Mechanical properties :
#
#
# Convention : Reuss Voigt Hill
#
# Bulk Modulus (GPa) = 42.65980 69.05606 55.85793
# Shear Modulus (GPa) = 18.57074 21.42537 19.99806
#
# Velocity S-wave (km/s) = 3.26344 3.50530 3.38653
# Velocity P-wave (km/s) = 6.21810 7.48234 6.87932
#
# Compressibility (1/GPa) = 0.02344127
#
# Stress axis : x y z
#
# Youngs Moduli (GPa) = 67.21985 39.15927 28.37764
#
# Poissons Ratio (x) = 0.42246 0.24229
# Poissons Ratio (y) = 0.72518 0.19237
# Poissons Ratio (z) = 0.57394 0.26546
#
# Static dielectric constant tensor:
#      x y z
#    x 1.614640 0.000000 0.000000 
#    y 0.000000 1.567810 0.000000 
#    z 0.000000 0.000000 1.593360 
# 
# From -- ./inp_files/8334.got.cif
#   From: 2010.05.17/outbox.cif.g08.bks.cpg/sg57_5_cif.got.tgz:8334.got - 2010.06.03 13:58:18.
