data_PCOD9434976
_publ_section_title
;
Structure prediction by ZEFSAII (Michael W. Deem and Ramdas Pophale) SiO2 
 PCOD9434976
Probable space group: P B C M
;
_chemical_formula_sum "Si O2"
_cell_formula_units_Z 48
_cell_length_a 11.689368
_cell_length_b 27.207297
_cell_length_c 8.677928
_cell_angle_alpha 90.000000
_cell_angle_beta 90.000000
_cell_angle_gamma 90.000000
_cell_volume 2759.894437
_symmetry_space_group_name_H-M "P B C M"
_symmetry_group_IT_number 57
_symmetry_cell_setting 'orthorhombic'
loop_
_space_group_symop_operation_xyz
x,y,z
-x,-y,1/2+z
x,1/2-y,-z
-x,1/2+y,1/2-z
-x,-y,-z
x,y,1/2-z
-x,1/2+y,z
x,1/2-y,1/2+z
loop_
_atom_site_type_symbol
_atom_site_label
_atom_site_fract_x
_atom_site_fract_y
_atom_site_fract_z
Si Si1 0.283324 0.877914 0.075926
Si Si2 0.339800 0.133757 0.430780
Si Si3 0.854588 0.803070 0.434191
Si Si4 0.889715 0.197286 0.066329
Si Si5 0.516767 0.201642 0.922926
Si Si6 0.483612 0.945591 0.436218
O O1 0.241527 0.888898 0.250000
O O2 0.383098 0.837481 0.087968
O O3 0.358785 0.923725 0.014289
O O4 0.186092 0.849920 0.980711
O O5 0.324596 0.125287 0.250000
O O6 0.222253 0.151335 0.508618
O O7 0.421195 0.180229 0.465128
O O8 0.412328 0.088928 0.504359
O O9 0.813194 0.750000 0.500000
O O10 0.853978 0.800617 0.250000
O O11 0.983525 0.808796 0.496553
O O12 0.895044 0.201544 0.250000
O O13 0.846122 0.250000 0.000000
O O14 0.470542 0.209330 0.750000
O O15 0.563845 0.250000 0.000000
O O16 0.484332 0.944356 0.250000
O O17 0.500000 0.000000 0.500000
#
# Coordination Sequence:
#
# PCOD9434976 Si02
#       6
#     8   8   8   8   8   8
#     4   9  19  34  51  73 102 135 171 211 255 306
#     4  11  21  34  52  75 103 135 173 214 259 310
#     4  11  21  35  53  75 107 144 181 217 256 305
#     4  11  21  33  51  76 107 143 181 216 254 303
#     4  10  19  30  45  69 101 135 170 208 254 307
#     4  10  21  38  59  82 106 134 171 216 268 319
#
# _framework density 17.391970000000001
#
# number of rings (size 3 to 8) (size 9 to 14) (size 15 to 20)
#    0.000    1.667    0.000    8.500    0.000    5.333 
#    0.000    0.000    0.000    1.000    0.000    0.000 
#    0.000    0.000    0.000    0.000    0.000    0.000 
#
# Total GULP energy -267628.526659 kJ/mol
# GULP energy per Si atom -5575.594305 kJ/mol
# Density = 1.735238 g / cm^3
# Si number density = 17.391970 Si / 1000 Ang^3
#
#
#
# Elastic Constant Matrix: (Units=GPa)
#
#
# Indices 1 2 3 4 5 6 
#
# 1 85.5726 47.7763 41.1120 0.0000 0.0000 0.0000
# 2 47.7763 89.1684 45.8483 0.0000 0.0000 0.0000
# 3 41.1120 45.8483 130.6234 0.0000 0.0000 0.0000
# 4 0.0000 0.0000 0.0000 24.2800 0.0000 0.0000
# 5 0.0000 0.0000 0.0000 0.0000 32.0810 0.0000
# 6 0.0000 0.0000 0.0000 0.0000 0.0000 23.6690
#
#
#
# Elastic Compliance Matrix: (Units=1/GPa)
#
#
# Indices 1 2 3 4 5 6 
#
# 1 0.017417 -0.007948 -0.002692 0.000000 0.000000 0.000000
# 2 -0.007948 0.017311 -0.003575 0.000000 0.000000 0.000000
# 3 -0.002692 -0.003575 0.009758 0.000000 0.000000 0.000000
# 4 0.000000 0.000000 0.000000 0.041186 0.000000 0.000000
# 5 0.000000 0.000000 0.000000 0.000000 0.031171 0.000000
# 6 0.000000 0.000000 0.000000 0.000000 0.000000 0.042249
#
#
# Mechanical properties :
#
#
# Convention : Reuss Voigt Hill
#
# Bulk Modulus (GPa) = 62.28000 63.87083 63.07542
# Shear Modulus (GPa) = 25.92381 27.38118 26.65250
#
# Velocity S-wave (km/s) = 3.86497 3.97212 3.91891
# Velocity P-wave (km/s) = 7.47025 7.60533 7.53809
#
# Compressibility (1/GPa) = 0.01605652
#
# Stress axis : x y z
#
# Youngs Moduli (GPa) = 57.41650 57.76641 102.48417
#
# Poissons Ratio (x) = 0.45910 0.27589
# Poissons Ratio (y) = 0.45632 0.36635
# Poissons Ratio (z) = 0.15457 0.20650
#
# Static dielectric constant tensor:
#      x y z
#    x 1.611610 0.000000 0.000000 
#    y 0.000000 1.633530 0.000000 
#    z 0.000000 0.000000 1.588980 
# 
# From -- ./inp_files/3308.got.cif
#   From: 2010.05.17/outbox.cif.g08.bks.cpg/sg57_2_cif.got.tgz:3308.got - 2010.06.03 13:58:18.
