data_PCOD9434800
_publ_section_title
;
Structure prediction by ZEFSAII (Michael W. Deem and Ramdas Pophale) SiO2 
 PCOD9434800
Probable space group: P B C M
;
_chemical_formula_sum "Si O2"
_cell_formula_units_Z 48
_cell_length_a 19.720862
_cell_length_b 7.557738
_cell_length_c 13.809472
_cell_angle_alpha 90.000000
_cell_angle_beta 90.000000
_cell_angle_gamma 90.000000
_cell_volume 2058.234247
_symmetry_space_group_name_H-M "P B C M"
_symmetry_group_IT_number 57
_symmetry_cell_setting 'orthorhombic'
loop_
_space_group_symop_operation_xyz
x,y,z
-x,-y,1/2+z
x,1/2-y,-z
-x,1/2+y,1/2-z
-x,-y,-z
x,y,1/2-z
-x,1/2+y,z
x,1/2-y,1/2+z
loop_
_atom_site_type_symbol
_atom_site_label
_atom_site_fract_x
_atom_site_fract_y
_atom_site_fract_z
Si Si1 0.185596 0.012504 0.932895
Si Si2 0.111202 0.887416 0.750000
Si Si3 0.572034 0.622727 0.357748
Si Si4 0.972185 0.744715 0.250000
Si Si5 0.423223 0.720073 0.396347
Si Si6 0.138601 0.098458 0.361792
Si Si7 0.674578 0.589559 0.859094
O O1 0.168035 0.210191 0.893294
O O2 0.266673 0.015331 0.927250
O O3 0.154727 0.888724 0.848255
O O4 0.156962 0.986668 0.041972
O O5 0.052366 0.741763 0.750000
O O6 0.066075 0.067768 0.750000
O O7 0.560166 0.694881 0.250000
O O8 0.501305 0.661703 0.409107
O O9 0.581462 0.413734 0.351856
O O10 0.637392 0.730621 0.392524
O O11 0.941204 0.639071 0.157460
O O12 0.391200 0.750000 0.500000
O O13 0.383653 0.557841 0.351596
O O14 0.162875 0.053019 0.250000
O O15 0.702912 0.618147 0.750000
#
# Coordination Sequence:
#
# PCOD9434800 Si02
#       7
#     8   4   8   4   8   8   8
#     4  10  18  35  63  88 129 169 213 264 323 403
#     4  10  18  36  64  92 130 166 206 258 322 378
#     4  11  23  41  65  92 124 172 221 280 334 400
#     4   8  18  34  60  94 120 160 210 252 310 378
#     4  12  25  40  62  95 133 165 225 284 334 399
#     4   8  17  34  55  92 119 157 217 265 304 388
#     4  11  23  40  68  96 127 178 224 271 350 399
#
# _framework density 23.320958999999998
#
# number of rings (size 3 to 8) (size 9 to 14) (size 15 to 20)
#    0.500    1.333    3.333    2.000    0.000    3.333 
#    0.000    0.000   11.000    2.000    0.000    0.000 
#    0.000    0.000    0.000    0.000    0.000    0.000 
#
# Total GULP energy -267630.240744 kJ/mol
# GULP energy per Si atom -5575.630015 kJ/mol
# Density = 2.326788 g / cm^3
# Si number density = 23.320959 Si / 1000 Ang^3
#
#
#
# Elastic Constant Matrix: (Units=GPa)
#
#
# Indices 1 2 3 4 5 6 
#
# 1 99.3071 27.7273 16.5859 0.0000 0.0000 0.0000
# 2 27.7273 99.2135 23.9198 0.0000 0.0000 0.0000
# 3 16.5859 23.9198 144.3792 0.0000 0.0000 0.0000
# 4 0.0000 0.0000 0.0000 21.3481 0.0000 0.0000
# 5 0.0000 0.0000 0.0000 0.0000 21.9585 0.0000
# 6 0.0000 0.0000 0.0000 0.0000 0.0000 27.7689
#
#
#
# Elastic Compliance Matrix: (Units=1/GPa)
#
#
# Indices 1 2 3 4 5 6 
#
# 1 0.011007 -0.002887 -0.000786 0.000000 0.000000 0.000000
# 2 -0.002887 0.011256 -0.001533 0.000000 0.000000 0.000000
# 3 -0.000786 -0.001533 0.007271 0.000000 0.000000 0.000000
# 4 0.000000 0.000000 0.000000 0.046843 0.000000 0.000000
# 5 0.000000 0.000000 0.000000 0.000000 0.045540 0.000000
# 6 0.000000 0.000000 0.000000 0.000000 0.000000 0.036011
#
#
# Mechanical properties :
#
#
# Convention : Reuss Voigt Hill
#
# Bulk Modulus (GPa) = 52.29782 53.26285 52.78034
# Shear Modulus (GPa) = 28.61828 32.52622 30.57225
#
# Velocity S-wave (km/s) = 3.50687 3.73865 3.62461
# Velocity P-wave (km/s) = 6.23470 6.44401 6.34022
#
# Compressibility (1/GPa) = 0.01912125
#
# Stress axis : x y z
#
# Youngs Moduli (GPa) = 90.85088 88.84448 137.54159
#
# Poissons Ratio (x) = 0.25646 0.10814
# Poissons Ratio (y) = 0.26225 0.21087
# Poissons Ratio (z) = 0.07143 0.13621
#
# Static dielectric constant tensor:
#      x y z
#    x 1.869680 0.000000 0.000000 
#    y 0.000000 1.923340 0.000000 
#    z 0.000000 0.000000 2.001480 
# 
# From -- ./inp_files/19270.got.cif
#   From: 2010.05.17/outbox.cif.g08.bks.cpg/sg57_10_cif.got.tgz:19270.got - 2010.06.03 13:58:18.
