data_PCOD9434471
_publ_section_title
;
Structure prediction by ZEFSAII (Michael W. Deem and Ramdas Pophale) SiO2 
 PCOD9434471
Probable space group: P B C M
;
_chemical_formula_sum "Si O2"
_cell_formula_units_Z 56
_cell_length_a 8.367403
_cell_length_b 12.731840
_cell_length_c 21.105283
_cell_angle_alpha 90.000000
_cell_angle_beta 90.000000
_cell_angle_gamma 90.000000
_cell_volume 2248.397215
_symmetry_space_group_name_H-M "P B C M"
_symmetry_group_IT_number 57
_symmetry_cell_setting 'orthorhombic'
loop_
_space_group_symop_operation_xyz
x,y,z
-x,-y,1/2+z
x,1/2-y,-z
-x,1/2+y,1/2-z
-x,-y,-z
x,y,1/2-z
-x,1/2+y,z
x,1/2-y,1/2+z
loop_
_atom_site_type_symbol
_atom_site_label
_atom_site_fract_x
_atom_site_fract_y
_atom_site_fract_z
Si Si1 0.550830 0.914768 0.324586
Si Si2 0.222905 0.683298 0.679273
Si Si3 0.359062 0.611774 0.497397
Si Si4 0.942196 0.307169 0.060286
Si Si5 0.601904 0.582782 0.094087
Si Si6 0.117083 0.436443 0.820836
Si Si7 0.839299 0.516103 0.604865
O O1 0.581263 0.914038 0.250000
O O2 0.412696 0.827579 0.336495
O O3 0.492986 0.032288 0.346222
O O4 0.711886 0.903632 0.364771
O O5 0.208111 0.726741 0.750000
O O6 0.091578 0.731678 0.631684
O O7 0.178721 0.558488 0.681369
O O8 0.241772 0.678414 0.540492
O O9 0.395372 0.518875 0.547504
O O10 0.505262 0.656333 0.454864
O O11 0.247774 0.561002 0.443084
O O12 0.031252 0.416975 0.066754
O O13 0.018650 0.250000 0.000000
O O14 0.771865 0.614131 0.123862
O O15 0.137398 0.392298 0.750000
O O16 0.934912 0.453555 0.841604
#
# Coordination Sequence:
#
# PCOD9434471 Si02
#       7
#     8   8   8   8   8   8   8
#     4   9  15  27  49  77 102 122 163 214 250 289
#     4   8  15  30  50  70  94 125 166 213 251 286
#     4  10  18  31  49  73 101 131 163 202 258 305
#     4  11  21  34  50  75 102 134 173 212 250 309
#     4   9  16  27  49  72  99 123 155 203 258 293
#     4   9  15  26  45  74  99 124 165 209 248 290
#     4  10  19  29  48  75 107 133 162 204 262 305
#
# _framework density 24.906628999999999
#
# number of rings (size 3 to 8) (size 9 to 14) (size 15 to 20)
#    0.000    2.571    4.286    2.143    0.000    0.571 
#    0.000    0.714    0.000    5.143    0.000    2.000 
#    0.000    0.000    0.000    0.000    0.000    0.000 
#
# Total GULP energy -311965.193121 kJ/mol
# GULP energy per Si atom -5570.807020 kJ/mol
# Density = 2.484994 g / cm^3
# Si number density = 24.906629 Si / 1000 Ang^3
#
#
#
# Elastic Constant Matrix: (Units=GPa)
#
#
# Indices 1 2 3 4 5 6 
#
# 1 67.1834 -5.5510 36.0014 0.0000 0.0000 0.0000
# 2 -5.5510 30.5195 0.0903 0.0000 0.0000 0.0000
# 3 36.0014 0.0903 143.7210 0.0000 0.0000 0.0000
# 4 0.0000 0.0000 0.0000 18.9111 0.0000 0.0000
# 5 0.0000 0.0000 0.0000 0.0000 29.2296 0.0000
# 6 0.0000 0.0000 0.0000 0.0000 0.0000 6.0000
#
#
#
# Elastic Compliance Matrix: (Units=1/GPa)
#
#
# Indices 1 2 3 4 5 6 
#
# 1 0.017499 0.003196 -0.004385 0.000000 0.000000 0.000000
# 2 0.003196 0.033350 -0.000821 0.000000 0.000000 0.000000
# 3 -0.004385 -0.000821 0.008057 0.000000 0.000000 0.000000
# 4 0.000000 0.000000 0.000000 0.052879 0.000000 0.000000
# 5 0.000000 0.000000 0.000000 0.000000 0.034212 0.000000
# 6 0.000000 0.000000 0.000000 0.000000 0.000000 0.166667
#
#
# Mechanical properties :
#
#
# Convention : Reuss Voigt Hill
#
# Bulk Modulus (GPa) = 18.22061 33.61170 25.91616
# Shear Modulus (GPa) = 14.92627 24.88701 19.90664
#
# Velocity S-wave (km/s) = 2.45069 3.16446 2.83017
# Velocity P-wave (km/s) = 3.91654 5.18422 4.59431
#
# Compressibility (1/GPa) = 0.05488289
#
# Stress axis : x y z
#
# Youngs Moduli (GPa) = 57.14737 29.98540 124.11652
#
# Poissons Ratio (x) = -0.09582 0.54429
# Poissons Ratio (y) = -0.18262 0.10195
# Poissons Ratio (z) = 0.25061 0.02463
#
# Static dielectric constant tensor:
#      x y z
#    x 2.062050 0.000000 0.000000 
#    y 0.000000 6.404090 0.000000 
#    z 0.000000 0.000000 2.083210 
# 
# From -- ./inp_files/24666.got.cif
#   From: 2010.05.17/outbox.cif.g08.bks.cpg/sg57_13_cif.got.tgz:24666.got - 2010.06.03 13:58:18.
