data_PCOD9434333
_publ_section_title
;
Structure prediction by ZEFSAII (Michael W. Deem and Ramdas Pophale) SiO2 
 PCOD9434333
Probable space group: P B C M
;
_chemical_formula_sum "Si O2"
_cell_formula_units_Z 48
_cell_length_a 12.482104
_cell_length_b 26.270702
_cell_length_c 8.020556
_cell_angle_alpha 90.000000
_cell_angle_beta 90.000000
_cell_angle_gamma 90.000000
_cell_volume 2630.049669
_symmetry_space_group_name_H-M "P B C M"
_symmetry_group_IT_number 57
_symmetry_cell_setting 'orthorhombic'
loop_
_space_group_symop_operation_xyz
x,y,z
-x,-y,1/2+z
x,1/2-y,-z
-x,1/2+y,1/2-z
-x,-y,-z
x,y,1/2-z
-x,1/2+y,z
x,1/2-y,1/2+z
loop_
_atom_site_type_symbol
_atom_site_label
_atom_site_fract_x
_atom_site_fract_y
_atom_site_fract_z
Si Si1 0.330829 0.691532 0.550437
Si Si2 0.352970 0.527851 0.942431
Si Si3 0.819146 0.394165 0.943276
Si Si4 0.269741 0.422509 0.056850
Si Si5 0.966972 0.942561 0.450189
Si Si6 0.486794 0.113680 0.545841
O O1 0.334848 0.750000 0.500000
O O2 0.325653 0.687638 0.750000
O O3 0.228736 0.661429 0.477912
O O4 0.436731 0.660097 0.494272
O O5 0.370422 0.513109 0.750000
O O6 0.452549 0.561557 0.004985
O O7 0.253339 0.566918 0.951127
O O8 0.320686 0.478842 0.046317
O O9 0.802599 0.407025 0.750000
O O10 0.941675 0.404256 0.988298
O O11 0.256179 0.407887 0.250000
O O12 0.364356 0.387037 0.985585
O O13 0.150891 0.427470 0.983072
O O14 0.963364 0.941878 0.250000
O O15 0.000000 0.000000 0.500000
O O16 0.485741 0.113048 0.750000
#
# Coordination Sequence:
#
# PCOD9434333 Si02
#       6
#     8   8   8   8   8   8
#     4  10  20  37  60  83 105 129 164 215 269 319
#     4  10  18  29  47  71 103 137 171 214 257 303
#     4  11  21  34  52  75 104 139 180 221 260 308
#     4  10  19  31  48  70 101 142 179 208 251 310
#     4  11  21  32  49  73 106 145 184 221 259 307
#     4   8  17  32  49  73 102 132 168 210 256 309
#
# _framework density 18.250605
#
# number of rings (size 3 to 8) (size 9 to 14) (size 15 to 20)
#    0.000    2.000    1.667    4.500    0.000    0.667 
#    0.000    4.167    0.000    1.000    0.000    2.333 
#    0.000    0.000    0.000    0.000    0.000    0.000 
#
# Total GULP energy -267790.806011 kJ/mol
# GULP energy per Si atom -5578.975125 kJ/mol
# Density = 1.820907 g / cm^3
# Si number density = 18.250605 Si / 1000 Ang^3
#
#
#
# Elastic Constant Matrix: (Units=GPa)
#
#
# Indices 1 2 3 4 5 6 
#
# 1 183.8014 59.7843 9.7289 0.0000 0.0000 0.0000
# 2 59.7843 83.9804 0.2960 0.0000 0.0000 0.0000
# 3 9.7289 0.2960 46.8927 0.0000 0.0000 0.0000
# 4 0.0000 0.0000 0.0000 18.2245 0.0000 0.0000
# 5 0.0000 0.0000 0.0000 0.0000 13.3629 0.0000
# 6 0.0000 0.0000 0.0000 0.0000 0.0000 10.5721
#
#
#
# Elastic Compliance Matrix: (Units=1/GPa)
#
#
# Indices 1 2 3 4 5 6 
#
# 1 0.007178 -0.005105 -0.001457 0.000000 0.000000 0.000000
# 2 -0.005105 0.015538 0.000961 0.000000 0.000000 0.000000
# 3 -0.001457 0.000961 0.021621 0.000000 0.000000 0.000000
# 4 0.000000 0.000000 0.000000 0.054871 0.000000 0.000000
# 5 0.000000 0.000000 0.000000 0.000000 0.074834 0.000000
# 6 0.000000 0.000000 0.000000 0.000000 0.000000 0.094589
#
#
# Mechanical properties :
#
#
# Convention : Reuss Voigt Hill
#
# Bulk Modulus (GPa) = 30.17855 50.47701 40.32778
# Shear Modulus (GPa) = 17.18928 24.75626 20.97277
#
# Velocity S-wave (km/s) = 3.07228 3.68701 3.39360
# Velocity P-wave (km/s) = 5.39970 6.77076 6.12372
#
# Compressibility (1/GPa) = 0.03313611
#
# Stress axis : x y z
#
# Youngs Moduli (GPa) = 139.30990 64.35721 46.25027
#
# Poissons Ratio (x) = 0.32854 0.06739
# Poissons Ratio (y) = 0.71117 -0.04445
# Poissons Ratio (z) = 0.20298 -0.06185
#
# Static dielectric constant tensor:
#      x y z
#    x 1.685660 0.000000 0.000000 
#    y 0.000000 1.596600 0.000000 
#    z 0.000000 0.000000 1.662930 
# 
# From -- ./inp_files/3279.got.cif
#   From: 2010.05.17/outbox.cif.g08.bks.cpg/sg57_2_cif.got.tgz:3279.got - 2010.06.03 13:58:18.
