data_PCOD9434223
_publ_section_title
;
Structure prediction by ZEFSAII (Michael W. Deem and Ramdas Pophale) SiO2 
 PCOD9434223
Probable space group: P B C M
;
_chemical_formula_sum "Si O2"
_cell_formula_units_Z 56
_cell_length_a 20.976958
_cell_length_b 18.984283
_cell_length_c 8.687730
_cell_angle_alpha 90.000000
_cell_angle_beta 90.000000
_cell_angle_gamma 90.000000
_cell_volume 3459.736499
_symmetry_space_group_name_H-M "P B C M"
_symmetry_group_IT_number 57
_symmetry_cell_setting 'orthorhombic'
loop_
_space_group_symop_operation_xyz
x,y,z
-x,-y,1/2+z
x,1/2-y,-z
-x,1/2+y,1/2-z
-x,-y,-z
x,y,1/2-z
-x,1/2+y,z
x,1/2-y,1/2+z
loop_
_atom_site_type_symbol
_atom_site_label
_atom_site_fract_x
_atom_site_fract_y
_atom_site_fract_z
Si Si1 0.562247 0.960247 0.434840
Si Si2 0.489290 0.827874 0.434809
Si Si3 0.933276 0.971421 0.435186
Si Si4 0.251605 0.826369 0.934736
Si Si5 0.885806 0.382972 0.563989
Si Si6 0.980295 0.826065 0.434529
Si Si7 0.636004 0.082270 0.565419
O O1 0.563216 0.965373 0.250000
O O2 0.548293 0.879149 0.477780
O O3 0.500000 0.000000 0.500000
O O4 0.620607 0.004094 0.503791
O O5 0.493209 0.750000 0.500000
O O6 0.487790 0.824157 0.250000
O O7 0.423645 0.867293 0.482442
O O8 0.935521 0.971048 0.250000
O O9 0.932542 0.889657 0.483464
O O10 0.884583 0.033621 0.479049
O O11 0.000000 0.000000 0.500000
O O12 0.254336 0.825173 0.750000
O O13 0.179341 0.845291 0.982610
O O14 0.269288 0.750000 0.000000
O O15 0.300450 0.884040 0.997949
O O16 0.891473 0.378205 0.750000
O O17 0.948880 0.347883 0.492469
O O18 0.963437 0.750000 0.500000
O O19 0.981687 0.822738 0.250000
O O20 0.637864 0.081213 0.750000
#
# Coordination Sequence:
#
# PCOD9434223 Si02
#       7
#     8   8   8   8   8   8   8
#     4   9  17  30  46  66  91 119 152 188 227 271
#     4   9  18  29  44  67  92 117 145 179 221 264
#     4   8  15  28  44  62  84 112 145 181 220 264
#     4  11  22  33  46  65  90 121 153 186 221 262
#     4   9  18  32  47  63  87 118 152 186 222 264
#     4  10  18  27  43  66  91 117 145 180 224 268
#     4  10  20  33  47  65  90 122 157 190 224 265
#
# _framework density 16.186205000000001
#
# number of rings (size 3 to 8) (size 9 to 14) (size 15 to 20)
#    0.000    2.571    0.000    3.429    0.000    7.429 
#    0.000    0.000    0.000    0.000    0.000    1.000 
#    0.000    2.286    0.000    0.000    0.000    0.000 
#
# Total GULP energy -311856.753807 kJ/mol
# GULP energy per Si atom -5568.870604 kJ/mol
# Density = 1.614936 g / cm^3
# Si number density = 16.186205 Si / 1000 Ang^3
#
#
#
# Elastic Constant Matrix: (Units=GPa)
#
#
# Indices 1 2 3 4 5 6 
#
# 1 17.5327 -3.0982 6.3049 0.0000 0.0000 0.0000
# 2 -3.0982 86.4333 13.3158 0.0000 0.0000 0.0000
# 3 6.3049 13.3158 26.2161 0.0000 0.0000 0.0000
# 4 0.0000 0.0000 0.0000 27.2895 0.0000 0.0000
# 5 0.0000 0.0000 0.0000 0.0000 16.5429 0.0000
# 6 0.0000 0.0000 0.0000 0.0000 0.0000 28.0663
#
#
#
# Elastic Compliance Matrix: (Units=1/GPa)
#
#
# Indices 1 2 3 4 5 6 
#
# 1 0.064441 0.005096 -0.018086 0.000000 0.000000 0.000000
# 2 0.005096 0.012955 -0.007806 0.000000 0.000000 0.000000
# 3 -0.018086 -0.007806 0.046459 0.000000 0.000000 0.000000
# 4 0.000000 0.000000 0.000000 0.036644 0.000000 0.000000
# 5 0.000000 0.000000 0.000000 0.000000 0.060449 0.000000
# 6 0.000000 0.000000 0.000000 0.000000 0.000000 0.035630
#
#
# Mechanical properties :
#
#
# Convention : Reuss Voigt Hill
#
# Bulk Modulus (GPa) = 12.15613 18.13634 15.14624
# Shear Modulus (GPa) = 15.35675 21.95704 18.65689
#
# Velocity S-wave (km/s) = 3.08353 3.68710 3.39874
# Velocity P-wave (km/s) = 4.49489 5.41807 4.97792
#
# Compressibility (1/GPa) = 0.08226303
#
# Stress axis : x y z
#
# Youngs Moduli (GPa) = 15.51813 77.19123 21.52445
#
# Poissons Ratio (x) = -0.39338 0.38930
# Poissons Ratio (y) = -0.07908 0.16801
# Poissons Ratio (z) = 0.28066 0.60253
#
# Static dielectric constant tensor:
#      x y z
#    x 1.544110 0.000000 0.000000 
#    y 0.000000 1.587990 0.000000 
#    z 0.000000 0.000000 1.545850 
# 
# From -- ./inp_files/8293.got.cif
#   From: 2010.05.17/outbox.cif.g08.bks.cpg/sg57_5_cif.got.tgz:8293.got - 2010.06.03 13:58:18.
