data_PCOD9434538
_publ_section_title
;
Structure prediction by ZEFSAII (Michael W. Deem and Ramdas Pophale) SiO2 
 PCOD9434538
Probable space group: P B C M
;
_chemical_formula_sum "Si O2"
_cell_formula_units_Z 48
_cell_length_a 32.043375
_cell_length_b 9.421243
_cell_length_c 8.688963
_cell_angle_alpha 90.000000
_cell_angle_beta 90.000000
_cell_angle_gamma 90.000000
_cell_volume 2623.097332
_symmetry_space_group_name_H-M "P B C M"
_symmetry_group_IT_number 57
_symmetry_cell_setting 'orthorhombic'
loop_
_space_group_symop_operation_xyz
x,y,z
-x,-y,1/2+z
x,1/2-y,-z
-x,1/2+y,1/2-z
-x,-y,-z
x,y,1/2-z
-x,1/2+y,z
x,1/2-y,1/2+z
loop_
_atom_site_type_symbol
_atom_site_label
_atom_site_fract_x
_atom_site_fract_y
_atom_site_fract_z
Si Si1 0.037399 0.408034 0.566251
Si Si2 0.620284 0.090459 0.065399
Si Si3 0.206765 0.590551 0.066162
Si Si4 0.131122 0.090664 0.065023
Si Si5 0.538262 0.591126 0.565675
Si Si6 0.707056 0.089166 0.565937
O O1 0.034275 0.250000 0.500000
O O2 0.034341 0.402962 0.750000
O O3 0.084136 0.462104 0.527400
O O4 0.000000 0.500000 0.500000
O O5 0.624492 0.100614 0.250000
O O6 0.581064 0.991605 0.027175
O O7 0.613788 0.250000 0.000000
O O8 0.663252 0.029492 0.994886
O O9 0.209131 0.596041 0.250000
O O10 0.203200 0.750000 0.000000
O O11 0.167014 0.503102 0.009974
O O12 0.250005 0.526157 0.999639
O O13 0.135617 0.092095 0.250000
O O14 0.134253 0.250000 0.000000
O O15 0.537967 0.750000 0.500000
O O16 0.500000 0.500000 0.500000
O O17 0.534812 0.597503 0.750000
O O18 0.706750 0.250000 0.500000
O O19 0.707973 0.091615 0.750000
#
# Coordination Sequence:
#
# PCOD9434538 Si02
#       6
#     8   8   8   8   8   8
#     4  10  21  37  58  81 109 142 180 224 272 326
#     4  10  20  35  56  83 111 144 183 225 273 327
#     4  11  21  35  56  82 112 146 185 231 274 321
#     4  10  21  38  57  80 109 144 182 223 273 329
#     4  11  24  40  60  84 114 148 186 230 277 328
#     4  10  18  31  53  80 110 144 181 225 273 325
#
# _framework density 18.298977000000001
#
# number of rings (size 3 to 8) (size 9 to 14) (size 15 to 20)
#    0.000    1.667    0.000    7.500    0.000    6.667 
#    0.000    0.833    0.000    2.000    0.000    0.000 
#    0.000    0.000    0.000    0.000    0.000    0.000 
#
# Total GULP energy -268064.787592 kJ/mol
# GULP energy per Si atom -5584.683075 kJ/mol
# Density = 1.825733 g / cm^3
# Si number density = 18.298977 Si / 1000 Ang^3
#
#
#
# Elastic Constant Matrix: (Units=GPa)
#
#
# Indices 1 2 3 4 5 6 
#
# 1 224.9902 87.3493 98.5392 0.0000 0.0000 0.0000
# 2 87.3493 76.7420 44.2213 0.0000 0.0000 0.0000
# 3 98.5392 44.2213 128.1416 0.0000 0.0000 0.0000
# 4 0.0000 0.0000 0.0000 30.5296 0.0000 0.0000
# 5 0.0000 0.0000 0.0000 0.0000 30.5033 0.0000
# 6 0.0000 0.0000 0.0000 0.0000 0.0000 29.7295
#
#
#
# Elastic Compliance Matrix: (Units=1/GPa)
#
#
# Indices 1 2 3 4 5 6 
#
# 1 0.009715 -0.008429 -0.004562 0.000000 0.000000 0.000000
# 2 -0.008429 0.023579 -0.001655 0.000000 0.000000 0.000000
# 3 -0.004562 -0.001655 0.011883 0.000000 0.000000 0.000000
# 4 0.000000 0.000000 0.000000 0.032755 0.000000 0.000000
# 5 0.000000 0.000000 0.000000 0.000000 0.032783 0.000000
# 6 0.000000 0.000000 0.000000 0.000000 0.000000 0.033637
#
#
# Mechanical properties :
#
#
# Convention : Reuss Voigt Hill
#
# Bulk Modulus (GPa) = 62.95391 98.89927 80.92659
# Shear Modulus (GPa) = 27.94245 31.47007 29.70626
#
# Velocity S-wave (km/s) = 3.91192 4.15151 4.03349
# Velocity P-wave (km/s) = 7.40822 8.78315 8.12482
#
# Compressibility (1/GPa) = 0.01588464
#
# Stress axis : x y z
#
# Youngs Moduli (GPa) = 102.93159 42.41111 84.15353
#
# Poissons Ratio (x) = 0.35750 0.38390
# Poissons Ratio (y) = 0.86764 0.13927
# Poissons Ratio (z) = 0.46957 0.07019
#
# Static dielectric constant tensor:
#      x y z
#    x 1.662710 0.000000 0.000000 
#    y 0.000000 1.602120 0.000000 
#    z 0.000000 0.000000 1.609790 
# 
# From -- ./inp_files/9899.got.cif
#   From: 2010.05.17/outbox.cif.g08.bks.cpg/sg57_5_cif.got.tgz:9899.got - 2010.06.03 13:58:18.
