data_PCOD9434116
_publ_section_title
;
Structure prediction by ZEFSAII (Michael W. Deem and Ramdas Pophale) SiO2 
 PCOD9434116
Probable space group: P B C M
;
_chemical_formula_sum "Si O2"
_cell_formula_units_Z 64
_cell_length_a 10.807663
_cell_length_b 18.211789
_cell_length_c 19.814818
_cell_angle_alpha 90.000000
_cell_angle_beta 90.000000
_cell_angle_gamma 90.000000
_cell_volume 3900.088768
_symmetry_space_group_name_H-M "P B C M"
_symmetry_group_IT_number 57
_symmetry_cell_setting 'orthorhombic'
loop_
_space_group_symop_operation_xyz
x,y,z
-x,-y,1/2+z
x,1/2-y,-z
-x,1/2+y,1/2-z
-x,-y,-z
x,y,1/2-z
-x,1/2+y,z
x,1/2-y,1/2+z
loop_
_atom_site_type_symbol
_atom_site_label
_atom_site_fract_x
_atom_site_fract_y
_atom_site_fract_z
Si Si1 0.116253 0.474206 0.673439
Si Si2 0.286561 0.773103 0.670630
Si Si3 0.284934 0.409237 0.944267
Si Si4 0.854318 0.369327 0.385298
Si Si5 0.308520 0.559931 0.495199
Si Si6 0.117574 0.600694 0.389979
Si Si7 0.483899 0.811964 0.942114
Si Si8 0.055579 0.165313 0.507096
O O1 0.143184 0.454211 0.750000
O O2 0.213391 0.436985 0.622290
O O3 0.123168 0.561750 0.663195
O O4 0.980785 0.445549 0.652208
O O5 0.316206 0.771347 0.750000
O O6 0.211159 0.700074 0.649074
O O7 0.197349 0.842061 0.653370
O O8 0.406743 0.782402 0.622337
O O9 0.380124 0.344221 0.928373
O O10 0.348411 0.480772 0.977568
O O11 0.177697 0.382338 0.995197
O O12 0.764514 0.400239 0.443969
O O13 0.980932 0.348389 0.423979
O O14 0.211429 0.551354 0.433677
O O15 0.408942 0.617728 0.470190
O O16 0.038640 0.645081 0.446266
O O17 0.486842 0.750000 0.000000
O O18 0.088704 0.250000 0.500000
#
# Coordination Sequence:
#
# PCOD9434116 Si02
#       8
#     8   8   8   8   8   8   8   8
#     4  10  20  34  50  74 110 145 170 210 266 327
#     4  11  21  33  53  80 105 138 180 219 261 315
#     4  10  21  33  51  80 104 135 181 220 263 314
#     4  10  18  32  54  77 105 133 173 215 267 310
#     4   9  18  33  55  77 100 130 171 224 264 305
#     4   9  18  31  53  78 105 135 167 213 266 312
#     4  11  21  36  55  75 104 140 177 225 268 307
#     4  10  17  30  53  80 107 133 169 217 264 312
#
# _framework density 16.409883000000001
#
# number of rings (size 3 to 8) (size 9 to 14) (size 15 to 20)
#    0.000    2.000    2.500    2.250    0.000    3.500 
#    0.000    0.000    0.000    0.000    0.000    0.875 
#    0.000    0.000    0.000    0.000    0.000    0.000 
#
# Total GULP energy -356804.221869 kJ/mol
# GULP energy per Si atom -5575.065967 kJ/mol
# Density = 1.637253 g / cm^3
# Si number density = 16.409883 Si / 1000 Ang^3
#
#
#
# Elastic Constant Matrix: (Units=GPa)
#
#
# Indices 1 2 3 4 5 6 
#
# 1 78.0917 46.6420 45.8847 0.0000 0.0000 0.0000
# 2 46.6420 94.2883 50.6616 0.0000 0.0000 0.0000
# 3 45.8847 50.6616 100.0170 0.0000 0.0000 0.0000
# 4 0.0000 0.0000 0.0000 16.8707 0.0000 0.0000
# 5 0.0000 0.0000 0.0000 0.0000 8.5512 0.0000
# 6 0.0000 0.0000 0.0000 0.0000 0.0000 23.0995
#
#
#
# Elastic Compliance Matrix: (Units=1/GPa)
#
#
# Indices 1 2 3 4 5 6 
#
# 1 0.020382 -0.006950 -0.005830 0.000000 0.000000 0.000000
# 2 -0.006950 0.016941 -0.005393 0.000000 0.000000 0.000000
# 3 -0.005830 -0.005393 0.015405 0.000000 0.000000 0.000000
# 4 0.000000 0.000000 0.000000 0.059274 0.000000 0.000000
# 5 0.000000 0.000000 0.000000 0.000000 0.116942 0.000000
# 6 0.000000 0.000000 0.000000 0.000000 0.000000 0.043291
#
#
# Mechanical properties :
#
#
# Convention : Reuss Voigt Hill
#
# Bulk Modulus (GPa) = 61.04275 62.08596 61.56435
# Shear Modulus (GPa) = 15.92138 18.31819 17.11979
#
# Velocity S-wave (km/s) = 3.11823 3.34472 3.23346
# Velocity P-wave (km/s) = 7.08830 7.26862 7.17903
#
# Compressibility (1/GPa) = 0.01638196
#
# Stress axis : x y z
#
# Youngs Moduli (GPa) = 49.06237 59.02733 64.91482
#
# Poissons Ratio (x) = 0.41023 0.37848
# Poissons Ratio (y) = 0.34098 0.35008
# Poissons Ratio (z) = 0.28606 0.31833
#
# Static dielectric constant tensor:
#      x y z
#    x 1.551310 0.000000 0.000000 
#    y 0.000000 1.544310 0.000000 
#    z 0.000000 0.000000 1.530480 
# 
# From -- ./inp_files/22168.got.cif
#   From: 2010.05.17/outbox.cif.g08.bks.cpg/sg57_12_cif.got.tgz:22168.got - 2010.06.03 13:58:18.
