data_PCOD9434257
_publ_section_title
;
Structure prediction by ZEFSAII (Michael W. Deem and Ramdas Pophale) SiO2 
 PCOD9434257
Probable space group: P B C M
;
_chemical_formula_sum "Si O2"
_cell_formula_units_Z 48
_cell_length_a 15.980422
_cell_length_b 22.047747
_cell_length_c 8.260697
_cell_angle_alpha 90.000000
_cell_angle_beta 90.000000
_cell_angle_gamma 90.000000
_cell_volume 2910.510384
_symmetry_space_group_name_H-M "P B C M"
_symmetry_group_IT_number 57
_symmetry_cell_setting 'orthorhombic'
loop_
_space_group_symop_operation_xyz
x,y,z
-x,-y,1/2+z
x,1/2-y,-z
-x,1/2+y,1/2-z
-x,-y,-z
x,y,1/2-z
-x,1/2+y,z
x,1/2-y,1/2+z
loop_
_atom_site_type_symbol
_atom_site_label
_atom_site_fract_x
_atom_site_fract_y
_atom_site_fract_z
Si Si1 0.616066 0.953353 0.054630
Si Si2 0.801055 0.540470 0.554403
Si Si3 0.157206 0.596299 0.944300
Si Si4 0.978733 0.568332 0.945323
Si Si5 0.443617 0.912784 0.944901
Si Si6 0.305395 0.681111 0.443422
O O1 0.616010 0.953413 0.250000
O O2 0.709755 0.938390 0.997440
O O3 0.593768 0.022153 0.000067
O O4 0.539985 0.911528 0.997661
O O5 0.800344 0.542589 0.750000
O O6 0.813656 0.469915 0.506851
O O7 0.883227 0.577454 0.497311
O O8 0.158560 0.594407 0.750000
O O9 0.060395 0.605869 0.998712
O O10 0.221220 0.646888 0.002901
O O11 0.977232 0.570737 0.750000
O O12 0.000000 0.500000 0.000000
O O13 0.441143 0.913030 0.750000
O O14 0.384170 0.858888 0.004318
O O15 0.308317 0.750000 0.500000
O O16 0.307936 0.680163 0.250000
#
# Coordination Sequence:
#
# PCOD9434257 Si02
#       6
#     8   8   8   8   8   8
#     4   9  16  27  45  67  91 121 152 182 227 277
#     4   9  15  27  44  65  94 125 151 182 223 269
#     4  10  18  28  43  66  92 121 154 188 224 268
#     4   8  15  25  40  62  90 120 149 178 215 260
#     4   9  18  31  44  63  90 119 150 188 231 273
#     4  11  22  36  50  66  89 121 157 193 233 274
#
# _framework density 16.491952999999999
#
# number of rings (size 3 to 8) (size 9 to 14) (size 15 to 20)
#    0.000    2.667    1.667    1.000    0.000    2.667 
#    0.000    0.000    0.000    0.000    0.000    1.167 
#    0.000    2.667    0.000    0.000    0.000    0.000 
#
# Total GULP energy -267218.525697 kJ/mol
# GULP energy per Si atom -5567.052619 kJ/mol
# Density = 1.645442 g / cm^3
# Si number density = 16.491953 Si / 1000 Ang^3
#
#
#
# Elastic Constant Matrix: (Units=GPa)
#
#
# Indices 1 2 3 4 5 6 
#
# 1 209.3341 64.8376 19.7329 0.0000 0.0000 0.0000
# 2 64.8376 63.3670 3.7029 0.0000 0.0000 0.0000
# 3 19.7329 3.7029 4.5639 0.0000 0.0000 0.0000
# 4 0.0000 0.0000 0.0000 16.7862 0.0000 0.0000
# 5 0.0000 0.0000 0.0000 0.0000 19.3646 0.0000
# 6 0.0000 0.0000 0.0000 0.0000 0.0000 22.7024
#
#
#
# Elastic Compliance Matrix: (Units=1/GPa)
#
#
# Indices 1 2 3 4 5 6 
#
# 1 0.011832 -0.009571 -0.043392 0.000000 0.000000 0.000000
# 2 -0.009571 0.024308 0.021659 0.000000 0.000000 0.000000
# 3 -0.043392 0.021659 0.389157 0.000000 0.000000 0.000000
# 4 0.000000 0.000000 0.000000 0.059573 0.000000 0.000000
# 5 0.000000 0.000000 0.000000 0.000000 0.051641 0.000000
# 6 0.000000 0.000000 0.000000 0.000000 0.000000 0.044048
#
#
# Mechanical properties :
#
#
# Convention : Reuss Voigt Hill
#
# Bulk Modulus (GPa) = 2.75719 50.42350 26.59035
# Shear Modulus (GPa) = 6.54396 24.37007 15.45702
#
# Velocity S-wave (km/s) = 1.99414 3.84825 3.06477
# Velocity P-wave (km/s) = 2.64151 7.09833 5.35556
#
# Compressibility (1/GPa) = 0.36268810
#
# Stress axis : x y z
#
# Youngs Moduli (GPa) = 84.51818 41.13825 2.56966
#
# Poissons Ratio (x) = 0.39372 0.11150
# Poissons Ratio (y) = 0.80890 -0.05566
# Poissons Ratio (z) = 3.66743 -0.89100
#
# Static dielectric constant tensor:
#      x y z
#    x 1.628710 0.000000 0.000000 
#    y 0.000000 1.504990 0.000000 
#    z 0.000000 0.000000 1.561910 
# 
# From -- ./inp_files/4830.got.cif
#   From: 2010.05.17/outbox.cif.g08.bks.cpg/sg57_3_cif.got.tgz:4830.got - 2010.06.03 13:58:18.
