data_PCOD9434530
_publ_section_title
;
Structure prediction by ZEFSAII (Michael W. Deem and Ramdas Pophale) SiO2 
 PCOD9434530
Probable space group: P B C M
;
_chemical_formula_sum "Si O2"
_cell_formula_units_Z 64
_cell_length_a 12.605563
_cell_length_b 18.351294
_cell_length_c 14.939014
_cell_angle_alpha 90.000000
_cell_angle_beta 90.000000
_cell_angle_gamma 90.000000
_cell_volume 3455.818096
_symmetry_space_group_name_H-M "P B C M"
_symmetry_group_IT_number 57
_symmetry_cell_setting 'orthorhombic'
loop_
_space_group_symop_operation_xyz
x,y,z
-x,-y,1/2+z
x,1/2-y,-z
-x,1/2+y,1/2-z
-x,-y,-z
x,y,1/2-z
-x,1/2+y,z
x,1/2-y,1/2+z
loop_
_atom_site_type_symbol
_atom_site_label
_atom_site_fract_x
_atom_site_fract_y
_atom_site_fract_z
Si Si1 0.401866 0.168175 0.358875
Si Si2 0.627147 0.115599 0.357079
Si Si3 0.840164 0.314186 0.567582
Si Si4 0.727811 0.694547 0.853747
Si Si5 0.883035 0.029927 0.002266
Si Si6 0.066629 0.219636 0.100957
Si Si7 0.272941 0.468650 0.141947
Si Si8 0.199760 0.074207 0.356849
O O1 0.407073 0.174307 0.250000
O O2 0.519003 0.150719 0.393200
O O3 0.346767 0.242319 0.392853
O O4 0.317930 0.103809 0.375061
O O5 0.620978 0.117531 0.250000
O O6 0.734137 0.157956 0.384055
O O7 0.639919 0.030045 0.381693
O O8 0.812334 0.250000 0.500000
O O9 0.880002 0.383424 0.509814
O O10 0.942528 0.289254 0.626574
O O11 0.698172 0.687752 0.750000
O O12 0.849021 0.724112 0.855812
O O13 0.712456 0.613880 0.891917
O O14 0.823775 0.995993 0.916712
O O15 0.830208 0.999006 0.092552
O O16 0.000000 0.000000 0.000000
O O17 0.121594 0.140663 0.113883
O O18 0.062738 0.250000 0.000000
O O19 0.260927 0.468099 0.250000
O O20 0.187008 0.063031 0.250000
#
# Coordination Sequence:
#
# PCOD9434530 Si02
#       8
#     8   8   8   8   8   8   8   8
#     4   8  16  33  56  81 111 145 184 237 286 335
#     4   9  18  36  58  77 105 149 193 229 281 346
#     4  10  22  37  52  74 111 147 185 227 283 342
#     4   9  17  30  51  82 110 133 178 237 286 332
#     4  11  21  37  56  79 111 150 184 231 292 339
#     4  10  18  31  53  76 110 146 181 229 285 335
#     4   9  19  34  55  84 112 143 190 238 284 342
#     4  10  20  35  57  85 113 147 192 236 291 349
#
# _framework density 18.519493000000001
#
# number of rings (size 3 to 8) (size 9 to 14) (size 15 to 20)
#    0.000    2.500    1.250    1.875    1.750    1.500 
#    0.000    8.125    0.000    3.000    0.000    0.000 
#    0.000    0.000    0.000    0.000    0.000    0.000 
#
# Total GULP energy -356426.255142 kJ/mol
# GULP energy per Si atom -5569.160237 kJ/mol
# Density = 1.847734 g / cm^3
# Si number density = 18.519493 Si / 1000 Ang^3
#
#
#
# Elastic Constant Matrix: (Units=GPa)
#
#
# Indices 1 2 3 4 5 6 
#
# 1 130.2559 51.7029 14.8103 0.0000 0.0000 0.0000
# 2 51.7029 133.6099 19.4362 0.0000 0.0000 0.0000
# 3 14.8103 19.4362 38.5907 0.0000 0.0000 0.0000
# 4 0.0000 0.0000 0.0000 24.7490 0.0000 0.0000
# 5 0.0000 0.0000 0.0000 0.0000 27.5012 0.0000
# 6 0.0000 0.0000 0.0000 0.0000 0.0000 10.8752
#
#
#
# Elastic Compliance Matrix: (Units=1/GPa)
#
#
# Indices 1 2 3 4 5 6 
#
# 1 0.009194 -0.003285 -0.001874 0.000000 0.000000 0.000000
# 2 -0.003285 0.009250 -0.003398 0.000000 0.000000 0.000000
# 3 -0.001874 -0.003398 0.028344 0.000000 0.000000 0.000000
# 4 0.000000 0.000000 0.000000 0.040406 0.000000 0.000000
# 5 0.000000 0.000000 0.000000 0.000000 0.036362 0.000000
# 6 0.000000 0.000000 0.000000 0.000000 0.000000 0.091953
#
#
# Mechanical properties :
#
#
# Convention : Reuss Voigt Hill
#
# Bulk Modulus (GPa) = 33.70008 52.70613 43.20310
# Shear Modulus (GPa) = 20.61738 27.05887 23.83812
#
# Velocity S-wave (km/s) = 3.34020 3.82658 3.59164
# Velocity P-wave (km/s) = 5.75435 6.93147 6.37016
#
# Compressibility (1/GPa) = 0.02967352
#
# Stress axis : x y z
#
# Youngs Moduli (GPa) = 108.76280 108.10700 35.28137
#
# Poissons Ratio (x) = 0.35517 0.06612
# Poissons Ratio (y) = 0.35732 0.11989
# Poissons Ratio (z) = 0.20382 0.36734
#
# Static dielectric constant tensor:
#      x y z
#    x 1.653180 0.000000 0.000000 
#    y 0.000000 1.668780 0.000000 
#    z 0.000000 0.000000 1.658500 
# 
# From -- ./inp_files/17985.got.cif
#   From: 2010.05.17/outbox.cif.g08.bks.cpg/sg57_9_cif.got.tgz:17985.got - 2010.06.03 13:58:18.
