data_PCOD9434797
_publ_section_title
;
Structure prediction by ZEFSAII (Michael W. Deem and Ramdas Pophale) SiO2 
 PCOD9434797
Probable space group: P B C M
;
_chemical_formula_sum "Si O2"
_cell_formula_units_Z 40
_cell_length_a 7.495146
_cell_length_b 9.122341
_cell_length_c 29.515296
_cell_angle_alpha 90.000000
_cell_angle_beta 90.000000
_cell_angle_gamma 90.000000
_cell_volume 2018.057529
_symmetry_space_group_name_H-M "P B C M"
_symmetry_group_IT_number 57
_symmetry_cell_setting 'orthorhombic'
loop_
_space_group_symop_operation_xyz
x,y,z
-x,-y,1/2+z
x,1/2-y,-z
-x,1/2+y,1/2-z
-x,-y,-z
x,y,1/2-z
-x,1/2+y,z
x,1/2-y,1/2+z
loop_
_atom_site_type_symbol
_atom_site_label
_atom_site_fract_x
_atom_site_fract_y
_atom_site_fract_z
Si Si1 0.811488 0.045298 0.099041
Si Si2 0.394133 0.089505 0.390865
Si Si3 0.753664 0.067529 0.298654
Si Si4 0.465254 0.838007 0.171670
Si Si5 0.901817 0.737200 0.053785
O O1 0.599019 0.067566 0.093981
O O2 0.852401 0.047701 0.153202
O O3 0.917195 0.172538 0.074035
O O4 0.864724 0.893713 0.076154
O O5 0.407497 0.229607 0.357410
O O6 0.255201 0.127514 0.429630
O O7 0.354281 0.942971 0.362257
O O8 0.847272 0.051462 0.250000
O O9 0.662669 0.227972 0.301809
O O10 0.593088 0.948274 0.301331
O O11 0.907029 0.750000 0.000000
#
# Coordination Sequence:
#
# PCOD9434797 Si02
#       5
#     8   8   8   8   8
#     4  10  25  41  61  94 126 161 205 264 311 364
#     4  10  19  41  63  87 125 164 200 255 314 361
#     4  10  18  35  61  90 125 162 207 251 310 375
#     4   8  17  33  60  89 119 160 197 252 305 359
#     4  12  25  42  66  90 123 170 211 258 317 370
#
# _framework density 19.821038999999999
#
# number of rings (size 3 to 8) (size 9 to 14) (size 15 to 20)
#    0.000    2.400    4.000    1.200    5.600    1.600 
#    0.000    1.000    0.000    0.000    0.000    0.000 
#    0.000    0.000    0.000    0.000    0.000    0.000 
#
# Total GULP energy -223092.640693 kJ/mol
# GULP energy per Si atom -5577.316017 kJ/mol
# Density = 1.977593 g / cm^3
# Si number density = 19.821039 Si / 1000 Ang^3
#
#
#
# Elastic Constant Matrix: (Units=GPa)
#
#
# Indices 1 2 3 4 5 6 
#
# 1 43.2425 18.1870 24.4725 0.0000 0.0000 0.0000
# 2 18.1870 121.2261 42.9006 0.0000 0.0000 0.0000
# 3 24.4725 42.9006 171.1263 0.0000 0.0000 0.0000
# 4 0.0000 0.0000 0.0000 5.0976 0.0000 0.0000
# 5 0.0000 0.0000 0.0000 0.0000 22.2260 0.0000
# 6 0.0000 0.0000 0.0000 0.0000 0.0000 15.6189
#
#
#
# Elastic Compliance Matrix: (Units=1/GPa)
#
#
# Indices 1 2 3 4 5 6 
#
# 1 0.026023 -0.002839 -0.003010 0.000000 0.000000 0.000000
# 2 -0.002839 0.009362 -0.001941 0.000000 0.000000 0.000000
# 3 -0.003010 -0.001941 0.006761 0.000000 0.000000 0.000000
# 4 0.000000 0.000000 0.000000 0.196169 0.000000 0.000000
# 5 0.000000 0.000000 0.000000 0.000000 0.044992 0.000000
# 6 0.000000 0.000000 0.000000 0.000000 0.000000 0.064025
#
#
# Mechanical properties :
#
#
# Convention : Reuss Voigt Hill
#
# Bulk Modulus (GPa) = 37.64229 56.30166 46.97198
# Shear Modulus (GPa) = 13.44931 25.25750 19.35340
#
# Velocity S-wave (km/s) = 2.60770 3.57357 3.12814
# Velocity P-wave (km/s) = 5.30086 6.74492 6.06601
#
# Compressibility (1/GPa) = 0.02656586
#
# Stress axis : x y z
#
# Youngs Moduli (GPa) = 38.42796 106.81641 147.91472
#
# Poissons Ratio (x) = 0.30325 0.44519
# Poissons Ratio (y) = 0.10910 0.28710
# Poissons Ratio (z) = 0.11566 0.20733
#
# Static dielectric constant tensor:
#      x y z
#    x 1.701370 0.000000 0.000000 
#    y 0.000000 1.708860 0.000000 
#    z 0.000000 0.000000 1.743380 
# 
# From -- ./inp_files/29371.got.cif
#   From: 2010.05.17/outbox.cif.g08.bks.cpg/sg57_15_cif.got.tgz:29371.got - 2010.06.03 13:58:18.
