data_PCOD9434251
_publ_section_title
;
Structure prediction by ZEFSAII (Michael W. Deem and Ramdas Pophale) SiO2 
 PCOD9434251
Probable space group: P B C M
;
_chemical_formula_sum "Si O2"
_cell_formula_units_Z 64
_cell_length_a 30.307881
_cell_length_b 14.377983
_cell_length_c 8.106877
_cell_angle_alpha 90.000000
_cell_angle_beta 90.000000
_cell_angle_gamma 90.000000
_cell_volume 3532.702966
_symmetry_space_group_name_H-M "P B C M"
_symmetry_group_IT_number 57
_symmetry_cell_setting 'orthorhombic'
loop_
_space_group_symop_operation_xyz
x,y,z
-x,-y,1/2+z
x,1/2-y,-z
-x,1/2+y,1/2-z
-x,-y,-z
x,y,1/2-z
-x,1/2+y,z
x,1/2-y,1/2+z
loop_
_atom_site_type_symbol
_atom_site_label
_atom_site_fract_x
_atom_site_fract_y
_atom_site_fract_z
Si Si1 0.846809 0.643936 0.949530
Si Si2 0.576698 0.857368 0.445890
Si Si3 0.982432 0.355510 0.552470
Si Si4 0.662856 0.968029 0.047775
Si Si5 0.482531 0.641348 0.053141
Si Si6 0.614505 0.143956 0.051228
Si Si7 0.747214 0.644211 0.949234
Si Si8 0.068671 0.464801 0.448417
O O1 0.846638 0.640703 0.750000
O O2 0.796972 0.622310 0.007326
O O3 0.884774 0.574549 0.010622
O O4 0.856978 0.750000 0.000000
O O5 0.578019 0.750000 0.500000
O O6 0.578689 0.860319 0.250000
O O7 0.620307 0.908818 0.508680
O O8 0.528867 0.899197 0.492129
O O9 0.973738 0.250000 0.500000
O O10 0.982962 0.358542 0.750000
O O11 0.947466 0.433669 0.491995
O O12 0.029919 0.392092 0.491208
O O13 0.663503 0.965544 0.250000
O O14 0.708553 0.923436 0.990703
O O15 0.652165 0.073134 0.996127
O O16 0.483254 0.635581 0.250000
O O17 0.434192 0.609813 0.993625
O O18 0.483588 0.750000 0.000000
O O19 0.613150 0.141530 0.250000
O O20 0.620989 0.250000 0.000000
O O21 0.747672 0.640537 0.750000
O O22 0.737104 0.750000 0.000000
O O23 0.071488 0.469904 0.250000
#
# Coordination Sequence:
#
# PCOD9434251 Si02
#       8
#     8   8   8   8   8   8   8   8
#     4   9  17  29  47  70  93 119 151 186 224 265
#     4  10  18  28  43  63  89 117 141 168 205 253
#     4  10  19  30  45  66  95 129 162 196 233 274
#     4   9  18  31  47  66  88 115 143 173 215 264
#     4   9  16  27  43  61  83 110 140 174 210 250
#     4   9  18  33  49  64  83 109 143 180 216 254
#     4   9  17  31  50  70  93 119 145 177 220 268
#     4   9  18  31  46  67  94 124 161 199 232 271
#
# _framework density 18.116440999999998
#
# number of rings (size 3 to 8) (size 9 to 14) (size 15 to 20)
#    0.000    2.750    0.000    2.625    0.000    3.000 
#    0.000    2.500    0.000    0.750    0.000    0.000 
#    0.000    0.000    0.000    0.000    0.000    0.000 
#
# Total GULP energy -356767.882877 kJ/mol
# GULP energy per Si atom -5574.498170 kJ/mol
# Density = 1.807521 g / cm^3
# Si number density = 18.116441 Si / 1000 Ang^3
#
#
#
# Elastic Constant Matrix: (Units=GPa)
#
#
# Indices 1 2 3 4 5 6 
#
# 1 156.1319 97.4787 9.9518 0.0000 0.0000 0.0000
# 2 97.4787 123.6791 2.9208 0.0000 0.0000 0.0000
# 3 9.9518 2.9208 10.3571 0.0000 0.0000 0.0000
# 4 0.0000 0.0000 0.0000 16.0111 0.0000 0.0000
# 5 0.0000 0.0000 0.0000 0.0000 15.1973 0.0000
# 6 0.0000 0.0000 0.0000 0.0000 0.0000 27.9207
#
#
#
# Elastic Compliance Matrix: (Units=1/GPa)
#
#
# Indices 1 2 3 4 5 6 
#
# 1 0.013584 -0.010468 -0.010100 0.000000 0.000000 0.000000
# 2 -0.010468 0.016206 0.005488 0.000000 0.000000 0.000000
# 3 -0.010100 0.005488 0.104709 0.000000 0.000000 0.000000
# 4 0.000000 0.000000 0.000000 0.062457 0.000000 0.000000
# 5 0.000000 0.000000 0.000000 0.000000 0.065801 0.000000
# 6 0.000000 0.000000 0.000000 0.000000 0.000000 0.035816
#
#
# Mechanical properties :
#
#
# Convention : Reuss Voigt Hill
#
# Bulk Modulus (GPa) = 9.58416 56.76342 33.17379
# Shear Modulus (GPa) = 13.75463 23.81360 18.78411
#
# Velocity S-wave (km/s) = 2.75841 3.62950 3.22352
# Velocity P-wave (km/s) = 3.93025 6.99750 5.67503
#
# Compressibility (1/GPa) = 0.10433884
#
# Stress axis : x y z
#
# Youngs Moduli (GPa) = 73.61531 61.70479 9.55024
#
# Poissons Ratio (x) = 0.64592 0.09646
# Poissons Ratio (y) = 0.77060 -0.05241
# Poissons Ratio (z) = 0.74355 -0.33863
#
# Static dielectric constant tensor:
#      x y z
#    x 1.643640 0.000000 0.000000 
#    y 0.000000 1.632000 0.000000 
#    z 0.000000 0.000000 1.638860 
# 
# From -- ./inp_files/10350.got.cif
#   From: 2010.05.17/outbox.cif.g08.bks.cpg/sg57_6_cif.got.tgz:10350.got - 2010.06.03 13:58:18.
