data_PCOD9434000
_publ_section_title
;
Structure prediction by ZEFSAII (Michael W. Deem and Ramdas Pophale) SiO2 
 PCOD9434000
Probable space group: P B C M
;
_chemical_formula_sum "Si O2"
_cell_formula_units_Z 32
_cell_length_a 16.177347
_cell_length_b 15.812567
_cell_length_c 5.515821
_cell_angle_alpha 90.000000
_cell_angle_beta 90.000000
_cell_angle_gamma 90.000000
_cell_volume 1410.976705
_symmetry_space_group_name_H-M "P B C M"
_symmetry_group_IT_number 57
_symmetry_cell_setting 'orthorhombic'
loop_
_space_group_symop_operation_xyz
x,y,z
-x,-y,1/2+z
x,1/2-y,-z
-x,1/2+y,1/2-z
-x,-y,-z
x,y,1/2-z
-x,1/2+y,z
x,1/2-y,1/2+z
loop_
_atom_site_type_symbol
_atom_site_label
_atom_site_fract_x
_atom_site_fract_y
_atom_site_fract_z
Si Si1 0.027426 0.453504 0.250000
Si Si2 0.839155 0.745043 0.250000
Si Si3 0.812168 0.349025 0.750000
Si Si4 0.555987 0.695366 0.250000
Si Si5 0.223533 0.426545 0.250000
Si Si6 0.627655 0.303694 0.750000
Si Si7 0.281946 0.085061 0.250000
Si Si8 0.119566 0.655319 0.750000
O O1 0.125481 0.441259 0.250000
O O2 0.000000 0.500000 0.500000
O O3 0.977078 0.365097 0.250000
O O4 0.887105 0.750000 0.500000
O O5 0.772943 0.822553 0.250000
O O6 0.789172 0.657848 0.250000
O O7 0.713803 0.352267 0.750000
O O8 0.845913 0.384286 0.497943
O O9 0.847408 0.251789 0.750000
O O10 0.563271 0.750000 0.500000
O O11 0.463513 0.655947 0.250000
O O12 0.629017 0.628091 0.250000
O O13 0.266401 0.459059 0.493697
O O14 0.630851 0.250000 0.500000
#
# Coordination Sequence:
#
# PCOD9434000 Si02
#       8
#     4   4   4   4   4   4   4   4
#     4  12  26  44  57  78 109 140 197 248 288 327
#     4   8  14  25  42  64  93 126 157 198 234 303
#     4  10  17  35  56  85 115 137 183 214 289 335
#     4  10  18  25  44  73 116 160 176 192 258 319
#     4  10  20  34  52  68  96 144 178 223 270 311
#     4  10  16  27  46  77 116 156 167 212 251 336
#     4  10  17  31  48  75 109 144 173 206 252 338
#     4  10  20  35  59  78 108 147 175 241 276 339
#
# _framework density 22.679324000000001
#
# number of rings (size 3 to 8) (size 9 to 14) (size 15 to 20)
#    0.000    2.000    2.500    4.500    0.000    0.000 
#   13.500    0.000    0.000    0.000    0.000    0.000 
#    0.000   20.000    0.000    0.000    0.000    0.000 
#
# Total GULP energy -178511.954919 kJ/mol
# GULP energy per Si atom -5578.498591 kJ/mol
# Density = 2.262771 g / cm^3
# Si number density = 22.679324 Si / 1000 Ang^3
#
#
#
# Elastic Constant Matrix: (Units=GPa)
#
#
# Indices 1 2 3 4 5 6 
#
# 1 185.8879 19.8150 69.4005 0.0000 0.0000 0.0000
# 2 19.8150 61.9853 7.1625 0.0000 0.0000 0.0000
# 3 69.4005 7.1625 263.1751 0.0000 0.0000 0.0000
# 4 0.0000 0.0000 0.0000 1.8980 0.0000 0.0000
# 5 0.0000 0.0000 0.0000 0.0000 37.9706 0.0000
# 6 0.0000 0.0000 0.0000 0.0000 0.0000 7.7966
#
#
#
# Elastic Compliance Matrix: (Units=1/GPa)
#
#
# Indices 1 2 3 4 5 6 
#
# 1 0.006158 -0.001787 -0.001575 0.000000 0.000000 0.000000
# 2 -0.001787 0.016702 0.000017 0.000000 0.000000 0.000000
# 3 -0.001575 0.000017 0.004215 0.000000 0.000000 0.000000
# 4 0.000000 0.000000 0.000000 0.526876 0.000000 0.000000
# 5 0.000000 0.000000 0.000000 0.000000 0.026336 0.000000
# 6 0.000000 0.000000 0.000000 0.000000 0.000000 0.128261
#
#
# Mechanical properties :
#
#
# Convention : Reuss Voigt Hill
#
# Bulk Modulus (GPa) = 49.05731 78.20046 63.62889
# Shear Modulus (GPa) = 6.92488 37.17772 22.05130
#
# Velocity S-wave (km/s) = 1.74929 4.05319 3.12157
# Velocity P-wave (km/s) = 5.07522 7.51401 6.41164
#
# Compressibility (1/GPa) = 0.02038432
#
# Stress axis : x y z
#
# Youngs Moduli (GPa) = 162.38603 59.87286 237.26377
#
# Poissons Ratio (x) = 0.10697 0.37376
# Poissons Ratio (y) = 0.29011 -0.00393
# Poissons Ratio (z) = 0.25581 -0.00099
#
# Static dielectric constant tensor:
#      x y z
#    x 1.780310 0.000000 0.000000 
#    y 0.000000 2.059480 0.000000 
#    z 0.000000 0.000000 1.959260 
# 
# From -- ./inp_files/473.got.cif
#   From: 2010.05.17/outbox.cif.g08.bks.cpg/sg57_1_cif.got.tgz:473.got - 2010.06.03 13:58:18.
