data_PCOD9434792
_publ_section_title
;
Structure prediction by ZEFSAII (Michael W. Deem and Ramdas Pophale) SiO2 
 PCOD9434792
Probable space group: P B C M
;
_chemical_formula_sum "Si O2"
_cell_formula_units_Z 56
_cell_length_a 18.095870
_cell_length_b 19.903282
_cell_length_c 8.551340
_cell_angle_alpha 90.000000
_cell_angle_beta 90.000000
_cell_angle_gamma 90.000000
_cell_volume 3079.912215
_symmetry_space_group_name_H-M "P B C M"
_symmetry_group_IT_number 57
_symmetry_cell_setting 'orthorhombic'
loop_
_space_group_symop_operation_xyz
x,y,z
-x,-y,1/2+z
x,1/2-y,-z
-x,1/2+y,1/2-z
-x,-y,-z
x,y,1/2-z
-x,1/2+y,z
x,1/2-y,1/2+z
loop_
_atom_site_type_symbol
_atom_site_label
_atom_site_fract_x
_atom_site_fract_y
_atom_site_fract_z
Si Si1 0.479176 0.426333 0.939106
Si Si2 0.059963 0.093558 0.936740
Si Si3 0.312201 0.430936 0.559675
Si Si4 0.899438 0.447002 0.061089
Si Si5 0.607814 0.325297 0.937148
Si Si6 0.264882 0.581209 0.938972
Si Si7 0.809409 0.676307 0.063200
O O1 0.480651 0.427984 0.750000
O O2 0.395033 0.411685 0.988608
O O3 0.538954 0.371495 0.992263
O O4 0.500000 0.500000 0.000000
O O5 0.063945 0.097912 0.750000
O O6 0.973561 0.093051 0.983627
O O7 0.110316 0.150772 0.010356
O O8 0.092092 0.021534 0.991195
O O9 0.309992 0.430958 0.750000
O O10 0.293511 0.507156 0.511572
O O11 0.250698 0.378240 0.505448
O O12 0.899210 0.454201 0.250000
O O13 0.821347 0.414929 0.015585
O O14 0.606111 0.323519 0.750000
O O15 0.603073 0.250000 0.000000
O O16 0.682385 0.362347 0.991554
O O17 0.269306 0.584548 0.750000
O O18 0.806668 0.677197 0.250000
O O19 0.793452 0.750000 0.000000
#
# Coordination Sequence:
#
# PCOD9434792 Si02
#       7
#     8   8   8   8   8   8   8
#     4  10  20  36  58  85 112 144 186 228 274 328
#     4  10  19  32  53  82 113 144 184 229 277 330
#     4   9  18  34  58  82 110 146 184 227 279 334
#     4   9  18  33  55  83 111 144 184 228 276 328
#     4  11  24  39  57  84 116 149 186 229 279 335
#     4  10  18  35  61  84 111 148 185 228 281 332
#     4  11  22  38  56  79 113 152 191 231 285 340
#
# _framework density 18.182337
#
# number of rings (size 3 to 8) (size 9 to 14) (size 15 to 20)
#    0.000    2.000    2.857    1.286    0.000    2.286 
#    0.000    2.143    0.000    0.000    0.000    0.000 
#    0.000    0.000    0.000    0.000    0.000    0.000 
#
# Total GULP energy -312574.578749 kJ/mol
# GULP energy per Si atom -5581.688906 kJ/mol
# Density = 1.814095 g / cm^3
# Si number density = 18.182337 Si / 1000 Ang^3
#
#
#
# Elastic Constant Matrix: (Units=GPa)
#
#
# Indices 1 2 3 4 5 6 
#
# 1 158.8542 78.6370 30.0102 0.0000 0.0000 0.0000
# 2 78.6370 137.6871 25.1948 0.0000 0.0000 0.0000
# 3 30.0102 25.1948 19.2928 0.0000 0.0000 0.0000
# 4 0.0000 0.0000 0.0000 30.3092 0.0000 0.0000
# 5 0.0000 0.0000 0.0000 0.0000 18.4725 0.0000
# 6 0.0000 0.0000 0.0000 0.0000 0.0000 25.2133
#
#
#
# Elastic Compliance Matrix: (Units=1/GPa)
#
#
# Indices 1 2 3 4 5 6 
#
# 1 0.010275 -0.003868 -0.010932 0.000000 0.000000 0.000000
# 2 -0.003868 0.010999 -0.008348 0.000000 0.000000 0.000000
# 3 -0.010932 -0.008348 0.079739 0.000000 0.000000 0.000000
# 4 0.000000 0.000000 0.000000 0.032993 0.000000 0.000000
# 5 0.000000 0.000000 0.000000 0.000000 0.054135 0.000000
# 6 0.000000 0.000000 0.000000 0.000000 0.000000 0.039662
#
#
# Mechanical properties :
#
#
# Convention : Reuss Voigt Hill
#
# Bulk Modulus (GPa) = 18.27540 64.83536 41.55538
# Shear Modulus (GPa) = 17.10357 26.93179 22.01768
#
# Velocity S-wave (km/s) = 3.07036 3.85282 3.48363
# Velocity P-wave (km/s) = 4.75841 7.45172 6.25182
#
# Compressibility (1/GPa) = 0.05471837
#
# Stress axis : x y z
#
# Youngs Moduli (GPa) = 97.32344 90.91340 12.54099
#
# Poissons Ratio (x) = 0.35165 0.13709
# Poissons Ratio (y) = 0.37645 0.10469
# Poissons Ratio (z) = 1.06390 0.75891
#
# Static dielectric constant tensor:
#      x y z
#    x 1.645120 0.000000 0.000000 
#    y 0.000000 1.584920 0.000000 
#    z 0.000000 0.000000 1.618830 
# 
# From -- ./inp_files/7091.got.cif
#   From: 2010.05.17/outbox.cif.g08.bks.cpg/sg57_4_cif.got.tgz:7091.got - 2010.06.03 13:58:18.
