data_PCOD9434540
_publ_section_title
;
Structure prediction by ZEFSAII (Michael W. Deem and Ramdas Pophale) SiO2 
 PCOD9434540
Probable space group: P B C M
;
_chemical_formula_sum "Si O2"
_cell_formula_units_Z 64
_cell_length_a 12.842379
_cell_length_b 30.188167
_cell_length_c 8.571113
_cell_angle_alpha 90.000000
_cell_angle_beta 90.000000
_cell_angle_gamma 90.000000
_cell_volume 3322.916645
_symmetry_space_group_name_H-M "P B C M"
_symmetry_group_IT_number 57
_symmetry_cell_setting 'orthorhombic'
loop_
_space_group_symop_operation_xyz
x,y,z
-x,-y,1/2+z
x,1/2-y,-z
-x,1/2+y,1/2-z
-x,-y,-z
x,y,1/2-z
-x,1/2+y,z
x,1/2-y,1/2+z
loop_
_atom_site_type_symbol
_atom_site_label
_atom_site_fract_x
_atom_site_fract_y
_atom_site_fract_z
Si Si1 0.119906 0.296648 0.438246
Si Si2 0.954740 0.608201 0.940024
Si Si3 0.217386 0.036941 0.563695
Si Si4 0.363652 0.893854 0.561789
Si Si5 0.837727 0.442719 0.436232
Si Si6 0.648000 0.820906 0.064454
Si Si7 0.403213 0.084043 0.435818
Si Si8 0.573135 0.295947 0.935156
O O1 0.078900 0.250000 0.500000
O O2 0.118295 0.295997 0.250000
O O3 0.240795 0.302299 0.487832
O O4 0.061231 0.341184 0.491539
O O5 0.953562 0.608738 0.750000
O O6 0.062331 0.585610 0.989186
O O7 0.858760 0.576845 0.987983
O O8 0.228488 0.038809 0.750000
O O9 0.330480 0.043719 0.486893
O O10 0.166946 0.990697 0.514883
O O11 0.350662 0.895300 0.750000
O O12 0.267272 0.917116 0.481133
O O13 0.474194 0.917429 0.525529
O O14 0.375341 0.842271 0.512568
O O15 0.844292 0.448339 0.250000
O O16 0.639157 0.815005 0.250000
O O17 0.641781 0.872830 0.023277
O O18 0.547855 0.799666 0.983819
O O19 0.604235 0.908913 0.750000
O O20 0.579006 0.294935 0.750000
O O21 0.616981 0.250000 0.000000
#
# Coordination Sequence:
#
# PCOD9434540 Si02
#       8
#     8   8   8   8   8   8   8   8
#     4  10  20  35  54  81 115 150 186 224 277 337
#     4   9  20  40  60  82 116 151 187 235 286 336
#     4  11  21  38  63  87 116 150 184 232 293 350
#     4   9  21  40  57  79 116 154 189 236 286 340
#     4  11  23  39  61  85 110 147 196 244 285 338
#     4  10  18  31  53  80 116 155 185 224 284 344
#     4  10  20  35  57  86 119 149 186 233 279 336
#     4  10  20  34  54  81 113 149 193 241 285 339
#
# _framework density 19.260189
#
# number of rings (size 3 to 8) (size 9 to 14) (size 15 to 20)
#    0.000    2.000    1.250    3.375    0.000    5.500 
#    0.000    3.750    0.000    3.000    0.000    0.000 
#    0.000    0.000    0.000    0.000    0.000    0.000 
#
# Total GULP energy -357367.902146 kJ/mol
# GULP energy per Si atom -5583.873471 kJ/mol
# Density = 1.921635 g / cm^3
# Si number density = 19.260189 Si / 1000 Ang^3
#
#
#
# Elastic Constant Matrix: (Units=GPa)
#
#
# Indices 1 2 3 4 5 6 
#
# 1 79.1113 38.3946 13.1143 0.0000 0.0000 0.0000
# 2 38.3946 106.9877 12.8597 0.0000 0.0000 0.0000
# 3 13.1143 12.8597 18.3305 0.0000 0.0000 0.0000
# 4 0.0000 0.0000 0.0000 31.5413 0.0000 0.0000
# 5 0.0000 0.0000 0.0000 0.0000 16.0118 0.0000
# 6 0.0000 0.0000 0.0000 0.0000 0.0000 47.9903
#
#
#
# Elastic Compliance Matrix: (Units=1/GPa)
#
#
# Indices 1 2 3 4 5 6 
#
# 1 0.016386 -0.004883 -0.008297 0.000000 0.000000 0.000000
# 2 -0.004883 0.011663 -0.004689 0.000000 0.000000 0.000000
# 3 -0.008297 -0.004689 0.063779 0.000000 0.000000 0.000000
# 4 0.000000 0.000000 0.000000 0.031704 0.000000 0.000000
# 5 0.000000 0.000000 0.000000 0.000000 0.062454 0.000000
# 6 0.000000 0.000000 0.000000 0.000000 0.000000 0.020838
#
#
# Mechanical properties :
#
#
# Convention : Reuss Voigt Hill
#
# Bulk Modulus (GPa) = 17.82842 37.01851 27.42347
# Shear Modulus (GPa) = 19.13815 28.44606 23.79211
#
# Velocity S-wave (km/s) = 3.15566 3.84726 3.51850
# Velocity P-wave (km/s) = 4.74914 6.24477 5.54759
#
# Compressibility (1/GPa) = 0.05609023
#
# Stress axis : x y z
#
# Youngs Moduli (GPa) = 61.02887 85.74280 15.67906
#
# Poissons Ratio (x) = 0.41868 0.13009
# Poissons Ratio (y) = 0.29800 0.07351
# Poissons Ratio (z) = 0.50637 0.40201
#
# Static dielectric constant tensor:
#      x y z
#    x 1.656410 0.000000 0.000000 
#    y 0.000000 1.711230 0.000000 
#    z 0.000000 0.000000 1.652050 
# 
# From -- ./inp_files/3723.got.cif
#   From: 2010.05.17/outbox.cif.g08.bks.cpg/sg57_2_cif.got.tgz:3723.got - 2010.06.03 13:58:18.
