data_PCOD9434631
_publ_section_title
;
Structure prediction by ZEFSAII (Michael W. Deem and Ramdas Pophale) SiO2 
 PCOD9434631
Probable space group: P B C M
;
_chemical_formula_sum "Si O2"
_cell_formula_units_Z 28
_cell_length_a 12.250150
_cell_length_b 17.881428
_cell_length_c 5.479403
_cell_angle_alpha 90.000000
_cell_angle_beta 90.000000
_cell_angle_gamma 90.000000
_cell_volume 1200.264187
_symmetry_space_group_name_H-M "P B C M"
_symmetry_group_IT_number 57
_symmetry_cell_setting 'orthorhombic'
loop_
_space_group_symop_operation_xyz
x,y,z
-x,-y,1/2+z
x,1/2-y,-z
-x,1/2+y,1/2-z
-x,-y,-z
x,y,1/2-z
-x,1/2+y,z
x,1/2-y,1/2+z
loop_
_atom_site_type_symbol
_atom_site_label
_atom_site_fract_x
_atom_site_fract_y
_atom_site_fract_z
Si Si1 0.718464 0.945082 0.250000
Si Si2 0.442537 0.635373 0.250000
Si Si3 0.975509 0.951404 0.250000
Si Si4 0.004908 0.224893 0.750000
Si Si5 0.518163 0.848189 0.250000
Si Si6 0.385286 0.002627 0.250000
Si Si7 0.765921 0.209232 0.250000
O O1 0.846802 0.935546 0.250000
O O2 0.644802 0.870528 0.250000
O O3 0.683595 0.983606 0.505510
O O4 0.486572 0.677876 0.484811
O O5 0.511111 0.558542 0.250000
O O6 0.310245 0.635974 0.250000
O O7 0.024343 0.864930 0.250000
O O8 0.000000 0.000000 0.500000
O O9 0.062785 0.250000 0.500000
O O10 0.897210 0.280608 0.750000
O O11 0.438714 0.922173 0.250000
O O12 0.734827 0.250000 0.500000
#
# Coordination Sequence:
#
# PCOD9434631 Si02
#       7
#     4   4   4   4   4   4   4
#     4  10  20  37  58  85 133 171 218 266 337 392
#     4  10  18  32  56  79 122 165 208 253 305 401
#     4  12  26  47  69 106 140 179 248 307 343 416
#     4  10  23  48  68  92 137 181 232 287 362 427
#     4  10  19  35  55  95 130 169 205 255 330 407
#     4  10  19  36  55  94 131 168 208 254 336 408
#     4  10  21  39  55  87 121 173 211 264 341 413
#
# _framework density 23.328196999999999
#
# number of rings (size 3 to 8) (size 9 to 14) (size 15 to 20)
#    0.000    1.714    0.000    6.857    0.000    0.000 
#   41.143    0.000    0.000   20.571    0.000    0.000 
#    0.000    0.000    0.000    0.000    0.000    0.000 
#
# Total GULP energy -155918.884133 kJ/mol
# GULP energy per Si atom -5568.531576 kJ/mol
# Density = 2.327510 g / cm^3
# Si number density = 23.328197 Si / 1000 Ang^3
#
#
#
# Elastic Constant Matrix: (Units=GPa)
#
#
# Indices 1 2 3 4 5 6 
#
# 1 123.0194 -3.0786 10.0235 0.0000 0.0000 0.0000
# 2 -3.0786 107.0977 37.1931 0.0000 0.0000 0.0000
# 3 10.0235 37.1931 241.3684 0.0000 0.0000 0.0000
# 4 0.0000 0.0000 0.0000 -367.6074 0.0000 0.0000
# 5 0.0000 0.0000 0.0000 0.0000 31.9633 0.0000
# 6 0.0000 0.0000 0.0000 0.0000 0.0000 24.3224
#
#
#
# Elastic Compliance Matrix: (Units=1/GPa)
#
#
# Indices 1 2 3 4 5 6 
#
# 1 0.008170 0.000373 -0.000397 0.000000 0.000000 0.000000
# 2 0.000373 0.009882 -0.001538 0.000000 0.000000 0.000000
# 3 -0.000397 -0.001538 0.004397 0.000000 0.000000 0.000000
# 4 0.000000 0.000000 0.000000 -0.002720 0.000000 0.000000
# 5 0.000000 0.000000 0.000000 0.000000 0.031286 0.000000
# 6 0.000000 0.000000 0.000000 0.000000 0.000000 0.041114
#
#
# Mechanical properties :
#
#
# Convention : Reuss Voigt Hill
#
# Bulk Modulus (GPa) = 51.74773 62.19575 56.97174
# Shear Modulus (GPa) = 49.16651 -33.77450 7.69600
#
# Velocity S-wave (km/s) = 4.59584 -3.80912 1.81829
# Velocity P-wave (km/s) = 7.09880 2.71536 5.37430
#
# Compressibility (1/GPa) = 0.01932452
#
# Stress axis : x y z
#
# Youngs Moduli (GPa) = 122.39227 101.19222 227.45096
#
# Poissons Ratio (x) = -0.03771 0.09024
# Poissons Ratio (y) = -0.04561 0.34988
# Poissons Ratio (z) = 0.04856 0.15566
#
# Static dielectric constant tensor:
#      x y z
#    x 1.850550 0.000000 0.000000 
#    y 0.000000 1.971860 0.000000 
#    z 0.000000 0.000000 2.082870 
# 
# From -- ./inp_files/323.got.cif
#   From: 2010.05.17/outbox.cif.g08.bks.cpg/sg57_1_cif.got.tgz:323.got - 2010.06.03 13:58:18.
