data_PCOD9434133
_publ_section_title
;
Structure prediction by ZEFSAII (Michael W. Deem and Ramdas Pophale) SiO2 
 PCOD9434133
Probable space group: P B C M
;
_chemical_formula_sum "Si O2"
_cell_formula_units_Z 40
_cell_length_a 8.939936
_cell_length_b 16.391616
_cell_length_c 11.543264
_cell_angle_alpha 90.000000
_cell_angle_beta 90.000000
_cell_angle_gamma 90.000000
_cell_volume 1691.549883
_symmetry_space_group_name_H-M "P B C M"
_symmetry_group_IT_number 57
_symmetry_cell_setting 'orthorhombic'
loop_
_space_group_symop_operation_xyz
x,y,z
-x,-y,1/2+z
x,1/2-y,-z
-x,1/2+y,1/2-z
-x,-y,-z
x,y,1/2-z
-x,1/2+y,z
x,1/2-y,1/2+z
loop_
_atom_site_type_symbol
_atom_site_label
_atom_site_fract_x
_atom_site_fract_y
_atom_site_fract_z
Si Si1 0.192599 0.129893 0.123940
Si Si2 0.265720 0.705644 0.878664
Si Si3 0.114986 0.958079 0.627322
Si Si4 0.922278 0.853237 0.118223
Si Si5 0.354782 0.533888 0.936682
O O1 0.227716 0.170228 0.250000
O O2 0.018002 0.105569 0.129454
O O3 0.284458 0.045425 0.124052
O O4 0.190034 0.163765 0.990409
O O5 0.286926 0.745912 0.750000
O O6 0.358140 0.620128 0.872160
O O7 0.085212 0.688843 0.887630
O O8 0.308113 0.750000 0.000000
O O9 0.194265 0.958207 0.750000
O O10 0.235923 0.942039 0.533726
O O11 0.050003 0.048997 0.611183
O O12 0.864646 0.839871 0.250000
O O13 0.500000 0.500000 0.000000
#
# Coordination Sequence:
#
# PCOD9434133 Si02
#       5
#     8   8   8   8   8
#     4  10  17  31  57  88 120 147 183 237 295 350
#     4  11  23  39  58  85 122 162 204 252 308 370
#     4   9  16  29  54  85 116 144 181 234 291 349
#     4   9  16  31  54  80 111 146 185 232 287 341
#     4  11  21  35  57  89 122 157 202 255 311 367
#
# _framework density 23.646951999999999
#
# number of rings (size 3 to 8) (size 9 to 14) (size 15 to 20)
#    0.000    2.000    4.000    1.800    0.000    3.200 
#    0.000    0.000    0.000    4.800    0.000    0.000 
#    0.000    0.000    0.000    0.000    0.000    0.000 
#
# Total GULP energy -222731.945662 kJ/mol
# GULP energy per Si atom -5568.298642 kJ/mol
# Density = 2.359313 g / cm^3
# Si number density = 23.646952 Si / 1000 Ang^3
#
#
#
# Elastic Constant Matrix: (Units=GPa)
#
#
# Indices 1 2 3 4 5 6 
#
# 1 48.9957 5.9317 28.6383 0.0000 0.0000 0.0000
# 2 5.9317 96.0197 33.7323 0.0000 0.0000 0.0000
# 3 28.6383 33.7323 248.5807 0.0000 0.0000 0.0000
# 4 0.0000 0.0000 0.0000 -5.5026 0.0000 0.0000
# 5 0.0000 0.0000 0.0000 0.0000 -2.2362 0.0000
# 6 0.0000 0.0000 0.0000 0.0000 0.0000 7.7028
#
#
#
# Elastic Compliance Matrix: (Units=1/GPa)
#
#
# Indices 1 2 3 4 5 6 
#
# 1 0.021906 -0.000490 -0.002457 0.000000 0.000000 0.000000
# 2 -0.000490 0.010947 -0.001429 0.000000 0.000000 0.000000
# 3 -0.002457 -0.001429 0.004500 0.000000 0.000000 0.000000
# 4 0.000000 0.000000 0.000000 -0.181733 0.000000 0.000000
# 5 0.000000 0.000000 0.000000 0.000000 -0.447191 0.000000
# 6 0.000000 0.000000 0.000000 0.000000 0.000000 0.129823
#
#
# Mechanical properties :
#
#
# Convention : Reuss Voigt Hill
#
# Bulk Modulus (GPa) = 34.96531 58.91118 46.93825
# Shear Modulus (GPa) = -11.27490 21.67905 5.20208
#
# Velocity S-wave (km/s) = -2.18595 3.03112 1.48481
# Velocity P-wave (km/s) = 2.90643 6.10059 4.77831
#
# Compressibility (1/GPa) = 0.02859977
#
# Stress axis : x y z
#
# Youngs Moduli (GPa) = 45.65057 91.35062 222.23002
#
# Poissons Ratio (x) = 0.04476 0.54606
# Poissons Ratio (y) = 0.02237 0.31757
# Poissons Ratio (z) = 0.11217 0.13054
#
# Static dielectric constant tensor:
#      x y z
#    x 1.816880 0.000000 0.000000 
#    y 0.000000 1.994540 0.000000 
#    z 0.000000 0.000000 2.133850 
# 
# From -- ./inp_files/11578.got.cif
#   From: 2010.05.17/outbox.cif.g08.bks.cpg/sg57_6_cif.got.tgz:11578.got - 2010.06.03 13:58:18.
