data_PCOD9434554
_publ_section_title
;
Structure prediction by ZEFSAII (Michael W. Deem and Ramdas Pophale) SiO2 
 PCOD9434554
Probable space group: P B C M
;
_chemical_formula_sum "Si O2"
_cell_formula_units_Z 64
_cell_length_a 11.199726
_cell_length_b 18.025323
_cell_length_c 18.242814
_cell_angle_alpha 90.000000
_cell_angle_beta 90.000000
_cell_angle_gamma 90.000000
_cell_volume 3682.835185
_symmetry_space_group_name_H-M "P B C M"
_symmetry_group_IT_number 57
_symmetry_cell_setting 'orthorhombic'
loop_
_space_group_symop_operation_xyz
x,y,z
-x,-y,1/2+z
x,1/2-y,-z
-x,1/2+y,1/2-z
-x,-y,-z
x,y,1/2-z
-x,1/2+y,z
x,1/2-y,1/2+z
loop_
_atom_site_type_symbol
_atom_site_label
_atom_site_fract_x
_atom_site_fract_y
_atom_site_fract_z
Si Si1 0.371081 0.844414 0.336970
Si Si2 0.977358 0.680547 0.947520
Si Si3 0.343740 0.180996 0.057964
Si Si4 0.644261 0.895198 0.168114
Si Si5 0.226311 0.442380 0.032300
Si Si6 0.610613 0.201549 0.425549
Si Si7 0.175864 0.245220 0.667910
Si Si8 0.227561 0.895766 0.475670
O O1 0.343899 0.854859 0.250000
O O2 0.510669 0.866408 0.348271
O O3 0.350733 0.758761 0.362193
O O4 0.299886 0.890666 0.398844
O O5 0.888178 0.611471 0.960014
O O6 0.944260 0.712877 0.867821
O O7 0.110333 0.653669 0.962475
O O8 0.949603 0.750000 0.000000
O O9 0.475654 0.177487 0.091489
O O10 0.240462 0.194841 0.117002
O O11 0.337829 0.250000 0.000000
O O12 0.317847 0.105598 0.015924
O O13 0.643783 0.926705 0.250000
O O14 0.704659 0.949220 0.109578
O O15 0.729026 0.822589 0.167518
O O16 0.196710 0.520233 0.996146
O O17 0.600993 0.250000 0.500000
O O18 0.697938 0.137661 0.455182
O O19 0.157615 0.271299 0.750000
#
# Coordination Sequence:
#
# PCOD9434554 Si02
#       8
#     8   8   8   8   8   8   8   8
#     4  10  19  35  56  79 112 152 188 234 281 331
#     4  11  20  38  60  78 103 144 199 244 272 322
#     4  11  16  32  56  83 108 138 188 234 278 322
#     4   9  17  31  56  83 107 142 191 232 276 329
#     4  11  20  35  56  82 114 151 179 237 292 333
#     4   9  18  32  53  80 108 141 186 229 263 329
#     4  10  18  31  56  85 104 131 185 247 282 311
#     4  11  24  35  52  84 117 151 188 222 287 360
#
# _framework density 17.377915999999999
#
# number of rings (size 3 to 8) (size 9 to 14) (size 15 to 20)
#    0.000    1.750    5.000    3.000    0.000    2.500 
#    0.000    1.250    0.000    0.750    0.000    0.000 
#    0.000    0.000    0.000    0.000    0.000    0.000 
#
# Total GULP energy -356507.077490 kJ/mol
# GULP energy per Si atom -5570.423086 kJ/mol
# Density = 1.733836 g / cm^3
# Si number density = 17.377916 Si / 1000 Ang^3
#
#
#
# Elastic Constant Matrix: (Units=GPa)
#
#
# Indices 1 2 3 4 5 6 
#
# 1 69.1304 31.5041 35.3144 0.0000 0.0000 0.0000
# 2 31.5041 47.6537 31.6572 0.0000 0.0000 0.0000
# 3 35.3144 31.6572 109.0674 0.0000 0.0000 0.0000
# 4 0.0000 0.0000 0.0000 14.5625 0.0000 0.0000
# 5 0.0000 0.0000 0.0000 0.0000 11.5515 0.0000
# 6 0.0000 0.0000 0.0000 0.0000 0.0000 1.1185
#
#
#
# Elastic Compliance Matrix: (Units=1/GPa)
#
#
# Indices 1 2 3 4 5 6 
#
# 1 0.021762 -0.012025 -0.003556 0.000000 0.000000 0.000000
# 2 -0.012025 0.032642 -0.005581 0.000000 0.000000 0.000000
# 3 -0.003556 -0.005581 0.011940 0.000000 0.000000 0.000000
# 4 0.000000 0.000000 0.000000 0.068669 0.000000 0.000000
# 5 0.000000 0.000000 0.000000 0.000000 0.086569 0.000000
# 6 0.000000 0.000000 0.000000 0.000000 0.000000 0.894050
#
#
# Mechanical properties :
#
#
# Convention : Reuss Voigt Hill
#
# Bulk Modulus (GPa) = 41.63126 46.97810 44.30468
# Shear Modulus (GPa) = 4.28831 13.93823 9.11327
#
# Velocity S-wave (km/s) = 1.57259 2.83515 2.29250
# Velocity P-wave (km/s) = 5.22549 6.14893 5.70592
#
# Compressibility (1/GPa) = 0.02402041
#
# Stress axis : x y z
#
# Youngs Moduli (GPa) = 45.95216 30.63562 83.75265
#
# Poissons Ratio (x) = 0.36838 0.29782
# Poissons Ratio (y) = 0.55255 0.46743
# Poissons Ratio (z) = 0.16340 0.17098
#
# Static dielectric constant tensor:
#      x y z
#    x 1.618610 0.000000 0.000000 
#    y 0.000000 1.583730 0.000000 
#    z 0.000000 0.000000 1.617170 
# 
# From -- ./inp_files/22153.got.cif
#   From: 2010.05.17/outbox.cif.g08.bks.cpg/sg57_12_cif.got.tgz:22153.got - 2010.06.03 13:58:18.
