data_PCOD9434962
_publ_section_title
;
Structure prediction by ZEFSAII (Michael W. Deem and Ramdas Pophale) SiO2 
 PCOD9434962
Probable space group: P B C M
;
_chemical_formula_sum "Si O2"
_cell_formula_units_Z 56
_cell_length_a 21.062810
_cell_length_b 13.900575
_cell_length_c 8.230926
_cell_angle_alpha 90.000000
_cell_angle_beta 90.000000
_cell_angle_gamma 90.000000
_cell_volume 2409.893069
_symmetry_space_group_name_H-M "P B C M"
_symmetry_group_IT_number 57
_symmetry_cell_setting 'orthorhombic'
loop_
_space_group_symop_operation_xyz
x,y,z
-x,-y,1/2+z
x,1/2-y,-z
-x,1/2+y,1/2-z
-x,-y,-z
x,y,1/2-z
-x,1/2+y,z
x,1/2-y,1/2+z
loop_
_atom_site_type_symbol
_atom_site_label
_atom_site_fract_x
_atom_site_fract_y
_atom_site_fract_z
Si Si1 0.812829 0.852726 0.432556
Si Si2 0.346743 0.564305 0.946282
Si Si3 0.209159 0.933703 0.055870
Si Si4 0.482508 0.893099 0.445783
Si Si5 0.619245 0.650402 0.555135
Si Si6 0.058079 0.380685 0.571752
Si Si7 0.074354 0.888056 0.064969
O O1 0.791615 0.750000 0.500000
O O2 0.789864 0.864200 0.250000
O O3 0.795153 0.950995 0.525323
O O4 0.889705 0.850257 0.442241
O O5 0.346520 0.569310 0.750000
O O6 0.277990 0.599111 0.006233
O O7 0.410082 0.620572 0.004899
O O8 0.353943 0.451166 0.991772
O O9 0.206560 0.920354 0.250000
O O10 0.145305 0.882007 0.991782
O O11 0.481519 0.883721 0.250000
O O12 0.546231 0.843568 0.508429
O O13 0.500000 0.000000 0.500000
O O14 0.650673 0.750000 0.500000
O O15 0.619546 0.645710 0.750000
O O16 0.078105 0.346444 0.750000
O O17 0.062721 0.496676 0.575488
O O18 0.986080 0.352739 0.534464
O O19 0.072628 0.850595 0.250000
#
# Coordination Sequence:
#
# PCOD9434962 Si02
#       7
#     8   8   8   8   8   8   8
#     4  11  21  32  45  61  86 118 150 182 218 261
#     4   9  17  31  49  67  90 120 152 188 229 271
#     4   9  18  31  46  65  89 116 147 180 216 262
#     4   8  15  28  46  66  87 113 147 187 228 268
#     4  10  19  30  45  67  93 120 152 188 226 270
#     4   9  16  27  43  62  83 108 141 179 216 252
#     4   8  14  25  41  62  85 107 135 173 214 253
#
# _framework density 23.237545000000001
#
# number of rings (size 3 to 8) (size 9 to 14) (size 15 to 20)
#    0.000    2.857    0.000    3.000    0.000    5.143 
#    0.000    0.000    0.000    0.000    0.000    1.000 
#    0.000    2.286    0.000    0.000    0.000    0.000 
#
# Total GULP energy -312122.481752 kJ/mol
# GULP energy per Si atom -5573.615746 kJ/mol
# Density = 2.318465 g / cm^3
# Si number density = 23.237545 Si / 1000 Ang^3
#
#
#
# Elastic Constant Matrix: (Units=GPa)
#
#
# Indices 1 2 3 4 5 6 
#
# 1 194.7531 -13.4709 4.0742 0.0000 0.0000 0.0000
# 2 -13.4709 36.5733 -9.5981 0.0000 0.0000 0.0000
# 3 4.0742 -9.5981 22.8344 0.0000 0.0000 0.0000
# 4 0.0000 0.0000 0.0000 9.4032 0.0000 0.0000
# 5 0.0000 0.0000 0.0000 0.0000 13.0118 0.0000
# 6 0.0000 0.0000 0.0000 0.0000 0.0000 -10.9091
#
#
#
# Elastic Compliance Matrix: (Units=1/GPa)
#
#
# Indices 1 2 3 4 5 6 
#
# 1 0.005269 0.001904 -0.000140 0.000000 0.000000 0.000000
# 2 0.001904 0.031421 0.012867 0.000000 0.000000 0.000000
# 3 -0.000140 0.012867 0.049227 0.000000 0.000000 0.000000
# 4 0.000000 0.000000 0.000000 0.106347 0.000000 0.000000
# 5 0.000000 0.000000 0.000000 0.000000 0.076854 0.000000
# 6 0.000000 0.000000 0.000000 0.000000 0.000000 -0.091667
#
#
# Mechanical properties :
#
#
# Convention : Reuss Voigt Hill
#
# Bulk Modulus (GPa) = 8.68205 24.01904 16.35054
# Shear Modulus (GPa) = 26.79805 20.51155 23.65480
#
# Velocity S-wave (km/s) = 3.39960 2.97423 3.19400
# Velocity P-wave (km/s) = 4.37653 4.70675 4.54464
#
# Compressibility (1/GPa) = 0.11518020
#
# Stress axis : x y z
#
# Youngs Moduli (GPa) = 189.77712 31.82634 20.31405
#
# Poissons Ratio (x) = -0.06060 0.00284
# Poissons Ratio (y) = -0.36136 -0.26139
# Poissons Ratio (z) = 0.02653 -0.40952
#
# Static dielectric constant tensor:
#      x y z
#    x 1.975510 0.000000 0.000000 
#    y 0.000000 1.883630 0.000000 
#    z 0.000000 0.000000 1.809130 
# 
# From -- ./inp_files/8270.got.cif
#   From: 2010.05.17/outbox.cif.g08.bks.cpg/sg57_5_cif.got.tgz:8270.got - 2010.06.03 13:58:18.
