data_PCOD9434074
_publ_section_title
;
Structure prediction by ZEFSAII (Michael W. Deem and Ramdas Pophale) SiO2 
 PCOD9434074
Probable space group: P B C M
;
_chemical_formula_sum "Si O2"
_cell_formula_units_Z 48
_cell_length_a 5.677825
_cell_length_b 15.598846
_cell_length_c 21.807319
_cell_angle_alpha 90.000000
_cell_angle_beta 90.000000
_cell_angle_gamma 90.000000
_cell_volume 1931.420113
_symmetry_space_group_name_H-M "P B C M"
_symmetry_group_IT_number 57
_symmetry_cell_setting 'orthorhombic'
loop_
_space_group_symop_operation_xyz
x,y,z
-x,-y,1/2+z
x,1/2-y,-z
-x,1/2+y,1/2-z
-x,-y,-z
x,y,1/2-z
-x,1/2+y,z
x,1/2-y,1/2+z
loop_
_atom_site_type_symbol
_atom_site_label
_atom_site_fract_x
_atom_site_fract_y
_atom_site_fract_z
Si Si1 0.750000 0.225180 0.072093
Si Si2 0.750000 0.209012 0.250000
Si Si3 0.250000 0.047918 0.496133
Si Si4 0.750000 0.788745 0.430853
Si Si5 0.750000 0.435862 0.645005
Si Si6 0.750000 0.937291 0.856164
Si Si7 0.250000 0.293789 0.750000
O O1 0.502557 0.262550 0.097261
O O2 0.750000 0.123049 0.083473
O O3 0.997442 0.262550 0.097261
O O4 0.750000 0.250000 0.000000
O O5 0.750000 0.142212 0.306365
O O6 0.498241 0.255251 0.250000
O O7 0.001759 0.255251 0.250000
O O8 0.250000 0.111445 0.553500
O O9 0.250000 0.089409 0.427777
O O10 0.500000 0.000000 0.500000
O O11 0.000000 0.000000 0.500000
O O12 0.750000 0.750000 0.500000
O O13 0.501581 0.482864 0.652743
O O14 0.998419 0.482864 0.652743
O O15 0.750000 0.858524 0.808524
#
# Coordination Sequence:
#
# PCOD9434074 Si02
#       7
#     8   4   8   8   8   8   4
#     4  10  17  27  46  71  95 128 166 199 237 296
#     4   8  16  26  42  72 105 130 161 212 274 304
#     4  12  24  37  53  79 112 141 171 220 273 316
#     4  10  20  34  51  73 100 135 174 202 243 307
#     4  10  17  29  49  75 105 135 169 218 263 308
#     4  10  18  32  49  73 105 136 170 215 267 311
#     4   8  16  28  48  70  95 132 173 212 256 312
#
# _framework density 24.852181999999999
#
# number of rings (size 3 to 8) (size 9 to 14) (size 15 to 20)
#    0.000    2.000    0.000    7.000    0.000    0.000 
#    0.000    0.000    0.000    0.000    0.000    7.000 
#    0.000    0.000    0.000    0.000    0.000    0.000 
#
# Total GULP energy -267567.134979 kJ/mol
# GULP energy per Si atom -5574.315312 kJ/mol
# Density = 2.479562 g / cm^3
# Si number density = 24.852182 Si / 1000 Ang^3
#
#
#
# Elastic Constant Matrix: (Units=GPa)
#
#
# Indices 1 2 3 4 5 6 
#
# 1 385.7138 53.3788 5.2522 0.0000 0.0000 0.0000
# 2 53.3788 38.0506 7.8576 0.0000 0.0000 0.0000
# 3 5.2522 7.8576 99.6552 0.0000 0.0000 0.0000
# 4 0.0000 0.0000 0.0000 12.4805 0.0000 0.0000
# 5 0.0000 0.0000 0.0000 0.0000 20.4778 0.0000
# 6 0.0000 0.0000 0.0000 0.0000 0.0000 32.2513
#
#
#
# Elastic Compliance Matrix: (Units=1/GPa)
#
#
# Indices 1 2 3 4 5 6 
#
# 1 0.003221 -0.004557 0.000190 0.000000 0.000000 0.000000
# 2 -0.004557 0.033164 -0.002375 0.000000 0.000000 0.000000
# 3 0.000190 -0.002375 0.010212 0.000000 0.000000 0.000000
# 4 0.000000 0.000000 0.000000 0.080125 0.000000 0.000000
# 5 0.000000 0.000000 0.000000 0.000000 0.048833 0.000000
# 6 0.000000 0.000000 0.000000 0.000000 0.000000 0.031007
#
#
# Mechanical properties :
#
#
# Convention : Reuss Voigt Hill
#
# Bulk Modulus (GPa) = 30.20052 72.93296 51.56674
# Shear Modulus (GPa) = 21.63718 43.50399 32.57058
#
# Velocity S-wave (km/s) = 2.95385 4.18845 3.62411
# Velocity P-wave (km/s) = 4.87977 7.26644 6.18924
#
# Compressibility (1/GPa) = 0.03311201
#
# Stress axis : x y z
#
# Youngs Moduli (GPa) = 310.49224 30.15288 97.92548
#
# Poissons Ratio (x) = 0.13741 -0.01857
# Poissons Ratio (y) = 1.41499 0.23255
# Poissons Ratio (z) = -0.05887 0.07161
#
# Static dielectric constant tensor:
#      x y z
#    x 2.092220 0.000000 0.000000 
#    y 0.000000 1.974940 0.000000 
#    z 0.000000 0.000000 1.026290 
# 
# From -- ./inp_files/26232.got.cif
#   From: 2010.05.17/outbox.cif.g08.bks.cpg/sg57_14_cif.got.tgz:26232.got - 2010.06.03 13:58:18.
