data_PCOD9434793
_publ_section_title
;
Structure prediction by ZEFSAII (Michael W. Deem and Ramdas Pophale) SiO2 
 PCOD9434793
Probable space group: P B C M
;
_chemical_formula_sum "Si O2"
_cell_formula_units_Z 64
_cell_length_a 12.334187
_cell_length_b 31.701093
_cell_length_c 7.739927
_cell_angle_alpha 90.000000
_cell_angle_beta 90.000000
_cell_angle_gamma 90.000000
_cell_volume 3026.367255
_symmetry_space_group_name_H-M "P B C M"
_symmetry_group_IT_number 57
_symmetry_cell_setting 'orthorhombic'
loop_
_space_group_symop_operation_xyz
x,y,z
-x,-y,1/2+z
x,1/2-y,-z
-x,1/2+y,1/2-z
-x,-y,-z
x,y,1/2-z
-x,1/2+y,z
x,1/2-y,1/2+z
loop_
_atom_site_type_symbol
_atom_site_label
_atom_site_fract_x
_atom_site_fract_y
_atom_site_fract_z
Si Si1 0.503433 0.075532 0.039429
Si Si2 0.271189 0.047371 0.456881
Si Si3 0.261534 0.546401 0.458005
Si Si4 0.507550 0.674322 0.459057
Si Si5 0.254601 0.202431 0.551432
Si Si6 0.878210 0.126472 0.462249
Si Si7 0.727063 0.202996 0.042685
Si Si8 0.877531 0.877569 0.549420
O O1 0.505828 0.073801 0.250000
O O2 0.394557 0.052607 0.977223
O O3 0.616429 0.056032 0.977528
O O4 0.495623 0.124902 0.993484
O O5 0.278068 0.053004 0.250000
O O6 0.195023 0.084678 0.526968
O O7 0.229016 0.000705 0.492520
O O8 0.264418 0.548538 0.250000
O O9 0.181440 0.583435 0.515951
O O10 0.511543 0.676595 0.250000
O O11 0.617013 0.695428 0.525393
O O12 0.395950 0.695414 0.520857
O O13 0.226510 0.250000 0.500000
O O14 0.227620 0.196413 0.750000
O O15 0.189959 0.165655 0.455322
O O16 0.877522 0.127686 0.250000
O O17 0.807293 0.166489 0.520493
O O18 0.002057 0.127763 0.523720
O O19 0.722192 0.198943 0.250000
O O20 0.763736 0.250000 0.000000
O O21 0.894255 0.889020 0.750000
#
# Coordination Sequence:
#
# PCOD9434793 Si02
#       8
#     8   8   8   8   8   8   8   8
#     4   9  16  31  56  81 110 149 187 225 281 340
#     4  10  20  34  54  81 113 150 188 232 286 336
#     4  10  19  34  57  83 112 148 190 233 278 338
#     4  10  18  35  61  85 114 151 185 226 280 340
#     4  12  25  40  60  87 117 148 187 233 283 338
#     4   9  19  37  60  83 108 149 196 235 279 335
#     4  10  20  35  58  85 114 145 184 228 279 337
#     4  10  21  40  62  81 110 152 196 237 283 335
#
# _framework density 21.147465
#
# number of rings (size 3 to 8) (size 9 to 14) (size 15 to 20)
#    0.000    2.000    2.500    1.875    0.000    3.000 
#    0.000    3.750    0.000    0.000    0.000    0.000 
#    0.000    0.000    0.000    0.000    0.000    0.000 
#
# Total GULP energy -357561.741087 kJ/mol
# GULP energy per Si atom -5586.902204 kJ/mol
# Density = 2.109933 g / cm^3
# Si number density = 21.147465 Si / 1000 Ang^3
#
#
#
# Elastic Constant Matrix: (Units=GPa)
#
#
# Indices 1 2 3 4 5 6 
#
# 1 156.1456 73.0002 -1.5167 0.0000 0.0000 0.0000
# 2 73.0002 163.0836 -14.4163 0.0000 0.0000 0.0000
# 3 -1.5167 -14.4163 28.9355 0.0000 0.0000 0.0000
# 4 0.0000 0.0000 0.0000 18.1943 0.0000 0.0000
# 5 0.0000 0.0000 0.0000 0.0000 -8.5725 0.0000
# 6 0.0000 0.0000 0.0000 0.0000 0.0000 4.2531
#
#
#
# Elastic Compliance Matrix: (Units=1/GPa)
#
#
# Indices 1 2 3 4 5 6 
#
# 1 0.008157 -0.003780 -0.001456 0.000000 0.000000 0.000000
# 2 -0.003780 0.008166 0.003870 0.000000 0.000000 0.000000
# 3 -0.001456 0.003870 0.036412 0.000000 0.000000 0.000000
# 4 0.000000 0.000000 0.000000 0.054962 0.000000 0.000000
# 5 0.000000 0.000000 0.000000 0.000000 -0.116652 0.000000
# 6 0.000000 0.000000 0.000000 0.000000 0.000000 0.235122
#
#
# Mechanical properties :
#
#
# Convention : Reuss Voigt Hill
#
# Bulk Modulus (GPa) = 19.99842 51.36658 35.68250
# Shear Modulus (GPa) = 20.36107 22.18148 21.27128
#
# Velocity S-wave (km/s) = 3.10629 3.24218 3.17496
# Velocity P-wave (km/s) = 4.72679 6.19339 5.50911
#
# Compressibility (1/GPa) = 0.05000395
#
# Stress axis : x y z
#
# Youngs Moduli (GPa) = 122.58799 122.45836 27.46376
#
# Poissons Ratio (x) = 0.46291 0.03998
# Poissons Ratio (y) = 0.46340 -0.10629
# Poissons Ratio (z) = 0.17846 -0.47396
#
# Static dielectric constant tensor:
#      x y z
#    x 1.750090 0.000000 0.000000 
#    y 0.000000 1.606110 0.000000 
#    z 0.000000 0.000000 1.778330 
# 
# From -- ./inp_files/3777.got.cif
#   From: 2010.05.17/outbox.cif.g08.bks.cpg/sg57_2_cif.got.tgz:3777.got - 2010.06.03 13:58:18.
