data_PCOD9434974
_publ_section_title
;
Structure prediction by ZEFSAII (Michael W. Deem and Ramdas Pophale) SiO2 
 PCOD9434974
Probable space group: P B C M
;
_chemical_formula_sum "Si O2"
_cell_formula_units_Z 56
_cell_length_a 21.983436
_cell_length_b 15.322595
_cell_length_c 7.646821
_cell_angle_alpha 90.000000
_cell_angle_beta 90.000000
_cell_angle_gamma 90.000000
_cell_volume 2575.780317
_symmetry_space_group_name_H-M "P B C M"
_symmetry_group_IT_number 57
_symmetry_cell_setting 'orthorhombic'
loop_
_space_group_symop_operation_xyz
x,y,z
-x,-y,1/2+z
x,1/2-y,-z
-x,1/2+y,1/2-z
-x,-y,-z
x,y,1/2-z
-x,1/2+y,z
x,1/2-y,1/2+z
loop_
_atom_site_type_symbol
_atom_site_label
_atom_site_fract_x
_atom_site_fract_y
_atom_site_fract_z
Si Si1 0.848710 0.392226 0.449436
Si Si2 0.093444 0.073273 0.962886
Si Si3 0.728235 0.029608 0.955144
Si Si4 0.215481 0.345894 0.043442
Si Si5 0.406754 0.517279 0.960397
Si Si6 0.515540 0.853576 0.957122
Si Si7 0.973741 0.343401 0.459412
O O1 0.840498 0.360020 0.250000
O O2 0.878758 0.488131 0.449702
O O3 0.782330 0.409280 0.530426
O O4 0.905617 0.343719 0.536976
O O5 0.092634 0.063011 0.750000
O O6 0.144140 0.145974 0.005823
O O7 0.025272 0.091149 0.024634
O O8 0.725479 0.052463 0.750000
O O9 0.660737 0.035782 0.030204
O O10 0.749465 0.928673 0.965182
O O11 0.219336 0.358213 0.250000
O O12 0.239174 0.250000 0.000000
O O13 0.402117 0.509127 0.750000
O O14 0.434721 0.424652 0.027031
O O15 0.452299 0.597742 0.995767
O O16 0.520990 0.856564 0.750000
O O17 0.519576 0.750000 0.000000
O O18 0.001247 0.250000 0.500000
O O19 0.968404 0.354929 0.250000
#
# Coordination Sequence:
#
# PCOD9434974 Si02
#       7
#     8   8   8   8   8   8   8
#     4   9  18  32  50  70  93 123 159 197 240 292
#     4   9  18  31  47  67  91 120 158 203 249 298
#     4   9  18  34  53  72  99 134 167 202 247 296
#     4  10  19  30  45  68  98 130 166 208 253 303
#     4   9  19  36  57  81 110 143 177 214 256 303
#     4  10  20  35  57  84 112 141 174 213 256 303
#     4  10  20  32  46  67  92 120 157 201 248 293
#
# _framework density 21.740984999999998
#
# number of rings (size 3 to 8) (size 9 to 14) (size 15 to 20)
#    0.000    2.571    0.000    1.714    0.000    3.429 
#    0.000    2.143    0.000    1.714    0.000    0.000 
#    0.000    0.000    0.000    0.000    0.000    0.000 
#
# Total GULP energy -311870.003802 kJ/mol
# GULP energy per Si atom -5569.107211 kJ/mol
# Density = 2.169150 g / cm^3
# Si number density = 21.740985 Si / 1000 Ang^3
#
#
#
# Elastic Constant Matrix: (Units=GPa)
#
#
# Indices 1 2 3 4 5 6 
#
# 1 147.0523 12.5583 15.2546 0.0000 0.0000 0.0000
# 2 12.5583 46.0853 -6.9527 0.0000 0.0000 0.0000
# 3 15.2546 -6.9527 44.7129 0.0000 0.0000 0.0000
# 4 0.0000 0.0000 0.0000 11.8567 0.0000 0.0000
# 5 0.0000 0.0000 0.0000 0.0000 21.3159 0.0000
# 6 0.0000 0.0000 0.0000 0.0000 0.0000 25.9356
#
#
#
# Elastic Compliance Matrix: (Units=1/GPa)
#
#
# Indices 1 2 3 4 5 6 
#
# 1 0.007305 -0.002423 -0.002869 0.000000 0.000000 0.000000
# 2 -0.002423 0.023024 0.004407 0.000000 0.000000 0.000000
# 3 -0.002869 0.004407 0.024029 0.000000 0.000000 0.000000
# 4 0.000000 0.000000 0.000000 0.084340 0.000000 0.000000
# 5 0.000000 0.000000 0.000000 0.000000 0.046913 0.000000
# 6 0.000000 0.000000 0.000000 0.000000 0.000000 0.038557
#
#
# Mechanical properties :
#
#
# Convention : Reuss Voigt Hill
#
# Bulk Modulus (GPa) = 19.01609 31.06344 25.03977
# Shear Modulus (GPa) = 20.53652 26.28766 23.41209
#
# Velocity S-wave (km/s) = 3.07677 3.48103 3.28512
# Velocity P-wave (km/s) = 4.62468 5.52048 5.09232
#
# Compressibility (1/GPa) = 0.05258705
#
# Stress axis : x y z
#
# Youngs Moduli (GPa) = 136.89474 43.43272 41.61634
#
# Poissons Ratio (x) = 0.10526 0.11940
# Poissons Ratio (y) = 0.33175 -0.18340
# Poissons Ratio (z) = 0.39276 -0.19141
#
# Static dielectric constant tensor:
#      x y z
#    x 1.857710 0.000000 0.000000 
#    y 0.000000 1.862810 0.000000 
#    z 0.000000 0.000000 1.785700 
# 
# From -- ./inp_files/8324.got.cif
#   From: 2010.05.17/outbox.cif.g08.bks.cpg/sg57_5_cif.got.tgz:8324.got - 2010.06.03 13:58:18.
