data_PCOD9434791
_publ_section_title
;
Structure prediction by ZEFSAII (Michael W. Deem and Ramdas Pophale) SiO2 
 PCOD9434791
Probable space group: P B C M
;
_chemical_formula_sum "Si O2"
_cell_formula_units_Z 60
_cell_length_a 18.299159
_cell_length_b 5.629126
_cell_length_c 26.074666
_cell_angle_alpha 90.000000
_cell_angle_beta 90.000000
_cell_angle_gamma 90.000000
_cell_volume 2685.906280
_symmetry_space_group_name_H-M "P B C M"
_symmetry_group_IT_number 57
_symmetry_cell_setting 'orthorhombic'
loop_
_space_group_symop_operation_xyz
x,y,z
-x,-y,1/2+z
x,1/2-y,-z
-x,1/2+y,1/2-z
-x,-y,-z
x,y,1/2-z
-x,1/2+y,z
x,1/2-y,1/2+z
loop_
_atom_site_type_symbol
_atom_site_label
_atom_site_fract_x
_atom_site_fract_y
_atom_site_fract_z
Si Si1 0.330232 0.003950 0.191569
Si Si2 0.466049 0.211548 0.811956
Si Si3 0.974984 0.760219 0.809111
Si Si4 0.952534 0.250000 0.500000
Si Si5 0.715267 0.373480 0.875192
Si Si6 0.687819 0.508210 0.517983
Si Si7 0.179832 0.540164 0.941423
Si Si8 0.186217 0.240059 0.158694
O O1 0.345401 0.938206 0.250000
O O2 0.380652 0.229045 0.178684
O O3 0.245507 0.063637 0.183079
O O4 0.342978 0.782036 0.154847
O O5 0.475433 0.203138 0.750000
O O6 0.505039 0.456588 0.830418
O O7 0.002656 0.759949 0.750000
O O8 0.888183 0.760744 0.810993
O O9 0.999851 0.510079 0.833300
O O10 0.894046 0.318535 0.455060
O O11 0.000000 0.500000 0.500000
O O12 0.685726 0.534122 0.920858
O O13 0.765872 0.200994 0.908843
O O14 0.770839 0.513306 0.839360
O O15 0.650433 0.750000 0.500000
O O16 0.770057 0.512305 0.491724
O O17 0.658326 0.250000 0.500000
O O18 0.167778 0.324187 0.901163
#
# Coordination Sequence:
#
# PCOD9434791 Si02
#       8
#     8   8   8   4   8   8   8   8
#     4  10  23  38  57  95 130 163 213 262 306 365
#     4   9  19  37  60  85 124 173 206 239 300 374
#     4  10  24  44  60  76 106 154 206 254 309 369
#     4  12  28  38  58  84 114 158 200 242 314 392
#     4  10  21  36  61  86 117 160 197 254 313 368
#     4  10  18  35  61  78 113 151 184 238 305 362
#     4  10  22  40  56  79 118 149 189 251 312 371
#     4  11  23  37  63  86 117 156 206 265 317 368
#
# _framework density 22.338830000000002
#
# number of rings (size 3 to 8) (size 9 to 14) (size 15 to 20)
#    0.000    1.867    3.333    0.400    8.400    2.133 
#    0.000    0.000    0.000    0.000    0.000    0.000 
#    0.000   33.067    0.000    0.000    0.000    0.000 
#
# Total GULP energy -334196.124315 kJ/mol
# GULP energy per Si atom -5569.935405 kJ/mol
# Density = 2.228799 g / cm^3
# Si number density = 22.338830 Si / 1000 Ang^3
#
#
#
# Elastic Constant Matrix: (Units=GPa)
#
#
# Indices 1 2 3 4 5 6 
#
# 1 64.0939 30.6394 11.3071 0.0000 0.0000 0.0000
# 2 30.6394 135.8823 9.3563 0.0000 0.0000 0.0000
# 3 11.3071 9.3563 58.8697 0.0000 0.0000 0.0000
# 4 0.0000 0.0000 0.0000 12.6713 0.0000 0.0000
# 5 0.0000 0.0000 0.0000 0.0000 3.3258 0.0000
# 6 0.0000 0.0000 0.0000 0.0000 0.0000 33.9319
#
#
#
# Elastic Compliance Matrix: (Units=1/GPa)
#
#
# Indices 1 2 3 4 5 6 
#
# 1 0.017943 -0.003851 -0.002834 0.000000 0.000000 0.000000
# 2 -0.003851 0.008267 -0.000574 0.000000 0.000000 0.000000
# 3 -0.002834 -0.000574 0.017622 0.000000 0.000000 0.000000
# 4 0.000000 0.000000 0.000000 0.078918 0.000000 0.000000
# 5 0.000000 0.000000 0.000000 0.000000 0.300677 0.000000
# 6 0.000000 0.000000 0.000000 0.000000 0.000000 0.029471
#
#
# Mechanical properties :
#
#
# Convention : Reuss Voigt Hill
#
# Bulk Modulus (GPa) = 34.11365 40.16126 37.13745
# Shear Modulus (GPa) = 10.47803 23.82200 17.15002
#
# Velocity S-wave (km/s) = 2.16811 3.26911 2.77379
# Velocity P-wave (km/s) = 4.64454 5.68038 5.18837
#
# Compressibility (1/GPa) = 0.02931378
#
# Stress axis : x y z
#
# Youngs Moduli (GPa) = 55.73233 120.96100 56.74617
#
# Poissons Ratio (x) = 0.46578 0.16084
# Poissons Ratio (y) = 0.21461 0.03259
# Poissons Ratio (z) = 0.15796 0.06947
#
# Static dielectric constant tensor:
#      x y z
#    x 1.819420 0.000000 0.000000 
#    y 0.000000 2.086040 0.000000 
#    z 0.000000 0.000000 1.927090 
# 
# From -- ./inp_files/28868.got.cif
#   From: 2010.05.17/outbox.cif.g08.bks.cpg/sg57_15_cif.got.tgz:28868.got - 2010.06.03 13:58:18.
