data_PCOD9434290
_publ_section_title
;
Structure prediction by ZEFSAII (Michael W. Deem and Ramdas Pophale) SiO2 
 PCOD9434290
Probable space group: P B C M
;
_chemical_formula_sum "Si O2"
_cell_formula_units_Z 64
_cell_length_a 15.824075
_cell_length_b 22.615405
_cell_length_c 7.601228
_cell_angle_alpha 90.000000
_cell_angle_beta 90.000000
_cell_angle_gamma 90.000000
_cell_volume 2720.235235
_symmetry_space_group_name_H-M "P B C M"
_symmetry_group_IT_number 57
_symmetry_cell_setting 'orthorhombic'
loop_
_space_group_symop_operation_xyz
x,y,z
-x,-y,1/2+z
x,1/2-y,-z
-x,1/2+y,1/2-z
-x,-y,-z
x,y,1/2-z
-x,1/2+y,z
x,1/2-y,1/2+z
loop_
_atom_site_type_symbol
_atom_site_label
_atom_site_fract_x
_atom_site_fract_y
_atom_site_fract_z
Si Si1 0.854684 0.011895 0.036945
Si Si2 0.261464 0.682197 0.961048
Si Si3 0.917388 0.361158 0.046069
Si Si4 0.585205 0.098523 0.966324
Si Si5 0.554892 0.813193 0.041579
Si Si6 0.666853 0.985134 0.954883
Si Si7 0.094579 0.119072 0.543302
Si Si8 0.275492 0.360873 0.546942
O O1 0.854291 0.013356 0.250000
O O2 0.889227 0.947933 0.975997
O O3 0.905174 0.067924 0.966409
O O4 0.758482 0.016350 0.969637
O O5 0.258913 0.674377 0.750000
O O6 0.167994 0.666433 0.032828
O O7 0.335065 0.638459 0.023603
O O8 0.281654 0.750000 0.000000
O O9 0.918042 0.341918 0.250000
O O10 0.010595 0.350536 0.967970
O O11 0.584726 0.097581 0.750000
O O12 0.501375 0.132420 0.025225
O O13 0.599811 0.031585 0.028972
O O14 0.561358 0.818355 0.250000
O O15 0.513948 0.750000 0.000000
O O16 0.648999 0.815140 0.965953
O O17 0.645433 0.976188 0.750000
O O18 0.685189 0.921027 0.036396
O O19 0.077877 0.111668 0.750000
O O20 0.183660 0.152633 0.528243
O O21 0.257961 0.373641 0.750000
#
# Coordination Sequence:
#
# PCOD9434290 Si02
#       8
#     8   8   8   8   8   8   8   8
#     4  10  18  28  47  80 115 143 181 230 273 321
#     4  10  20  35  54  76 107 145 186 226 273 329
#     4  10  19  33  53  74 105 150 189 224 274 335
#     4   9  18  35  59  84 110 145 183 223 274 333
#     4  11  23  40  62  84 110 143 186 236 281 331
#     4   9  17  34  57  81 114 152 186 217 273 348
#     4   9  19  34  53  79 110 146 187 228 277 328
#     4  10  21  37  59  85 114 148 185 230 282 337
#
# _framework density 23.527376
#
# number of rings (size 3 to 8) (size 9 to 14) (size 15 to 20)
#    0.000    2.250    1.250    1.875    0.000    2.500 
#    0.000    2.500    0.000    1.500    0.000    0.000 
#    0.000    0.000    0.000    0.000    0.000    0.000 
#
# Total GULP energy -357382.974454 kJ/mol
# GULP energy per Si atom -5584.108976 kJ/mol
# Density = 2.347383 g / cm^3
# Si number density = 23.527376 Si / 1000 Ang^3
#
#
#
# Elastic Constant Matrix: (Units=GPa)
#
#
# Indices 1 2 3 4 5 6 
#
# 1 111.9229 22.5148 -7.7274 0.0000 0.0000 0.0000
# 2 22.5148 18.8114 -0.8586 0.0000 0.0000 0.0000
# 3 -7.7274 -0.8586 57.3011 0.0000 0.0000 0.0000
# 4 0.0000 0.0000 0.0000 17.3905 0.0000 0.0000
# 5 0.0000 0.0000 0.0000 0.0000 6.8357 0.0000
# 6 0.0000 0.0000 0.0000 0.0000 0.0000 10.0537
#
#
#
# Elastic Compliance Matrix: (Units=1/GPa)
#
#
# Indices 1 2 3 4 5 6 
#
# 1 0.011878 -0.014153 0.001390 0.000000 0.000000 0.000000
# 2 -0.014153 0.070059 -0.000859 0.000000 0.000000 0.000000
# 3 0.001390 -0.000859 0.017626 0.000000 0.000000 0.000000
# 4 0.000000 0.000000 0.000000 0.057503 0.000000 0.000000
# 5 0.000000 0.000000 0.000000 0.000000 0.146290 0.000000
# 6 0.000000 0.000000 0.000000 0.000000 0.000000 0.099466
#
#
# Mechanical properties :
#
#
# Convention : Reuss Voigt Hill
#
# Bulk Modulus (GPa) = 13.82756 23.98809 18.90782
# Shear Modulus (GPa) = 11.00908 18.46310 14.73609
#
# Velocity S-wave (km/s) = 2.16551 2.80438 2.50539
# Velocity P-wave (km/s) = 3.48461 4.55016 4.05256
#
# Compressibility (1/GPa) = 0.07231934
#
# Stress axis : x y z
#
# Youngs Moduli (GPa) = 84.19184 14.27376 56.73365
#
# Poissons Ratio (x) = 0.20201 -0.07884
# Poissons Ratio (y) = 1.19153 0.04872
# Poissons Ratio (z) = -0.11700 0.01226
#
# Static dielectric constant tensor:
#      x y z
#    x 1.929620 0.000000 0.000000 
#    y 0.000000 1.882230 0.000000 
#    z 0.000000 0.000000 1.886230 
# 
# From -- ./inp_files/5577.got.cif
#   From: 2010.05.17/outbox.cif.g08.bks.cpg/sg57_3_cif.got.tgz:5577.got - 2010.06.03 13:58:18.
