data_PCOD9434203
_publ_section_title
;
Structure prediction by ZEFSAII (Michael W. Deem and Ramdas Pophale) SiO2 
 PCOD9434203
Probable space group: P B C M
;
_chemical_formula_sum "Si O2"
_cell_formula_units_Z 56
_cell_length_a 20.081353
_cell_length_b 18.887571
_cell_length_c 7.963938
_cell_angle_alpha 90.000000
_cell_angle_beta 90.000000
_cell_angle_gamma 90.000000
_cell_volume 3020.625961
_symmetry_space_group_name_H-M "P B C M"
_symmetry_group_IT_number 57
_symmetry_cell_setting 'orthorhombic'
loop_
_space_group_symop_operation_xyz
x,y,z
-x,-y,1/2+z
x,1/2-y,-z
-x,1/2+y,1/2-z
-x,-y,-z
x,y,1/2-z
-x,1/2+y,z
x,1/2-y,1/2+z
loop_
_atom_site_type_symbol
_atom_site_label
_atom_site_fract_x
_atom_site_fract_y
_atom_site_fract_z
Si Si1 0.555504 0.332947 0.547734
Si Si2 0.701141 0.167983 0.047169
Si Si3 0.927538 0.526797 0.547890
Si Si4 0.588417 0.667647 0.449857
Si Si5 0.726769 0.600851 0.548571
Si Si6 0.206705 0.544439 0.455272
Si Si7 0.861298 0.671075 0.952024
O O1 0.555054 0.250000 0.500000
O O2 0.555811 0.339730 0.750000
O O3 0.627886 0.358680 0.487476
O O4 0.483658 0.359987 0.484800
O O5 0.700442 0.164855 0.250000
O O6 0.759686 0.116837 0.986031
O O7 0.709441 0.250000 0.000000
O O8 0.924412 0.528320 0.750000
O O9 0.868037 0.474728 0.489718
O O10 0.908029 0.606203 0.489103
O O11 0.000000 0.500000 0.500000
O O12 0.595903 0.750000 0.500000
O O13 0.585277 0.665702 0.250000
O O14 0.653379 0.625120 0.502547
O O15 0.730360 0.601115 0.750000
O O16 0.747340 0.522108 0.493747
O O17 0.786000 0.652918 0.487746
O O18 0.205808 0.545965 0.250000
O O19 0.860523 0.668213 0.750000
O O20 0.881417 0.750000 0.000000
#
# Coordination Sequence:
#
# PCOD9434203 Si02
#       7
#     8   8   8   8   8   8   8
#     4   8  15  26  41  61  86 116 152 190 229 269
#     4   9  16  30  51  70  88 117 155 194 232 272
#     4   9  18  34  53  73  96 124 154 185 223 272
#     4  10  18  27  40  62  91 121 153 192 231 269
#     4   9  17  30  46  65  90 122 156 189 224 269
#     4   8  16  32  52  69  90 121 153 182 224 280
#     4   9  18  31  48  70  95 121 155 192 224 263
#
# _framework density 18.539204000000002
#
# number of rings (size 3 to 8) (size 9 to 14) (size 15 to 20)
#    0.000    3.143    0.000    2.571    0.000    2.857 
#    0.000    5.000    0.000    3.429    0.000    0.000 
#    0.000    0.000    0.000    0.000    0.000    0.000 
#
# Total GULP energy -311772.447956 kJ/mol
# GULP energy per Si atom -5567.365142 kJ/mol
# Density = 1.849701 g / cm^3
# Si number density = 18.539204 Si / 1000 Ang^3
#
#
#
# Elastic Constant Matrix: (Units=GPa)
#
#
# Indices 1 2 3 4 5 6 
#
# 1 189.4052 100.7545 11.7175 0.0000 0.0000 0.0000
# 2 100.7545 100.1414 7.3968 0.0000 0.0000 0.0000
# 3 11.7175 7.3968 13.5435 0.0000 0.0000 0.0000
# 4 0.0000 0.0000 0.0000 16.5283 0.0000 0.0000
# 5 0.0000 0.0000 0.0000 0.0000 16.8110 0.0000
# 6 0.0000 0.0000 0.0000 0.0000 0.0000 26.8320
#
#
#
# Elastic Compliance Matrix: (Units=1/GPa)
#
#
# Indices 1 2 3 4 5 6 
#
# 1 0.011544 -0.011334 -0.003797 0.000000 0.000000 0.000000
# 2 -0.011334 0.021534 -0.001955 0.000000 0.000000 0.000000
# 3 -0.003797 -0.001955 0.078189 0.000000 0.000000 0.000000
# 4 0.000000 0.000000 0.000000 0.060502 0.000000 0.000000
# 5 0.000000 0.000000 0.000000 0.000000 0.059485 0.000000
# 6 0.000000 0.000000 0.000000 0.000000 0.000000 0.037269
#
#
# Mechanical properties :
#
#
# Convention : Reuss Voigt Hill
#
# Bulk Modulus (GPa) = 12.97109 60.31418 36.64264
# Shear Modulus (GPa) = 15.22568 24.24902 19.73735
#
# Velocity S-wave (km/s) = 2.86889 3.62053 3.26640
# Velocity P-wave (km/s) = 4.24097 7.07684 5.83384
#
# Compressibility (1/GPa) = 0.07709454
#
# Stress axis : x y z
#
# Youngs Moduli (GPa) = 86.62744 46.43919 12.78948
#
# Poissons Ratio (x) = 0.52634 0.04857
# Poissons Ratio (y) = 0.98182 0.02500
# Poissons Ratio (z) = 0.32895 0.09078
#
# Static dielectric constant tensor:
#      x y z
#    x 1.678010 0.000000 0.000000 
#    y 0.000000 1.622460 0.000000 
#    z 0.000000 0.000000 1.672950 
# 
# From -- ./inp_files/8333.got.cif
#   From: 2010.05.17/outbox.cif.g08.bks.cpg/sg57_5_cif.got.tgz:8333.got - 2010.06.03 13:58:18.
