data_PCOD9434469
_publ_section_title
;
Structure prediction by ZEFSAII (Michael W. Deem and Ramdas Pophale) SiO2 
 PCOD9434469
Probable space group: P B C M
;
_chemical_formula_sum "Si O2"
_cell_formula_units_Z 56
_cell_length_a 12.829503
_cell_length_b 21.832127
_cell_length_c 11.647367
_cell_angle_alpha 90.000000
_cell_angle_beta 90.000000
_cell_angle_gamma 90.000000
_cell_volume 3262.373206
_symmetry_space_group_name_H-M "P B C M"
_symmetry_group_IT_number 57
_symmetry_cell_setting 'orthorhombic'
loop_
_space_group_symop_operation_xyz
x,y,z
-x,-y,1/2+z
x,1/2-y,-z
-x,1/2+y,1/2-z
-x,-y,-z
x,y,1/2-z
-x,1/2+y,z
x,1/2-y,1/2+z
loop_
_atom_site_type_symbol
_atom_site_label
_atom_site_fract_x
_atom_site_fract_y
_atom_site_fract_z
Si Si1 0.854577 0.314896 0.959236
Si Si2 0.380390 0.457706 0.122614
Si Si3 0.996576 0.581234 0.376626
Si Si4 0.749686 0.412206 0.115055
Si Si5 0.452644 0.588802 0.040369
Si Si6 0.154474 0.481828 0.036120
Si Si7 0.374291 0.714148 0.121488
O O1 0.936099 0.357733 0.894872
O O2 0.748990 0.301923 0.887543
O O3 0.897600 0.250000 0.000000
O O4 0.814266 0.354448 0.067749
O O5 0.404486 0.434718 0.250000
O O6 0.424739 0.527164 0.110002
O O7 0.437610 0.420053 0.022668
O O8 0.256651 0.460647 0.102975
O O9 0.949650 0.580277 0.250000
O O10 0.077075 0.524229 0.389661
O O11 0.911987 0.571047 0.475838
O O12 0.744955 0.413601 0.250000
O O13 0.804156 0.472480 0.063433
O O14 0.635728 0.408443 0.058680
O O15 0.437478 0.650531 0.111642
O O16 0.392762 0.741820 0.250000
O O17 0.395808 0.750000 0.000000
#
# Coordination Sequence:
#
# PCOD9434469 Si02
#       7
#     8   8   8   8   8   8   8
#     4   9  19  30  46  72  97 125 163 202 245 294
#     4  10  18  31  50  71 101 132 159 198 245 294
#     4  10  18  31  49  66  93 128 161 201 247 295
#     4   9  16  28  44  66 100 129 154 196 243 293
#     4   9  19  30  47  76 100 127 163 195 238 294
#     4   9  19  30  45  72  94 122 165 200 241 294
#     4  10  20  34  52  75 104 135 167 203 245 296
#
# _framework density 17.165417999999999
#
# number of rings (size 3 to 8) (size 9 to 14) (size 15 to 20)
#    0.000    2.571    0.000    3.000    0.000    6.286 
#    0.000    2.857    0.000    0.857    0.000    0.000 
#    0.000    0.000    0.000    0.000    0.000    0.000 
#
# Total GULP energy -312087.236612 kJ/mol
# GULP energy per Si atom -5572.986368 kJ/mol
# Density = 1.712635 g / cm^3
# Si number density = 17.165418 Si / 1000 Ang^3
#
#
#
# Elastic Constant Matrix: (Units=GPa)
#
#
# Indices 1 2 3 4 5 6 
#
# 1 48.3498 5.8921 2.3651 0.0000 0.0000 0.0000
# 2 5.8921 55.9309 11.0440 0.0000 0.0000 0.0000
# 3 2.3651 11.0440 97.6548 0.0000 0.0000 0.0000
# 4 0.0000 0.0000 0.0000 7.8359 0.0000 0.0000
# 5 0.0000 0.0000 0.0000 0.0000 3.9064 0.0000
# 6 0.0000 0.0000 0.0000 0.0000 0.0000 20.7732
#
#
#
# Elastic Compliance Matrix: (Units=1/GPa)
#
#
# Indices 1 2 3 4 5 6 
#
# 1 0.020958 -0.002156 -0.000264 0.000000 0.000000 0.000000
# 2 -0.002156 0.018509 -0.002041 0.000000 0.000000 0.000000
# 3 -0.000264 -0.002041 0.010477 0.000000 0.000000 0.000000
# 4 0.000000 0.000000 0.000000 0.127618 0.000000 0.000000
# 5 0.000000 0.000000 0.000000 0.000000 0.255988 0.000000
# 6 0.000000 0.000000 0.000000 0.000000 0.000000 0.048139
#
#
# Mechanical properties :
#
#
# Convention : Reuss Voigt Hill
#
# Bulk Modulus (GPa) = 24.37615 26.72643 25.55129
# Shear Modulus (GPa) = 9.91501 18.67872 14.29686
#
# Velocity S-wave (km/s) = 2.40597 3.30231 2.88911
# Velocity P-wave (km/s) = 4.68506 5.49036 5.10362
#
# Compressibility (1/GPa) = 0.04102370
#
# Stress axis : x y z
#
# Youngs Moduli (GPa) = 47.71401 54.02682 95.44386
#
# Poissons Ratio (x) = 0.11647 0.02518
# Poissons Ratio (y) = 0.10286 0.19481
# Poissons Ratio (z) = 0.01259 0.11027
#
# Static dielectric constant tensor:
#      x y z
#    x 1.574220 0.000000 0.000000 
#    y 0.000000 1.594380 0.000000 
#    z 0.000000 0.000000 1.599920 
# 
# From -- ./inp_files/13080.got.cif
#   From: 2010.05.17/outbox.cif.g08.bks.cpg/sg57_7_cif.got.tgz:13080.got - 2010.06.03 13:58:18.
