data_PCOD9434291
_publ_section_title
;
Structure prediction by ZEFSAII (Michael W. Deem and Ramdas Pophale) SiO2 
 PCOD9434291
Probable space group: P B C M
;
_chemical_formula_sum "Si O2"
_cell_formula_units_Z 64
_cell_length_a 15.933282
_cell_length_b 22.321661
_cell_length_c 8.703160
_cell_angle_alpha 90.000000
_cell_angle_beta 90.000000
_cell_angle_gamma 90.000000
_cell_volume 3095.342556
_symmetry_space_group_name_H-M "P B C M"
_symmetry_group_IT_number 57
_symmetry_cell_setting 'orthorhombic'
loop_
_space_group_symop_operation_xyz
x,y,z
-x,-y,1/2+z
x,1/2-y,-z
-x,1/2+y,1/2-z
-x,-y,-z
x,y,1/2-z
-x,1/2+y,z
x,1/2-y,1/2+z
loop_
_atom_site_type_symbol
_atom_site_label
_atom_site_fract_x
_atom_site_fract_y
_atom_site_fract_z
Si Si1 0.092337 0.101300 0.566357
Si Si2 0.609117 0.367923 0.065206
Si Si3 0.038346 0.810818 0.933080
Si Si4 0.748067 0.684325 0.935178
Si Si5 0.628290 0.507085 0.431575
Si Si6 0.805018 0.007195 0.433391
Si Si7 0.214765 0.647605 0.066808
Si Si8 0.572422 0.628421 0.565184
O O1 0.079660 0.106005 0.750000
O O2 0.176021 0.139512 0.526111
O O3 0.114145 0.032541 0.528250
O O4 0.014852 0.131875 0.483217
O O5 0.612946 0.365481 0.250000
O O6 0.612027 0.438490 0.019494
O O7 0.517499 0.345275 0.013596
O O8 0.694100 0.338923 0.002151
O O9 0.039668 0.807412 0.750000
O O10 0.134003 0.816864 0.991792
O O11 0.999824 0.750000 0.000000
O O12 0.744685 0.686806 0.750000
O O13 0.656961 0.660754 0.991190
O O14 0.764264 0.750000 0.000000
O O15 0.613815 0.511431 0.250000
O O16 0.725506 0.517271 0.473961
O O17 0.577762 0.558886 0.516704
O O18 0.788905 0.998730 0.250000
O O19 0.807965 0.077759 0.463362
O O20 0.220693 0.654944 0.250000
O O21 0.573417 0.630592 0.750000
#
# Coordination Sequence:
#
# PCOD9434291 Si02
#       8
#     8   8   8   8   8   8   8   8
#     4  10  20  36  59  85 110 143 181 220 274 336
#     4   9  19  33  53  80 110 143 182 224 271 321
#     4  11  24  41  60  84 109 142 186 232 278 325
#     4  10  21  36  53  75 105 144 185 223 270 324
#     4  10  18  28  47  81 114 142 180 222 264 315
#     4   9  17  34  57  81 113 150 179 212 273 340
#     4   9  20  38  59  82 112 145 182 227 275 329
#     4  10  19  34  52  73 106 148 186 221 267 325
#
# _framework density 20.676226
#
# number of rings (size 3 to 8) (size 9 to 14) (size 15 to 20)
#    0.000    2.250    1.250    1.500    0.000    5.000 
#    0.000    0.625    0.000    3.000    0.000    0.000 
#    0.000    0.000    0.000    0.000    0.000    0.000 
#
# Total GULP energy -357193.318351 kJ/mol
# GULP energy per Si atom -5581.145599 kJ/mol
# Density = 2.062917 g / cm^3
# Si number density = 20.676226 Si / 1000 Ang^3
#
#
#
# Elastic Constant Matrix: (Units=GPa)
#
#
# Indices 1 2 3 4 5 6 
#
# 1 99.2743 3.1519 16.8645 0.0000 0.0000 0.0000
# 2 3.1519 14.6669 6.5838 0.0000 0.0000 0.0000
# 3 16.8645 6.5838 -1.5700 0.0000 0.0000 0.0000
# 4 0.0000 0.0000 0.0000 11.5658 0.0000 0.0000
# 5 0.0000 0.0000 0.0000 0.0000 23.5618 0.0000
# 6 0.0000 0.0000 0.0000 0.0000 0.0000 12.8647
#
#
#
# Elastic Compliance Matrix: (Units=1/GPa)
#
#
# Indices 1 2 3 4 5 6 
#
# 1 0.006608 -0.011546 0.022558 0.000000 0.000000 0.000000
# 2 -0.011546 0.043829 0.059775 0.000000 0.000000 0.000000
# 3 0.022558 0.059775 -0.143962 0.000000 0.000000 0.000000
# 4 0.000000 0.000000 0.000000 0.086462 0.000000 0.000000
# 5 0.000000 0.000000 0.000000 0.000000 0.042442 0.000000
# 6 0.000000 0.000000 0.000000 0.000000 0.000000 0.077732
#
#
# Mechanical properties :
#
#
# Convention : Reuss Voigt Hill
#
# Bulk Modulus (GPa) = 20.81183 18.39686 19.60435
# Shear Modulus (GPa) = -401.66790 15.31652 -193.17569
#
# Velocity S-wave (km/s) = -13.95304 2.72468 -9.67635
# Velocity P-wave (km/s) = 15.79543 4.33767 10.73965
#
# Compressibility (1/GPa) = 0.04804960
#
# Stress axis : x y z
#
# Youngs Moduli (GPa) = 151.34220 22.81573 -6.94626
#
# Poissons Ratio (x) = 0.26343 0.15670
# Poissons Ratio (y) = 1.74741 0.41522
# Poissons Ratio (z) = -3.41401 -1.36382
#
# Static dielectric constant tensor:
#      x y z
#    x 1.781800 0.000000 0.000000 
#    y 0.000000 1.736380 0.000000 
#    z 0.000000 0.000000 1.699460 
# 
# From -- ./inp_files/5603.got.cif
#   From: 2010.05.17/outbox.cif.g08.bks.cpg/sg57_3_cif.got.tgz:5603.got - 2010.06.03 13:58:18.
