data_PCOD9434043
_publ_section_title
;
Structure prediction by ZEFSAII (Michael W. Deem and Ramdas Pophale) SiO2 
 PCOD9434043
Probable space group: P B C M
;
_chemical_formula_sum "Si O2"
_cell_formula_units_Z 56
_cell_length_a 14.297328
_cell_length_b 29.249175
_cell_length_c 7.993149
_cell_angle_alpha 90.000000
_cell_angle_beta 90.000000
_cell_angle_gamma 90.000000
_cell_volume 3342.615404
_symmetry_space_group_name_H-M "P B C M"
_symmetry_group_IT_number 57
_symmetry_cell_setting 'orthorhombic'
loop_
_space_group_symop_operation_xyz
x,y,z
-x,-y,1/2+z
x,1/2-y,-z
-x,1/2+y,1/2-z
-x,-y,-z
x,y,1/2-z
-x,1/2+y,z
x,1/2-y,1/2+z
loop_
_atom_site_type_symbol
_atom_site_label
_atom_site_fract_x
_atom_site_fract_y
_atom_site_fract_z
Si Si1 0.603444 0.514465 0.048165
Si Si2 0.218155 0.539971 0.946081
Si Si3 0.240965 0.300360 0.551478
Si Si4 0.889322 0.547804 0.948274
Si Si5 0.932349 0.106006 0.544466
Si Si6 0.292099 0.396697 0.953368
Si Si7 0.023431 0.300739 0.449312
O O1 0.609671 0.514251 0.250000
O O2 0.684663 0.479988 0.983051
O O3 0.631717 0.565761 0.992309
O O4 0.500000 0.500000 0.000000
O O5 0.234795 0.548377 0.750000
O O6 0.165826 0.584696 0.014636
O O7 0.143933 0.498406 0.962963
O O8 0.272996 0.250000 0.500000
O O9 0.244099 0.301582 0.750000
O O10 0.298173 0.344347 0.488039
O O11 0.131853 0.305655 0.502293
O O12 0.895299 0.538952 0.750000
O O13 0.985072 0.571071 0.005909
O O14 0.806706 0.583830 0.983394
O O15 0.931521 0.106254 0.750000
O O16 0.961984 0.156620 0.487566
O O17 0.290511 0.397183 0.750000
O O18 0.991624 0.250000 0.500000
O O19 0.022529 0.302849 0.250000
#
# Coordination Sequence:
#
# PCOD9434043 Si02
#       7
#     8   8   8   8   8   8   8
#     4   9  18  32  49  66  86 111 144 182 224 271
#     4   9  18  32  45  61  86 117 146 175 217 270
#     4  10  18  28  43  63  89 120 152 182 213 253
#     4  10  17  26  41  64  90 116 147 182 210 243
#     4   9  17  28  43  61  87 119 150 180 212 249
#     4   9  18  31  45  63  89 123 151 175 217 270
#     4  10  18  29  42  61  88 120 154 185 214 248
#
# _framework density 16.753347999999999
#
# number of rings (size 3 to 8) (size 9 to 14) (size 15 to 20)
#    0.000    2.571    1.429    3.429    0.000    2.857 
#    0.000    2.143    0.000    0.000    0.000    1.000 
#    0.000    6.857    0.000    0.000    0.000    0.000 
#
# Total GULP energy -311966.901428 kJ/mol
# GULP energy per Si atom -5570.837526 kJ/mol
# Density = 1.671522 g / cm^3
# Si number density = 16.753348 Si / 1000 Ang^3
#
#
#
# Elastic Constant Matrix: (Units=GPa)
#
#
# Indices 1 2 3 4 5 6 
#
# 1 95.0790 79.3686 5.0657 0.0000 0.0000 0.0000
# 2 79.3686 104.9206 1.0611 0.0000 0.0000 0.0000
# 3 5.0657 1.0611 12.3033 0.0000 0.0000 0.0000
# 4 0.0000 0.0000 0.0000 4.8321 0.0000 0.0000
# 5 0.0000 0.0000 0.0000 0.0000 13.2007 0.0000
# 6 0.0000 0.0000 0.0000 0.0000 0.0000 19.2761
#
#
#
# Elastic Compliance Matrix: (Units=1/GPa)
#
#
# Indices 1 2 3 4 5 6 
#
# 1 0.029796 -0.022435 -0.010333 0.000000 0.000000 0.000000
# 2 -0.022435 0.026432 0.006958 0.000000 0.000000 0.000000
# 3 -0.010333 0.006958 0.084934 0.000000 0.000000 0.000000
# 4 0.000000 0.000000 0.000000 0.206948 0.000000 0.000000
# 5 0.000000 0.000000 0.000000 0.000000 0.075754 0.000000
# 6 0.000000 0.000000 0.000000 0.000000 0.000000 0.051878
#
#
# Mechanical properties :
#
#
# Convention : Reuss Voigt Hill
#
# Bulk Modulus (GPa) = 11.16814 42.58819 26.87816
# Shear Modulus (GPa) = 8.97328 15.91561 12.44444
#
# Velocity S-wave (km/s) = 2.31684 3.08554 2.72840
# Velocity P-wave (km/s) = 3.71990 6.17819 5.09940
#
# Compressibility (1/GPa) = 0.08954046
#
# Stress axis : x y z
#
# Youngs Moduli (GPa) = 33.56125 37.83280 11.77390
#
# Poissons Ratio (x) = 0.84879 0.12166
# Poissons Ratio (y) = 0.75296 -0.08192
# Poissons Ratio (z) = 0.34680 -0.26323
#
# Static dielectric constant tensor:
#      x y z
#    x 1.550720 0.000000 0.000000 
#    y 0.000000 1.626690 0.000000 
#    z 0.000000 0.000000 1.608460 
# 
# From -- ./inp_files/5882.got.cif
#   From: 2010.05.17/outbox.cif.g08.bks.cpg/sg57_3_cif.got.tgz:5882.got - 2010.06.03 13:58:18.
