data_PCOD9434710
_publ_section_title
;
Structure prediction by ZEFSAII (Michael W. Deem and Ramdas Pophale) SiO2 
 PCOD9434710
Probable space group: P B C M
;
_chemical_formula_sum "Si O2"
_cell_formula_units_Z 48
_cell_length_a 14.155925
_cell_length_b 20.379702
_cell_length_c 10.225036
_cell_angle_alpha 90.000000
_cell_angle_beta 90.000000
_cell_angle_gamma 90.000000
_cell_volume 2949.856761
_symmetry_space_group_name_H-M "P B C M"
_symmetry_group_IT_number 57
_symmetry_cell_setting 'orthorhombic'
loop_
_space_group_symop_operation_xyz
x,y,z
-x,-y,1/2+z
x,1/2-y,-z
-x,1/2+y,1/2-z
-x,-y,-z
x,y,1/2-z
-x,1/2+y,z
x,1/2-y,1/2+z
loop_
_atom_site_type_symbol
_atom_site_label
_atom_site_fract_x
_atom_site_fract_y
_atom_site_fract_z
Si Si1 0.729530 0.545298 0.499579
Si Si2 0.148641 0.057980 0.750000
Si Si3 0.863101 0.539651 0.250000
Si Si4 0.069101 0.907042 0.750000
Si Si5 0.850229 0.327709 0.996180
Si Si6 0.059713 0.892172 0.250000
Si Si7 0.528373 0.560853 0.406557
Si Si8 0.674002 0.398222 0.593501
O O1 0.786631 0.570729 0.624215
O O2 0.799197 0.548179 0.377235
O O3 0.631641 0.580241 0.458615
O O4 0.703109 0.469760 0.536788
O O5 0.053453 0.100709 0.750000
O O6 0.114727 0.980773 0.750000
O O7 0.901015 0.465744 0.250000
O O8 0.956426 0.583991 0.250000
O O9 0.102022 0.866033 0.624624
O O10 0.739762 0.346495 0.980137
O O11 0.862190 0.250000 0.000000
O O12 0.898426 0.356764 0.124225
O O13 0.500000 0.500000 0.500000
O O14 0.534009 0.544099 0.250000
O O15 0.438891 0.609096 0.421525
O O16 0.693214 0.397285 0.750000
#
# Coordination Sequence:
#
# PCOD9434710 Si02
#       8
#     8   4   4   4   8   4   8   8
#     4  11  17  32  49  80 106 140 170 207 268 323
#     4  11  20  34  56  72 112 147 166 217 277 327
#     4  11  20  30  56  74 110 135 176 227 263 325
#     4  11  21  38  49  75 104 147 179 213 276 317
#     4  12  22  36  54  74 105 143 179 221 259 314
#     4  11  23  34  49  83 106 137 181 223 264 309
#     4   9  19  29  48  73 107 137 164 203 252 311
#     4  10  18  34  50  73 107 143 172 204 263 323
#
# _framework density 16.271975999999999
#
# number of rings (size 3 to 8) (size 9 to 14) (size 15 to 20)
#    0.000    1.333    5.833    1.500    1.167    2.667 
#    0.000    0.000    0.000    0.000    0.000    7.000 
#    0.000    0.000    0.000    0.000    0.000    0.000 
#
# Total GULP energy -267536.339460 kJ/mol
# GULP energy per Si atom -5573.673739 kJ/mol
# Density = 1.623494 g / cm^3
# Si number density = 16.271976 Si / 1000 Ang^3
#
#
#
# Elastic Constant Matrix: (Units=GPa)
#
#
# Indices 1 2 3 4 5 6 
#
# 1 174.3801 38.2274 79.9380 0.0000 0.0000 0.0000
# 2 38.2274 59.0223 32.2642 0.0000 0.0000 0.0000
# 3 79.9380 32.2642 152.3434 0.0000 0.0000 0.0000
# 4 0.0000 0.0000 0.0000 -8.2302 0.0000 0.0000
# 5 0.0000 0.0000 0.0000 0.0000 40.5147 0.0000
# 6 0.0000 0.0000 0.0000 0.0000 0.0000 13.8003
#
#
#
# Elastic Compliance Matrix: (Units=1/GPa)
#
#
# Indices 1 2 3 4 5 6 
#
# 1 0.008081 -0.003298 -0.003542 0.000000 0.000000 0.000000
# 2 -0.003298 0.020507 -0.002613 0.000000 0.000000 0.000000
# 3 -0.003542 -0.002613 0.008976 0.000000 0.000000 0.000000
# 4 0.000000 0.000000 0.000000 -0.121503 0.000000 0.000000
# 5 0.000000 0.000000 0.000000 0.000000 0.024682 0.000000
# 6 0.000000 0.000000 0.000000 0.000000 0.000000 0.072462
#
#
# Mechanical properties :
#
#
# Convention : Reuss Voigt Hill
#
# Bulk Modulus (GPa) = 53.59280 76.28945 64.94113
# Shear Modulus (GPa) = 130.44698 24.90471 77.67585
#
# Velocity S-wave (km/s) = 8.96330 3.91644 6.91662
# Velocity P-wave (km/s) = 11.83757 8.21201 10.18737
#
# Compressibility (1/GPa) = 0.01865922
#
# Stress axis : x y z
#
# Youngs Moduli (GPa) = 123.74354 48.76421 111.40835
#
# Poissons Ratio (x) = 0.16082 0.39461
# Poissons Ratio (y) = 0.40809 0.29107
# Poissons Ratio (z) = 0.43830 0.12740
#
# Static dielectric constant tensor:
#      x y z
#    x 1.588710 0.000000 0.000000 
#    y 0.000000 1.504290 0.000000 
#    z 0.000000 0.000000 2.271550 
# 
# From -- ./inp_files/4772.got.cif
#   From: 2010.05.17/outbox.cif.g08.bks.cpg/sg57_3_cif.got.tgz:4772.got - 2010.06.03 13:58:18.
