data_PCOD9434400
_publ_section_title
;
Structure prediction by ZEFSAII (Michael W. Deem and Ramdas Pophale) SiO2 
 PCOD9434400
Probable space group: P B C M
;
_chemical_formula_sum "Si O2"
_cell_formula_units_Z 64
_cell_length_a 15.316479
_cell_length_b 30.419973
_cell_length_c 8.665511
_cell_angle_alpha 90.000000
_cell_angle_beta 90.000000
_cell_angle_gamma 90.000000
_cell_volume 4037.494483
_symmetry_space_group_name_H-M "P B C M"
_symmetry_group_IT_number 57
_symmetry_cell_setting 'orthorhombic'
loop_
_space_group_symop_operation_xyz
x,y,z
-x,-y,1/2+z
x,1/2-y,-z
-x,1/2+y,1/2-z
-x,-y,-z
x,y,1/2-z
-x,1/2+y,z
x,1/2-y,1/2+z
loop_
_atom_site_type_symbol
_atom_site_label
_atom_site_fract_x
_atom_site_fract_y
_atom_site_fract_z
Si Si1 0.960673 0.111223 0.934802
Si Si2 0.201785 0.204129 0.932699
Si Si3 0.624956 0.031238 0.564040
Si Si4 0.126619 0.059903 0.434783
Si Si5 0.175669 0.537455 0.561837
Si Si6 0.706670 0.620780 0.065338
Si Si7 0.547242 0.563537 0.435842
Si Si8 0.006643 0.202859 0.433810
O O1 0.959169 0.115219 0.750000
O O2 0.882842 0.078726 0.985466
O O3 0.050433 0.087282 0.984451
O O4 0.956968 0.159734 0.006750
O O5 0.190034 0.207331 0.750000
O O6 0.235921 0.250000 0.000000
O O7 0.263100 0.164001 0.977985
O O8 0.106699 0.197040 0.009101
O O9 0.624981 0.032310 0.750000
O O10 0.723586 0.039940 0.510982
O O11 0.549807 0.063388 0.502910
O O12 0.593814 0.982308 0.516535
O O13 0.110816 0.060783 0.250000
O O14 0.219579 0.083511 0.461315
O O15 0.133868 0.009224 0.486485
O O16 0.176341 0.536456 0.750000
O O17 0.706152 0.629005 0.250000
O O18 0.612627 0.602256 0.017977
O O19 0.542469 0.563235 0.250000
O O20 0.976420 0.250000 0.500000
O O21 0.005588 0.204498 0.250000
#
# Coordination Sequence:
#
# PCOD9434400 Si02
#       8
#     8   8   8   8   8   8   8   8
#     4  11  21  32  47  71  99 129 167 206 242 287
#     4  11  21  33  50  72  98 125 160 199 242 289
#     4   9  16  30  48  67  92 126 164 201 239 281
#     4  10  18  31  48  66  95 136 172 200 235 283
#     4   9  18  32  49  68  96 135 172 204 243 287
#     4  10  18  30  49  70  98 133 165 195 240 291
#     4   9  17  29  47  70  95 125 159 198 242 284
#     4  11  21  35  52  70  94 124 160 200 247 292
#
# _framework density 15.851414
#
# number of rings (size 3 to 8) (size 9 to 14) (size 15 to 20)
#    0.000    2.000    2.500    3.750    0.000    0.500 
#    0.000    2.500    0.000    0.000    0.000    0.875 
#    0.000    6.000    0.000    0.000    0.000    0.000 
#
# Total GULP energy -357062.700881 kJ/mol
# GULP energy per Si atom -5579.104701 kJ/mol
# Density = 1.581534 g / cm^3
# Si number density = 15.851414 Si / 1000 Ang^3
#
#
#
# Elastic Constant Matrix: (Units=GPa)
#
#
# Indices 1 2 3 4 5 6 
#
# 1 65.2916 45.8006 23.5470 0.0000 0.0000 0.0000
# 2 45.8006 130.4669 44.0043 0.0000 0.0000 0.0000
# 3 23.5470 44.0043 55.1513 0.0000 0.0000 0.0000
# 4 0.0000 0.0000 0.0000 18.5966 0.0000 0.0000
# 5 0.0000 0.0000 0.0000 0.0000 17.8613 0.0000
# 6 0.0000 0.0000 0.0000 0.0000 0.0000 21.5078
#
#
#
# Elastic Compliance Matrix: (Units=1/GPa)
#
#
# Indices 1 2 3 4 5 6 
#
# 1 0.021015 -0.005953 -0.004222 0.000000 0.000000 0.000000
# 2 -0.005953 0.012173 -0.007171 0.000000 0.000000 0.000000
# 3 -0.004222 -0.007171 0.025657 0.000000 0.000000 0.000000
# 4 0.000000 0.000000 0.000000 0.053773 0.000000 0.000000
# 5 0.000000 0.000000 0.000000 0.000000 0.055987 0.000000
# 6 0.000000 0.000000 0.000000 0.000000 0.000000 0.046495
#
#
# Mechanical properties :
#
#
# Convention : Reuss Voigt Hill
#
# Bulk Modulus (GPa) = 41.40597 53.06817 47.23707
# Shear Modulus (GPa) = 19.39164 20.76368 20.07766
#
# Velocity S-wave (km/s) = 3.50142 3.62317 3.56282
# Velocity P-wave (km/s) = 6.52109 7.14523 6.84028
#
# Compressibility (1/GPa) = 0.02415111
#
# Stress axis : x y z
#
# Youngs Moduli (GPa) = 47.58587 82.14654 38.97642
#
# Poissons Ratio (x) = 0.48903 0.16457
# Poissons Ratio (y) = 0.28328 0.27951
# Poissons Ratio (z) = 0.20093 0.58909
#
# Static dielectric constant tensor:
#      x y z
#    x 1.516970 0.000000 0.000000 
#    y 0.000000 1.550760 0.000000 
#    z 0.000000 0.000000 1.539480 
# 
# From -- ./inp_files/6070.got.cif
#   From: 2010.05.17/outbox.cif.g08.bks.cpg/sg57_4_cif.got.tgz:6070.got - 2010.06.03 13:58:18.
