data_PCOD9434686
_publ_section_title
;
Structure prediction by ZEFSAII (Michael W. Deem and Ramdas Pophale) SiO2 
 PCOD9434686
Probable space group: P B C M
;
_chemical_formula_sum "Si O2"
_cell_formula_units_Z 48
_cell_length_a 8.896524
_cell_length_b 7.985490
_cell_length_c 29.445160
_cell_angle_alpha 90.000000
_cell_angle_beta 90.000000
_cell_angle_gamma 90.000000
_cell_volume 2091.875548
_symmetry_space_group_name_H-M "P B C M"
_symmetry_group_IT_number 57
_symmetry_cell_setting 'orthorhombic'
loop_
_space_group_symop_operation_xyz
x,y,z
-x,-y,1/2+z
x,1/2-y,-z
-x,1/2+y,1/2-z
-x,-y,-z
x,y,1/2-z
-x,1/2+y,z
x,1/2-y,1/2+z
loop_
_atom_site_type_symbol
_atom_site_label
_atom_site_fract_x
_atom_site_fract_y
_atom_site_fract_z
Si Si1 0.557303 0.157524 0.871068
Si Si2 0.729785 0.683738 0.104776
Si Si3 0.991760 0.455660 0.852794
Si Si4 0.774720 0.138414 0.431737
Si Si5 0.163789 0.989081 0.021777
Si Si6 0.205352 0.777592 0.302839
O O1 0.381741 0.167076 0.882235
O O2 0.635093 0.293840 0.903678
O O3 0.624884 0.206442 0.821842
O O4 0.630971 0.979466 0.881940
O O5 0.879456 0.682067 0.134838
O O6 0.783692 0.641110 0.053608
O O7 0.099239 0.599880 0.832926
O O8 0.894474 0.457526 0.899676
O O9 0.871671 0.399201 0.815098
O O10 0.733359 0.039451 0.477392
O O11 0.840939 0.317655 0.448995
O O12 0.000000 0.000000 0.000000
O O13 0.197272 0.815443 0.250000
#
# Coordination Sequence:
#
# PCOD9434686 Si02
#       6
#     8   8   8   8   8   8
#     4   9  21  38  55  79 119 155 190 236 297 350
#     4  10  20  37  56  84 117 159 193 235 292 346
#     4  10  20  36  62  86 116 151 193 248 302 355
#     4   9  19  34  55  83 117 156 198 247 287 340
#     4  10  18  33  57  83 119 155 208 244 282 346
#     4  10  21  39  61  87 114 147 191 250 307 365
#
# _framework density 22.945914999999999
#
# number of rings (size 3 to 8) (size 9 to 14) (size 15 to 20)
#    0.000    2.333    1.667    1.500    0.000    3.333 
#    0.000    4.167    0.000    0.000    0.000    0.000 
#    0.000    0.000    0.000    0.000    0.000    0.000 
#
# Total GULP energy -267854.270185 kJ/mol
# GULP energy per Si atom -5580.297296 kJ/mol
# Density = 2.289369 g / cm^3
# Si number density = 22.945915 Si / 1000 Ang^3
#
#
#
# Elastic Constant Matrix: (Units=GPa)
#
#
# Indices 1 2 3 4 5 6 
#
# 1 112.4405 14.0442 48.9185 0.0000 0.0000 0.0000
# 2 14.0442 52.5919 15.5830 0.0000 0.0000 0.0000
# 3 48.9185 15.5830 133.9933 0.0000 0.0000 0.0000
# 4 0.0000 0.0000 0.0000 24.3545 0.0000 0.0000
# 5 0.0000 0.0000 0.0000 0.0000 16.0815 0.0000
# 6 0.0000 0.0000 0.0000 0.0000 0.0000 40.3269
#
#
#
# Elastic Compliance Matrix: (Units=1/GPa)
#
#
# Indices 1 2 3 4 5 6 
#
# 1 0.010729 -0.001765 -0.003712 0.000000 0.000000 0.000000
# 2 -0.001765 0.019983 -0.001680 0.000000 0.000000 0.000000
# 3 -0.003712 -0.001680 0.009013 0.000000 0.000000 0.000000
# 4 0.000000 0.000000 0.000000 0.041060 0.000000 0.000000
# 5 0.000000 0.000000 0.000000 0.000000 0.062183 0.000000
# 6 0.000000 0.000000 0.000000 0.000000 0.000000 0.024797
#
#
# Mechanical properties :
#
#
# Convention : Reuss Voigt Hill
#
# Bulk Modulus (GPa) = 39.35024 50.67968 45.01496
# Shear Modulus (GPa) = 26.23980 30.85125 28.54553
#
# Velocity S-wave (km/s) = 3.38531 3.67075 3.53091
# Velocity P-wave (km/s) = 5.69796 6.33249 6.02359
#
# Compressibility (1/GPa) = 0.02541280
#
# Stress axis : x y z
#
# Youngs Moduli (GPa) = 93.20656 50.04155 110.94562
#
# Poissons Ratio (x) = 0.08834 0.41179
# Poissons Ratio (y) = 0.16454 0.18634
# Poissons Ratio (z) = 0.34595 0.08405
#
# Static dielectric constant tensor:
#      x y z
#    x 1.878120 0.000000 0.000000 
#    y 0.000000 2.005020 0.000000 
#    z 0.000000 0.000000 1.845970 
# 
# From -- ./inp_files/29451.got.cif
#   From: 2010.05.17/outbox.cif.g08.bks.cpg/sg57_15_cif.got.tgz:29451.got - 2010.06.03 13:58:18.
