data_PCOD9434113
_publ_section_title
;
Structure prediction by ZEFSAII (Michael W. Deem and Ramdas Pophale) SiO2 
 PCOD9434113
Probable space group: P B C M
;
_chemical_formula_sum "Si O2"
_cell_formula_units_Z 64
_cell_length_a 15.286939
_cell_length_b 30.740570
_cell_length_c 8.524686
_cell_angle_alpha 90.000000
_cell_angle_beta 90.000000
_cell_angle_gamma 90.000000
_cell_volume 4005.999029
_symmetry_space_group_name_H-M "P B C M"
_symmetry_group_IT_number 57
_symmetry_cell_setting 'orthorhombic'
loop_
_space_group_symop_operation_xyz
x,y,z
-x,-y,1/2+z
x,1/2-y,-z
-x,1/2+y,1/2-z
-x,-y,-z
x,y,1/2-z
-x,1/2+y,z
x,1/2-y,1/2+z
loop_
_atom_site_type_symbol
_atom_site_label
_atom_site_fract_x
_atom_site_fract_y
_atom_site_fract_z
Si Si1 0.867002 0.943681 0.058997
Si Si2 0.959311 0.391783 0.060476
Si Si3 0.822716 0.459816 0.937457
Si Si4 0.210818 0.203888 0.938704
Si Si5 0.992748 0.703316 0.939214
Si Si6 0.453690 0.062348 0.437129
Si Si7 0.701834 0.614833 0.939837
Si Si8 0.628773 0.469607 0.062905
O O1 0.868113 0.943534 0.250000
O O2 0.778310 0.918894 0.011438
O O3 0.952254 0.916862 0.007174
O O4 0.863051 0.993794 0.006732
O O5 0.961241 0.391477 0.250000
O O6 0.960902 0.341330 0.008738
O O7 0.877473 0.419859 0.005004
O O8 0.828463 0.459075 0.750000
O O9 0.721539 0.459091 0.987024
O O10 0.210507 0.204205 0.750000
O O11 0.109315 0.199120 0.988703
O O12 0.266425 0.162479 0.989756
O O13 0.243604 0.250000 0.000000
O O14 0.994787 0.704544 0.750000
O O15 0.025508 0.750000 0.000000
O O16 0.462592 0.061259 0.250000
O O17 0.390273 0.100652 0.490466
O O18 0.549504 0.061706 0.512592
O O19 0.404229 0.017706 0.487763
O O20 0.697059 0.613564 0.750000
O O21 0.638166 0.469571 0.250000
#
# Coordination Sequence:
#
# PCOD9434113 Si02
#       8
#     8   8   8   8   8   8   8   8
#     4   9  17  30  47  66  95 133 169 199 232 281
#     4  10  19  33  49  67  95 133 169 200 241 293
#     4  11  21  32  48  70  97 130 167 209 245 277
#     4   9  17  29  47  69  95 128 163 200 243 288
#     4   9  17  30  48  68  92 124 161 203 246 286
#     4  10  20  32  49  73  97 122 157 202 243 280
#     4  10  17  30  50  70  96 133 167 195 239 295
#     4  10  20  34  50  69  94 127 162 197 240 289
#
# _framework density 15.976039
#
# number of rings (size 3 to 8) (size 9 to 14) (size 15 to 20)
#    0.000    2.250    2.500    1.500    0.000    2.000 
#    0.000    1.250    0.000    0.000    0.000    0.875 
#    0.000    0.000    0.000    0.000    0.000    0.000 
#
# Total GULP energy -356941.633512 kJ/mol
# GULP energy per Si atom -5577.213024 kJ/mol
# Density = 1.593968 g / cm^3
# Si number density = 15.976039 Si / 1000 Ang^3
#
#
#
# Elastic Constant Matrix: (Units=GPa)
#
#
# Indices 1 2 3 4 5 6 
#
# 1 75.3220 55.8996 10.6096 0.0000 0.0000 0.0000
# 2 55.8996 142.4618 20.4032 0.0000 0.0000 0.0000
# 3 10.6096 20.4032 10.7238 0.0000 0.0000 0.0000
# 4 0.0000 0.0000 0.0000 22.7960 0.0000 0.0000
# 5 0.0000 0.0000 0.0000 0.0000 20.4974 0.0000
# 6 0.0000 0.0000 0.0000 0.0000 0.0000 22.7648
#
#
#
# Elastic Compliance Matrix: (Units=1/GPa)
#
#
# Indices 1 2 3 4 5 6 
#
# 1 0.019041 -0.006561 -0.006355 0.000000 0.000000 0.000000
# 2 -0.006561 0.011909 -0.016168 0.000000 0.000000 0.000000
# 3 -0.006355 -0.016168 0.130299 0.000000 0.000000 0.000000
# 4 0.000000 0.000000 0.000000 0.043867 0.000000 0.000000
# 5 0.000000 0.000000 0.000000 0.000000 0.048787 0.000000
# 6 0.000000 0.000000 0.000000 0.000000 0.000000 0.043928
#
#
# Mechanical properties :
#
#
# Convention : Reuss Voigt Hill
#
# Bulk Modulus (GPa) = 9.70103 44.70358 27.20230
# Shear Modulus (GPa) = 12.80875 22.65132 17.73003
#
# Velocity S-wave (km/s) = 2.83459 3.76949 3.33496
# Velocity P-wave (km/s) = 4.09861 6.85477 5.64741
#
# Compressibility (1/GPa) = 0.10308186
#
# Stress axis : x y z
#
# Youngs Moduli (GPa) = 52.51898 83.96711 7.67467
#
# Poissons Ratio (x) = 0.55092 0.04877
# Poissons Ratio (y) = 0.34458 0.12408
# Poissons Ratio (z) = 0.33374 1.35756
#
# Static dielectric constant tensor:
#      x y z
#    x 1.511170 0.000000 0.000000 
#    y 0.000000 1.541680 0.000000 
#    z 0.000000 0.000000 1.544470 
# 
# From -- ./inp_files/6026.got.cif
#   From: 2010.05.17/outbox.cif.g08.bks.cpg/sg57_4_cif.got.tgz:6026.got - 2010.06.03 13:58:18.
