data_PCOD9434848
_publ_section_title
;
Structure prediction by ZEFSAII (Michael W. Deem and Ramdas Pophale) SiO2 
 PCOD9434848
Probable space group: P B C M
;
_chemical_formula_sum "Si O2"
_cell_formula_units_Z 44
_cell_length_a 6.896288
_cell_length_b 13.776635
_cell_length_c 17.060947
_cell_angle_alpha 90.000000
_cell_angle_beta 90.000000
_cell_angle_gamma 90.000000
_cell_volume 1620.920356
_symmetry_space_group_name_H-M "P B C M"
_symmetry_group_IT_number 57
_symmetry_cell_setting 'orthorhombic'
loop_
_space_group_symop_operation_xyz
x,y,z
-x,-y,1/2+z
x,1/2-y,-z
-x,1/2+y,1/2-z
-x,-y,-z
x,y,1/2-z
-x,1/2+y,z
x,1/2-y,1/2+z
loop_
_atom_site_type_symbol
_atom_site_label
_atom_site_fract_x
_atom_site_fract_y
_atom_site_fract_z
Si Si1 0.641485 0.133466 0.250000
Si Si2 0.960366 0.459284 0.250000
Si Si3 0.497980 0.585900 0.750000
Si Si4 0.473978 0.594084 0.077884
Si Si5 0.942977 0.750000 0.500000
Si Si6 0.053255 0.259704 0.750000
Si Si7 0.613792 0.624719 0.580058
Si Si8 0.911073 0.603022 0.383657
O O1 0.568853 0.148455 0.340492
O O2 0.833032 0.199896 0.250000
O O3 0.618970 0.014928 0.250000
O O4 0.727915 0.443797 0.250000
O O5 0.057635 0.354909 0.250000
O O6 0.000878 0.520260 0.328901
O O7 0.540858 0.640203 0.668648
O O8 0.362373 0.492147 0.076570
O O9 0.706125 0.568064 0.082949
O O10 0.464876 0.643410 0.992311
O O11 0.802264 0.686148 0.556305
O O12 0.035307 0.664138 0.447228
O O13 0.145625 0.313637 0.822428
#
# Coordination Sequence:
#
# PCOD9434848 Si02
#       8
#     4   4   4   8   4   4   8   8
#     4  10  18  38  63 101 130 169 228 285 336 414
#     4  11  21  42  65  92 134 182 210 290 346 402
#     4  10  19  38  65  99 139 170 215 283 363 391
#     4   9  17  37  69  94 138 175 219 284 344 391
#     4  10  22  38  68  98 136 186 234 278 348 408
#     4  11  26  40  67  96 133 177 239 260 349 421
#     4   9  18  33  63 106 128 170 225 275 336 413
#     4  10  21  46  64  91 137 180 221 284 336 417
#
# _framework density 27.145074000000001
#
# number of rings (size 3 to 8) (size 9 to 14) (size 15 to 20)
#    0.000    2.182    3.636    0.545    0.000    4.364 
#   13.091    2.727    0.000    0.000    0.000    0.000 
#    0.000    0.000    0.000    0.000    0.000    0.000 
#
# Total GULP energy -245582.110573 kJ/mol
# GULP energy per Si atom -5581.411604 kJ/mol
# Density = 2.708329 g / cm^3
# Si number density = 27.145074 Si / 1000 Ang^3
#
#
#
# Elastic Constant Matrix: (Units=GPa)
#
#
# Indices 1 2 3 4 5 6 
#
# 1 79.8800 28.3280 39.3284 0.0000 0.0000 0.0000
# 2 28.3280 195.4844 44.5686 0.0000 0.0000 0.0000
# 3 39.3284 44.5686 259.4140 0.0000 0.0000 0.0000
# 4 0.0000 0.0000 0.0000 30.2797 0.0000 0.0000
# 5 0.0000 0.0000 0.0000 0.0000 6.7360 0.0000
# 6 0.0000 0.0000 0.0000 0.0000 0.0000 34.1583
#
#
#
# Elastic Compliance Matrix: (Units=1/GPa)
#
#
# Indices 1 2 3 4 5 6 
#
# 1 0.013998 -0.001608 -0.001846 0.000000 0.000000 0.000000
# 2 -0.001608 0.005509 -0.000703 0.000000 0.000000 0.000000
# 3 -0.001846 -0.000703 0.004255 0.000000 0.000000 0.000000
# 4 0.000000 0.000000 0.000000 0.033025 0.000000 0.000000
# 5 0.000000 0.000000 0.000000 0.000000 0.148456 0.000000
# 6 0.000000 0.000000 0.000000 0.000000 0.000000 0.029275
#
#
# Mechanical properties :
#
#
# Convention : Reuss Voigt Hill
#
# Bulk Modulus (GPa) = 64.72753 84.35871 74.54312
# Shear Modulus (GPa) = 20.16283 42.40503 31.28393
#
# Velocity S-wave (km/s) = 2.72836 3.95671 3.39849
# Velocity P-wave (km/s) = 5.81567 7.21239 6.55136
#
# Compressibility (1/GPa) = 0.01544938
#
# Stress axis : x y z
#
# Youngs Moduli (GPa) = 71.44028 181.53223 234.99433
#
# Poissons Ratio (x) = 0.29183 0.43378
# Poissons Ratio (y) = 0.11485 0.16513
# Poissons Ratio (z) = 0.13187 0.12756
#
# Static dielectric constant tensor:
#      x y z
#    x 2.085580 0.000000 0.000000 
#    y 0.000000 2.078470 0.000000 
#    z 0.000000 0.000000 2.209920 
# 
# From -- ./inp_files/20881.got.cif
#   From: 2010.05.17/outbox.cif.g08.bks.cpg/sg57_11_cif.got.tgz:20881.got - 2010.06.03 13:58:18.
