data_PCOD9434654
_publ_section_title
;
Structure prediction by ZEFSAII (Michael W. Deem and Ramdas Pophale) SiO2 
 PCOD9434654
Probable space group: P B C M
;
_chemical_formula_sum "Si O2"
_cell_formula_units_Z 24
_cell_length_a 15.361554
_cell_length_b 5.137543
_cell_length_c 15.725439
_cell_angle_alpha 90.000000
_cell_angle_beta 90.000000
_cell_angle_gamma 90.000000
_cell_volume 1241.061777
_symmetry_space_group_name_H-M "P B C M"
_symmetry_group_IT_number 57
_symmetry_cell_setting 'orthorhombic'
loop_
_space_group_symop_operation_xyz
x,y,z
-x,-y,1/2+z
x,1/2-y,-z
-x,1/2+y,1/2-z
-x,-y,-z
x,y,1/2-z
-x,1/2+y,z
x,1/2-y,1/2+z
loop_
_atom_site_type_symbol
_atom_site_label
_atom_site_fract_x
_atom_site_fract_y
_atom_site_fract_z
Si Si1 0.943343 0.812861 0.750000
Si Si2 0.778988 0.816620 0.152856
Si Si3 0.312659 0.810924 0.406390
Si Si4 0.557760 0.274918 0.750000
O O1 0.879403 0.756803 0.829982
O O2 0.020593 0.603792 0.750000
O O3 0.742384 0.818338 0.250000
O O4 0.728791 0.595684 0.101578
O O5 0.762083 0.097710 0.113855
O O6 0.347338 0.750000 0.500000
O O7 0.384350 0.774175 0.333610
O O8 0.519476 0.564312 0.750000
#
# Coordination Sequence:
#
# PCOD9434654 Si02
#       4
#     4   8   8   4
#     4  10  18  32  62  92 118 160 202 238 302 358
#     4  10  20  38  63  87 118 158 209 236 295 350
#     4  12  23  41  64  89 118 159 204 247 293 356
#     4  12  24  40  62  88 124 152 192 250 304 358
#
# _framework density 19.338279
#
# number of rings (size 3 to 8) (size 9 to 14) (size 15 to 20)
#    1.000    0.000    3.333    5.000    0.000    1.333 
#    0.000    0.000    0.000   20.000    0.000    0.000 
#    0.000    0.000    0.000    0.000    0.000    0.000 
#
# Total GULP energy -133963.870198 kJ/mol
# GULP energy per Si atom -5581.827925 kJ/mol
# Density = 1.929426 g / cm^3
# Si number density = 19.338279 Si / 1000 Ang^3
#
#
#
# Elastic Constant Matrix: (Units=GPa)
#
#
# Indices 1 2 3 4 5 6 
#
# 1 42.2983 -24.7486 18.9714 0.0000 0.0000 0.0000
# 2 -24.7486 55.8092 -6.7788 0.0000 0.0000 0.0000
# 3 18.9714 -6.7788 101.2974 0.0000 0.0000 0.0000
# 4 0.0000 0.0000 0.0000 24.3217 0.0000 0.0000
# 5 0.0000 0.0000 0.0000 0.0000 0.2597 0.0000
# 6 0.0000 0.0000 0.0000 0.0000 0.0000 33.2277
#
#
#
# Elastic Compliance Matrix: (Units=1/GPa)
#
#
# Indices 1 2 3 4 5 6 
#
# 1 0.034738 0.014734 -0.005520 0.000000 0.000000 0.000000
# 2 0.014734 0.024315 -0.001132 0.000000 0.000000 0.000000
# 3 -0.005520 -0.001132 0.010830 0.000000 0.000000 0.000000
# 4 0.000000 0.000000 0.000000 0.041116 0.000000 0.000000
# 5 0.000000 0.000000 0.000000 0.000000 3.851310 0.000000
# 6 0.000000 0.000000 0.000000 0.000000 0.000000 0.030095
#
#
# Mechanical properties :
#
#
# Convention : Reuss Voigt Hill
#
# Bulk Modulus (GPa) = 11.62156 19.36584 15.49370
# Shear Modulus (GPa) = 1.24846 25.69254 13.47050
#
# Velocity S-wave (km/s) = 0.80436 3.64893 2.64213
# Velocity P-wave (km/s) = 2.62399 5.27152 4.16379
#
# Compressibility (1/GPa) = 0.08604697
#
# Stress axis : x y z
#
# Youngs Moduli (GPa) = 28.78659 41.12756 92.33660
#
# Poissons Ratio (x) = -0.60599 0.50969
# Poissons Ratio (y) = -0.42415 0.10456
# Poissons Ratio (z) = 0.15890 0.04657
#
# Static dielectric constant tensor:
#      x y z
#    x 1.670360 0.000000 0.000000 
#    y 0.000000 1.646510 0.000000 
#    z 0.000000 0.000000 1.683090 
# 
# From -- ./inp_files/18075.got.cif
#   From: 2010.05.17/outbox.cif.g08.bks.cpg/sg57_10_cif.got.tgz:18075.got - 2010.06.03 13:58:18.
