data_PCOD9434224
_publ_section_title
;
Structure prediction by ZEFSAII (Michael W. Deem and Ramdas Pophale) SiO2 
 PCOD9434224
Probable space group: P B C M
;
_chemical_formula_sum "Si O2"
_cell_formula_units_Z 64
_cell_length_a 20.869637
_cell_length_b 20.683256
_cell_length_c 9.325227
_cell_angle_alpha 90.000000
_cell_angle_beta 90.000000
_cell_angle_gamma 90.000000
_cell_volume 4025.253302
_symmetry_space_group_name_H-M "P B C M"
_symmetry_group_IT_number 57
_symmetry_cell_setting 'orthorhombic'
loop_
_space_group_symop_operation_xyz
x,y,z
-x,-y,1/2+z
x,1/2-y,-z
-x,1/2+y,1/2-z
-x,-y,-z
x,y,1/2-z
-x,1/2+y,z
x,1/2-y,1/2+z
loop_
_atom_site_type_symbol
_atom_site_label
_atom_site_fract_x
_atom_site_fract_y
_atom_site_fract_z
Si Si1 0.825184 0.028185 0.921007
Si Si2 0.426649 0.569261 0.584553
Si Si3 0.817301 0.891161 0.078042
Si Si4 0.324187 0.395744 0.085733
Si Si5 0.969308 0.061158 0.579008
Si Si6 0.552356 0.912949 0.585405
Si Si7 0.054007 0.316403 0.421153
Si Si8 0.699187 0.051647 0.083995
O O1 0.814172 0.023630 0.750000
O O2 0.893242 0.062282 0.946897
O O3 0.765029 0.061668 0.998370
O O4 0.829844 0.956557 0.989707
O O5 0.421312 0.589091 0.750000
O O6 0.488954 0.598591 0.507940
O O7 0.436839 0.491051 0.583948
O O8 0.361934 0.581554 0.496025
O O9 0.818334 0.906037 0.250000
O O10 0.745214 0.867550 0.044644
O O11 0.873889 0.841248 0.048160
O O12 0.339442 0.378264 0.250000
O O13 0.312450 0.473640 0.083072
O O14 0.384039 0.382587 0.983950
O O15 0.979134 0.053002 0.750000
O O16 0.005843 0.126228 0.535231
O O17 0.000000 0.000000 0.500000
O O18 0.543530 0.893592 0.750000
O O19 0.040633 0.250000 0.500000
O O20 0.048555 0.307901 0.250000
O O21 0.703467 0.071268 0.250000
#
# Coordination Sequence:
#
# PCOD9434224 Si02
#       8
#     8   8   8   8   8   8   8   8
#     4  10  18  27  43  67  88 111 147 190 232 276
#     4   9  15  22  32  46  69 102 140 180 216 260
#     4   9  17  30  46  62  86 117 148 187 231 275
#     4   8  14  23  35  51  71 101 139 177 217 259
#     4  10  20  33  51  72  95 121 155 197 240 287
#     4   9  15  21  30  46  69 100 137 177 217 259
#     4  10  21  36  51  70  96 125 157 195 240 289
#     4   9  16  25  36  52  77 109 141 178 223 269
#
# _framework density 15.899621
#
# number of rings (size 3 to 8) (size 9 to 14) (size 15 to 20)
#    0.000    2.750    1.250    2.250    0.000    7.500 
#    0.000    0.000    0.000    0.000    0.000    0.000 
#    0.000    0.000    0.000    1.125    0.000   14.000 
#
# Total GULP energy -356514.585962 kJ/mol
# GULP energy per Si atom -5570.540406 kJ/mol
# Density = 1.586343 g / cm^3
# Si number density = 15.899621 Si / 1000 Ang^3
#
#
#
# Elastic Constant Matrix: (Units=GPa)
#
#
# Indices 1 2 3 4 5 6 
#
# 1 147.1801 43.9634 81.0440 0.0000 0.0000 0.0000
# 2 43.9634 46.7032 30.7946 0.0000 0.0000 0.0000
# 3 81.0440 30.7946 93.8799 0.0000 0.0000 0.0000
# 4 0.0000 0.0000 0.0000 13.8431 0.0000 0.0000
# 5 0.0000 0.0000 0.0000 0.0000 28.7518 0.0000
# 6 0.0000 0.0000 0.0000 0.0000 0.0000 7.3282
#
#
#
# Elastic Compliance Matrix: (Units=1/GPa)
#
#
# Indices 1 2 3 4 5 6 
#
# 1 0.014500 -0.006885 -0.010259 0.000000 0.000000 0.000000
# 2 -0.006885 0.030590 -0.004091 0.000000 0.000000 0.000000
# 3 -0.010259 -0.004091 0.020850 0.000000 0.000000 0.000000
# 4 0.000000 0.000000 0.000000 0.072238 0.000000 0.000000
# 5 0.000000 0.000000 0.000000 0.000000 0.034780 0.000000
# 6 0.000000 0.000000 0.000000 0.000000 0.000000 0.136459
#
#
# Mechanical properties :
#
#
# Convention : Reuss Voigt Hill
#
# Bulk Modulus (GPa) = 42.60583 66.59635 54.60109
# Shear Modulus (GPa) = 13.90005 18.78203 16.34104
#
# Velocity S-wave (km/s) = 2.95996 3.44072 3.20935
# Velocity P-wave (km/s) = 6.20780 7.60007 6.93894
#
# Compressibility (1/GPa) = 0.02347096
#
# Stress axis : x y z
#
# Youngs Moduli (GPa) = 68.96506 32.69032 47.96129
#
# Poissons Ratio (x) = 0.22507 0.49204
# Poissons Ratio (y) = 0.47482 0.19619
# Poissons Ratio (z) = 0.70752 0.13372
#
# Static dielectric constant tensor:
#      x y z
#    x 1.555430 0.000000 0.000000 
#    y 0.000000 1.487890 0.000000 
#    z 0.000000 0.000000 1.533550 
# 
# From -- ./inp_files/8694.got.cif
#   From: 2010.05.17/outbox.cif.g08.bks.cpg/sg57_5_cif.got.tgz:8694.got - 2010.06.03 13:58:18.
