data_PCOD9434405
_publ_section_title
;
Structure prediction by ZEFSAII (Michael W. Deem and Ramdas Pophale) SiO2 
 PCOD9434405
Probable space group: P B C M
;
_chemical_formula_sum "Si O2"
_cell_formula_units_Z 48
_cell_length_a 15.405425
_cell_length_b 20.966726
_cell_length_c 8.918380
_cell_angle_alpha 90.000000
_cell_angle_beta 90.000000
_cell_angle_gamma 90.000000
_cell_volume 2880.648556
_symmetry_space_group_name_H-M "P B C M"
_symmetry_group_IT_number 57
_symmetry_cell_setting 'orthorhombic'
loop_
_space_group_symop_operation_xyz
x,y,z
-x,-y,1/2+z
x,1/2-y,-z
-x,1/2+y,1/2-z
-x,-y,-z
x,y,1/2-z
-x,1/2+y,z
x,1/2-y,1/2+z
loop_
_atom_site_type_symbol
_atom_site_label
_atom_site_fract_x
_atom_site_fract_y
_atom_site_fract_z
Si Si1 0.617152 0.185201 0.570371
Si Si2 0.932720 0.550486 0.568992
Si Si3 0.801618 0.342155 0.923242
Si Si4 0.243134 0.509918 0.423166
Si Si5 0.423764 0.541605 0.929040
Si Si6 0.014355 0.814038 0.429190
O O1 0.578869 0.250000 0.500000
O O2 0.617472 0.189930 0.750000
O O3 0.715526 0.179950 0.508877
O O4 0.574150 0.117076 0.527411
O O5 0.935092 0.543360 0.750000
O O6 0.834247 0.535163 0.520885
O O7 0.000000 0.500000 0.500000
O O8 0.962559 0.621786 0.531284
O O9 0.800155 0.320251 0.750000
O O10 0.797122 0.418955 0.923446
O O11 0.888975 0.321498 0.004535
O O12 0.264555 0.493921 0.250000
O O13 0.331142 0.514096 0.516703
O O14 0.428799 0.538867 0.750000
O O15 0.500000 0.500000 0.000000
O O16 0.975808 0.750000 0.500000
O O17 0.018431 0.808732 0.250000
#
# Coordination Sequence:
#
# PCOD9434405 Si02
#       6
#     8   8   8   8   8   8
#     4  10  20  33  50  75 106 137 170 208 256 313
#     4  10  20  34  53  76 102 136 177 218 258 305
#     4  10  18  30  49  72 102 137 171 209 257 310
#     4   9  18  33  53  77 103 133 171 216 263 310
#     4  10  21  36  56  81 107 136 172 215 262 314
#     4  11  22  33  47  69 102 140 178 219 261 307
#
# _framework density 16.662914000000001
#
# number of rings (size 3 to 8) (size 9 to 14) (size 15 to 20)
#    0.000    2.000    1.667    2.500    0.000    4.000 
#    0.000    0.000    0.000    1.000    0.000    2.333 
#    0.000    0.000    0.000    0.000    0.000    0.000 
#
# Total GULP energy -267832.211815 kJ/mol
# GULP energy per Si atom -5579.837746 kJ/mol
# Density = 1.662499 g / cm^3
# Si number density = 16.662914 Si / 1000 Ang^3
#
#
#
# Elastic Constant Matrix: (Units=GPa)
#
#
# Indices 1 2 3 4 5 6 
#
# 1 88.3973 73.6093 36.9001 0.0000 0.0000 0.0000
# 2 73.6093 142.9298 54.4442 0.0000 0.0000 0.0000
# 3 36.9001 54.4442 60.1610 0.0000 0.0000 0.0000
# 4 0.0000 0.0000 0.0000 27.1086 0.0000 0.0000
# 5 0.0000 0.0000 0.0000 0.0000 24.0150 0.0000
# 6 0.0000 0.0000 0.0000 0.0000 0.0000 17.8683
#
#
#
# Elastic Compliance Matrix: (Units=1/GPa)
#
#
# Indices 1 2 3 4 5 6 
#
# 1 0.020620 -0.008854 -0.004635 0.000000 0.000000 0.000000
# 2 -0.008854 0.014479 -0.007672 0.000000 0.000000 0.000000
# 3 -0.004635 -0.007672 0.026408 0.000000 0.000000 0.000000
# 4 0.000000 0.000000 0.000000 0.036889 0.000000 0.000000
# 5 0.000000 0.000000 0.000000 0.000000 0.041641 0.000000
# 6 0.000000 0.000000 0.000000 0.000000 0.000000 0.055965
#
#
# Mechanical properties :
#
#
# Convention : Reuss Voigt Hill
#
# Bulk Modulus (GPa) = 52.12466 69.04393 60.58429
# Shear Modulus (GPa) = 20.43164 22.23400 21.33282
#
# Velocity S-wave (km/s) = 3.50548 3.65683 3.58195
# Velocity P-wave (km/s) = 6.90900 7.70425 7.31743
#
# Compressibility (1/GPa) = 0.01918478
#
# Stress axis : x y z
#
# Youngs Moduli (GPa) = 48.49642 69.06682 37.86710
#
# Poissons Ratio (x) = 0.61151 0.17551
# Poissons Ratio (y) = 0.42938 0.29053
# Poissons Ratio (z) = 0.22478 0.52990
#
# Static dielectric constant tensor:
#      x y z
#    x 1.530710 0.000000 0.000000 
#    y 0.000000 1.602350 0.000000 
#    z 0.000000 0.000000 1.565610 
# 
# From -- ./inp_files/4855.got.cif
#   From: 2010.05.17/outbox.cif.g08.bks.cpg/sg57_3_cif.got.tgz:4855.got - 2010.06.03 13:58:18.
