data_PCOD9434863
_publ_section_title
;
Structure prediction by ZEFSAII (Michael W. Deem and Ramdas Pophale) SiO2 
 PCOD9434863
Probable space group: P B C M
;
_chemical_formula_sum "Si O2"
_cell_formula_units_Z 32
_cell_length_a 14.278954
_cell_length_b 12.280500
_cell_length_c 8.342745
_cell_angle_alpha 90.000000
_cell_angle_beta 90.000000
_cell_angle_gamma 90.000000
_cell_volume 1462.922816
_symmetry_space_group_name_H-M "P B C M"
_symmetry_group_IT_number 57
_symmetry_cell_setting 'orthorhombic'
loop_
_space_group_symop_operation_xyz
x,y,z
-x,-y,1/2+z
x,1/2-y,-z
-x,1/2+y,1/2-z
-x,-y,-z
x,y,1/2-z
-x,1/2+y,z
x,1/2-y,1/2+z
loop_
_atom_site_type_symbol
_atom_site_label
_atom_site_fract_x
_atom_site_fract_y
_atom_site_fract_z
Si Si1 0.648163 0.414184 0.750000
Si Si2 0.454017 0.370322 0.250000
Si Si3 0.130527 0.401507 0.565005
Si Si4 0.243718 0.129752 0.750000
Si Si5 0.418083 0.750000 0.000000
Si Si6 0.091532 0.866660 0.939844
O O1 0.560033 0.499035 0.750000
O O2 0.730119 0.501066 0.750000
O O3 0.643387 0.333339 0.601632
O O4 0.348456 0.320979 0.250000
O O5 0.513195 0.325840 0.397184
O O6 0.158123 0.375577 0.750000
O O7 0.187895 0.352381 0.414849
O O8 0.133043 0.532356 0.538502
O O9 0.021629 0.371554 0.540175
O O10 0.105917 0.877715 0.750000
O O11 0.125137 0.750000 0.000000
#
# Coordination Sequence:
#
# PCOD9434863 Si02
#       6
#     4   4   8   4   4   8
#     4   9  21  38  63  89 119 156 195 251 303 359
#     4   9  21  38  63  89 121 152 197 251 301 363
#     4  10  21  40  56  81 120 154 196 245 298 349
#     4  10  22  42  52  90 126 152 190 262 300 348
#     4  10  18  42  64  88 116 158 206 234 300 390
#     4  10  20  35  60  83 107 159 207 243 286 351
#
# _framework density 21.874018
#
# number of rings (size 3 to 8) (size 9 to 14) (size 15 to 20)
#    0.750    1.500    1.250    1.500    3.500    0.000 
#   13.500    0.000    0.000    0.000    0.000    0.000 
#    0.000    0.000    0.000    0.000    0.000    0.000 
#
# Total GULP energy -178614.630015 kJ/mol
# GULP energy per Si atom -5581.707188 kJ/mol
# Density = 2.182423 g / cm^3
# Si number density = 21.874018 Si / 1000 Ang^3
#
#
#
# Elastic Constant Matrix: (Units=GPa)
#
#
# Indices 1 2 3 4 5 6 
#
# 1 55.4505 -2.2839 45.7263 0.0000 0.0000 0.0000
# 2 -2.2839 130.1030 44.0285 0.0000 0.0000 0.0000
# 3 45.7263 44.0285 163.6706 0.0000 0.0000 0.0000
# 4 0.0000 0.0000 0.0000 89.6202 0.0000 0.0000
# 5 0.0000 0.0000 0.0000 0.0000 -85.0803 0.0000
# 6 0.0000 0.0000 0.0000 0.0000 0.0000 -18.6826
#
#
#
# Elastic Compliance Matrix: (Units=1/GPa)
#
#
# Indices 1 2 3 4 5 6 
#
# 1 0.024464 0.003017 -0.007646 0.000000 0.000000 0.000000
# 2 0.003017 0.008828 -0.003218 0.000000 0.000000 0.000000
# 3 -0.007646 -0.003218 0.009112 0.000000 0.000000 0.000000
# 4 0.000000 0.000000 0.000000 0.011158 0.000000 0.000000
# 5 0.000000 0.000000 0.000000 0.000000 -0.011754 0.000000
# 6 0.000000 0.000000 0.000000 0.000000 0.000000 -0.053526
#
#
# Mechanical properties :
#
#
# Convention : Reuss Voigt Hill
#
# Bulk Modulus (GPa) = 37.43976 58.24066 47.84021
# Shear Modulus (GPa) = 388.21829 14.62170 201.41999
#
# Velocity S-wave (km/s) = 13.33658 2.58825 9.60634
# Velocity P-wave (km/s) = 15.94697 5.96786 12.03996
#
# Compressibility (1/GPa) = 0.02670957
#
# Stress axis : x y z
#
# Youngs Moduli (GPa) = 40.87681 113.27468 109.74969
#
# Poissons Ratio (x) = -0.34176 0.83918
# Poissons Ratio (y) = -0.12333 0.35314
# Poissons Ratio (z) = 0.31256 0.36449
#
# Static dielectric constant tensor:
#      x y z
#    x 1.793190 0.000000 0.000000 
#    y 0.000000 1.798730 0.000000 
#    z 0.000000 0.000000 1.741720 
# 
# From -- ./inp_files/4151.got.cif
#   From: 2010.05.17/outbox.cif.g08.bks.cpg/sg57_3_cif.got.tgz:4151.got - 2010.06.03 13:58:18.
