data_PCOD9434395
_publ_section_title
;
Structure prediction by ZEFSAII (Michael W. Deem and Ramdas Pophale) SiO2 
 PCOD9434395
Probable space group: P B C M
;
_chemical_formula_sum "Si O2"
_cell_formula_units_Z 64
_cell_length_a 15.894282
_cell_length_b 23.107095
_cell_length_c 7.590734
_cell_angle_alpha 90.000000
_cell_angle_beta 90.000000
_cell_angle_gamma 90.000000
_cell_volume 2787.854069
_symmetry_space_group_name_H-M "P B C M"
_symmetry_group_IT_number 57
_symmetry_cell_setting 'orthorhombic'
loop_
_space_group_symop_operation_xyz
x,y,z
-x,-y,1/2+z
x,1/2-y,-z
-x,1/2+y,1/2-z
-x,-y,-z
x,y,1/2-z
-x,1/2+y,z
x,1/2-y,1/2+z
loop_
_atom_site_type_symbol
_atom_site_label
_atom_site_fract_x
_atom_site_fract_y
_atom_site_fract_z
Si Si1 0.104119 0.100046 0.540836
Si Si2 0.607447 0.375469 0.961136
Si Si3 0.038125 0.812281 0.958109
Si Si4 0.747998 0.683358 0.961620
Si Si5 0.629771 0.505685 0.538464
Si Si6 0.823250 0.013275 0.460616
Si Si7 0.208890 0.643642 0.034062
Si Si8 0.575037 0.628756 0.538848
O O1 0.118214 0.094876 0.750000
O O2 0.178978 0.140980 0.469820
O O3 0.112153 0.034672 0.469881
O O4 0.017905 0.134079 0.517514
O O5 0.614269 0.379057 0.750000
O O6 0.606170 0.442089 0.030376
O O7 0.694785 0.346915 0.024035
O O8 0.517718 0.347705 0.000769
O O9 0.042399 0.816748 0.750000
O O10 0.133398 0.815981 0.029106
O O11 0.999266 0.750000 0.000000
O O12 0.747345 0.677195 0.750000
O O13 0.655318 0.664696 0.026611
O O14 0.765620 0.750000 0.000000
O O15 0.616749 0.503935 0.750000
O O16 0.729775 0.512690 0.511357
O O17 0.583581 0.562618 0.469231
O O18 0.835386 0.019640 0.250000
O O19 0.818397 0.078911 0.524732
O O20 0.210416 0.644993 0.250000
O O21 0.582504 0.625767 0.750000
#
# Coordination Sequence:
#
# PCOD9434395 Si02
#       8
#     8   8   8   8   8   8   8   8
#     4  10  19  34  58  84 107 135 171 210 259 321
#     4   9  17  30  51  77 102 133 171 209 253 303
#     4  11  23  39  57  78 103 135 177 223 266 309
#     4  10  21  35  51  72 102 140 177 213 255 307
#     4   8  13  25  47  74 104 136 168 201 242 303
#     4   8  13  27  53  81 107 139 172 202 251 321
#     4   8  17  34  55  78 106 138 175 217 259 311
#     4  10  18  30  48  73 103 135 171 210 251 298
#
# _framework density 22.956724000000001
#
# number of rings (size 3 to 8) (size 9 to 14) (size 15 to 20)
#    0.000    2.750    1.250    2.625    0.000    2.500 
#    0.000    1.875    0.000    6.750    0.000    0.000 
#    0.000    0.000    0.000    0.000    0.000    0.000 
#
# Total GULP energy -357098.066247 kJ/mol
# GULP energy per Si atom -5579.657285 kJ/mol
# Density = 2.290447 g / cm^3
# Si number density = 22.956724 Si / 1000 Ang^3
#
#
#
# Elastic Constant Matrix: (Units=GPa)
#
#
# Indices 1 2 3 4 5 6 
#
# 1 85.0925 19.0013 -2.9117 0.0000 0.0000 0.0000
# 2 19.0013 17.5899 -2.9605 0.0000 0.0000 0.0000
# 3 -2.9117 -2.9605 48.2056 0.0000 0.0000 0.0000
# 4 0.0000 0.0000 0.0000 2.1174 0.0000 0.0000
# 5 0.0000 0.0000 0.0000 0.0000 15.7369 0.0000
# 6 0.0000 0.0000 0.0000 0.0000 0.0000 16.2043
#
#
#
# Elastic Compliance Matrix: (Units=1/GPa)
#
#
# Indices 1 2 3 4 5 6 
#
# 1 0.015488 -0.016747 -0.000093 0.000000 0.000000 0.000000
# 2 -0.016747 0.075552 0.003628 0.000000 0.000000 0.000000
# 3 -0.000093 0.003628 0.020962 0.000000 0.000000 0.000000
# 4 0.000000 0.000000 0.000000 0.472268 0.000000 0.000000
# 5 0.000000 0.000000 0.000000 0.000000 0.063545 0.000000
# 6 0.000000 0.000000 0.000000 0.000000 0.000000 0.061712
#
#
# Mechanical properties :
#
#
# Convention : Reuss Voigt Hill
#
# Bulk Modulus (GPa) = 11.68507 19.68293 15.68400
# Shear Modulus (GPa) = 6.54043 15.99566 11.26805
#
# Velocity S-wave (km/s) = 1.68974 2.64251 2.21789
# Velocity P-wave (km/s) = 2.98463 4.23120 3.66136
#
# Compressibility (1/GPa) = 0.08557930
#
# Stress axis : x y z
#
# Youngs Moduli (GPa) = 64.56481 13.23594 47.70609
#
# Poissons Ratio (x) = 0.22166 0.00444
# Poissons Ratio (y) = 1.08125 -0.17310
# Poissons Ratio (z) = 0.00600 -0.04803
#
# Static dielectric constant tensor:
#      x y z
#    x 1.893950 0.000000 0.000000 
#    y 0.000000 1.831750 0.000000 
#    z 0.000000 0.000000 1.877800 
# 
# From -- ./inp_files/5604.got.cif
#   From: 2010.05.17/outbox.cif.g08.bks.cpg/sg57_3_cif.got.tgz:5604.got - 2010.06.03 13:58:18.
