data_PCOD9434450
_publ_section_title
;
Structure prediction by ZEFSAII (Michael W. Deem and Ramdas Pophale) SiO2 
 PCOD9434450
Probable space group: P B C M
;
_chemical_formula_sum "Si O2"
_cell_formula_units_Z 64
_cell_length_a 7.646860
_cell_length_b 17.357506
_cell_length_c 21.295944
_cell_angle_alpha 90.000000
_cell_angle_beta 90.000000
_cell_angle_gamma 90.000000
_cell_volume 2826.619556
_symmetry_space_group_name_H-M "P B C M"
_symmetry_group_IT_number 57
_symmetry_cell_setting 'orthorhombic'
loop_
_space_group_symop_operation_xyz
x,y,z
-x,-y,1/2+z
x,1/2-y,-z
-x,1/2+y,1/2-z
-x,-y,-z
x,y,1/2-z
-x,1/2+y,z
x,1/2-y,1/2+z
loop_
_atom_site_type_symbol
_atom_site_label
_atom_site_fract_x
_atom_site_fract_y
_atom_site_fract_z
Si Si1 0.649407 0.895585 0.818433
Si Si2 0.898394 0.017608 0.180977
Si Si3 0.136003 0.772657 0.062324
Si Si4 0.626617 0.856338 0.062998
Si Si5 0.987849 0.943154 0.440699
Si Si6 0.243106 0.194743 0.070242
Si Si7 0.729561 0.315862 0.679484
Si Si8 0.485507 0.061923 0.680345
O O1 0.724771 0.876800 0.750000
O O2 0.760954 0.868063 0.876417
O O3 0.467600 0.847977 0.824233
O O4 0.599743 0.984731 0.821358
O O5 0.977885 0.007576 0.250000
O O6 0.844642 0.106443 0.171635
O O7 0.014416 0.986508 0.124655
O O8 0.715283 0.969712 0.181885
O O9 0.225246 0.744791 0.125849
O O10 0.095220 0.863371 0.058244
O O11 0.956639 0.721140 0.056813
O O12 0.243435 0.750000 0.000000
O O13 0.787992 0.915004 0.061458
O O14 0.675580 0.774787 0.093793
O O15 0.493893 0.893170 0.113861
O O16 0.636082 0.834340 0.988150
O O17 0.000000 0.000000 0.500000
O O18 0.759874 0.285864 0.750000
O O19 0.514461 0.099731 0.750000
#
# Coordination Sequence:
#
# PCOD9434450 Si02
#       8
#     8   8   8   8   8   8   8   8
#     4   9  19  36  57  80 106 143 185 228 273 327
#     4   8  15  28  48  73  98 129 174 218 257 313
#     4  11  20  35  53  81 115 144 176 228 277 330
#     4   9  18  33  51  77 110 144 182 224 268 325
#     4  10  18  30  53  74 104 145 179 218 270 321
#     4  10  19  34  54  76 117 146 175 228 277 327
#     4   9  19  36  57  80 107 138 180 229 273 323
#     4   8  15  30  52  76 100 132 183 228 262 313
#
# _framework density 22.641888000000002
#
# number of rings (size 3 to 8) (size 9 to 14) (size 15 to 20)
#    0.000    2.750    2.500    2.250    0.000    2.000 
#    2.250    2.500    2.750    0.000    0.000    0.000 
#    0.000    0.000    0.000    0.000    0.000    0.000 
#
# Total GULP energy -356743.943595 kJ/mol
# GULP energy per Si atom -5574.124119 kJ/mol
# Density = 2.259035 g / cm^3
# Si number density = 22.641888 Si / 1000 Ang^3
#
#
#
# Elastic Constant Matrix: (Units=GPa)
#
#
# Indices 1 2 3 4 5 6 
#
# 1 51.3629 19.4133 44.6776 0.0000 0.0000 0.0000
# 2 19.4133 88.7834 86.3088 0.0000 0.0000 0.0000
# 3 44.6776 86.3088 159.7531 0.0000 0.0000 0.0000
# 4 0.0000 0.0000 0.0000 41.7837 0.0000 0.0000
# 5 0.0000 0.0000 0.0000 0.0000 2.2415 0.0000
# 6 0.0000 0.0000 0.0000 0.0000 0.0000 18.1594
#
#
#
# Elastic Compliance Matrix: (Units=1/GPa)
#
#
# Indices 1 2 3 4 5 6 
#
# 1 0.026083 0.002923 -0.008874 0.000000 0.000000 0.000000
# 2 0.002923 0.024050 -0.013811 0.000000 0.000000 0.000000
# 3 -0.008874 -0.013811 0.016203 0.000000 0.000000 0.000000
# 4 0.000000 0.000000 0.000000 0.023933 0.000000 0.000000
# 5 0.000000 0.000000 0.000000 0.000000 0.446124 0.000000
# 6 0.000000 0.000000 0.000000 0.000000 0.000000 0.055068
#
#
# Mechanical properties :
#
#
# Convention : Reuss Voigt Hill
#
# Bulk Modulus (GPa) = 37.29512 66.74433 52.01972
# Shear Modulus (GPa) = 7.81344 22.40356 15.10850
#
# Velocity S-wave (km/s) = 1.85967 3.14900 2.58598
# Velocity P-wave (km/s) = 4.59550 6.53941 5.65166
#
# Compressibility (1/GPa) = 0.02681316
#
# Stress axis : x y z
#
# Youngs Moduli (GPa) = 38.33859 41.57957 61.71683
#
# Poissons Ratio (x) = -0.12155 0.54768
# Poissons Ratio (y) = -0.11207 0.85237
# Poissons Ratio (z) = 0.34022 0.57426
#
# Static dielectric constant tensor:
#      x y z
#    x 1.939950 0.000000 0.000000 
#    y 0.000000 1.807930 0.000000 
#    z 0.000000 0.000000 1.931220 
# 
# From -- ./inp_files/25156.got.cif
#   From: 2010.05.17/outbox.cif.g08.bks.cpg/sg57_13_cif.got.tgz:25156.got - 2010.06.03 13:58:18.
