data_PCOD9434779
_publ_section_title
;
Structure prediction by ZEFSAII (Michael W. Deem and Ramdas Pophale) SiO2 
 PCOD9434779
Probable space group: P B C M
;
_chemical_formula_sum "Si O2"
_cell_formula_units_Z 64
_cell_length_a 12.502353
_cell_length_b 15.758073
_cell_length_c 14.493693
_cell_angle_alpha 90.000000
_cell_angle_beta 90.000000
_cell_angle_gamma 90.000000
_cell_volume 2855.445812
_symmetry_space_group_name_H-M "P B C M"
_symmetry_group_IT_number 57
_symmetry_cell_setting 'orthorhombic'
loop_
_space_group_symop_operation_xyz
x,y,z
-x,-y,1/2+z
x,1/2-y,-z
-x,1/2+y,1/2-z
-x,-y,-z
x,y,1/2-z
-x,1/2+y,z
x,1/2-y,1/2+z
loop_
_atom_site_type_symbol
_atom_site_label
_atom_site_fract_x
_atom_site_fract_y
_atom_site_fract_z
Si Si1 0.252724 0.292652 0.638833
Si Si2 0.041242 0.545858 0.641471
Si Si3 0.515899 0.726537 0.862888
Si Si4 0.499105 0.967955 0.362672
Si Si5 0.352940 0.873301 0.862924
Si Si6 0.262017 0.484021 0.862474
Si Si7 0.978430 0.763550 0.396102
Si Si8 0.887904 0.399616 0.644998
O O1 0.253499 0.291188 0.750000
O O2 0.369162 0.263040 0.609107
O O3 0.235506 0.388783 0.608890
O O4 0.149548 0.241199 0.609338
O O5 0.049194 0.522512 0.750000
O O6 0.162017 0.538689 0.604877
O O7 0.008164 0.643050 0.635840
O O8 0.957190 0.476813 0.601951
O O9 0.512140 0.725877 0.750000
O O10 0.514130 0.628868 0.893477
O O11 0.420988 0.790218 0.892716
O O12 0.501816 0.967244 0.250000
O O13 0.583632 0.040629 0.389452
O O14 0.380315 0.993405 0.393299
O O15 0.353579 0.869428 0.750000
O O16 0.229351 0.877328 0.894557
O O17 0.267686 0.487619 0.750000
O O18 0.013644 0.750000 0.500000
O O19 0.036539 0.683454 0.349224
O O20 0.863206 0.427496 0.750000
#
# Coordination Sequence:
#
# PCOD9434779 Si02
#       8
#     8   8   8   8   8   8   8   8
#     4  10  18  35  58  80 108 144 188 238 282 329
#     4  10  21  37  61  88 110 146 192 236 283 334
#     4   9  17  27  48  81 115 143 172 222 284 335
#     4   9  16  26  44  79 115 140 170 218 282 339
#     4   9  17  29  47  79 117 144 171 221 285 336
#     4   9  16  30  53  81 114 143 179 230 280 331
#     4  12  26  40  56  81 115 155 193 237 287 341
#     4  10  21  38  59  85 118 150 188 238 284 333
#
# _framework density 22.413312000000001
#
# number of rings (size 3 to 8) (size 9 to 14) (size 15 to 20)
#    0.000    2.250    2.500    1.125    3.500    0.500 
#    0.000    0.000    0.000    0.750    0.000    2.625 
#    0.000    0.000    0.000    0.000    0.000    0.000 
#
# Total GULP energy -357310.673118 kJ/mol
# GULP energy per Si atom -5582.979267 kJ/mol
# Density = 2.236230 g / cm^3
# Si number density = 22.413312 Si / 1000 Ang^3
#
#
#
# Elastic Constant Matrix: (Units=GPa)
#
#
# Indices 1 2 3 4 5 6 
#
# 1 168.2080 55.1340 1.5884 0.0000 0.0000 0.0000
# 2 55.1340 116.1695 0.5171 0.0000 0.0000 0.0000
# 3 1.5884 0.5171 46.7183 0.0000 0.0000 0.0000
# 4 0.0000 0.0000 0.0000 18.4252 0.0000 0.0000
# 5 0.0000 0.0000 0.0000 0.0000 -25.1425 0.0000
# 6 0.0000 0.0000 0.0000 0.0000 0.0000 30.9253
#
#
#
# Elastic Compliance Matrix: (Units=1/GPa)
#
#
# Indices 1 2 3 4 5 6 
#
# 1 0.007042 -0.003341 -0.000202 0.000000 0.000000 0.000000
# 2 -0.003341 0.010194 0.000001 0.000000 0.000000 0.000000
# 3 -0.000202 0.000001 0.021412 0.000000 0.000000 0.000000
# 4 0.000000 0.000000 0.000000 0.054274 0.000000 0.000000
# 5 0.000000 0.000000 0.000000 0.000000 -0.039773 0.000000
# 6 0.000000 0.000000 0.000000 0.000000 0.000000 0.032336
#
#
# Mechanical properties :
#
#
# Convention : Reuss Voigt Hill
#
# Bulk Modulus (GPa) = 31.68380 49.50830 40.59605
# Shear Modulus (GPa) = 48.50105 23.09868 35.79987
#
# Velocity S-wave (km/s) = 4.65686 3.21375 4.00091
# Velocity P-wave (km/s) = 6.56369 5.99230 6.28449
#
# Compressibility (1/GPa) = 0.03156187
#
# Stress axis : x y z
#
# Youngs Moduli (GPa) = 142.00273 98.09802 46.70326
#
# Poissons Ratio (x) = 0.32777 0.00946
# Poissons Ratio (y) = 0.47447 -0.00004
# Poissons Ratio (z) = 0.02875 -0.00008
#
# Static dielectric constant tensor:
#      x y z
#    x 2.238160 0.000000 0.000000 
#    y 0.000000 1.829970 0.000000 
#    z 0.000000 0.000000 1.887590 
# 
# From -- ./inp_files/22053.got.cif
#   From: 2010.05.17/outbox.cif.g08.bks.cpg/sg57_12_cif.got.tgz:22053.got - 2010.06.03 13:58:18.
