data_PCOD9434949
_publ_section_title
;
Structure prediction by ZEFSAII (Michael W. Deem and Ramdas Pophale) SiO2 
 PCOD9434949
Probable space group: P B C M
;
_chemical_formula_sum "Si O2"
_cell_formula_units_Z 56
_cell_length_a 20.669303
_cell_length_b 14.301644
_cell_length_c 9.335992
_cell_angle_alpha 90.000000
_cell_angle_beta 90.000000
_cell_angle_gamma 90.000000
_cell_volume 2759.766039
_symmetry_space_group_name_H-M "P B C M"
_symmetry_group_IT_number 57
_symmetry_cell_setting 'orthorhombic'
loop_
_space_group_symop_operation_xyz
x,y,z
-x,-y,1/2+z
x,1/2-y,-z
-x,1/2+y,1/2-z
-x,-y,-z
x,y,1/2-z
-x,1/2+y,z
x,1/2-y,1/2+z
loop_
_atom_site_type_symbol
_atom_site_label
_atom_site_fract_x
_atom_site_fract_y
_atom_site_fract_z
Si Si1 0.381841 0.658040 0.079488
Si Si2 0.037463 0.875758 0.594604
Si Si3 0.343898 0.034544 0.421237
Si Si4 0.521078 0.592318 0.081553
Si Si5 0.814698 0.160203 0.084024
Si Si6 0.921773 0.595417 0.911815
Si Si7 0.800495 0.963072 0.920810
O O1 0.369106 0.658827 0.250000
O O2 0.460070 0.658629 0.058225
O O3 0.356497 0.750000 0.000000
O O4 0.355647 0.562179 0.007939
O O5 0.007208 0.858010 0.750000
O O6 0.107317 0.829227 0.588507
O O7 0.985075 0.854755 0.474289
O O8 0.056573 0.985968 0.589282
O O9 0.346318 0.013167 0.250000
O O10 0.272189 0.073004 0.448647
O O11 0.403347 0.104928 0.456782
O O12 0.520684 0.573688 0.250000
O O13 0.500000 0.500000 0.000000
O O14 0.792892 0.153452 0.250000
O O15 0.788799 0.250000 0.000000
O O16 0.801988 0.065121 0.996797
O O17 0.907041 0.623540 0.750000
O O18 0.858146 0.597206 0.010010
O O19 0.810701 0.972787 0.750000
#
# Coordination Sequence:
#
# PCOD9434949 Si02
#       7
#     8   8   8   8   8   8   8
#     4  10  19  30  47  69  93 120 149 185 226 269
#     4   8  15  27  42  60  81 107 140 177 216 254
#     4   9  18  32  48  66  90 120 154 189 226 270
#     4   8  15  29  47  66  87 113 147 186 226 265
#     4  10  20  32  45  62  87 118 150 183 218 261
#     4   9  16  26  42  63  85 108 137 177 217 253
#     4  10  19  30  45  64  88 118 148 180 218 261
#
# _framework density 20.291574000000001
#
# number of rings (size 3 to 8) (size 9 to 14) (size 15 to 20)
#    0.000    2.857    0.000    2.571    0.000    6.286 
#    0.000    0.000    0.000    0.000    0.000    1.000 
#    0.000    2.286    0.000    0.000    0.000    0.000 
#
# Total GULP energy -311894.076894 kJ/mol
# GULP energy per Si atom -5569.537087 kJ/mol
# Density = 2.024539 g / cm^3
# Si number density = 20.291574 Si / 1000 Ang^3
#
#
#
# Elastic Constant Matrix: (Units=GPa)
#
#
# Indices 1 2 3 4 5 6 
#
# 1 155.3003 3.0892 55.3758 0.0000 0.0000 0.0000
# 2 3.0892 14.7530 11.1873 0.0000 0.0000 0.0000
# 3 55.3758 11.1873 83.6774 0.0000 0.0000 0.0000
# 4 0.0000 0.0000 0.0000 10.1413 0.0000 0.0000
# 5 0.0000 0.0000 0.0000 0.0000 22.0686 0.0000
# 6 0.0000 0.0000 0.0000 0.0000 0.0000 0.8303
#
#
#
# Elastic Compliance Matrix: (Units=1/GPa)
#
#
# Indices 1 2 3 4 5 6 
#
# 1 0.008529 0.002776 -0.006015 0.000000 0.000000 0.000000
# 2 0.002776 0.076334 -0.012042 0.000000 0.000000 0.000000
# 3 -0.006015 -0.012042 0.017541 0.000000 0.000000 0.000000
# 4 0.000000 0.000000 0.000000 0.098607 0.000000 0.000000
# 5 0.000000 0.000000 0.000000 0.000000 0.045313 0.000000
# 6 0.000000 0.000000 0.000000 0.000000 0.000000 1.204337
#
#
# Mechanical properties :
#
#
# Convention : Reuss Voigt Hill
#
# Bulk Modulus (GPa) = 13.91985 43.67059 28.79522
# Shear Modulus (GPa) = 3.32188 18.87995 11.10091
#
# Velocity S-wave (km/s) = 1.28087 3.05361 2.34149
# Velocity P-wave (km/s) = 3.01037 5.83103 4.64022
#
# Compressibility (1/GPa) = 0.07183988
#
# Stress axis : x y z
#
# Youngs Moduli (GPa) = 117.24990 13.10038 57.00794
#
# Poissons Ratio (x) = -0.03636 0.34292
# Poissons Ratio (y) = -0.32543 0.68651
# Poissons Ratio (z) = 0.70529 0.15776
#
# Static dielectric constant tensor:
#      x y z
#    x 1.775880 0.000000 0.000000 
#    y 0.000000 1.703800 0.000000 
#    z 0.000000 0.000000 1.698220 
# 
# From -- ./inp_files/8282.got.cif
#   From: 2010.05.17/outbox.cif.g08.bks.cpg/sg57_5_cif.got.tgz:8282.got - 2010.06.03 13:58:18.
