data_PCOD9434009
_publ_section_title
;
Structure prediction by ZEFSAII (Michael W. Deem and Ramdas Pophale) SiO2 
 PCOD9434009
Probable space group: P B C M
;
_chemical_formula_sum "Si O2"
_cell_formula_units_Z 52
_cell_length_a 9.036298
_cell_length_b 15.667262
_cell_length_c 21.390196
_cell_angle_alpha 90.000000
_cell_angle_beta 90.000000
_cell_angle_gamma 90.000000
_cell_volume 3028.296641
_symmetry_space_group_name_H-M "P B C M"
_symmetry_group_IT_number 57
_symmetry_cell_setting 'orthorhombic'
loop_
_space_group_symop_operation_xyz
x,y,z
-x,-y,1/2+z
x,1/2-y,-z
-x,1/2+y,1/2-z
-x,-y,-z
x,y,1/2-z
-x,1/2+y,z
x,1/2-y,1/2+z
loop_
_atom_site_type_symbol
_atom_site_label
_atom_site_fract_x
_atom_site_fract_y
_atom_site_fract_z
Si Si1 0.158666 0.807526 0.560975
Si Si2 0.438563 0.777455 0.379954
Si Si3 0.844775 0.876734 0.923494
Si Si4 0.402871 0.115677 0.176580
Si Si5 0.633475 0.750000 0.000000
Si Si6 0.735163 0.487456 0.506578
Si Si7 0.509947 0.541182 0.601720
O O1 0.132824 0.750000 0.500000
O O2 0.274438 0.757697 0.605301
O O3 0.225207 0.896542 0.535806
O O4 0.999860 0.831588 0.589200
O O5 0.523145 0.707140 0.338990
O O6 0.523327 0.781973 0.446540
O O7 0.460204 0.875306 0.359600
O O8 0.752650 0.891361 0.860334
O O9 0.738029 0.817858 0.966096
O O10 0.857908 0.961279 0.966714
O O11 0.387299 0.104279 0.250000
O O12 0.502963 0.042134 0.145159
O O13 0.664953 0.541659 0.563957
O O14 0.610219 0.472130 0.453586
#
# Coordination Sequence:
#
# PCOD9434009 Si02
#       7
#     8   8   8   8   4   8   8
#     4  12  20  31  53  91 120 137 173 228 293 348
#     4  11  19  33  58  84 113 141 184 238 281 326
#     4  10  21  33  53  80 116 147 177 221 283 341
#     4  10  23  40  56  76 108 157 201 228 267 327
#     4  10  16  30  50  82 112 140 170 218 280 338
#     4  10  18  32  52  87 117 141 170 223 289 343
#     4  10  18  32  58  84 112 141 184 234 275 323
#
# _framework density 17.17137
#
# number of rings (size 3 to 8) (size 9 to 14) (size 15 to 20)
#    0.000    1.538    6.154    0.462    0.000    0.615 
#    0.000    0.769    0.000    0.000    0.000    0.000 
#    0.000    0.000    0.000    0.000    0.000    0.000 
#
# Total GULP energy -289728.037424 kJ/mol
# GULP energy per Si atom -5571.693027 kJ/mol
# Density = 1.713229 g / cm^3
# Si number density = 17.171370 Si / 1000 Ang^3
#
#
#
# Elastic Constant Matrix: (Units=GPa)
#
#
# Indices 1 2 3 4 5 6 
#
# 1 59.3699 20.2623 30.2247 0.0000 0.0000 0.0000
# 2 20.2623 96.7722 21.0269 0.0000 0.0000 0.0000
# 3 30.2247 21.0269 81.8373 0.0000 0.0000 0.0000
# 4 0.0000 0.0000 0.0000 10.2155 0.0000 0.0000
# 5 0.0000 0.0000 0.0000 0.0000 6.5168 0.0000
# 6 0.0000 0.0000 0.0000 0.0000 0.0000 27.2135
#
#
#
# Elastic Compliance Matrix: (Units=1/GPa)
#
#
# Indices 1 2 3 4 5 6 
#
# 1 0.021506 -0.002941 -0.007187 0.000000 0.000000 0.000000
# 2 -0.002941 0.011347 -0.001829 0.000000 0.000000 0.000000
# 3 -0.007187 -0.001829 0.015344 0.000000 0.000000 0.000000
# 4 0.000000 0.000000 0.000000 0.097891 0.000000 0.000000
# 5 0.000000 0.000000 0.000000 0.000000 0.153451 0.000000
# 6 0.000000 0.000000 0.000000 0.000000 0.000000 0.036746
#
#
# Mechanical properties :
#
#
# Convention : Reuss Voigt Hill
#
# Bulk Modulus (GPa) = 41.18324 42.33413 41.75869
# Shear Modulus (GPa) = 13.57612 19.88684 16.73148
#
# Velocity S-wave (km/s) = 2.81486 3.40684 3.12490
# Velocity P-wave (km/s) = 5.88220 6.33899 6.11486
#
# Compressibility (1/GPa) = 0.02428173
#
# Stress axis : x y z
#
# Youngs Moduli (GPa) = 46.49793 88.13020 65.17321
#
# Poissons Ratio (x) = 0.25923 0.46841
# Poissons Ratio (y) = 0.13677 0.11921
# Poissons Ratio (z) = 0.33419 0.16120
#
# Static dielectric constant tensor:
#      x y z
#    x 1.601970 0.000000 0.000000 
#    y 0.000000 1.670260 0.000000 
#    z 0.000000 0.000000 1.549920 
# 
# From -- ./inp_files/24333.got.cif
#   From: 2010.05.17/outbox.cif.g08.bks.cpg/sg57_13_cif.got.tgz:24333.got - 2010.06.03 13:58:18.
