data_PCOD9434449
_publ_section_title
;
Structure prediction by ZEFSAII (Michael W. Deem and Ramdas Pophale) SiO2 
 PCOD9434449
Probable space group: P B C M
;
_chemical_formula_sum "Si O2"
_cell_formula_units_Z 64
_cell_length_a 20.632972
_cell_length_b 19.675647
_cell_length_c 8.628216
_cell_angle_alpha 90.000000
_cell_angle_beta 90.000000
_cell_angle_gamma 90.000000
_cell_volume 3502.771600
_symmetry_space_group_name_H-M "P B C M"
_symmetry_group_IT_number 57
_symmetry_cell_setting 'orthorhombic'
loop_
_space_group_symop_operation_xyz
x,y,z
-x,-y,1/2+z
x,1/2-y,-z
-x,1/2+y,1/2-z
-x,-y,-z
x,y,1/2-z
-x,1/2+y,z
x,1/2-y,1/2+z
loop_
_atom_site_type_symbol
_atom_site_label
_atom_site_fract_x
_atom_site_fract_y
_atom_site_fract_z
Si Si1 0.984068 0.925271 0.436153
Si Si2 0.402266 0.174127 0.565180
Si Si3 0.154751 0.042800 0.563152
Si Si4 0.244581 0.823149 0.934333
Si Si5 0.487318 0.575341 0.434352
Si Si6 0.347698 0.928468 0.064755
Si Si7 0.877762 0.108165 0.936610
Si Si8 0.705907 0.577911 0.064280
O O1 0.985524 0.927829 0.250000
O O2 0.909322 0.913060 0.480114
O O3 0.046753 0.881448 0.482721
O O4 0.000000 0.000000 0.500000
O O5 0.407429 0.250000 0.500000
O O6 0.403163 0.175429 0.750000
O O7 0.461477 0.127916 0.504586
O O8 0.336636 0.138026 0.506493
O O9 0.157717 0.036493 0.750000
O O10 0.221437 0.073050 0.500532
O O11 0.143481 0.967583 0.491733
O O12 0.250447 0.824939 0.750000
O O13 0.263627 0.750000 0.000000
O O14 0.289793 0.880571 0.009311
O O15 0.171359 0.840011 0.985181
O O16 0.500000 0.500000 0.500000
O O17 0.505240 0.425761 0.750000
O O18 0.414089 0.592663 0.482622
O O19 0.355329 0.924115 0.250000
O O20 0.329409 0.006310 0.025592
O O21 0.871762 0.111581 0.750000
O O22 0.707514 0.583738 0.250000
#
# Coordination Sequence:
#
# PCOD9434449 Si02
#       8
#     8   8   8   8   8   8   8   8
#     4   8  16  28  46  75 111 146 185 236 290 345
#     4  12  26  45  68  94 126 161 200 245 296 355
#     4  10  18  30  52  84 116 151 195 243 296 349
#     4  12  25  40  58  82 115 156 202 249 303 363
#     4  12  24  41  66  96 126 160 202 246 295 350
#     4  11  23  40  63  90 121 156 200 248 297 352
#     4  10  18  32  52  77 112 152 193 242 297 352
#     4  11  22  37  61  90 123 160 200 246 298 353
#
# _framework density 18.271246999999999
#
# number of rings (size 3 to 8) (size 9 to 14) (size 15 to 20)
#    0.000    1.250    2.500    4.875    0.000    2.500 
#    0.000    2.500    0.000    0.750    0.000    3.500 
#    0.000    0.000    0.000    0.000    0.000    0.000 
#
# Total GULP energy -357495.690876 kJ/mol
# GULP energy per Si atom -5585.870170 kJ/mol
# Density = 1.822966 g / cm^3
# Si number density = 18.271247 Si / 1000 Ang^3
#
#
#
# Elastic Constant Matrix: (Units=GPa)
#
#
# Indices 1 2 3 4 5 6 
#
# 1 134.4328 38.8201 34.0594 0.0000 0.0000 0.0000
# 2 38.8201 95.0430 35.5629 0.0000 0.0000 0.0000
# 3 34.0594 35.5629 78.8356 0.0000 0.0000 0.0000
# 4 0.0000 0.0000 0.0000 26.4900 0.0000 0.0000
# 5 0.0000 0.0000 0.0000 0.0000 30.5202 0.0000
# 6 0.0000 0.0000 0.0000 0.0000 0.0000 21.4840
#
#
#
# Elastic Compliance Matrix: (Units=1/GPa)
#
#
# Indices 1 2 3 4 5 6 
#
# 1 0.008869 -0.002633 -0.002644 0.000000 0.000000 0.000000
# 2 -0.002633 0.013440 -0.004925 0.000000 0.000000 0.000000
# 3 -0.002644 -0.004925 0.016049 0.000000 0.000000 0.000000
# 4 0.000000 0.000000 0.000000 0.037750 0.000000 0.000000
# 5 0.000000 0.000000 0.000000 0.000000 0.032765 0.000000
# 6 0.000000 0.000000 0.000000 0.000000 0.000000 0.046546
#
#
# Mechanical properties :
#
#
# Convention : Reuss Voigt Hill
#
# Bulk Modulus (GPa) = 55.70074 58.35512 57.02793
# Shear Modulus (GPa) = 27.50157 29.02342 28.26250
#
# Velocity S-wave (km/s) = 3.88388 3.98989 3.93724
# Velocity P-wave (km/s) = 7.11789 7.29611 7.20755
#
# Compressibility (1/GPa) = 0.01795308
#
# Stress axis : x y z
#
# Youngs Moduli (GPa) = 112.75388 74.40489 62.31089
#
# Poissons Ratio (x) = 0.19593 0.16474
# Poissons Ratio (y) = 0.29691 0.30689
# Poissons Ratio (z) = 0.29810 0.36646
#
# Static dielectric constant tensor:
#      x y z
#    x 1.662550 0.000000 0.000000 
#    y 0.000000 1.597330 0.000000 
#    z 0.000000 0.000000 1.606520 
# 
# From -- ./inp_files/8429.got.cif
#   From: 2010.05.17/outbox.cif.g08.bks.cpg/sg57_5_cif.got.tgz:8429.got - 2010.06.03 13:58:18.
