data_PCOD9434091
_publ_section_title
;
Structure prediction by ZEFSAII (Michael W. Deem and Ramdas Pophale) SiO2 
 PCOD9434091
Probable space group: P B C M
;
_chemical_formula_sum "Si O2"
_cell_formula_units_Z 56
_cell_length_a 25.510295
_cell_length_b 5.558613
_cell_length_c 18.507382
_cell_angle_alpha 90.000000
_cell_angle_beta 90.000000
_cell_angle_gamma 90.000000
_cell_volume 2624.381144
_symmetry_space_group_name_H-M "P B C M"
_symmetry_group_IT_number 57
_symmetry_cell_setting 'orthorhombic'
loop_
_space_group_symop_operation_xyz
x,y,z
-x,-y,1/2+z
x,1/2-y,-z
-x,1/2+y,1/2-z
-x,-y,-z
x,y,1/2-z
-x,1/2+y,z
x,1/2-y,1/2+z
loop_
_atom_site_type_symbol
_atom_site_label
_atom_site_fract_x
_atom_site_fract_y
_atom_site_fract_z
Si Si1 0.149109 0.242005 0.912062
Si Si2 0.194332 0.740938 0.917020
Si Si3 0.471004 0.202913 0.662713
Si Si4 0.284662 0.892739 0.250000
Si Si5 0.353978 0.363537 0.107441
Si Si6 0.682718 0.362074 0.092773
Si Si7 0.973729 0.759661 0.087650
Si Si8 0.280398 0.392849 0.250000
O O1 0.169665 0.499265 0.884096
O O2 0.087763 0.217772 0.896028
O O3 0.180075 0.003701 0.886508
O O4 0.155837 0.250000 0.000000
O O5 0.256340 0.695102 0.919764
O O6 0.174418 0.750000 0.000000
O O7 0.466811 0.201595 0.750000
O O8 0.502555 0.958756 0.642355
O O9 0.413341 0.183865 0.629788
O O10 0.321377 0.887304 0.319970
O O11 0.252222 0.137553 0.250000
O O12 0.251906 0.647888 0.250000
O O13 0.333018 0.125970 0.067593
O O14 0.317041 0.389154 0.178899
O O15 0.348476 0.624564 0.070869
O O16 0.996850 0.502584 0.112976
O O17 0.978543 0.750000 0.000000
#
# Coordination Sequence:
#
# PCOD9434091 Si02
#       8
#     8   8   8   4   8   8   8   4
#     4   9  17  28  42  59  86 121 147 178 220 259
#     4  10  19  31  44  62  88 117 151 182 218 256
#     4  10  19  28  41  62  89 118 141 166 207 260
#     4   8  16  26  40  59  80 104 140 171 204 248
#     4  10  17  29  42  60  85 110 146 169 208 252
#     4  10  19  29  46  63  83 116 147 181 210 252
#     4   9  15  23  37  58  82 111 148 178 205 252
#     4   8  14  24  38  55  78 108 130 165 192 240
#
# _framework density 21.338365
#
# number of rings (size 3 to 8) (size 9 to 14) (size 15 to 20)
#    0.000    2.571    0.714    2.571    0.000    3.429 
#    0.000    0.000    0.000    0.000    0.000    0.000 
#    0.000   11.429    0.000   12.857    0.000    5.714 
#
# Total GULP energy -312192.220901 kJ/mol
# GULP energy per Si atom -5574.861088 kJ/mol
# Density = 2.128980 g / cm^3
# Si number density = 21.338365 Si / 1000 Ang^3
#
#
#
# Elastic Constant Matrix: (Units=GPa)
#
#
# Indices 1 2 3 4 5 6 
#
# 1 91.1662 76.8285 -6.4729 0.0000 0.0000 0.0000
# 2 76.8285 266.4758 22.4342 0.0000 0.0000 0.0000
# 3 -6.4729 22.4342 46.5869 0.0000 0.0000 0.0000
# 4 0.0000 0.0000 0.0000 19.3896 0.0000 0.0000
# 5 0.0000 0.0000 0.0000 0.0000 6.4925 0.0000
# 6 0.0000 0.0000 0.0000 0.0000 0.0000 42.2820
#
#
#
# Elastic Compliance Matrix: (Units=1/GPa)
#
#
# Indices 1 2 3 4 5 6 
#
# 1 0.015321 -0.004791 0.004436 0.000000 0.000000 0.000000
# 2 -0.004791 0.005409 -0.003271 0.000000 0.000000 0.000000
# 3 0.004436 -0.003271 0.023657 0.000000 0.000000 0.000000
# 4 0.000000 0.000000 0.000000 0.051574 0.000000 0.000000
# 5 0.000000 0.000000 0.000000 0.000000 0.154023 0.000000
# 6 0.000000 0.000000 0.000000 0.000000 0.000000 0.023651
#
#
# Mechanical properties :
#
#
# Convention : Reuss Voigt Hill
#
# Bulk Modulus (GPa) = 26.92799 65.53428 46.23114
# Shear Modulus (GPa) = 17.04943 34.39542 25.72242
#
# Velocity S-wave (km/s) = 2.82973 4.01921 3.47573
# Velocity P-wave (km/s) = 4.82943 7.23307 6.14983
#
# Compressibility (1/GPa) = 0.03713608
#
# Stress axis : x y z
#
# Youngs Moduli (GPa) = 65.26888 184.86809 42.27164
#
# Poissons Ratio (x) = 0.88566 -0.18751
# Poissons Ratio (y) = 0.31269 0.13825
# Poissons Ratio (z) = -0.28952 0.60461
#
# Static dielectric constant tensor:
#      x y z
#    x 1.705560 0.000000 0.000000 
#    y 0.000000 1.854900 0.000000 
#    z 0.000000 0.000000 1.834300 
# 
# From -- ./inp_files/27655.got.cif
#   From: 2010.05.17/outbox.cif.g08.bks.cpg/sg57_14_cif.got.tgz:27655.got - 2010.06.03 13:58:18.
