data_PCOD9434693
_publ_section_title
;
Structure prediction by ZEFSAII (Michael W. Deem and Ramdas Pophale) SiO2 
 PCOD9434693
Probable space group: P B C M
;
_chemical_formula_sum "Si O2"
_cell_formula_units_Z 52
_cell_length_a 7.091241
_cell_length_b 14.831927
_cell_length_c 22.066827
_cell_angle_alpha 90.000000
_cell_angle_beta 90.000000
_cell_angle_gamma 90.000000
_cell_volume 2320.917563
_symmetry_space_group_name_H-M "P B C M"
_symmetry_group_IT_number 57
_symmetry_cell_setting 'orthorhombic'
loop_
_space_group_symop_operation_xyz
x,y,z
-x,-y,1/2+z
x,1/2-y,-z
-x,1/2+y,1/2-z
-x,-y,-z
x,y,1/2-z
-x,1/2+y,z
x,1/2-y,1/2+z
loop_
_atom_site_type_symbol
_atom_site_label
_atom_site_fract_x
_atom_site_fract_y
_atom_site_fract_z
Si Si1 0.473183 0.044783 0.250000
Si Si2 0.983027 0.666668 0.038748
Si Si3 0.224433 0.215179 0.250000
Si Si4 0.403176 0.018905 0.381622
Si Si5 0.121790 0.890383 0.750000
Si Si6 0.663586 0.775035 0.620879
Si Si7 0.958421 0.014542 0.121889
Si Si8 0.681485 0.604359 0.940675
O O1 0.290703 0.109586 0.250000
O O2 0.468863 0.991845 0.313435
O O3 0.652155 0.111748 0.250000
O O4 0.875480 0.709443 0.095999
O O5 0.100291 0.585909 0.068471
O O6 0.065525 0.750000 0.000000
O O7 0.811393 0.623258 0.998968
O O8 0.313044 0.254710 0.189753
O O9 0.998721 0.202072 0.250000
O O10 0.431427 0.127216 0.382979
O O11 0.181124 0.999406 0.386504
O O12 0.520997 0.970063 0.433305
O O13 0.073693 0.943802 0.687998
O O14 0.583847 0.697883 0.578476
O O15 0.835900 0.926764 0.109309
#
# Coordination Sequence:
#
# PCOD9434693 Si02
#       8
#     4   8   4   8   4   8   8   8
#     4  10  18  33  57  89 114 154 190 240 304 353
#     4   9  19  38  59  85 122 161 200 250 301 353
#     4  10  18  38  58  82 122 153 194 250 299 352
#     4  10  20  38  59  86 121 155 196 252 297 351
#     4  12  18  33  63  89 110 157 198 238 309 363
#     4   9  20  37  59  85 121 163 196 251 309 347
#     4  11  21  36  60  90 116 156 201 247 306 352
#     4  11  22  37  61  90 121 163 208 241 296 372
#
# _framework density 22.40493
#
# number of rings (size 3 to 8) (size 9 to 14) (size 15 to 20)
#    0.000    1.846    6.154    0.462    0.000    3.692 
#    0.000    7.692    0.000    8.308    0.000    0.000 
#    0.000    0.000    0.000    0.000    0.000    0.000 
#
# Total GULP energy -289912.956803 kJ/mol
# GULP energy per Si atom -5575.249169 kJ/mol
# Density = 2.235393 g / cm^3
# Si number density = 22.404930 Si / 1000 Ang^3
#
#
#
# Elastic Constant Matrix: (Units=GPa)
#
#
# Indices 1 2 3 4 5 6 
#
# 1 76.4686 12.1771 -3.2336 0.0000 0.0000 0.0000
# 2 12.1771 67.2099 19.9907 0.0000 0.0000 0.0000
# 3 -3.2336 19.9907 104.7905 0.0000 0.0000 0.0000
# 4 0.0000 0.0000 0.0000 18.9931 0.0000 0.0000
# 5 0.0000 0.0000 0.0000 0.0000 12.3199 0.0000
# 6 0.0000 0.0000 0.0000 0.0000 0.0000 19.4521
#
#
#
# Elastic Compliance Matrix: (Units=1/GPa)
#
#
# Indices 1 2 3 4 5 6 
#
# 1 0.013553 -0.002735 0.000940 0.000000 0.000000 0.000000
# 2 -0.002735 0.016326 -0.003199 0.000000 0.000000 0.000000
# 3 0.000940 -0.003199 0.010182 0.000000 0.000000 0.000000
# 4 0.000000 0.000000 0.000000 0.052651 0.000000 0.000000
# 5 0.000000 0.000000 0.000000 0.000000 0.081169 0.000000
# 6 0.000000 0.000000 0.000000 0.000000 0.000000 0.051408
#
#
# Mechanical properties :
#
#
# Convention : Reuss Voigt Hill
#
# Bulk Modulus (GPa) = 33.25288 34.03748 33.64518
# Shear Modulus (GPa) = 20.38314 24.78867 22.58590
#
# Velocity S-wave (km/s) = 3.01950 3.32986 3.17847
# Velocity P-wave (km/s) = 5.19908 5.47804 5.34038
#
# Compressibility (1/GPa) = 0.03007258
#
# Stress axis : x y z
#
# Youngs Moduli (GPa) = 73.78687 61.25296 98.21168
#
# Poissons Ratio (x) = 0.16753 -0.09231
# Poissons Ratio (y) = 0.20181 0.31416
# Poissons Ratio (z) = -0.06936 0.19594
#
# Static dielectric constant tensor:
#      x y z
#    x 1.815280 0.000000 0.000000 
#    y 0.000000 1.892080 0.000000 
#    z 0.000000 0.000000 1.879290 
# 
# From -- ./inp_files/26829.got.cif
#   From: 2010.05.17/outbox.cif.g08.bks.cpg/sg57_14_cif.got.tgz:26829.got - 2010.06.03 13:58:18.
