data_PCOD9434023
_publ_section_title
;
Structure prediction by ZEFSAII (Michael W. Deem and Ramdas Pophale) SiO2 
 PCOD9434023
Probable space group: P B C M
;
_chemical_formula_sum "Si O2"
_cell_formula_units_Z 64
_cell_length_a 15.459012
_cell_length_b 25.974744
_cell_length_c 9.200734
_cell_angle_alpha 90.000000
_cell_angle_beta 90.000000
_cell_angle_gamma 90.000000
_cell_volume 3694.498422
_symmetry_space_group_name_H-M "P B C M"
_symmetry_group_IT_number 57
_symmetry_cell_setting 'orthorhombic'
loop_
_space_group_symop_operation_xyz
x,y,z
-x,-y,1/2+z
x,1/2-y,-z
-x,1/2+y,1/2-z
-x,-y,-z
x,y,1/2-z
-x,1/2+y,z
x,1/2-y,1/2+z
loop_
_atom_site_type_symbol
_atom_site_label
_atom_site_fract_x
_atom_site_fract_y
_atom_site_fract_z
Si Si1 0.750759 0.095240 0.083761
Si Si2 0.379068 0.506142 0.082585
Si Si3 0.913760 0.065433 0.920181
Si Si4 0.698547 0.798941 0.912563
Si Si5 0.507615 0.200180 0.085698
Si Si6 0.287281 0.094559 0.921393
Si Si7 0.419180 0.895320 0.422597
Si Si8 0.102388 0.458540 0.081031
O O1 0.746870 0.113865 0.250000
O O2 0.714414 0.036095 0.087968
O O3 0.845401 0.096785 0.016093
O O4 0.677752 0.119127 0.979057
O O5 0.410313 0.504869 0.250000
O O6 0.356285 0.449126 0.029238
O O7 0.432893 0.546607 0.985525
O O8 0.892881 0.070726 0.750000
O O9 0.015801 0.075389 0.941730
O O10 0.902035 0.006386 0.971993
O O11 0.734309 0.801047 0.750000
O O12 0.595023 0.791904 0.901835
O O13 0.733688 0.750000 0.000000
O O14 0.709725 0.852425 0.994597
O O15 0.542876 0.195780 0.250000
O O16 0.543115 0.250000 0.000000
O O17 0.522309 0.147776 0.996870
O O18 0.304504 0.102632 0.750000
O O19 0.191097 0.071762 0.936419
O O20 0.426307 0.895310 0.250000
O O21 0.097627 0.477263 0.250000
#
# Coordination Sequence:
#
# PCOD9434023 Si02
#       8
#     8   8   8   8   8   8   8   8
#     4   9  16  28  43  61  95 135 165 194 240 288
#     4   8  16  29  46  67  97 135 165 194 239 292
#     4  10  17  24  40  66  96 130 168 204 236 279
#     4  10  22  38  56  76  97 123 160 206 253 300
#     4  10  20  36  55  75  99 125 157 201 251 297
#     4  10  18  32  52  71  98 134 169 206 251 300
#     4  10  18  29  49  75 100 127 163 201 238 288
#     4   9  17  28  41  63  96 131 163 198 242 285
#
# _framework density 17.323056000000001
#
# number of rings (size 3 to 8) (size 9 to 14) (size 15 to 20)
#    0.750    1.750    1.250    2.250    0.000    3.000 
#    0.000    0.625    0.000    0.000    0.000    0.875 
#    0.000    2.000    0.000    0.000    0.000    0.000 
#
# Total GULP energy -356340.641262 kJ/mol
# GULP energy per Si atom -5567.822520 kJ/mol
# Density = 1.728363 g / cm^3
# Si number density = 17.323056 Si / 1000 Ang^3
#
#
#
# Elastic Constant Matrix: (Units=GPa)
#
#
# Indices 1 2 3 4 5 6 
#
# 1 26.0402 -1.6491 13.6369 0.0000 0.0000 0.0000
# 2 -1.6491 89.2360 53.4711 0.0000 0.0000 0.0000
# 3 13.6369 53.4711 105.3121 0.0000 0.0000 0.0000
# 4 0.0000 0.0000 0.0000 20.7907 0.0000 0.0000
# 5 0.0000 0.0000 0.0000 0.0000 22.5614 0.0000
# 6 0.0000 0.0000 0.0000 0.0000 0.0000 8.7754
#
#
#
# Elastic Compliance Matrix: (Units=1/GPa)
#
#
# Indices 1 2 3 4 5 6 
#
# 1 0.043308 0.005980 -0.008644 0.000000 0.000000 0.000000
# 2 0.005980 0.016932 -0.009372 0.000000 0.000000 0.000000
# 3 -0.008644 -0.009372 0.015373 0.000000 0.000000 0.000000
# 4 0.000000 0.000000 0.000000 0.048098 0.000000 0.000000
# 5 0.000000 0.000000 0.000000 0.000000 0.044324 0.000000
# 6 0.000000 0.000000 0.000000 0.000000 0.000000 0.113955
#
#
# Mechanical properties :
#
#
# Convention : Reuss Voigt Hill
#
# Bulk Modulus (GPa) = 19.40174 39.05623 29.22899
# Shear Modulus (GPa) = 15.46826 20.76744 18.11785
#
# Velocity S-wave (km/s) = 2.99143 3.46617 3.23752
# Velocity P-wave (km/s) = 4.81205 6.21401 5.55741
#
# Compressibility (1/GPa) = 0.05154177
#
# Stress axis : x y z
#
# Youngs Moduli (GPa) = 23.09056 59.05880 65.04809
#
# Poissons Ratio (x) = -0.35318 0.56229
# Poissons Ratio (y) = -0.13808 0.60960
# Poissons Ratio (z) = 0.19960 0.55347
#
# Static dielectric constant tensor:
#      x y z
#    x 1.630100 0.000000 0.000000 
#    y 0.000000 1.576660 0.000000 
#    z 0.000000 0.000000 1.600370 
# 
# From -- ./inp_files/7497.got.cif
#   From: 2010.05.17/outbox.cif.g08.bks.cpg/sg57_4_cif.got.tgz:7497.got - 2010.06.03 13:58:18.
