data_PCOD9434877
_publ_section_title
;
Structure prediction by ZEFSAII (Michael W. Deem and Ramdas Pophale) SiO2 
 PCOD9434877
Probable space group: P B C M
;
_chemical_formula_sum "Si O2"
_cell_formula_units_Z 56
_cell_length_a 21.454015
_cell_length_b 13.771376
_cell_length_c 7.416647
_cell_angle_alpha 90.000000
_cell_angle_beta 90.000000
_cell_angle_gamma 90.000000
_cell_volume 2191.258052
_symmetry_space_group_name_H-M "P B C M"
_symmetry_group_IT_number 57
_symmetry_cell_setting 'orthorhombic'
loop_
_space_group_symop_operation_xyz
x,y,z
-x,-y,1/2+z
x,1/2-y,-z
-x,1/2+y,1/2-z
-x,-y,-z
x,y,1/2-z
-x,1/2+y,z
x,1/2-y,1/2+z
loop_
_atom_site_type_symbol
_atom_site_label
_atom_site_fract_x
_atom_site_fract_y
_atom_site_fract_z
Si Si1 0.786133 0.423486 0.460626
Si Si2 0.187523 0.354367 0.036323
Si Si3 0.079174 0.884111 0.456564
Si Si4 0.947832 0.892117 0.029202
Si Si5 0.615723 0.646060 0.535669
Si Si6 0.348486 0.574695 0.961881
Si Si7 0.482489 0.888673 0.035113
O O1 0.786656 0.396963 0.250000
O O2 0.788664 0.541780 0.466393
O O3 0.851072 0.379721 0.537167
O O4 0.718741 0.396036 0.539132
O O5 0.187517 0.367555 0.250000
O O6 0.116444 0.345041 0.968455
O O7 0.217978 0.250000 0.000000
O O8 0.082963 0.849014 0.250000
O O9 0.013449 0.849574 0.538852
O O10 0.063544 0.998775 0.459622
O O11 0.950020 0.893835 0.250000
O O12 0.646933 0.750000 0.500000
O O13 0.612358 0.634154 0.750000
O O14 0.643850 0.543322 0.472403
O O15 0.545455 0.656644 0.457356
O O16 0.347207 0.597779 0.750000
O O17 0.412173 0.622620 0.036731
O O18 0.479948 0.869616 0.250000
O O19 0.500000 0.000000 0.000000
#
# Coordination Sequence:
#
# PCOD9434877 Si02
#       7
#     8   8   8   8   8   8   8
#     4   9  17  28  43  62  83 107 133 162 199 244
#     4  10  19  29  40  55  79 110 141 170 200 237
#     4   8  13  23  39  58  77  95 121 158 197 234
#     4   8  14  24  38  55  74  97 126 162 199 230
#     4  10  19  30  45  65  87 112 142 175 210 247
#     4   9  17  30  46  64  87 113 140 171 209 253
#     4   8  15  28  45  63  83 107 137 173 210 247
#
# _framework density 25.556097999999999
#
# number of rings (size 3 to 8) (size 9 to 14) (size 15 to 20)
#    0.000    3.143    0.000    0.857    0.000    2.286 
#    0.000    0.000    0.000    0.000    0.000    1.000 
#    0.000    0.000    0.000    0.000    0.000    0.000 
#
# Total GULP energy -311895.283573 kJ/mol
# GULP energy per Si atom -5569.558635 kJ/mol
# Density = 2.549793 g / cm^3
# Si number density = 25.556098 Si / 1000 Ang^3
#
#
#
# Elastic Constant Matrix: (Units=GPa)
#
#
# Indices 1 2 3 4 5 6 
#
# 1 259.0776 -11.8812 16.3425 0.0000 0.0000 0.0000
# 2 -11.8812 51.9031 -19.0654 0.0000 0.0000 0.0000
# 3 16.3425 -19.0654 107.2778 0.0000 0.0000 0.0000
# 4 0.0000 0.0000 0.0000 -2.3680 0.0000 0.0000
# 5 0.0000 0.0000 0.0000 0.0000 2.1334 0.0000
# 6 0.0000 0.0000 0.0000 0.0000 0.0000 -56.8600
#
#
#
# Elastic Compliance Matrix: (Units=1/GPa)
#
#
# Indices 1 2 3 4 5 6 
#
# 1 0.003923 0.000726 -0.000469 0.000000 0.000000 0.000000
# 2 0.000726 0.020747 0.003577 0.000000 0.000000 0.000000
# 3 -0.000469 0.003577 0.010029 0.000000 0.000000 0.000000
# 4 0.000000 0.000000 0.000000 -0.422306 0.000000 0.000000
# 5 0.000000 0.000000 0.000000 0.000000 0.468733 0.000000
# 6 0.000000 0.000000 0.000000 0.000000 0.000000 -0.017587
#
#
# Mechanical properties :
#
#
# Convention : Reuss Voigt Hill
#
# Bulk Modulus (GPa) = 23.60419 43.22781 33.41600
# Shear Modulus (GPa) = 71.43657 17.43859 44.43758
#
# Velocity S-wave (km/s) = 5.29278 2.61505 4.17445
# Velocity P-wave (km/s) = 6.82698 5.10583 6.02815
#
# Compressibility (1/GPa) = 0.04236536
#
# Stress axis : x y z
#
# Youngs Moduli (GPa) = 254.92699 48.20073 99.71487
#
# Poissons Ratio (x) = -0.03499 0.04672
# Poissons Ratio (y) = -0.18503 -0.35663
# Poissons Ratio (z) = 0.11945 -0.17239
#
# Static dielectric constant tensor:
#      x y z
#    x 2.124130 0.000000 0.000000 
#    y 0.000000 2.027690 0.000000 
#    z 0.000000 0.000000 1.961290 
# 
# From -- ./inp_files/8647.got.cif
#   From: 2010.05.17/outbox.cif.g08.bks.cpg/sg57_5_cif.got.tgz:8647.got - 2010.06.03 13:58:18.
