data_PCOD9434588
_publ_section_title
;
Structure prediction by ZEFSAII (Michael W. Deem and Ramdas Pophale) SiO2 
 PCOD9434588
Probable space group: P B C M
;
_chemical_formula_sum "Si O2"
_cell_formula_units_Z 64
_cell_length_a 18.066198
_cell_length_b 5.514835
_cell_length_c 31.266551
_cell_angle_alpha 90.000000
_cell_angle_beta 90.000000
_cell_angle_gamma 90.000000
_cell_volume 3115.152169
_symmetry_space_group_name_H-M "P B C M"
_symmetry_group_IT_number 57
_symmetry_cell_setting 'orthorhombic'
loop_
_space_group_symop_operation_xyz
x,y,z
-x,-y,1/2+z
x,1/2-y,-z
-x,1/2+y,1/2-z
-x,-y,-z
x,y,1/2-z
-x,1/2+y,z
x,1/2-y,1/2+z
loop_
_atom_site_type_symbol
_atom_site_label
_atom_site_fract_x
_atom_site_fract_y
_atom_site_fract_z
Si Si1 0.287106 0.749995 0.298373
Si Si2 0.546921 0.749994 0.202011
Si Si3 0.371859 0.750010 0.609661
Si Si4 0.226951 0.750010 0.949600
Si Si5 0.195582 0.249995 0.187272
Si Si6 0.616971 0.749990 0.115268
Si Si7 0.026137 0.250007 0.798088
Si Si8 0.790644 0.750010 0.588955
O O1 0.321788 0.749996 0.250000
O O2 0.338874 0.749992 0.341319
O O3 0.238853 0.500831 0.301703
O O4 0.238853 0.999159 0.301703
O O5 0.576630 0.749994 0.250000
O O6 0.500000 0.499994 0.196986
O O7 0.609855 0.749991 0.166566
O O8 0.302987 0.750011 0.577474
O O9 0.415627 0.504983 0.602068
O O10 0.415627 0.995037 0.602068
O O11 0.189828 0.496942 0.935560
O O12 0.189829 0.003084 0.935562
O O13 0.240254 0.750000 0.000000
O O14 0.113973 0.249993 0.206203
O O15 0.179838 0.249998 0.136649
O O16 0.701283 0.749988 0.098533
O O17 0.991444 0.250007 0.750000
O O18 0.000000 0.500007 0.819193
#
# Coordination Sequence:
#
# PCOD9434588 Si02
#       8
#     8   8   8   8   8   8   8   8
#     4  12  21  31  48  72 104 142 170 199 254 303
#     4  10  21  35  49  68  95 134 183 223 251 288
#     4  10  19  33  46  76 106 129 166 211 244 311
#     4  10  18  32  52  74 108 140 160 198 262 326
#     4  12  20  37  51  71 107 137 172 219 254 298
#     4  10  18  33  51  66 102 133 160 213 258 292
#     4  10  21  35  49  68  95 134 183 220 247 291
#     4  10  19  34  51  79 107 129 162 219 256 317
#
# _framework density 20.544744999999999
#
# number of rings (size 3 to 8) (size 9 to 14) (size 15 to 20)
#    0.000    1.500    5.000    3.000    0.000    2.000 
#    0.000    0.000    0.000    0.000    0.000    0.000 
#    0.000  170.000    0.000    0.000    0.000    0.000 
#
# Total GULP energy -356751.475616 kJ/mol
# GULP energy per Si atom -5574.241807 kJ/mol
# Density = 2.049798 g / cm^3
# Si number density = 20.544745 Si / 1000 Ang^3
#
#
#
# Elastic Constant Matrix: (Units=GPa)
#
#
# Indices 1 2 3 4 5 6 
#
# 1 41.3805 33.9328 -15.3328 0.0000 0.0000 0.0000
# 2 33.9328 255.9671 34.9795 0.0000 0.0000 0.0000
# 3 -15.3328 34.9795 102.7647 0.0000 0.0000 0.0000
# 4 0.0000 0.0000 0.0000 20.8053 0.0000 0.0000
# 5 0.0000 0.0000 0.0000 0.0000 -23.3627 0.0000
# 6 0.0000 0.0000 0.0000 0.0000 0.0000 13.1675
#
#
#
# Elastic Compliance Matrix: (Units=1/GPa)
#
#
# Indices 1 2 3 4 5 6 
#
# 1 0.030477 -0.004889 0.006211 0.000000 0.000000 0.000000
# 2 -0.004889 0.004882 -0.002391 0.000000 0.000000 0.000000
# 3 0.006211 -0.002391 0.011472 0.000000 0.000000 0.000000
# 4 0.000000 0.000000 0.000000 0.048065 0.000000 0.000000
# 5 0.000000 0.000000 0.000000 0.000000 -0.042803 0.000000
# 6 0.000000 0.000000 0.000000 0.000000 0.000000 0.075944
#
#
# Mechanical properties :
#
#
# Convention : Reuss Voigt Hill
#
# Bulk Modulus (GPa) = 22.37521 56.36344 39.36933
# Shear Modulus (GPa) = 34.46600 25.22422 29.84511
#
# Velocity S-wave (km/s) = 4.10030 3.50776 3.81555
# Velocity P-wave (km/s) = 5.77332 6.62570 6.21414
#
# Compressibility (1/GPa) = 0.04469231
#
# Stress axis : x y z
#
# Youngs Moduli (GPa) = 32.81210 204.84973 87.17173
#
# Poissons Ratio (x) = 1.00151 -0.54145
# Poissons Ratio (y) = 0.16042 0.20843
# Poissons Ratio (z) = -0.20381 0.48981
#
# Static dielectric constant tensor:
#      x y z
#    x 1.711080 0.000000 0.000000 
#    y 0.000000 1.881810 0.000000 
#    z 0.000000 0.000000 1.686030 
# 
# From -- ./inp_files/29957.got.cif
#   From: 2010.05.17/outbox.cif.g08.bks.cpg/sg57_15_cif.got.tgz:29957.got - 2010.06.03 13:58:18.
