data_PCOD9434837
_publ_section_title
;
Structure prediction by ZEFSAII (Michael W. Deem and Ramdas Pophale) SiO2 
 PCOD9434837
Probable space group: P B C M
;
_chemical_formula_sum "Si O2"
_cell_formula_units_Z 48
_cell_length_a 9.149336
_cell_length_b 23.663645
_cell_length_c 11.687354
_cell_angle_alpha 90.000000
_cell_angle_beta 90.000000
_cell_angle_gamma 90.000000
_cell_volume 2530.389734
_symmetry_space_group_name_H-M "P B C M"
_symmetry_group_IT_number 57
_symmetry_cell_setting 'orthorhombic'
loop_
_space_group_symop_operation_xyz
x,y,z
-x,-y,1/2+z
x,1/2-y,-z
-x,1/2+y,1/2-z
-x,-y,-z
x,y,1/2-z
-x,1/2+y,z
x,1/2-y,1/2+z
loop_
_atom_site_type_symbol
_atom_site_label
_atom_site_fract_x
_atom_site_fract_y
_atom_site_fract_z
Si Si1 0.560947 0.064027 0.511214
Si Si2 0.817059 0.939249 0.250000
Si Si3 0.173474 0.497795 0.010598
Si Si4 0.591592 0.377145 0.250000
Si Si5 0.291330 0.392458 0.884374
Si Si6 0.674148 0.686591 0.750000
Si Si7 0.064716 0.864679 0.250000
Si Si8 0.122760 0.193234 0.553230
O O1 0.547150 0.088002 0.638102
O O2 0.459018 0.102453 0.430005
O O3 0.500000 0.000000 0.500000
O O4 0.734915 0.055893 0.492443
O O5 0.784203 0.970760 0.366851
O O6 0.736968 0.878458 0.250000
O O7 0.990770 0.926387 0.250000
O O8 0.227050 0.454760 0.912297
O O9 0.000000 0.500000 0.000000
O O10 0.497830 0.319704 0.250000
O O11 0.763148 0.366121 0.250000
O O12 0.285132 0.379666 0.750000
O O13 0.194175 0.349768 0.961712
O O14 0.744460 0.712265 0.862989
O O15 0.995859 0.835603 0.136761
O O16 0.060144 0.250000 0.500000
#
# Coordination Sequence:
#
# PCOD9434837 Si02
#       8
#     8   4   8   4   8   4   4   8
#     4  10  23  34  57  86 122 159 199 244 293 345
#     4  10  18  38  56  76 118 157 207 240 270 354
#     4  11  22  35  56  84 117 163 199 238 288 357
#     4  12  20  40  62  86 120 161 201 252 290 356
#     4  11  23  38  55  87 120 150 197 249 299 348
#     4  10  18  38  64  83 109 150 198 244 286 343
#     4  10  22  38  68  87 115 160 204 246 306 359
#     4  10  21  41  64  88 113 151 200 250 304 361
#
# _framework density 18.969408999999999
#
# number of rings (size 3 to 8) (size 9 to 14) (size 15 to 20)
#    0.000    1.667    5.000    2.000    9.333    0.000 
#    0.000    0.833    0.000    0.000    0.000    0.000 
#    0.000    0.000    0.000    0.000    0.000    0.000 
#
# Total GULP energy -267620.382907 kJ/mol
# GULP energy per Si atom -5575.424644 kJ/mol
# Density = 1.892623 g / cm^3
# Si number density = 18.969409 Si / 1000 Ang^3
#
#
#
# Elastic Constant Matrix: (Units=GPa)
#
#
# Indices 1 2 3 4 5 6 
#
# 1 121.6910 3.3516 27.3865 0.0000 0.0000 0.0000
# 2 3.3516 31.5155 24.8125 0.0000 0.0000 0.0000
# 3 27.3865 24.8125 142.8627 0.0000 0.0000 0.0000
# 4 0.0000 0.0000 0.0000 20.1761 0.0000 0.0000
# 5 0.0000 0.0000 0.0000 0.0000 11.4708 0.0000
# 6 0.0000 0.0000 0.0000 0.0000 0.0000 14.2084
#
#
#
# Elastic Compliance Matrix: (Units=1/GPa)
#
#
# Indices 1 2 3 4 5 6 
#
# 1 0.008593 0.000444 -0.001724 0.000000 0.000000 0.000000
# 2 0.000444 0.036779 -0.006473 0.000000 0.000000 0.000000
# 3 -0.001724 -0.006473 0.008455 0.000000 0.000000 0.000000
# 4 0.000000 0.000000 0.000000 0.049564 0.000000 0.000000
# 5 0.000000 0.000000 0.000000 0.000000 0.087178 0.000000
# 6 0.000000 0.000000 0.000000 0.000000 0.000000 0.070381
#
#
# Mechanical properties :
#
#
# Convention : Reuss Voigt Hill
#
# Bulk Modulus (GPa) = 26.09594 45.24118 35.66856
# Shear Modulus (GPa) = 17.28724 25.20561 21.24643
#
# Velocity S-wave (km/s) = 3.02209 3.64916 3.35033
# Velocity P-wave (km/s) = 5.09549 6.45418 5.81466
#
# Compressibility (1/GPa) = 0.03832014
#
# Stress axis : x y z
#
# Youngs Moduli (GPa) = 116.36851 27.18909 118.27984
#
# Poissons Ratio (x) = -0.01207 0.20396
# Poissons Ratio (y) = -0.05164 0.76562
# Poissons Ratio (z) = 0.20067 0.17599
#
# Static dielectric constant tensor:
#      x y z
#    x 1.744110 0.000000 0.000000 
#    y 0.000000 1.682870 0.000000 
#    z 0.000000 0.000000 1.814830 
# 
# From -- ./inp_files/12090.got.cif
#   From: 2010.05.17/outbox.cif.g08.bks.cpg/sg57_7_cif.got.tgz:12090.got - 2010.06.03 13:58:18.
