data_PCOD9434026
_publ_section_title
;
Structure prediction by ZEFSAII (Michael W. Deem and Ramdas Pophale) SiO2 
 PCOD9434026
Probable space group: P B C M
;
_chemical_formula_sum "Si O2"
_cell_formula_units_Z 28
_cell_length_a 16.412718
_cell_length_b 5.306550
_cell_length_c 14.400206
_cell_angle_alpha 90.000000
_cell_angle_beta 90.000000
_cell_angle_gamma 90.000000
_cell_volume 1254.184627
_symmetry_space_group_name_H-M "P B C M"
_symmetry_group_IT_number 57
_symmetry_cell_setting 'orthorhombic'
loop_
_space_group_symop_operation_xyz
x,y,z
-x,-y,1/2+z
x,1/2-y,-z
-x,1/2+y,1/2-z
-x,-y,-z
x,y,1/2-z
-x,1/2+y,z
x,1/2-y,1/2+z
loop_
_atom_site_type_symbol
_atom_site_label
_atom_site_fract_x
_atom_site_fract_y
_atom_site_fract_z
Si Si1 0.303221 0.240827 0.612446
Si Si2 0.969274 0.041155 0.607668
Si Si3 0.553123 0.854155 0.250000
Si Si4 0.213061 0.759797 0.110445
O O1 0.309621 0.250000 0.500000
O O2 0.388263 0.179540 0.660991
O O3 0.269491 0.511918 0.643966
O O4 0.241065 0.016559 0.640803
O O5 0.880480 0.159635 0.621929
O O6 0.027616 0.259185 0.645798
O O7 0.000000 0.000000 0.500000
O O8 0.488340 0.627202 0.250000
O O9 0.223867 0.750000 0.000000
#
# Coordination Sequence:
#
# PCOD9434026 Si02
#       4
#     8   8   4   8
#     4  10  23  39  62  93 123 157 204 245 313 370
#     4  10  17  24  44  80 126 159 204 251 288 331
#     4  12  26  46  70  92 120 156 200 254 322 384
#     4  10  18  32  53  85 131 159 201 255 289 359
#
# _framework density 22.325261000000001
#
# number of rings (size 3 to 8) (size 9 to 14) (size 15 to 20)
#    0.000    1.714    2.857    3.429    8.000    1.143 
#    0.000    0.000    0.000    0.000    0.000   20.000 
#    0.000    0.000    0.000    0.000    0.000    0.000 
#
# Total GULP energy -156292.076606 kJ/mol
# GULP energy per Si atom -5581.859879 kJ/mol
# Density = 2.227445 g / cm^3
# Si number density = 22.325261 Si / 1000 Ang^3
#
#
#
# Elastic Constant Matrix: (Units=GPa)
#
#
# Indices 1 2 3 4 5 6 
#
# 1 86.6437 23.0491 16.1316 0.0000 0.0000 0.0000
# 2 23.0491 161.2346 10.4133 0.0000 0.0000 0.0000
# 3 16.1316 10.4133 111.1910 0.0000 0.0000 0.0000
# 4 0.0000 0.0000 0.0000 -12.9126 0.0000 0.0000
# 5 0.0000 0.0000 0.0000 0.0000 -91.5584 0.0000
# 6 0.0000 0.0000 0.0000 0.0000 0.0000 57.9455
#
#
#
# Elastic Compliance Matrix: (Units=1/GPa)
#
#
# Indices 1 2 3 4 5 6 
#
# 1 0.012284 -0.001651 -0.001628 0.000000 0.000000 0.000000
# 2 -0.001651 0.006462 -0.000366 0.000000 0.000000 0.000000
# 3 -0.001628 -0.000366 0.009264 0.000000 0.000000 0.000000
# 4 0.000000 0.000000 0.000000 -0.077444 0.000000 0.000000
# 5 0.000000 0.000000 0.000000 0.000000 -0.010922 0.000000
# 6 0.000000 0.000000 0.000000 0.000000 0.000000 0.017258
#
#
# Mechanical properties :
#
#
# Convention : Reuss Voigt Hill
#
# Bulk Modulus (GPa) = 48.25959 50.91747 49.58853
# Shear Modulus (GPa) = -172.98967 11.32660 -80.83153
#
# Velocity S-wave (km/s) = -8.81217 2.25487 -6.02370
# Velocity P-wave (km/s) = 9.04851 5.44389 5.11075
#
# Compressibility (1/GPa) = 0.02072127
#
# Stress axis : x y z
#
# Youngs Moduli (GPa) = 81.40861 154.75662 107.94596
#
# Poissons Ratio (x) = 0.25549 0.17568
# Poissons Ratio (y) = 0.13440 0.03947
# Poissons Ratio (z) = 0.13249 0.05659
#
# Static dielectric constant tensor:
#      x y z
#    x 1.826460 0.000000 0.000000 
#    y 0.000000 1.855730 0.000000 
#    z 0.000000 0.000000 1.951110 
# 
# From -- ./inp_files/22211.got.cif
#   From: 2010.05.17/outbox.cif.g08.bks.cpg/sg57_12_cif.got.tgz:22211.got - 2010.06.03 13:58:18.
