data_PCOD9434338
_publ_section_title
;
Structure prediction by ZEFSAII (Michael W. Deem and Ramdas Pophale) SiO2 
 PCOD9434338
Probable space group: P B C M
;
_chemical_formula_sum "Si O2"
_cell_formula_units_Z 64
_cell_length_a 16.094680
_cell_length_b 8.891780
_cell_length_c 26.357003
_cell_angle_alpha 90.000000
_cell_angle_beta 90.000000
_cell_angle_gamma 90.000000
_cell_volume 3771.960023
_symmetry_space_group_name_H-M "P B C M"
_symmetry_group_IT_number 57
_symmetry_cell_setting 'orthorhombic'
loop_
_space_group_symop_operation_xyz
x,y,z
-x,-y,1/2+z
x,1/2-y,-z
-x,1/2+y,1/2-z
-x,-y,-z
x,y,1/2-z
-x,1/2+y,z
x,1/2-y,1/2+z
loop_
_atom_site_type_symbol
_atom_site_label
_atom_site_fract_x
_atom_site_fract_y
_atom_site_fract_z
Si Si1 0.536064 0.552521 0.611596
Si Si2 0.955453 0.703337 0.811073
Si Si3 0.598017 0.483064 0.306073
Si Si4 0.397363 0.756688 0.940014
Si Si5 0.119046 0.529060 0.811469
Si Si6 0.813939 0.486874 0.691182
Si Si7 0.343444 0.305657 0.306227
Si Si8 0.730766 0.302362 0.356070
O O1 0.472344 0.485210 0.652938
O O2 0.581360 0.423837 0.579793
O O3 0.476917 0.656563 0.577077
O O4 0.601788 0.639158 0.646811
O O5 0.948518 0.701295 0.750000
O O6 0.897405 0.565059 0.828606
O O7 0.050090 0.658461 0.822062
O O8 0.920732 0.867144 0.825652
O O9 0.562996 0.469541 0.250000
O O10 0.658296 0.626306 0.307344
O O11 0.651579 0.336899 0.319849
O O12 0.314333 0.701691 0.910527
O O13 0.387303 0.750000 0.000000
O O14 0.135864 0.528872 0.750000
O O15 0.200102 0.572649 0.843481
O O16 0.826062 0.435289 0.750000
O O17 0.746198 0.619669 0.691569
O O18 0.774594 0.352934 0.659023
O O19 0.378313 0.346460 0.250000
#
# Coordination Sequence:
#
# PCOD9434338 Si02
#       8
#     8   8   8   8   8   8   8   8
#     4  11  20  38  54  74 100 131 176 218 271 326
#     4   9  18  30  49  77 116 152 181 204 239 304
#     4  10  20  32  48  74 107 140 168 203 255 321
#     4  11  24  40  58  75  97 133 182 240 287 319
#     4  10  18  31  49  77 112 148 177 207 247 306
#     4  10  18  29  47  74 106 141 173 209 251 306
#     4  10  19  31  48  73 108 140 168 204 255 319
#     4  11  21  33  52  74 105 137 181 222 269 317
#
# _framework density 16.967307000000002
#
# number of rings (size 3 to 8) (size 9 to 14) (size 15 to 20)
#    0.000    1.750    2.500    3.375    0.000    4.000 
#    0.000    0.000    0.000    0.000    0.000    3.500 
#    0.000    0.000    0.000    0.000    0.000    0.000 
#
# Total GULP energy -356846.413600 kJ/mol
# GULP energy per Si atom -5575.725213 kJ/mol
# Density = 1.692869 g / cm^3
# Si number density = 16.967307 Si / 1000 Ang^3
#
#
#
# Elastic Constant Matrix: (Units=GPa)
#
#
# Indices 1 2 3 4 5 6 
#
# 1 85.9650 20.6540 41.8457 0.0000 0.0000 0.0000
# 2 20.6540 40.7905 28.1904 0.0000 0.0000 0.0000
# 3 41.8457 28.1904 105.7325 0.0000 0.0000 0.0000
# 4 0.0000 0.0000 0.0000 11.5763 0.0000 0.0000
# 5 0.0000 0.0000 0.0000 0.0000 14.3895 0.0000
# 6 0.0000 0.0000 0.0000 0.0000 0.0000 33.4624
#
#
#
# Elastic Compliance Matrix: (Units=1/GPa)
#
#
# Indices 1 2 3 4 5 6 
#
# 1 0.014994 -0.004280 -0.004793 0.000000 0.000000 0.000000
# 2 -0.004280 0.031275 -0.006645 0.000000 0.000000 0.000000
# 3 -0.004793 -0.006645 0.013126 0.000000 0.000000 0.000000
# 4 0.000000 0.000000 0.000000 0.086384 0.000000 0.000000
# 5 0.000000 0.000000 0.000000 0.000000 0.069495 0.000000
# 6 0.000000 0.000000 0.000000 0.000000 0.000000 0.029884
#
#
# Mechanical properties :
#
#
# Convention : Reuss Voigt Hill
#
# Bulk Modulus (GPa) = 35.76513 45.98537 40.87525
# Shear Modulus (GPa) = 17.48781 21.33882 19.41332
#
# Velocity S-wave (km/s) = 3.21390 3.55017 3.38621
# Velocity P-wave (km/s) = 5.90735 6.63070 6.27945
#
# Compressibility (1/GPa) = 0.02796020
#
# Stress axis : x y z
#
# Youngs Moduli (GPa) = 66.69309 31.97476 76.18213
#
# Poissons Ratio (x) = 0.13684 0.36515
# Poissons Ratio (y) = 0.28542 0.50621
# Poissons Ratio (z) = 0.31967 0.21246
#
# Static dielectric constant tensor:
#      x y z
#    x 1.605160 0.000000 0.000000 
#    y 0.000000 1.615940 0.000000 
#    z 0.000000 0.000000 1.537320 
# 
# From -- ./inp_files/27452.got.cif
#   From: 2010.05.17/outbox.cif.g08.bks.cpg/sg57_14_cif.got.tgz:27452.got - 2010.06.03 13:58:18.
