data_PCOD9434780
_publ_section_title
;
Structure prediction by ZEFSAII (Michael W. Deem and Ramdas Pophale) SiO2 
 PCOD9434780
Probable space group: P B C M
;
_chemical_formula_sum "Si O2"
_cell_formula_units_Z 64
_cell_length_a 12.504678
_cell_length_b 15.633034
_cell_length_c 14.375308
_cell_angle_alpha 90.000000
_cell_angle_beta 90.000000
_cell_angle_gamma 90.000000
_cell_volume 2810.172269
_symmetry_space_group_name_H-M "P B C M"
_symmetry_group_IT_number 57
_symmetry_cell_setting 'orthorhombic'
loop_
_space_group_symop_operation_xyz
x,y,z
-x,-y,1/2+z
x,1/2-y,-z
-x,1/2+y,1/2-z
-x,-y,-z
x,y,1/2-z
-x,1/2+y,z
x,1/2-y,1/2+z
loop_
_atom_site_type_symbol
_atom_site_label
_atom_site_fract_x
_atom_site_fract_y
_atom_site_fract_z
Si Si1 0.237856 0.306138 0.137424
Si Si2 0.459318 0.353996 0.145852
Si Si3 0.396583 0.798590 0.861574
Si Si4 0.987599 0.549697 0.363794
Si Si5 0.755079 0.888460 0.862181
Si Si6 0.848476 0.303359 0.864103
Si Si7 0.001305 0.352558 0.136008
Si Si8 0.464433 0.467999 0.599269
O O1 0.226978 0.315519 0.250000
O O2 0.339845 0.360395 0.104215
O O3 0.267502 0.209374 0.113829
O O4 0.119174 0.324880 0.103172
O O5 0.440089 0.319030 0.250000
O O6 0.539393 0.284919 0.101622
O O7 0.509591 0.446619 0.155385
O O8 0.384908 0.787530 0.750000
O O9 0.274547 0.805962 0.896619
O O10 0.467278 0.883823 0.875630
O O11 0.990798 0.549711 0.250000
O O12 0.873525 0.587386 0.392649
O O13 0.082931 0.613189 0.393232
O O14 0.989740 0.450988 0.393277
O O15 0.753844 0.893743 0.750000
O O16 0.659844 0.946983 0.896279
O O17 0.848388 0.304163 0.750000
O O18 0.911882 0.216789 0.892225
O O19 0.998843 0.351636 0.250000
O O20 0.500000 0.500000 0.500000
#
# Coordination Sequence:
#
# PCOD9434780 Si02
#       8
#     8   8   8   8   8   8   8   8
#     4   9  16  30  53  81 113 142 180 232 281 329
#     4  10  21  37  61  88 109 144 192 238 285 337
#     4  10  21  38  59  85 117 148 187 240 288 336
#     4   9  17  27  48  81 116 146 174 221 283 336
#     4  10  18  35  58  80 110 148 191 237 277 329
#     4   9  17  29  47  79 117 143 170 222 287 338
#     4   9  16  26  44  79 115 140 170 218 282 339
#     4  12  26  40  56  81 115 155 193 237 289 341
#
# _framework density 22.774405999999999
#
# number of rings (size 3 to 8) (size 9 to 14) (size 15 to 20)
#    0.000    2.250    2.500    1.125    3.500    0.500 
#    0.000    0.000    0.000    0.750    0.000    0.000 
#    0.000    0.000    0.000    0.000    0.000    0.000 
#
# Total GULP energy -357512.867021 kJ/mol
# GULP energy per Si atom -5586.138547 kJ/mol
# Density = 2.272257 g / cm^3
# Si number density = 22.774406 Si / 1000 Ang^3
#
#
#
# Elastic Constant Matrix: (Units=GPa)
#
#
# Indices 1 2 3 4 5 6 
#
# 1 139.9739 37.4117 1.7565 0.0000 0.0000 0.0000
# 2 37.4117 117.0643 2.0407 0.0000 0.0000 0.0000
# 3 1.7565 2.0407 48.5576 0.0000 0.0000 0.0000
# 4 0.0000 0.0000 0.0000 19.2669 0.0000 0.0000
# 5 0.0000 0.0000 0.0000 0.0000 -9.5890 0.0000
# 6 0.0000 0.0000 0.0000 0.0000 0.0000 47.7793
#
#
#
# Elastic Compliance Matrix: (Units=1/GPa)
#
#
# Indices 1 2 3 4 5 6 
#
# 1 0.007813 -0.002494 -0.000178 0.000000 0.000000 0.000000
# 2 -0.002494 0.009345 -0.000303 0.000000 0.000000 0.000000
# 3 -0.000178 -0.000303 0.020613 0.000000 0.000000 0.000000
# 4 0.000000 0.000000 0.000000 0.051903 0.000000 0.000000
# 5 0.000000 0.000000 0.000000 0.000000 -0.104286 0.000000
# 6 0.000000 0.000000 0.000000 0.000000 0.000000 0.020930
#
#
# Mechanical properties :
#
#
# Convention : Reuss Voigt Hill
#
# Bulk Modulus (GPa) = 31.42427 43.11263 37.26845
# Shear Modulus (GPa) = 218.60259 29.11721 123.85990
#
# Velocity S-wave (km/s) = 9.80788 3.57950 7.38266
# Velocity P-wave (km/s) = 11.92004 6.00459 9.43775
#
# Compressibility (1/GPa) = 0.03182254
#
# Stress axis : x y z
#
# Youngs Moduli (GPa) = 127.99260 107.01415 48.51247
#
# Poissons Ratio (x) = 0.26687 0.00863
# Poissons Ratio (y) = 0.31919 0.01468
# Poissons Ratio (z) = 0.02276 0.03237
#
# Static dielectric constant tensor:
#      x y z
#    x 1.825890 0.000000 0.000000 
#    y 0.000000 1.736960 0.000000 
#    z 0.000000 0.000000 0.916880 
# 
# From -- ./inp_files/22018.got.cif
#   From: 2010.05.17/outbox.cif.g08.bks.cpg/sg57_12_cif.got.tgz:22018.got - 2010.06.03 13:58:18.
