data_PCOD9434541
_publ_section_title
;
Structure prediction by ZEFSAII (Michael W. Deem and Ramdas Pophale) SiO2 
 PCOD9434541
Probable space group: P B C M
;
_chemical_formula_sum "Si O2"
_cell_formula_units_Z 56
_cell_length_a 12.540357
_cell_length_b 14.313922
_cell_length_c 14.802344
_cell_angle_alpha 90.000000
_cell_angle_beta 90.000000
_cell_angle_gamma 90.000000
_cell_volume 2657.045793
_symmetry_space_group_name_H-M "P B C M"
_symmetry_group_IT_number 57
_symmetry_cell_setting 'orthorhombic'
loop_
_space_group_symop_operation_xyz
x,y,z
-x,-y,1/2+z
x,1/2-y,-z
-x,1/2+y,1/2-z
-x,-y,-z
x,y,1/2-z
-x,1/2+y,z
x,1/2-y,1/2+z
loop_
_atom_site_type_symbol
_atom_site_label
_atom_site_fract_x
_atom_site_fract_y
_atom_site_fract_z
Si Si1 0.491543 0.821706 0.354420
Si Si2 0.393162 0.135076 0.141923
Si Si3 0.906976 0.596018 0.599298
Si Si4 0.833999 0.709569 0.148151
Si Si5 0.677912 0.526489 0.650058
Si Si6 0.112267 0.488867 0.898838
Si Si7 0.342949 0.548148 0.546249
O O1 0.456853 0.833087 0.250000
O O2 0.519741 0.714340 0.370312
O O3 0.599103 0.884735 0.362764
O O4 0.404091 0.861296 0.421264
O O5 0.382740 0.115074 0.250000
O O6 0.281829 0.182145 0.109342
O O7 0.408104 0.040951 0.086283
O O8 0.895581 0.707873 0.598360
O O9 0.800441 0.560295 0.648288
O O10 0.901668 0.550061 0.500596
O O11 0.020055 0.558107 0.633885
O O12 0.816007 0.744472 0.250000
O O13 0.890177 0.609286 0.153008
O O14 0.653200 0.486231 0.750000
O O15 0.666454 0.462723 0.561315
O O16 0.228180 0.537111 0.904107
#
# Coordination Sequence:
#
# PCOD9434541 Si02
#       7
#     8   8   8   8   8   8   8
#     4  10  19  34  56  82 114 149 189 239 293 347
#     4   9  18  33  55  86 115 145 190 237 284 343
#     4  10  18  35  57  79 113 150 185 237 285 325
#     4  10  18  31  53  81 111 144 183 229 277 334
#     4  10  20  34  55  83 113 151 196 239 286 342
#     4   9  21  34  54  86 112 144 193 233 278 342
#     4  10  20  35  58  85 117 151 191 242 294 343
#
# _framework density 21.076039000000002
#
# number of rings (size 3 to 8) (size 9 to 14) (size 15 to 20)
#    0.000    2.286    1.429    1.714    0.000    2.286 
#    0.000    0.000    3.143    0.857    3.714    0.000 
#    0.000    0.000    0.000    0.000    0.000    0.000 
#
# Total GULP energy -312657.233357 kJ/mol
# GULP energy per Si atom -5583.164881 kJ/mol
# Density = 2.102807 g / cm^3
# Si number density = 21.076039 Si / 1000 Ang^3
#
#
#
# Elastic Constant Matrix: (Units=GPa)
#
#
# Indices 1 2 3 4 5 6 
#
# 1 82.6413 33.2896 26.4052 0.0000 0.0000 0.0000
# 2 33.2896 64.8408 31.6948 0.0000 0.0000 0.0000
# 3 26.4052 31.6948 81.7147 0.0000 0.0000 0.0000
# 4 0.0000 0.0000 0.0000 20.3363 0.0000 0.0000
# 5 0.0000 0.0000 0.0000 0.0000 -25.4167 0.0000
# 6 0.0000 0.0000 0.0000 0.0000 0.0000 32.7722
#
#
#
# Elastic Compliance Matrix: (Units=1/GPa)
#
#
# Indices 1 2 3 4 5 6 
#
# 1 0.015625 -0.006853 -0.002391 0.000000 0.000000 0.000000
# 2 -0.006853 0.022036 -0.006333 0.000000 0.000000 0.000000
# 3 -0.002391 -0.006333 0.015467 0.000000 0.000000 0.000000
# 4 0.000000 0.000000 0.000000 0.049173 0.000000 0.000000
# 5 0.000000 0.000000 0.000000 0.000000 -0.039344 0.000000
# 6 0.000000 0.000000 0.000000 0.000000 0.000000 0.030514
#
#
# Mechanical properties :
#
#
# Convention : Reuss Voigt Hill
#
# Bulk Modulus (GPa) = 45.50784 45.77512 45.64148
# Shear Modulus (GPa) = 37.89340 14.72552 26.30946
#
# Velocity S-wave (km/s) = 4.24481 2.64613 3.53698
# Velocity P-wave (km/s) = 6.75749 5.57694 6.19540
#
# Compressibility (1/GPa) = 0.02197424
#
# Stress axis : x y z
#
# Youngs Moduli (GPa) = 63.99974 45.37940 64.65562
#
# Poissons Ratio (x) = 0.31100 0.15458
# Poissons Ratio (y) = 0.43861 0.40945
# Poissons Ratio (z) = 0.15301 0.28738
#
# Static dielectric constant tensor:
#      x y z
#    x 1.795160 0.000000 0.000000 
#    y 0.000000 1.743170 0.000000 
#    z 0.000000 0.000000 1.830250 
# 
# From -- ./inp_files/17745.got.cif
#   From: 2010.05.17/outbox.cif.g08.bks.cpg/sg57_9_cif.got.tgz:17745.got - 2010.06.03 13:58:18.
