data_PCOD9434100
_publ_section_title
;
Structure prediction by ZEFSAII (Michael W. Deem and Ramdas Pophale) SiO2 
 PCOD9434100
Probable space group: P B C M
;
_chemical_formula_sum "Si O2"
_cell_formula_units_Z 64
_cell_length_a 9.659822
_cell_length_b 18.596246
_cell_length_c 15.388922
_cell_angle_alpha 90.000000
_cell_angle_beta 90.000000
_cell_angle_gamma 90.000000
_cell_volume 2764.410952
_symmetry_space_group_name_H-M "P B C M"
_symmetry_group_IT_number 57
_symmetry_cell_setting 'orthorhombic'
loop_
_space_group_symop_operation_xyz
x,y,z
-x,-y,1/2+z
x,1/2-y,-z
-x,1/2+y,1/2-z
-x,-y,-z
x,y,1/2-z
-x,1/2+y,z
x,1/2-y,1/2+z
loop_
_atom_site_type_symbol
_atom_site_label
_atom_site_fract_x
_atom_site_fract_y
_atom_site_fract_z
Si Si1 0.277948 0.911881 0.596392
Si Si2 0.624565 0.807642 0.149256
Si Si3 0.850000 0.050332 0.847147
Si Si4 0.929480 0.837535 0.355880
Si Si5 0.146308 0.781731 0.647657
Si Si6 0.335148 0.663750 0.586540
Si Si7 0.426265 0.362872 0.846792
Si Si8 0.339872 0.469663 0.986583
O O1 0.147655 0.867294 0.632492
O O2 0.296972 0.874310 0.502623
O O3 0.413123 0.888466 0.650615
O O4 0.275799 0.997057 0.576246
O O5 0.617075 0.830463 0.250000
O O6 0.773149 0.829988 0.113374
O O7 0.497099 0.841213 0.099409
O O8 0.599006 0.722168 0.148464
O O9 0.873282 0.021043 0.750000
O O10 0.744392 0.117715 0.841554
O O11 0.769947 0.000690 0.914692
O O12 0.987698 0.090708 0.881894
O O13 0.927418 0.837975 0.250000
O O14 0.015627 0.765979 0.381527
O O15 0.163946 0.770911 0.750000
O O16 0.276052 0.743524 0.599777
O O17 0.372877 0.385874 0.750000
O O18 0.364999 0.395486 0.935526
O O19 0.500000 0.500000 0.000000
#
# Coordination Sequence:
#
# PCOD9434100 Si02
#       8
#     8   8   8   8   8   8   8   8
#     4  10  19  30  49  72 105 134 168 219 269 314
#     4  10  18  30  50  79 108 134 170 217 267 318
#     4   9  16  30  52  76 101 135 179 219 260 319
#     4   8  17  30  48  77 106 131 170 221 267 314
#     4  10  17  29  49  73 100 134 174 212 264 325
#     4  10  18  28  49  75 106 134 164 214 275 323
#     4  10  19  31  51  75 100 134 178 217 257 318
#     4   9  19  32  47  75 103 139 174 221 264 306
#
# _framework density 23.151405
#
# number of rings (size 3 to 8) (size 9 to 14) (size 15 to 20)
#    0.000    2.500    1.250    3.000    0.000    0.000 
#    0.000    0.000   16.500    0.750   13.000    0.000 
#    0.000    0.000    0.000    0.000    0.000    0.000 
#
# Total GULP energy -356326.216929 kJ/mol
# GULP energy per Si atom -5567.597140 kJ/mol
# Density = 2.309871 g / cm^3
# Si number density = 23.151405 Si / 1000 Ang^3
#
#
#
# Elastic Constant Matrix: (Units=GPa)
#
#
# Indices 1 2 3 4 5 6 
#
# 1 108.9861 6.7147 19.0852 0.0000 0.0000 0.0000
# 2 6.7147 21.8164 13.5431 0.0000 0.0000 0.0000
# 3 19.0852 13.5431 81.6427 0.0000 0.0000 0.0000
# 4 0.0000 0.0000 0.0000 30.9937 0.0000 0.0000
# 5 0.0000 0.0000 0.0000 0.0000 10.3279 0.0000
# 6 0.0000 0.0000 0.0000 0.0000 0.0000 15.1894
#
#
#
# Elastic Compliance Matrix: (Units=1/GPa)
#
#
# Indices 1 2 3 4 5 6 
#
# 1 0.009626 -0.001746 -0.001961 0.000000 0.000000 0.000000
# 2 -0.001746 0.051416 -0.008121 0.000000 0.000000 0.000000
# 3 -0.001961 -0.008121 0.014054 0.000000 0.000000 0.000000
# 4 0.000000 0.000000 0.000000 0.032265 0.000000 0.000000
# 5 0.000000 0.000000 0.000000 0.000000 0.096825 0.000000
# 6 0.000000 0.000000 0.000000 0.000000 0.000000 0.065835
#
#
# Mechanical properties :
#
#
# Convention : Reuss Voigt Hill
#
# Bulk Modulus (GPa) = 19.43957 32.34790 25.89374
# Shear Modulus (GPa) = 16.08633 22.84235 19.46434
#
# Velocity S-wave (km/s) = 2.63883 3.14451 2.90270
# Velocity P-wave (km/s) = 4.20707 5.21407 4.73741
#
# Compressibility (1/GPa) = 0.05144146
#
# Stress axis : x y z
#
# Youngs Moduli (GPa) = 103.88117 19.44932 71.15432
#
# Poissons Ratio (x) = 0.03395 0.13951
# Poissons Ratio (y) = 0.18134 0.57784
# Poissons Ratio (z) = 0.20368 0.15795
#
# Static dielectric constant tensor:
#      x y z
#    x 1.893770 0.000000 0.000000 
#    y 0.000000 2.018010 0.000000 
#    z 0.000000 0.000000 1.900280 
# 
# From -- ./inp_files/21428.got.cif
#   From: 2010.05.17/outbox.cif.g08.bks.cpg/sg57_11_cif.got.tgz:21428.got - 2010.06.03 13:58:18.
