data_PCOD9434316
_publ_section_title
;
Structure prediction by ZEFSAII (Michael W. Deem and Ramdas Pophale) SiO2 
 PCOD9434316
Probable space group: P B C M
;
_chemical_formula_sum "Si O2"
_cell_formula_units_Z 56
_cell_length_a 20.918593
_cell_length_b 18.901810
_cell_length_c 8.652119
_cell_angle_alpha 90.000000
_cell_angle_beta 90.000000
_cell_angle_gamma 90.000000
_cell_volume 3421.041540
_symmetry_space_group_name_H-M "P B C M"
_symmetry_group_IT_number 57
_symmetry_cell_setting 'orthorhombic'
loop_
_space_group_symop_operation_xyz
x,y,z
-x,-y,1/2+z
x,1/2-y,-z
-x,1/2+y,1/2-z
-x,-y,-z
x,y,1/2-z
-x,1/2+y,z
x,1/2-y,1/2+z
loop_
_atom_site_type_symbol
_atom_site_label
_atom_site_fract_x
_atom_site_fract_y
_atom_site_fract_z
Si Si1 0.439405 0.542779 0.435678
Si Si2 0.022790 0.673066 0.564264
Si Si3 0.068607 0.525283 0.564065
Si Si4 0.246827 0.326235 0.566154
Si Si5 0.638846 0.585183 0.564041
Si Si6 0.116792 0.113593 0.935478
Si Si7 0.483085 0.171522 0.063944
O O1 0.500000 0.500000 0.500000
O O2 0.441160 0.540133 0.250000
O O3 0.378540 0.495771 0.482677
O O4 0.455210 0.623286 0.479774
O O5 0.038482 0.750000 0.500000
O O6 0.022291 0.676382 0.750000
O O7 0.950641 0.649754 0.516030
O O8 0.070085 0.608313 0.520440
O O9 0.069452 0.520298 0.750000
O O10 0.116484 0.467699 0.493928
O O11 0.000000 0.500000 0.500000
O O12 0.266709 0.250000 0.500000
O O13 0.246389 0.323271 0.750000
O O14 0.296855 0.384567 0.508033
O O15 0.176598 0.345113 0.504122
O O16 0.642405 0.589543 0.750000
O O17 0.579779 0.633524 0.505616
O O18 0.119229 0.114366 0.750000
O O19 0.477079 0.172407 0.250000
O O20 0.488162 0.250000 0.000000
#
# Coordination Sequence:
#
# PCOD9434316 Si02
#       7
#     8   8   8   8   8   8   8
#     4   8  16  29  46  65  88 117 151 188 228 271
#     4   9  18  29  45  69  96 122 152 188 230 274
#     4   9  17  30  46  67  93 123 157 195 235 280
#     4  12  24  36  49  68  94 126 159 193 228 270
#     4  10  19  33  49  66  90 123 158 193 229 271
#     4  10  20  34  49  68  93 125 161 196 233 278
#     4  10  18  29  45  69  96 122 151 187 230 276
#
# _framework density 16.369285000000001
#
# number of rings (size 3 to 8) (size 9 to 14) (size 15 to 20)
#    0.000    2.286    0.000    4.714    0.000    5.714 
#    0.000    0.000    0.000    0.000    0.000    1.000 
#    0.000    4.571    0.000    0.000    0.000    0.000 
#
# Total GULP energy -312016.119076 kJ/mol
# GULP energy per Si atom -5571.716412 kJ/mol
# Density = 1.633203 g / cm^3
# Si number density = 16.369285 Si / 1000 Ang^3
#
#
#
# Elastic Constant Matrix: (Units=GPa)
#
#
# Indices 1 2 3 4 5 6 
#
# 1 16.5535 -6.8572 5.3085 0.0000 0.0000 0.0000
# 2 -6.8572 72.9055 12.2986 0.0000 0.0000 0.0000
# 3 5.3085 12.2986 54.3931 0.0000 0.0000 0.0000
# 4 0.0000 0.0000 0.0000 24.2432 0.0000 0.0000
# 5 0.0000 0.0000 0.0000 0.0000 21.7145 0.0000
# 6 0.0000 0.0000 0.0000 0.0000 0.0000 27.6320
#
#
#
# Elastic Compliance Matrix: (Units=1/GPa)
#
#
# Indices 1 2 3 4 5 6 
#
# 1 0.066183 0.007605 -0.008179 0.000000 0.000000 0.000000
# 2 0.007605 0.015134 -0.004164 0.000000 0.000000 0.000000
# 3 -0.008179 -0.004164 0.020124 0.000000 0.000000 0.000000
# 4 0.000000 0.000000 0.000000 0.041249 0.000000 0.000000
# 5 0.000000 0.000000 0.000000 0.000000 0.046052 0.000000
# 6 0.000000 0.000000 0.000000 0.000000 0.000000 0.036190
#
#
# Mechanical properties :
#
#
# Convention : Reuss Voigt Hill
#
# Bulk Modulus (GPa) = 10.87362 18.37245 14.62304
# Shear Modulus (GPa) = 18.86336 23.59142 21.22739
#
# Velocity S-wave (km/s) = 3.39833 3.80043 3.60499
# Velocity P-wave (km/s) = 4.69631 5.52321 5.12646
#
# Compressibility (1/GPa) = 0.09196566
#
# Stress axis : x y z
#
# Youngs Moduli (GPa) = 15.10953 66.07596 49.69092
#
# Poissons Ratio (x) = -0.50248 0.40641
# Poissons Ratio (y) = -0.11490 0.20692
# Poissons Ratio (z) = 0.12358 0.27515
#
# Static dielectric constant tensor:
#      x y z
#    x 1.436840 0.000000 0.000000 
#    y 0.000000 1.592110 0.000000 
#    z 0.000000 0.000000 1.525970 
# 
# From -- ./inp_files/8298.got.cif
#   From: 2010.05.17/outbox.cif.g08.bks.cpg/sg57_5_cif.got.tgz:8298.got - 2010.06.03 13:58:18.
