data_PCOD9434348
_publ_section_title
;
Structure prediction by ZEFSAII (Michael W. Deem and Ramdas Pophale) SiO2 
 PCOD9434348
Probable space group: P B C M
;
_chemical_formula_sum "Si O2"
_cell_formula_units_Z 64
_cell_length_a 5.239256
_cell_length_b 31.268711
_cell_length_c 21.738196
_cell_angle_alpha 90.000000
_cell_angle_beta 90.000000
_cell_angle_gamma 90.000000
_cell_volume 3561.255215
_symmetry_space_group_name_H-M "P B C M"
_symmetry_group_IT_number 57
_symmetry_cell_setting 'orthorhombic'
loop_
_space_group_symop_operation_xyz
x,y,z
-x,-y,1/2+z
x,1/2-y,-z
-x,1/2+y,1/2-z
-x,-y,-z
x,y,1/2-z
-x,1/2+y,z
x,1/2-y,1/2+z
loop_
_atom_site_type_symbol
_atom_site_label
_atom_site_fract_x
_atom_site_fract_y
_atom_site_fract_z
Si Si1 0.542109 0.887492 0.177038
Si Si2 0.739411 0.455083 0.680315
Si Si3 0.797486 0.258309 0.677820
Si Si4 0.576826 0.971983 0.097477
Si Si5 0.313210 0.313176 0.822463
Si Si6 0.802013 0.531982 0.468461
Si Si7 0.776381 0.907616 0.862789
Si Si8 0.969500 0.333533 0.323257
O O1 0.582941 0.895015 0.250000
O O2 0.540803 0.931993 0.141308
O O3 0.268791 0.865142 0.169580
O O4 0.770478 0.856120 0.154568
O O5 0.707755 0.471139 0.750000
O O6 0.764214 0.494619 0.632516
O O7 0.487341 0.428854 0.660747
O O8 0.985245 0.424556 0.676968
O O9 0.732596 0.250363 0.750000
O O10 0.550576 0.284266 0.654296
O O11 0.877948 0.212246 0.650879
O O12 0.050621 0.286892 0.674952
O O13 0.338241 0.002087 0.081452
O O14 0.644055 0.955680 0.029214
O O15 0.363253 0.323677 0.750000
O O16 0.269360 0.357331 0.857813
O O17 0.854053 0.574791 0.430434
O O18 0.000000 0.500000 0.500000
O O19 0.014579 0.326542 0.250000
#
# Coordination Sequence:
#
# PCOD9434348 Si02
#       8
#     8   8   8   8   8   8   8   8
#     4  10  20  33  53  83 113 138 176 224 271 327
#     4  11  21  34  52  76 110 142 171 215 278 329
#     4   9  17  30  49  73 107 143 170 203 259 329
#     4  10  22  36  55  78 103 143 186 227 269 313
#     4  10  18  29  48  76 105 135 173 213 259 320
#     4  10  21  40  56  73 104 146 192 231 262 313
#     4  11  22  35  53  77 107 143 182 226 265 310
#     4   9  18  32  50  77 111 143 170 208 266 330
#
# _framework density 17.971193
#
# number of rings (size 3 to 8) (size 9 to 14) (size 15 to 20)
#    0.000    2.000    1.250    3.000    1.750    4.000 
#    0.000    2.500    0.000    0.000    0.000    5.250 
#    0.000    0.000    0.000    0.000    0.000    0.000 
#
# Total GULP energy -356354.551396 kJ/mol
# GULP energy per Si atom -5568.039866 kJ/mol
# Density = 1.793029 g / cm^3
# Si number density = 17.971193 Si / 1000 Ang^3
#
#
#
# Elastic Constant Matrix: (Units=GPa)
#
#
# Indices 1 2 3 4 5 6 
#
# 1 -694.1203 -948.0375 848.3247 0.0000 0.0000 0.0000
# 2 -948.0375-1128.7581 1094.5131 0.0000 0.0000 0.0000
# 3 848.3247 1094.5131 -915.6827 0.0000 0.0000 0.0000
# 4 0.0000 0.0000 0.0000 15.7330 0.0000 0.0000
# 5 0.0000 0.0000 0.0000 0.0000 -16.1407 0.0000
# 6 0.0000 0.0000 0.0000 0.0000 0.0000 -110.9408
#
#
#
# Elastic Compliance Matrix: (Units=1/GPa)
#
#
# Indices 1 2 3 4 5 6 
#
# 1 0.014801 -0.005439 0.007211 0.000000 0.000000 0.000000
# 2 -0.005439 0.007569 0.004009 0.000000 0.000000 0.000000
# 3 0.007211 0.004009 0.010380 0.000000 0.000000 0.000000
# 4 0.000000 0.000000 0.000000 0.063561 0.000000 0.000000
# 5 0.000000 0.000000 0.000000 0.000000 -0.061955 0.000000
# 6 0.000000 0.000000 0.000000 0.000000 0.000000 -0.009014
#
#
# Mechanical properties :
#
#
# Convention : Reuss Voigt Hill
#
# Bulk Modulus (GPa) = 22.56652 -83.21783 -30.32565
# Shear Modulus (GPa) = 175.12539 -271.16047 -48.01754
#
# Velocity S-wave (km/s) = 9.88228 -12.29690 -5.17467
# Velocity P-wave (km/s) = 11.94976 15.74881 7.25356
#
# Compressibility (1/GPa) = 0.04431343
#
# Stress axis : x y z
#
# Youngs Moduli (GPa) = 67.56261 132.11372 96.33479
#
# Poissons Ratio (x) = 0.71854 -0.69470
# Poissons Ratio (y) = 0.36746 -0.38618
# Poissons Ratio (z) = -0.48722 -0.52961
#
# Static dielectric constant tensor:
#      x y z
#    x 1.673110 0.000000 0.000000 
#    y 0.000000 1.649110 0.000000 
#    z 0.000000 0.000000 1.632340 
# 
# From -- ./inp_files/23854.got.cif
#   From: 2010.05.17/outbox.cif.g08.bks.cpg/sg57_12_cif.got.tgz:23854.got - 2010.06.03 13:58:18.
