data_PCOD9434272
_publ_section_title
;
Structure prediction by ZEFSAII (Michael W. Deem and Ramdas Pophale) SiO2 
 PCOD9434272
Probable space group: P B C M
;
_chemical_formula_sum "Si O2"
_cell_formula_units_Z 44
_cell_length_a 9.584115
_cell_length_b 8.274024
_cell_length_c 25.584872
_cell_angle_alpha 90.000000
_cell_angle_beta 90.000000
_cell_angle_gamma 90.000000
_cell_volume 2028.859818
_symmetry_space_group_name_H-M "P B C M"
_symmetry_group_IT_number 57
_symmetry_cell_setting 'orthorhombic'
loop_
_space_group_symop_operation_xyz
x,y,z
-x,-y,1/2+z
x,1/2-y,-z
-x,1/2+y,1/2-z
-x,-y,-z
x,y,1/2-z
-x,1/2+y,z
x,1/2-y,1/2+z
loop_
_atom_site_type_symbol
_atom_site_label
_atom_site_fract_x
_atom_site_fract_y
_atom_site_fract_z
Si Si1 0.616396 0.566821 0.360364
Si Si2 0.324755 0.181927 0.250000
Si Si3 0.573759 0.642957 0.925956
Si Si4 0.806446 0.234346 0.657494
Si Si5 0.286674 0.837020 0.548820
Si Si6 0.259915 0.553477 0.250000
Si Si7 0.943727 0.060729 0.750000
O O1 0.599564 0.629504 0.302335
O O2 0.478965 0.480970 0.381808
O O3 0.656212 0.712601 0.398825
O O4 0.732123 0.430422 0.358908
O O5 0.320407 0.374977 0.250000
O O6 0.178268 0.077869 0.250000
O O7 0.661810 0.521711 0.962194
O O8 0.430283 0.728773 0.944969
O O9 0.806129 0.328829 0.602036
O O10 0.716591 0.339146 0.698606
O O11 0.927311 0.168312 0.696805
O O12 0.213555 0.750000 0.500000
O O13 0.094302 0.515463 0.250000
#
# Coordination Sequence:
#
# PCOD9434272 Si02
#       7
#     8   4   8   8   8   4   4
#     4   9  18  31  45  66 101 133 167 210 242 287
#     4  10  18  28  45  69  93 122 159 201 257 303
#     4   9  18  31  46  69 101 144 182 204 234 280
#     4   9  19  33  50  77 102 123 163 210 255 303
#     4  10  18  31  51  75 107 142 177 213 244 283
#     4  11  19  33  56  74  92 122 159 209 264 316
#     4   9  19  35  53  73  95 122 158 206 259 317
#
# _framework density 21.687059000000001
#
# number of rings (size 3 to 8) (size 9 to 14) (size 15 to 20)
#    0.000    2.545    0.000    3.273    0.000    0.727 
#    0.000   10.909    0.000    1.091    0.000    0.000 
#    0.000    0.000    0.000    0.000    0.000    0.000 
#
# Total GULP energy -245058.074315 kJ/mol
# GULP energy per Si atom -5569.501689 kJ/mol
# Density = 2.163770 g / cm^3
# Si number density = 21.687059 Si / 1000 Ang^3
#
#
#
# Elastic Constant Matrix: (Units=GPa)
#
#
# Indices 1 2 3 4 5 6 
#
# 1 33.3722 -1.6863 -4.6470 0.0000 0.0000 0.0000
# 2 -1.6863 113.1330 6.1523 0.0000 0.0000 0.0000
# 3 -4.6470 6.1523 90.4205 0.0000 0.0000 0.0000
# 4 0.0000 0.0000 0.0000 34.7038 0.0000 0.0000
# 5 0.0000 0.0000 0.0000 0.0000 5.9635 0.0000
# 6 0.0000 0.0000 0.0000 0.0000 0.0000 21.3682
#
#
#
# Elastic Compliance Matrix: (Units=1/GPa)
#
#
# Indices 1 2 3 4 5 6 
#
# 1 0.030196 0.000367 0.001527 0.000000 0.000000 0.000000
# 2 0.000367 0.008876 -0.000585 0.000000 0.000000 0.000000
# 3 0.001527 -0.000585 0.011178 0.000000 0.000000 0.000000
# 4 0.000000 0.000000 0.000000 0.028815 0.000000 0.000000
# 5 0.000000 0.000000 0.000000 0.000000 0.167686 0.000000
# 6 0.000000 0.000000 0.000000 0.000000 0.000000 0.046799
#
#
# Mechanical properties :
#
#
# Convention : Reuss Voigt Hill
#
# Bulk Modulus (GPa) = 18.91500 26.28487 22.59993
# Shear Modulus (GPa) = 16.20456 28.21421 22.20938
#
# Velocity S-wave (km/s) = 2.73646 3.61081 3.20360
# Velocity P-wave (km/s) = 4.32724 5.43418 4.91199
#
# Compressibility (1/GPa) = 0.05286809
#
# Stress axis : x y z
#
# Youngs Moduli (GPa) = 33.11671 112.65776 89.46365
#
# Poissons Ratio (x) = -0.04135 -0.13660
# Poissons Ratio (y) = -0.01216 0.05234
# Poissons Ratio (z) = -0.05057 0.06592
#
# Static dielectric constant tensor:
#      x y z
#    x 1.805820 0.000000 0.000000 
#    y 0.000000 1.838820 0.000000 
#    z 0.000000 0.000000 1.900580 
# 
# From -- ./inp_files/27060.got.cif
#   From: 2010.05.17/outbox.cif.g08.bks.cpg/sg57_14_cif.got.tgz:27060.got - 2010.06.03 13:58:18.
