data_PCOD9434790
_publ_section_title
;
Structure prediction by ZEFSAII (Michael W. Deem and Ramdas Pophale) SiO2 
 PCOD9434790
Probable space group: P B C M
;
_chemical_formula_sum "Si O2"
_cell_formula_units_Z 56
_cell_length_a 9.534471
_cell_length_b 14.887183
_cell_length_c 19.810614
_cell_angle_alpha 90.000000
_cell_angle_beta 90.000000
_cell_angle_gamma 90.000000
_cell_volume 2811.946575
_symmetry_space_group_name_H-M "P B C M"
_symmetry_group_IT_number 57
_symmetry_cell_setting 'orthorhombic'
loop_
_space_group_symop_operation_xyz
x,y,z
-x,-y,1/2+z
x,1/2-y,-z
-x,1/2+y,1/2-z
-x,-y,-z
x,y,1/2-z
-x,1/2+y,z
x,1/2-y,1/2+z
loop_
_atom_site_type_symbol
_atom_site_label
_atom_site_fract_x
_atom_site_fract_y
_atom_site_fract_z
Si Si1 0.675689 0.652893 0.503855
Si Si2 0.592060 0.313317 0.402900
Si Si3 0.482572 0.877623 0.878457
Si Si4 0.102526 0.667197 0.542871
Si Si5 0.798873 0.025652 0.067412
Si Si6 0.018279 0.547586 0.668136
Si Si7 0.669564 0.014601 0.822684
O O1 0.748085 0.750000 0.500000
O O2 0.538159 0.674145 0.548019
O O3 0.608124 0.623640 0.433478
O O4 0.761910 0.571523 0.535608
O O5 0.558469 0.224037 0.360612
O O6 0.741893 0.298963 0.437038
O O7 0.608800 0.409607 0.370005
O O8 0.346346 0.925995 0.910492
O O9 0.559174 0.934742 0.821999
O O10 0.040612 0.750000 0.500000
O O11 0.124445 0.584671 0.490331
O O12 0.036802 0.631601 0.614411
O O13 0.894505 0.009649 0.133590
O O14 0.997256 0.565358 0.750000
O O15 0.167720 0.495733 0.660771
O O16 0.677563 0.059250 0.750000
#
# Coordination Sequence:
#
# PCOD9434790 Si02
#       7
#     8   8   8   8   8   8   8
#     4  10  19  33  58  95 130 151 191 267 333 367
#     4  10  18  35  60  94 126 151 198 267 326 371
#     4  11  20  34  66  96 121 153 205 270 327 371
#     4  11  20  38  68  96 124 163 220 265 319 394
#     4  12  21  37  65  99 122 164 219 269 311 384
#     4  10  25  44  59  84 133 177 213 265 327 384
#     4  10  22  40  60  83 124 175 209 248 318 391
#
# _framework density 19.915030000000002
#
# number of rings (size 3 to 8) (size 9 to 14) (size 15 to 20)
#    0.000    1.429    4.286    3.000    0.000    1.714 
#    0.000    2.143    0.000    3.429    0.000    0.000 
#    0.000    0.000    0.000    0.000    0.000    0.000 
#
# Total GULP energy -311873.208185 kJ/mol
# GULP energy per Si atom -5569.164432 kJ/mol
# Density = 1.986970 g / cm^3
# Si number density = 19.915030 Si / 1000 Ang^3
#
#
#
# Elastic Constant Matrix: (Units=GPa)
#
#
# Indices 1 2 3 4 5 6 
#
# 1 82.5209 30.9108 38.7096 0.0000 0.0000 0.0000
# 2 30.9108 85.7020 35.5540 0.0000 0.0000 0.0000
# 3 38.7096 35.5540 103.9487 0.0000 0.0000 0.0000
# 4 0.0000 0.0000 0.0000 -43.7664 0.0000 0.0000
# 5 0.0000 0.0000 0.0000 0.0000 59.3704 0.0000
# 6 0.0000 0.0000 0.0000 0.0000 0.0000 -15.1651
#
#
#
# Elastic Compliance Matrix: (Units=1/GPa)
#
#
# Indices 1 2 3 4 5 6 
#
# 1 0.015659 -0.003763 -0.004544 0.000000 0.000000 0.000000
# 2 -0.003763 0.014502 -0.003559 0.000000 0.000000 0.000000
# 3 -0.004544 -0.003559 0.012530 0.000000 0.000000 0.000000
# 4 0.000000 0.000000 0.000000 -0.022849 0.000000 0.000000
# 5 0.000000 0.000000 0.000000 0.000000 0.016843 0.000000
# 6 0.000000 0.000000 0.000000 0.000000 0.000000 -0.065941
#
#
# Mechanical properties :
#
#
# Convention : Reuss Voigt Hill
#
# Bulk Modulus (GPa) = 52.74593 53.61339 53.17966
# Shear Modulus (GPa) = 6277.07143 11.22091 3144.14617
#
# Velocity S-wave (km/s) = 56.20293 2.37626 39.77698
# Velocity P-wave (km/s) = 65.10173 5.87438 46.22090
#
# Compressibility (1/GPa) = 0.01895881
#
# Stress axis : x y z
#
# Youngs Moduli (GPa) = 63.85973 68.95637 79.81018
#
# Poissons Ratio (x) = 0.25946 0.36269
# Poissons Ratio (y) = 0.24028 0.28404
# Poissons Ratio (z) = 0.29021 0.24541
#
# Static dielectric constant tensor:
#      x y z
#    x 1.715730 0.000000 0.000000 
#    y 0.000000 1.717450 0.000000 
#    z 0.000000 0.000000 1.746250 
# 
# From -- ./inp_files/24426.got.cif
#   From: 2010.05.17/outbox.cif.g08.bks.cpg/sg57_13_cif.got.tgz:24426.got - 2010.06.03 13:58:18.
