data_PCOD9434119
_publ_section_title
;
Structure prediction by ZEFSAII (Michael W. Deem and Ramdas Pophale) SiO2 
 PCOD9434119
Probable space group: P B C M
;
_chemical_formula_sum "Si O2"
_cell_formula_units_Z 32
_cell_length_a 10.373748
_cell_length_b 9.130440
_cell_length_c 13.576379
_cell_angle_alpha 90.000000
_cell_angle_beta 90.000000
_cell_angle_gamma 90.000000
_cell_volume 1285.912311
_symmetry_space_group_name_H-M "P B C M"
_symmetry_group_IT_number 57
_symmetry_cell_setting 'orthorhombic'
loop_
_space_group_symop_operation_xyz
x,y,z
-x,-y,1/2+z
x,1/2-y,-z
-x,1/2+y,1/2-z
-x,-y,-z
x,y,1/2-z
-x,1/2+y,z
x,1/2-y,1/2+z
loop_
_atom_site_type_symbol
_atom_site_label
_atom_site_fract_x
_atom_site_fract_y
_atom_site_fract_z
Si Si1 0.821003 0.292503 0.250000
Si Si2 0.351512 0.924267 0.422601
Si Si3 0.800875 0.786646 0.605655
Si Si4 0.009404 0.058608 0.250000
Si Si5 0.367655 0.489773 0.360181
O O1 0.741991 0.339377 0.152949
O O2 0.953501 0.388997 0.250000
O O3 0.867965 0.125422 0.250000
O O4 0.498562 0.908496 0.389013
O O5 0.313784 0.095186 0.404186
O O6 0.341414 0.910185 0.541978
O O7 0.854898 0.750000 0.500000
O O8 0.913223 0.870379 0.660324
O O9 0.741229 0.636020 0.644308
O O10 0.388213 0.554391 0.250000
#
# Coordination Sequence:
#
# PCOD9434119 Si02
#       5
#     4   8   8   4   8
#     4  10  20  39  60  86 118 159 203 252 291 348
#     4   9  19  33  53  84 116 151 186 245 300 351
#     4   9  18  34  56  80 109 150 194 234 289 359
#     4  10  20  37  60  84 112 157 203 244 295 338
#     4  10  17  30  56  85 113 146 192 231 297 370
#
# _framework density 24.885055999999999
#
# number of rings (size 3 to 8) (size 9 to 14) (size 15 to 20)
#    0.000    2.500    2.500    0.000    0.000    0.000 
#    0.000   13.750    0.000    7.500    0.000    0.000 
#    0.000    0.000    0.000    0.000    0.000    0.000 
#
# Total GULP energy -178849.528080 kJ/mol
# GULP energy per Si atom -5589.047753 kJ/mol
# Density = 2.482842 g / cm^3
# Si number density = 24.885056 Si / 1000 Ang^3
#
#
#
# Elastic Constant Matrix: (Units=GPa)
#
#
# Indices 1 2 3 4 5 6 
#
# 1 59.9387 33.9793 24.9357 0.0000 0.0000 0.0000
# 2 33.9793 98.8172 48.1965 0.0000 0.0000 0.0000
# 3 24.9357 48.1965 199.6492 0.0000 0.0000 0.0000
# 4 0.0000 0.0000 0.0000 34.3368 0.0000 0.0000
# 5 0.0000 0.0000 0.0000 0.0000 -8.2333 0.0000
# 6 0.0000 0.0000 0.0000 0.0000 0.0000 34.2816
#
#
#
# Elastic Compliance Matrix: (Units=1/GPa)
#
#
# Indices 1 2 3 4 5 6 
#
# 1 0.020895 -0.006701 -0.000992 0.000000 0.000000 0.000000
# 2 -0.006701 0.013619 -0.002451 0.000000 0.000000 0.000000
# 3 -0.000992 -0.002451 0.005724 0.000000 0.000000 0.000000
# 4 0.000000 0.000000 0.000000 0.029123 0.000000 0.000000
# 5 0.000000 0.000000 0.000000 0.000000 -0.121458 0.000000
# 6 0.000000 0.000000 0.000000 0.000000 0.000000 0.029170
#
#
# Mechanical properties :
#
#
# Convention : Reuss Voigt Hill
#
# Bulk Modulus (GPa) = 50.12330 63.62536 56.87433
# Shear Modulus (GPa) = 1245.85364 28.82991 637.34178
#
# Velocity S-wave (km/s) = 22.39933 3.40740 16.02093
# Velocity P-wave (km/s) = 26.25184 6.41122 19.10841
#
# Compressibility (1/GPa) = 0.01995080
#
# Stress axis : x y z
#
# Youngs Moduli (GPa) = 47.85755 73.42502 174.69275
#
# Poissons Ratio (x) = 0.49204 0.17331
# Poissons Ratio (y) = 0.32070 0.42814
# Poissons Ratio (z) = 0.04748 0.17995
#
# Static dielectric constant tensor:
#      x y z
#    x 1.918490 0.000000 0.000000 
#    y 0.000000 1.983030 0.000000 
#    z 0.000000 0.000000 1.959510 
# 
# From -- ./inp_files/15556.got.cif
#   From: 2010.05.17/outbox.cif.g08.bks.cpg/sg57_8_cif.got.tgz:15556.got - 2010.06.03 13:58:18.
