data_PCOD9434937
_publ_section_title
;
Structure prediction by ZEFSAII (Michael W. Deem and Ramdas Pophale) SiO2 
 PCOD9434937
Probable space group: P B C M
;
_chemical_formula_sum "Si O2"
_cell_formula_units_Z 48
_cell_length_a 18.419003
_cell_length_b 13.849766
_cell_length_c 7.536949
_cell_angle_alpha 90.000000
_cell_angle_beta 90.000000
_cell_angle_gamma 90.000000
_cell_volume 1922.667260
_symmetry_space_group_name_H-M "P B C M"
_symmetry_group_IT_number 57
_symmetry_cell_setting 'orthorhombic'
loop_
_space_group_symop_operation_xyz
x,y,z
-x,-y,1/2+z
x,1/2-y,-z
-x,1/2+y,1/2-z
-x,-y,-z
x,y,1/2-z
-x,1/2+y,z
x,1/2-y,1/2+z
loop_
_atom_site_type_symbol
_atom_site_label
_atom_site_fract_x
_atom_site_fract_y
_atom_site_fract_z
Si Si1 0.519282 0.889342 0.962127
Si Si2 0.363720 0.646558 0.461481
Si Si3 0.832737 0.570454 0.031454
Si Si4 0.674956 0.573630 0.041060
Si Si5 0.987605 0.612666 0.460825
Si Si6 0.144868 0.854591 0.055269
O O1 0.521685 0.871529 0.750000
O O2 0.445899 0.843966 0.037914
O O3 0.601202 0.877923 0.033351
O O4 0.500000 0.000000 0.000000
O O5 0.327987 0.750000 0.500000
O O6 0.366922 0.635760 0.250000
O O7 0.331616 0.543903 0.524863
O O8 0.835533 0.569973 0.250000
O O9 0.753622 0.604987 0.971945
O O10 0.904862 0.629132 0.977597
O O11 0.839944 0.458261 0.965829
O O12 0.674861 0.594297 0.250000
O O13 0.993306 0.631104 0.250000
O O14 0.000000 0.500000 0.500000
O O15 0.057366 0.655802 0.555407
O O16 0.174688 0.868857 0.250000
O O17 0.171778 0.750000 0.000000
#
# Coordination Sequence:
#
# PCOD9434937 Si02
#       6
#     8   8   8   8   8   8
#     4   8  15  27  45  64  84 111 147 182 215 255
#     4  10  19  30  43  65  91 118 149 182 218 260
#     4   8  16  29  47  69  92 116 146 180 222 269
#     4   9  16  30  49  68  89 116 145 180 222 265
#     4   9  16  29  47  67  89 117 151 187 220 261
#     4  10  19  31  46  67  92 120 151 185 222 266
#
# _framework density 24.965319000000001
#
# number of rings (size 3 to 8) (size 9 to 14) (size 15 to 20)
#    0.000    3.000    0.000    2.500    0.000    1.333 
#    0.000    6.667    0.000    1.000    0.000    2.333 
#    0.000    0.000    0.000    0.000    0.000    0.000 
#
# Total GULP energy -267356.776680 kJ/mol
# GULP energy per Si atom -5569.932847 kJ/mol
# Density = 2.490850 g / cm^3
# Si number density = 24.965319 Si / 1000 Ang^3
#
#
#
# Elastic Constant Matrix: (Units=GPa)
#
#
# Indices 1 2 3 4 5 6 
#
# 1 216.2015 -9.5521 1.3886 0.0000 0.0000 0.0000
# 2 -9.5521 46.4862 -14.1968 0.0000 0.0000 0.0000
# 3 1.3886 -14.1968 78.1788 0.0000 0.0000 0.0000
# 4 0.0000 0.0000 0.0000 9.4098 0.0000 0.0000
# 5 0.0000 0.0000 0.0000 0.0000 -4.3675 0.0000
# 6 0.0000 0.0000 0.0000 0.0000 0.0000 -11.2911
#
#
#
# Elastic Compliance Matrix: (Units=1/GPa)
#
#
# Indices 1 2 3 4 5 6 
#
# 1 0.004668 0.000989 0.000097 0.000000 0.000000 0.000000
# 2 0.000989 0.022984 0.004156 0.000000 0.000000 0.000000
# 3 0.000097 0.004156 0.013544 0.000000 0.000000 0.000000
# 4 0.000000 0.000000 0.000000 0.106272 0.000000 0.000000
# 5 0.000000 0.000000 0.000000 0.000000 -0.228965 0.000000
# 6 0.000000 0.000000 0.000000 0.000000 0.000000 -0.088565
#
#
# Mechanical properties :
#
#
# Convention : Reuss Voigt Hill
#
# Bulk Modulus (GPa) = 19.34976 32.90509 26.12742
# Shear Modulus (GPa) = -30.61503 22.96537 -3.82483
#
# Velocity S-wave (km/s) = -3.50566 3.03626 -1.23911
# Velocity P-wave (km/s) = 2.93576 5.04983 2.90535
#
# Compressibility (1/GPa) = 0.05168023
#
# Stress axis : x y z
#
# Youngs Moduli (GPa) = 214.20703 43.50803 73.83219
#
# Poissons Ratio (x) = -0.04302 -0.00713
# Poissons Ratio (y) = -0.21181 -0.30687
# Poissons Ratio (z) = -0.02070 -0.18083
#
# Static dielectric constant tensor:
#      x y z
#    x 2.075890 0.000000 0.000000 
#    y 0.000000 1.906370 0.000000 
#    z 0.000000 0.000000 1.925770 
# 
# From -- ./inp_files/6708.got.cif
#   From: 2010.05.17/outbox.cif.g08.bks.cpg/sg57_4_cif.got.tgz:6708.got - 2010.06.03 13:58:18.
