data_PCOD9434293
_publ_section_title
;
Structure prediction by ZEFSAII (Michael W. Deem and Ramdas Pophale) SiO2 
 PCOD9434293
Probable space group: P B C M
;
_chemical_formula_sum "Si O2"
_cell_formula_units_Z 60
_cell_length_a 23.469669
_cell_length_b 14.801868
_cell_length_c 9.895210
_cell_angle_alpha 90.000000
_cell_angle_beta 90.000000
_cell_angle_gamma 90.000000
_cell_volume 3437.545909
_symmetry_space_group_name_H-M "P B C M"
_symmetry_group_IT_number 57
_symmetry_cell_setting 'orthorhombic'
loop_
_space_group_symop_operation_xyz
x,y,z
-x,-y,1/2+z
x,1/2-y,-z
-x,1/2+y,1/2-z
-x,-y,-z
x,y,1/2-z
-x,1/2+y,z
x,1/2-y,1/2+z
loop_
_atom_site_type_symbol
_atom_site_label
_atom_site_fract_x
_atom_site_fract_y
_atom_site_fract_z
Si Si1 0.538472 0.663511 0.091205
Si Si2 0.007536 0.874421 0.891790
Si Si3 0.156457 0.079580 0.591887
Si Si4 0.278848 0.161562 0.592323
Si Si5 0.610088 0.962960 0.409141
Si Si6 0.082754 0.250000 0.000000
Si Si7 0.918895 0.041111 0.597277
Si Si8 0.400862 0.667842 0.404760
O O1 0.555807 0.670498 0.250000
O O2 0.469867 0.660092 0.088547
O O3 0.556191 0.750000 0.000000
O O4 0.564535 0.577919 0.013454
O O5 0.039601 0.872931 0.750000
O O6 0.960969 0.796388 0.897973
O O7 0.050279 0.878431 0.016964
O O8 0.968103 0.964147 0.894082
O O9 0.150678 0.055374 0.750000
O O10 0.221741 0.104864 0.561882
O O11 0.120857 0.171584 0.564378
O O12 0.130183 0.003764 0.494137
O O13 0.282317 0.250000 0.500000
O O14 0.275189 0.189254 0.750000
O O15 0.333761 0.098092 0.576804
O O16 0.591238 0.957860 0.250000
O O17 0.621556 0.068074 0.439109
O O18 0.901289 0.062620 0.750000
O O19 0.383107 0.750000 0.500000
O O20 0.385576 0.688207 0.250000
#
# Coordination Sequence:
#
# PCOD9434293 Si02
#       8
#     8   8   8   8   8   4   8   8
#     4  10  19  31  49  74 105 141 176 211 260 316
#     4   9  17  28  43  66  93 122 153 187 232 281
#     4  10  19  32  49  69  95 128 164 200 240 290
#     4  10  21  35  51  73 102 136 172 210 254 305
#     4  10  20  34  51  74 105 138 174 217 265 313
#     4  10  18  28  48  72  98 126 160 196 236 280
#     4   9  18  30  45  65  91 122 155 193 232 277
#     4   9  19  34  52  75 102 133 172 220 267 316
#
# _framework density 17.454311000000001
#
# number of rings (size 3 to 8) (size 9 to 14) (size 15 to 20)
#    0.000    2.400    0.667    2.000    0.000    7.467 
#    0.000    0.000    0.000    0.000    1.733    0.000 
#    0.000    0.000    0.000    0.000    0.000    0.000 
#
# Total GULP energy -334363.516929 kJ/mol
# GULP energy per Si atom -5572.725282 kJ/mol
# Density = 1.741458 g / cm^3
# Si number density = 17.454311 Si / 1000 Ang^3
#
#
#
# Elastic Constant Matrix: (Units=GPa)
#
#
# Indices 1 2 3 4 5 6 
#
# 1 34.6321 13.3480 28.0577 0.0000 0.0000 0.0000
# 2 13.3480 33.9327 28.9391 0.0000 0.0000 0.0000
# 3 28.0577 28.9391 102.9657 0.0000 0.0000 0.0000
# 4 0.0000 0.0000 0.0000 17.2828 0.0000 0.0000
# 5 0.0000 0.0000 0.0000 0.0000 16.1131 0.0000
# 6 0.0000 0.0000 0.0000 0.0000 0.0000 19.0934
#
#
#
# Elastic Compliance Matrix: (Units=1/GPa)
#
#
# Indices 1 2 3 4 5 6 
#
# 1 0.038715 -0.008197 -0.008246 0.000000 0.000000 0.000000
# 2 -0.008197 0.040496 -0.009148 0.000000 0.000000 0.000000
# 3 -0.008246 -0.009148 0.014530 0.000000 0.000000 0.000000
# 4 0.000000 0.000000 0.000000 0.057861 0.000000 0.000000
# 5 0.000000 0.000000 0.000000 0.000000 0.062061 0.000000
# 6 0.000000 0.000000 0.000000 0.000000 0.000000 0.052374
#
#
# Mechanical properties :
#
#
# Convention : Reuss Voigt Hill
#
# Bulk Modulus (GPa) = 23.49642 34.69111 29.09377
# Shear Modulus (GPa) = 15.08724 17.24355 16.16540
#
# Velocity S-wave (km/s) = 2.94323 3.14654 3.04658
# Velocity P-wave (km/s) = 5.00410 5.75495 5.39261
#
# Compressibility (1/GPa) = 0.04255967
#
# Stress axis : x y z
#
# Youngs Moduli (GPa) = 25.82998 24.69358 68.82275
#
# Poissons Ratio (x) = 0.20241 0.56750
# Poissons Ratio (y) = 0.21172 0.62960
# Poissons Ratio (z) = 0.21299 0.22590
#
# Static dielectric constant tensor:
#      x y z
#    x 1.574820 0.000000 0.000000 
#    y 0.000000 1.605670 0.000000 
#    z 0.000000 0.000000 1.619890 
# 
# From -- ./inp_files/9246.got.cif
#   From: 2010.05.17/outbox.cif.g08.bks.cpg/sg57_5_cif.got.tgz:9246.got - 2010.06.03 13:58:18.
