data_PCOD9434241
_publ_section_title
;
Structure prediction by ZEFSAII (Michael W. Deem and Ramdas Pophale) SiO2 
 PCOD9434241
Probable space group: P B C M
;
_chemical_formula_sum "Si O2"
_cell_formula_units_Z 64
_cell_length_a 18.563742
_cell_length_b 25.598028
_cell_length_c 9.271453
_cell_angle_alpha 90.000000
_cell_angle_beta 90.000000
_cell_angle_gamma 90.000000
_cell_volume 4405.749847
_symmetry_space_group_name_H-M "P B C M"
_symmetry_group_IT_number 57
_symmetry_cell_setting 'orthorhombic'
loop_
_space_group_symop_operation_xyz
x,y,z
-x,-y,1/2+z
x,1/2-y,-z
-x,1/2+y,1/2-z
-x,-y,-z
x,y,1/2-z
-x,1/2+y,z
x,1/2-y,1/2+z
loop_
_atom_site_type_symbol
_atom_site_label
_atom_site_fract_x
_atom_site_fract_y
_atom_site_fract_z
Si Si1 0.264298 0.012128 0.919879
Si Si2 0.953507 0.303180 0.922371
Si Si3 0.114675 0.002261 0.420697
Si Si4 0.402997 0.044525 0.083291
Si Si5 0.676916 0.105945 0.419405
Si Si6 0.539694 0.424212 0.415925
Si Si7 0.215873 0.802621 0.922529
Si Si8 0.018352 0.919395 0.579067
O O1 0.259307 0.024419 0.750000
O O2 0.288253 0.951430 0.933033
O O3 0.328074 0.044249 0.997037
O O4 0.188133 0.017018 0.999143
O O5 0.960657 0.296265 0.750000
O O6 0.868474 0.310437 0.956729
O O7 0.988988 0.358642 0.962733
O O8 0.978111 0.250000 0.000000
O O9 0.126727 0.994823 0.250000
O O10 0.079517 0.950346 0.490901
O O11 0.054961 0.047805 0.439481
O O12 0.393636 0.059544 0.250000
O O13 0.432101 0.984488 0.081916
O O14 0.465645 0.076861 0.004596
O O15 0.660262 0.113370 0.250000
O O16 0.603789 0.107673 0.509915
O O17 0.735178 0.148660 0.465438
O O18 0.528433 0.409653 0.250000
O O19 0.220709 0.796819 0.750000
O O20 0.240164 0.750000 0.000000
O O21 0.037621 0.920665 0.750000
#
# Coordination Sequence:
#
# PCOD9434241 Si02
#       8
#     8   8   8   8   8   8   8   8
#     4  10  18  28  42  59  82 111 141 173 210 249
#     4   9  17  30  46  63  83 109 141 177 217 256
#     4  10  19  29  43  63  85 112 146 179 212 255
#     4   9  16  26  39  56  80 107 135 166 197 234
#     4   9  17  28  41  56  77 109 142 169 202 245
#     4   9  16  25  38  57  79 104 134 166 199 232
#     4   9  17  28  41  57  78 104 135 170 207 244
#     4   9  18  32  46  60  84 115 143 175 216 259
#
# _framework density 14.526472
#
# number of rings (size 3 to 8) (size 9 to 14) (size 15 to 20)
#    0.000    2.750    0.000    2.250    0.000    7.000 
#    0.000    2.500    0.000    0.000    0.000    0.000 
#    0.000    1.000    0.000    6.250    0.000    4.625 
#
# Total GULP energy -356558.621363 kJ/mol
# GULP energy per Si atom -5571.228459 kJ/mol
# Density = 1.449341 g / cm^3
# Si number density = 14.526472 Si / 1000 Ang^3
#
#
#
# Elastic Constant Matrix: (Units=GPa)
#
#
# Indices 1 2 3 4 5 6 
#
# 1 71.9696 13.3509 52.0471 0.0000 0.0000 0.0000
# 2 13.3509 61.7057 25.6482 0.0000 0.0000 0.0000
# 3 52.0471 25.6482 79.3320 0.0000 0.0000 0.0000
# 4 0.0000 0.0000 0.0000 19.2081 0.0000 0.0000
# 5 0.0000 0.0000 0.0000 0.0000 25.6745 0.0000
# 6 0.0000 0.0000 0.0000 0.0000 0.0000 18.0002
#
#
#
# Elastic Compliance Matrix: (Units=1/GPa)
#
#
# Indices 1 2 3 4 5 6 
#
# 1 0.026598 0.001731 -0.018010 0.000000 0.000000 0.000000
# 2 0.001731 0.018834 -0.007225 0.000000 0.000000 0.000000
# 3 -0.018010 -0.007225 0.026757 0.000000 0.000000 0.000000
# 4 0.000000 0.000000 0.000000 0.052062 0.000000 0.000000
# 5 0.000000 0.000000 0.000000 0.000000 0.038949 0.000000
# 6 0.000000 0.000000 0.000000 0.000000 0.000000 0.055555
#
#
# Mechanical properties :
#
#
# Convention : Reuss Voigt Hill
#
# Bulk Modulus (GPa) = 39.71106 43.89998 41.80552
# Shear Modulus (GPa) = 18.23781 20.70728 19.47255
#
# Velocity S-wave (km/s) = 3.54713 3.77966 3.66524
# Velocity P-wave (km/s) = 6.64624 7.02382 6.83764
#
# Compressibility (1/GPa) = 0.02518190
#
# Stress axis : x y z
#
# Youngs Moduli (GPa) = 37.59696 53.09410 37.37395
#
# Poissons Ratio (x) = -0.09190 0.67309
# Poissons Ratio (y) = -0.06508 0.27002
# Poissons Ratio (z) = 0.67711 0.38360
#
# Static dielectric constant tensor:
#      x y z
#    x 1.468630 0.000000 0.000000 
#    y 0.000000 1.464730 0.000000 
#    z 0.000000 0.000000 1.487870 
# 
# From -- ./inp_files/7473.got.cif
#   From: 2010.05.17/outbox.cif.g08.bks.cpg/sg57_4_cif.got.tgz:7473.got - 2010.06.03 13:58:18.
