data_PCOD9434717
_publ_section_title
;
Structure prediction by ZEFSAII (Michael W. Deem and Ramdas Pophale) SiO2 
 PCOD9434717
Probable space group: P B C M
;
_chemical_formula_sum "Si O2"
_cell_formula_units_Z 40
_cell_length_a 24.852576
_cell_length_b 8.949507
_cell_length_c 9.365870
_cell_angle_alpha 90.000000
_cell_angle_beta 90.000000
_cell_angle_gamma 90.000000
_cell_volume 2083.140910
_symmetry_space_group_name_H-M "P B C M"
_symmetry_group_IT_number 57
_symmetry_cell_setting 'orthorhombic'
loop_
_space_group_symop_operation_xyz
x,y,z
-x,-y,1/2+z
x,1/2-y,-z
-x,1/2+y,1/2-z
-x,-y,-z
x,y,1/2-z
-x,1/2+y,z
x,1/2-y,1/2+z
loop_
_atom_site_type_symbol
_atom_site_label
_atom_site_fract_x
_atom_site_fract_y
_atom_site_fract_z
Si Si1 0.247344 0.903192 0.413189
Si Si2 0.128675 0.928548 0.022341
Si Si3 0.928747 0.004484 0.250000
Si Si4 0.450362 0.912453 0.573223
Si Si5 0.957080 0.358694 0.250000
Si Si6 0.646070 0.589988 0.076301
O O1 0.252250 0.750000 0.500000
O O2 0.252583 0.856859 0.250000
O O3 0.187875 0.975014 0.429218
O O4 0.295341 0.016401 0.445039
O O5 0.076124 0.930702 0.120794
O O6 0.135832 0.750000 0.000000
O O7 0.109802 0.013852 0.883775
O O8 0.948535 0.179245 0.250000
O O9 0.980982 0.901969 0.250000
O O10 0.451887 0.750000 0.500000
O O11 0.452241 0.910320 0.750000
O O12 0.500000 0.000000 0.500000
O O13 0.397109 0.990990 0.509957
O O14 0.635519 0.596372 0.250000
O O15 0.644414 0.750000 0.000000
#
# Coordination Sequence:
#
# PCOD9434717 Si02
#       6
#     8   8   4   8   4   8
#     4  10  21  37  61  87 114 151 200 253 302 361
#     4   9  18  33  53  78 105 140 186 235 289 351
#     4  10  20  32  52  78 102 144 177 236 283 358
#     4  12  25  44  69 100 134 174 216 262 310 362
#     4  10  18  34  52  74 108 136 185 226 291 348
#     4  11  24  43  63  92 129 168 209 256 312 370
#
# _framework density 19.201774
#
# number of rings (size 3 to 8) (size 9 to 14) (size 15 to 20)
#    0.000    1.600    1.000    4.200    4.200    3.200 
#    0.000    2.000    0.000    0.000    0.000    0.000 
#    0.000    0.000    0.000    0.000    0.000    0.000 
#
# Total GULP energy -222914.913527 kJ/mol
# GULP energy per Si atom -5572.872838 kJ/mol
# Density = 1.915807 g / cm^3
# Si number density = 19.201774 Si / 1000 Ang^3
#
#
#
# Elastic Constant Matrix: (Units=GPa)
#
#
# Indices 1 2 3 4 5 6 
#
# 1 123.2735 49.8661 33.2114 0.0000 0.0000 0.0000
# 2 49.8661 94.6285 45.8330 0.0000 0.0000 0.0000
# 3 33.2114 45.8330 103.8959 0.0000 0.0000 0.0000
# 4 0.0000 0.0000 0.0000 26.8940 0.0000 0.0000
# 5 0.0000 0.0000 0.0000 0.0000 32.2587 0.0000
# 6 0.0000 0.0000 0.0000 0.0000 0.0000 8.8315
#
#
#
# Elastic Compliance Matrix: (Units=1/GPa)
#
#
# Indices 1 2 3 4 5 6 
#
# 1 0.010418 -0.004930 -0.001155 0.000000 0.000000 0.000000
# 2 -0.004930 0.015772 -0.005382 0.000000 0.000000 0.000000
# 3 -0.001155 -0.005382 0.012368 0.000000 0.000000 0.000000
# 4 0.000000 0.000000 0.000000 0.037183 0.000000 0.000000
# 5 0.000000 0.000000 0.000000 0.000000 0.030999 0.000000
# 6 0.000000 0.000000 0.000000 0.000000 0.000000 0.113231
#
#
# Mechanical properties :
#
#
# Convention : Reuss Voigt Hill
#
# Bulk Modulus (GPa) = 64.00446 64.40210 64.20328
# Shear Modulus (GPa) = 20.15200 26.45599 23.30399
#
# Velocity S-wave (km/s) = 3.24309 3.71588 3.48751
# Velocity P-wave (km/s) = 6.88683 7.21269 7.05164
#
# Compressibility (1/GPa) = 0.01562391
#
# Stress axis : x y z
#
# Youngs Moduli (GPa) = 95.99125 63.40179 80.85078
#
# Poissons Ratio (x) = 0.31259 0.09339
# Poissons Ratio (y) = 0.47326 0.43513
# Poissons Ratio (z) = 0.11088 0.34122
#
# Static dielectric constant tensor:
#      x y z
#    x 1.662270 0.000000 0.000000 
#    y 0.000000 1.668590 0.000000 
#    z 0.000000 0.000000 1.680490 
# 
# From -- ./inp_files/8956.got.cif
#   From: 2010.05.17/outbox.cif.g08.bks.cpg/sg57_5_cif.got.tgz:8956.got - 2010.06.03 13:58:18.
