data_PCOD9434280
_publ_section_title
;
Structure prediction by ZEFSAII (Michael W. Deem and Ramdas Pophale) SiO2 
 PCOD9434280
Probable space group: P B C M
;
_chemical_formula_sum "Si O2"
_cell_formula_units_Z 64
_cell_length_a 16.551027
_cell_length_b 23.915495
_cell_length_c 9.110535
_cell_angle_alpha 90.000000
_cell_angle_beta 90.000000
_cell_angle_gamma 90.000000
_cell_volume 3606.186658
_symmetry_space_group_name_H-M "P B C M"
_symmetry_group_IT_number 57
_symmetry_cell_setting 'orthorhombic'
loop_
_space_group_symop_operation_xyz
x,y,z
-x,-y,1/2+z
x,1/2-y,-z
-x,1/2+y,1/2-z
-x,-y,-z
x,y,1/2-z
-x,1/2+y,z
x,1/2-y,1/2+z
loop_
_atom_site_type_symbol
_atom_site_label
_atom_site_fract_x
_atom_site_fract_y
_atom_site_fract_z
Si Si1 0.737146 0.430508 0.428146
Si Si2 0.056559 0.692874 0.918718
Si Si3 0.043532 0.102488 0.421833
Si Si4 0.188122 0.306680 0.918607
Si Si5 0.846033 0.982512 0.074322
Si Si6 0.711597 0.904353 0.572776
Si Si7 0.251529 0.805584 0.417787
Si Si8 0.415372 0.490436 0.576316
O O1 0.748845 0.432032 0.250000
O O2 0.814751 0.459393 0.504320
O O3 0.725347 0.366606 0.476500
O O4 0.656420 0.466005 0.462905
O O5 0.027645 0.693151 0.750000
O O6 0.153661 0.694345 0.918139
O O7 0.029300 0.750000 0.000000
O O8 0.027282 0.636863 0.999540
O O9 0.027086 0.091412 0.250000
O O10 0.116626 0.147901 0.430814
O O11 0.075160 0.046789 0.503031
O O12 0.196674 0.291925 0.750000
O O13 0.268499 0.340588 0.964196
O O14 0.171470 0.250000 0.000000
O O15 0.852617 0.985549 0.250000
O O16 0.773826 0.941219 0.021526
O O17 0.729040 0.912257 0.750000
O O18 0.623753 0.929587 0.546025
O O19 0.279010 0.750000 0.500000
O O20 0.279061 0.802386 0.250000
O O21 0.500000 0.500000 0.500000
O O22 0.427025 0.495494 0.750000
#
# Coordination Sequence:
#
# PCOD9434280 Si02
#       8
#     8   8   8   8   8   8   8   8
#     4   9  18  35  54  72  99 134 160 188 239 299
#     4  10  19  31  47  69  94 123 163 211 255 295
#     4  10  19  31  45  63  93 132 166 202 249 297
#     4   9  17  27  41  61  86 119 159 192 224 267
#     4  10  18  28  46  72  96 121 159 206 243 281
#     4   8  16  31  45  61  92 130 156 182 228 284
#     4   9  19  35  55  75  97 126 163 204 247 291
#     4   9  17  30  51  75  98 121 150 187 231 282
#
# _framework density 17.747278999999999
#
# number of rings (size 3 to 8) (size 9 to 14) (size 15 to 20)
#    0.000    2.750    0.000    3.750    0.000    6.500 
#    0.000    0.625    0.000    0.750    0.000    5.250 
#    0.000    0.000    0.000    0.000    0.000    0.000 
#
# Total GULP energy -356545.103528 kJ/mol
# GULP energy per Si atom -5571.017243 kJ/mol
# Density = 1.770689 g / cm^3
# Si number density = 17.747279 Si / 1000 Ang^3
#
#
#
# Elastic Constant Matrix: (Units=GPa)
#
#
# Indices 1 2 3 4 5 6 
#
# 1 30.5765 13.0724 14.9135 0.0000 0.0000 0.0000
# 2 13.0724 81.5253 31.1394 0.0000 0.0000 0.0000
# 3 14.9135 31.1394 60.9103 0.0000 0.0000 0.0000
# 4 0.0000 0.0000 0.0000 25.1787 0.0000 0.0000
# 5 0.0000 0.0000 0.0000 0.0000 13.4295 0.0000
# 6 0.0000 0.0000 0.0000 0.0000 0.0000 10.6403
#
#
#
# Elastic Compliance Matrix: (Units=1/GPa)
#
#
# Indices 1 2 3 4 5 6 
#
# 1 0.037775 -0.003137 -0.007645 0.000000 0.000000 0.000000
# 2 -0.003137 0.015503 -0.007158 0.000000 0.000000 0.000000
# 3 -0.007645 -0.007158 0.021949 0.000000 0.000000 0.000000
# 4 0.000000 0.000000 0.000000 0.039716 0.000000 0.000000
# 5 0.000000 0.000000 0.000000 0.000000 0.074463 0.000000
# 6 0.000000 0.000000 0.000000 0.000000 0.000000 0.093982
#
#
# Mechanical properties :
#
#
# Convention : Reuss Voigt Hill
#
# Bulk Modulus (GPa) = 25.41485 32.36252 28.88868
# Shear Modulus (GPa) = 15.04287 17.44216 16.24251
#
# Velocity S-wave (km/s) = 2.91454 3.13838 3.02853
# Velocity P-wave (km/s) = 5.06731 5.60422 5.34251
#
# Compressibility (1/GPa) = 0.03934708
#
# Stress axis : x y z
#
# Youngs Moduli (GPa) = 26.47254 64.50343 45.56072
#
# Poissons Ratio (x) = 0.20234 0.34833
# Poissons Ratio (y) = 0.08304 0.32611
# Poissons Ratio (z) = 0.20239 0.46169
#
# Static dielectric constant tensor:
#      x y z
#    x 1.618130 0.000000 0.000000 
#    y 0.000000 1.652010 0.000000 
#    z 0.000000 0.000000 1.611120 
# 
# From -- ./inp_files/7361.got.cif
#   From: 2010.05.17/outbox.cif.g08.bks.cpg/sg57_4_cif.got.tgz:7361.got - 2010.06.03 13:58:18.
