data_PCOD9434191
_publ_section_title
;
Structure prediction by ZEFSAII (Michael W. Deem and Ramdas Pophale) SiO2 
 PCOD9434191
Probable space group: P B C M
;
_chemical_formula_sum "Si O2"
_cell_formula_units_Z 64
_cell_length_a 20.884130
_cell_length_b 22.258040
_cell_length_c 9.077625
_cell_angle_alpha 90.000000
_cell_angle_beta 90.000000
_cell_angle_gamma 90.000000
_cell_volume 4219.641398
_symmetry_space_group_name_H-M "P B C M"
_symmetry_group_IT_number 57
_symmetry_cell_setting 'orthorhombic'
loop_
_space_group_symop_operation_xyz
x,y,z
-x,-y,1/2+z
x,1/2-y,-z
-x,1/2+y,1/2-z
-x,-y,-z
x,y,1/2-z
-x,1/2+y,z
x,1/2-y,1/2+z
loop_
_atom_site_type_symbol
_atom_site_label
_atom_site_fract_x
_atom_site_fract_y
_atom_site_fract_z
Si Si1 0.381643 0.592805 0.078310
Si Si2 0.492581 0.434214 0.072516
Si Si3 0.352409 0.448953 0.419842
Si Si4 0.863162 0.314749 0.926939
Si Si5 0.907838 0.542183 0.574510
Si Si6 0.250973 0.611658 0.925373
Si Si7 0.969207 0.087069 0.074310
Si Si8 0.224899 0.469532 0.576693
O O1 0.384071 0.609887 0.250000
O O2 0.368485 0.520541 0.073576
O O3 0.449298 0.603201 0.997296
O O4 0.321291 0.620979 0.994326
O O5 0.499094 0.438418 0.250000
O O6 0.419037 0.416293 0.039746
O O7 0.500000 0.500000 0.000000
O O8 0.337035 0.435247 0.250000
O O9 0.290363 0.439738 0.518951
O O10 0.857235 0.310574 0.750000
O O11 0.924438 0.356628 0.960888
O O12 0.869983 0.250000 0.000000
O O13 0.801138 0.347635 0.993940
O O14 0.019422 0.585780 0.250000
O O15 0.930246 0.473940 0.536524
O O16 0.838225 0.552247 0.506647
O O17 0.963477 0.583971 0.508864
O O18 0.251412 0.622283 0.750000
O O19 0.232565 0.541464 0.949626
O O20 0.905500 0.952883 0.250000
O O21 0.217703 0.460397 0.750000
#
# Coordination Sequence:
#
# PCOD9434191 Si02
#       8
#     8   8   8   8   8   8   8   8
#     4   9  16  25  38  54  75 105 139 179 217 252
#     4   9  15  23  34  50  73 104 140 177 212 250
#     4   8  15  24  34  50  76 108 141 174 211 252
#     4  11  22  36  51  67  89 116 147 185 227 271
#     4  10  18  29  47  66  87 113 143 181 223 268
#     4  10  19  30  44  62  83 110 146 184 220 264
#     4   9  19  33  47  65  87 112 142 180 223 267
#     4  10  18  26  40  61  85 112 144 181 219 262
#
# _framework density 15.167165000000001
#
# number of rings (size 3 to 8) (size 9 to 14) (size 15 to 20)
#    0.000    2.500    1.250    3.000    0.000    6.000 
#    0.000    0.000    0.000    0.000    0.000    0.000 
#    0.000    0.000    0.000    1.125    0.000   18.625 
#
# Total GULP energy -356559.285046 kJ/mol
# GULP energy per Si atom -5571.238829 kJ/mol
# Density = 1.513264 g / cm^3
# Si number density = 15.167165 Si / 1000 Ang^3
#
#
#
# Elastic Constant Matrix: (Units=GPa)
#
#
# Indices 1 2 3 4 5 6 
#
# 1 164.1622 40.3156 81.6329 0.0000 0.0000 0.0000
# 2 40.3156 36.8411 31.9963 0.0000 0.0000 0.0000
# 3 81.6329 31.9963 75.9019 0.0000 0.0000 0.0000
# 4 0.0000 0.0000 0.0000 13.4167 0.0000 0.0000
# 5 0.0000 0.0000 0.0000 0.0000 33.9678 0.0000
# 6 0.0000 0.0000 0.0000 0.0000 0.0000 6.7497
#
#
#
# Elastic Compliance Matrix: (Units=1/GPa)
#
#
# Indices 1 2 3 4 5 6 
#
# 1 0.013356 -0.003376 -0.012941 0.000000 0.000000 0.000000
# 2 -0.003376 0.043674 -0.014780 0.000000 0.000000 0.000000
# 3 -0.012941 -0.014780 0.033323 0.000000 0.000000 0.000000
# 4 0.000000 0.000000 0.000000 0.074534 0.000000 0.000000
# 5 0.000000 0.000000 0.000000 0.000000 0.029440 0.000000
# 6 0.000000 0.000000 0.000000 0.000000 0.000000 0.148155
#
#
# Mechanical properties :
#
#
# Convention : Reuss Voigt Hill
#
# Bulk Modulus (GPa) = 35.51175 64.97720 50.24448
# Shear Modulus (GPa) = 12.07547 19.02420 15.54983
#
# Velocity S-wave (km/s) = 2.82469 3.54545 3.20539
# Velocity P-wave (km/s) = 5.83977 7.72619 6.84825
#
# Compressibility (1/GPa) = 0.02815969
#
# Stress axis : x y z
#
# Youngs Moduli (GPa) = 74.87324 22.89679 30.00893
#
# Poissons Ratio (x) = 0.07731 0.38835
# Poissons Ratio (y) = 0.25279 0.44352
# Poissons Ratio (z) = 0.96894 0.33841
#
# Static dielectric constant tensor:
#      x y z
#    x 1.521640 0.000000 0.000000 
#    y 0.000000 1.472270 0.000000 
#    z 0.000000 0.000000 1.503210 
# 
# From -- ./inp_files/8765.got.cif
#   From: 2010.05.17/outbox.cif.g08.bks.cpg/sg57_5_cif.got.tgz:8765.got - 2010.06.03 13:58:18.
