data_PCOD9434222
_publ_section_title
;
Structure prediction by ZEFSAII (Michael W. Deem and Ramdas Pophale) SiO2 
 PCOD9434222
Probable space group: P B C M
;
_chemical_formula_sum "Si O2"
_cell_formula_units_Z 56
_cell_length_a 21.298081
_cell_length_b 19.086215
_cell_length_c 8.521153
_cell_angle_alpha 90.000000
_cell_angle_beta 90.000000
_cell_angle_gamma 90.000000
_cell_volume 3463.846590
_symmetry_space_group_name_H-M "P B C M"
_symmetry_group_IT_number 57
_symmetry_cell_setting 'orthorhombic'
loop_
_space_group_symop_operation_xyz
x,y,z
-x,-y,1/2+z
x,1/2-y,-z
-x,1/2+y,1/2-z
-x,-y,-z
x,y,1/2-z
-x,1/2+y,z
x,1/2-y,1/2+z
loop_
_atom_site_type_symbol
_atom_site_label
_atom_site_fract_x
_atom_site_fract_y
_atom_site_fract_z
Si Si1 0.565873 0.969562 0.560951
Si Si2 0.515571 0.826846 0.561930
Si Si3 0.939330 0.958261 0.438944
Si Si4 0.250285 0.827256 0.062117
Si Si5 0.866054 0.412301 0.561465
Si Si6 0.012189 0.828365 0.438654
Si Si7 0.616479 0.112591 0.559935
O O1 0.565715 0.968924 0.750000
O O2 0.563950 0.888461 0.509811
O O3 0.500000 0.000000 0.500000
O O4 0.614709 0.030066 0.512816
O O5 0.530718 0.750000 0.500000
O O6 0.514427 0.825133 0.750000
O O7 0.446094 0.850005 0.504212
O O8 0.939546 0.959025 0.250000
O O9 0.953625 0.878513 0.487236
O O10 0.881434 0.007393 0.488834
O O11 0.000000 0.000000 0.500000
O O12 0.250434 0.825742 0.250000
O O13 0.319704 0.850391 0.007331
O O14 0.235215 0.750000 0.000000
O O15 0.197820 0.881381 0.005452
O O16 0.864371 0.409262 0.750000
O O17 0.924242 0.364346 0.503441
O O18 0.006250 0.750000 0.500000
O O19 0.016163 0.827766 0.250000
O O20 0.613630 0.116027 0.750000
#
# Coordination Sequence:
#
# PCOD9434222 Si02
#       7
#     8   8   8   8   8   8   8
#     4   8  15  28  44  62  83 110 141 176 215 256
#     4  10  18  27  43  66  91 115 141 174 216 259
#     4   8  16  29  45  63  84 111 142 176 214 254
#     4  11  22  33  45  63  87 117 149 180 211 248
#     4  10  19  32  47  63  86 117 149 180 213 251
#     4  10  18  29  45  67  92 115 141 175 215 258
#     4   9  18  32  47  62  85 115 148 181 214 252
#
# _framework density 16.166998
#
# number of rings (size 3 to 8) (size 9 to 14) (size 15 to 20)
#    0.000    2.571    0.000    2.571    0.000    4.000 
#    0.000    0.000    0.000    0.000    0.000    1.000 
#    0.000    6.857    0.000    0.000    0.000    0.000 
#
# Total GULP energy -311753.784390 kJ/mol
# GULP energy per Si atom -5567.031864 kJ/mol
# Density = 1.613020 g / cm^3
# Si number density = 16.166998 Si / 1000 Ang^3
#
#
#
# Elastic Constant Matrix: (Units=GPa)
#
#
# Indices 1 2 3 4 5 6 
#
# 1 15.4326 -7.4836 4.2185 0.0000 0.0000 0.0000
# 2 -7.4836 76.8993 8.7506 0.0000 0.0000 0.0000
# 3 4.2185 8.7506 22.1337 0.0000 0.0000 0.0000
# 4 0.0000 0.0000 0.0000 12.4085 0.0000 0.0000
# 5 0.0000 0.0000 0.0000 0.0000 13.4977 0.0000
# 6 0.0000 0.0000 0.0000 0.0000 0.0000 27.5095
#
#
#
# Elastic Compliance Matrix: (Units=1/GPa)
#
#
# Indices 1 2 3 4 5 6 
#
# 1 0.074139 0.009238 -0.017782 0.000000 0.000000 0.000000
# 2 0.009238 0.014768 -0.007599 0.000000 0.000000 0.000000
# 3 -0.017782 -0.007599 0.051573 0.000000 0.000000 0.000000
# 4 0.000000 0.000000 0.000000 0.080590 0.000000 0.000000
# 5 0.000000 0.000000 0.000000 0.000000 0.074087 0.000000
# 6 0.000000 0.000000 0.000000 0.000000 0.000000 0.036351
#
#
# Mechanical properties :
#
#
# Convention : Reuss Voigt Hill
#
# Bulk Modulus (GPa) = 9.24270 13.93739 11.59004
# Shear Modulus (GPa) = 12.50441 17.94847 15.22644
#
# Velocity S-wave (km/s) = 2.78412 3.33557 3.07224
# Velocity P-wave (km/s) = 4.00806 4.84503 4.44628
#
# Compressibility (1/GPa) = 0.10819350
#
# Stress axis : x y z
#
# Youngs Moduli (GPa) = 13.48822 67.71483 19.38983
#
# Poissons Ratio (x) = -0.62558 0.34480
# Poissons Ratio (y) = -0.12461 0.14735
# Poissons Ratio (z) = 0.23985 0.51458
#
# Static dielectric constant tensor:
#      x y z
#    x 1.521190 0.000000 0.000000 
#    y 0.000000 1.591730 0.000000 
#    z 0.000000 0.000000 1.571430 
# 
# From -- ./inp_files/8294.got.cif
#   From: 2010.05.17/outbox.cif.g08.bks.cpg/sg57_5_cif.got.tgz:8294.got - 2010.06.03 13:58:18.
