data_PCOD9434065
_publ_section_title
;
Structure prediction by ZEFSAII (Michael W. Deem and Ramdas Pophale) SiO2 
 PCOD9434065
Probable space group: P B C M
;
_chemical_formula_sum "Si O2"
_cell_formula_units_Z 56
_cell_length_a 15.177076
_cell_length_b 27.277874
_cell_length_c 7.715555
_cell_angle_alpha 90.000000
_cell_angle_beta 90.000000
_cell_angle_gamma 90.000000
_cell_volume 3194.227169
_symmetry_space_group_name_H-M "P B C M"
_symmetry_group_IT_number 57
_symmetry_cell_setting 'orthorhombic'
loop_
_space_group_symop_operation_xyz
x,y,z
-x,-y,1/2+z
x,1/2-y,-z
-x,1/2+y,1/2-z
-x,-y,-z
x,y,1/2-z
-x,1/2+y,z
x,1/2-y,1/2+z
loop_
_atom_site_type_symbol
_atom_site_label
_atom_site_fract_x
_atom_site_fract_y
_atom_site_fract_z
Si Si1 0.878376 0.037352 0.039545
Si Si2 0.618380 0.549294 0.548563
Si Si3 0.980793 0.886669 0.541243
Si Si4 0.190339 0.433694 0.457669
Si Si5 0.576395 0.058632 0.953927
Si Si6 0.879341 0.306815 0.958174
Si Si7 0.734976 0.119838 0.458245
O O1 0.883477 0.035040 0.250000
O O2 0.799363 0.074569 0.996476
O O3 0.966750 0.064621 0.977906
O O4 0.854202 0.983808 0.972941
O O5 0.616537 0.564086 0.750000
O O6 0.709897 0.569454 0.473347
O O7 0.522984 0.564358 0.475030
O O8 0.619141 0.489889 0.538507
O O9 0.984617 0.886802 0.750000
O O10 0.879169 0.890753 0.491132
O O11 0.038313 0.840153 0.480247
O O12 0.197904 0.439362 0.250000
O O13 0.569936 0.047141 0.750000
O O14 0.638956 0.105287 0.976190
O O15 0.878655 0.311454 0.750000
O O16 0.788295 0.332296 0.020079
O O17 0.886486 0.250000 0.000000
O O18 0.729190 0.121919 0.250000
#
# Coordination Sequence:
#
# PCOD9434065 Si02
#       7
#     8   8   8   8   8   8   8
#     4   8  14  26  42  58  84 121 152 174 210 259
#     4   9  18  30  42  58  90 128 157 185 221 261
#     4   9  18  30  43  63  89 115 145 185 225 262
#     4  10  17  27  43  61  85 124 158 181 212 258
#     4  10  18  27  42  66  89 117 157 194 221 253
#     4   9  19  34  52  70  91 117 145 182 232 280
#     4   9  16  30  48  64  89 124 150 178 227 278
#
# _framework density 17.531628000000001
#
# number of rings (size 3 to 8) (size 9 to 14) (size 15 to 20)
#    0.000    2.857    1.429    2.571    0.000    2.286 
#    0.000    2.143    0.000    0.000    0.000    1.000 
#    0.000    0.000    0.000    0.000    0.000    0.000 
#
# Total GULP energy -311950.774051 kJ/mol
# GULP energy per Si atom -5570.549537 kJ/mol
# Density = 1.749173 g / cm^3
# Si number density = 17.531628 Si / 1000 Ang^3
#
#
#
# Elastic Constant Matrix: (Units=GPa)
#
#
# Indices 1 2 3 4 5 6 
#
# 1 159.1298 51.8769 2.7279 0.0000 0.0000 0.0000
# 2 51.8769 66.0039 -2.1534 0.0000 0.0000 0.0000
# 3 2.7279 -2.1534 25.9377 0.0000 0.0000 0.0000
# 4 0.0000 0.0000 0.0000 16.2296 0.0000 0.0000
# 5 0.0000 0.0000 0.0000 0.0000 13.9119 0.0000
# 6 0.0000 0.0000 0.0000 0.0000 0.0000 14.9985
#
#
#
# Elastic Compliance Matrix: (Units=1/GPa)
#
#
# Indices 1 2 3 4 5 6 
#
# 1 0.008503 -0.006731 -0.001453 0.000000 0.000000 0.000000
# 2 -0.006731 0.020519 0.002411 0.000000 0.000000 0.000000
# 3 -0.001453 0.002411 0.038907 0.000000 0.000000 0.000000
# 4 0.000000 0.000000 0.000000 0.061616 0.000000 0.000000
# 5 0.000000 0.000000 0.000000 0.000000 0.071881 0.000000
# 6 0.000000 0.000000 0.000000 0.000000 0.000000 0.066673
#
#
# Mechanical properties :
#
#
# Convention : Reuss Voigt Hill
#
# Bulk Modulus (GPa) = 17.73529 39.55271 28.64400
# Shear Modulus (GPa) = 16.75380 22.26932 19.51156
#
# Velocity S-wave (km/s) = 3.09469 3.56790 3.33969
# Velocity P-wave (km/s) = 4.78618 6.29150 5.58975
#
# Compressibility (1/GPa) = 0.05638477
#
# Stress axis : x y z
#
# Youngs Moduli (GPa) = 117.60079 48.73426 25.70240
#
# Poissons Ratio (x) = 0.32802 0.03735
# Poissons Ratio (y) = 0.79154 -0.06198
# Poissons Ratio (z) = 0.17088 -0.11752
#
# Static dielectric constant tensor:
#      x y z
#    x 1.659940 0.000000 0.000000 
#    y 0.000000 1.572500 0.000000 
#    z 0.000000 0.000000 1.654970 
# 
# From -- ./inp_files/5916.got.cif
#   From: 2010.05.17/outbox.cif.g08.bks.cpg/sg57_3_cif.got.tgz:5916.got - 2010.06.03 13:58:18.
