data_PCOD9434030
_publ_section_title
;
Structure prediction by ZEFSAII (Michael W. Deem and Ramdas Pophale) SiO2 
 PCOD9434030
Probable space group: P B C M
;
_chemical_formula_sum "Si O2"
_cell_formula_units_Z 48
_cell_length_a 7.368756
_cell_length_b 33.200730
_cell_length_c 9.050080
_cell_angle_alpha 90.000000
_cell_angle_beta 90.000000
_cell_angle_gamma 90.000000
_cell_volume 2214.084681
_symmetry_space_group_name_H-M "P B C M"
_symmetry_group_IT_number 57
_symmetry_cell_setting 'orthorhombic'
loop_
_space_group_symop_operation_xyz
x,y,z
-x,-y,1/2+z
x,1/2-y,-z
-x,1/2+y,1/2-z
-x,-y,-z
x,y,1/2-z
-x,1/2+y,z
x,1/2-y,1/2+z
loop_
_atom_site_type_symbol
_atom_site_label
_atom_site_fract_x
_atom_site_fract_y
_atom_site_fract_z
Si Si1 0.034561 0.540318 0.585747
Si Si2 0.473315 0.708266 0.922539
Si Si3 0.530766 0.457433 0.081271
Si Si4 0.029506 0.710429 0.918990
Si Si5 0.936458 0.124889 0.567993
Si Si6 0.463923 0.875042 0.927127
O O1 0.963911 0.534567 0.750000
O O2 0.251134 0.545931 0.590618
O O3 0.964989 0.583315 0.528867
O O4 0.000000 0.500000 0.500000
O O5 0.524212 0.707202 0.750000
O O6 0.250842 0.708953 0.926964
O O7 0.530998 0.750000 0.000000
O O8 0.533503 0.667134 0.003538
O O9 0.462219 0.458166 0.250000
O O10 0.500000 0.500000 0.000000
O O11 0.465240 0.417338 0.995712
O O12 0.977969 0.714434 0.750000
O O13 0.967244 0.666579 0.971600
O O14 0.966301 0.750000 0.000000
O O15 0.906810 0.125002 0.750000
O O16 0.747245 0.125214 0.479972
O O17 0.478565 0.875076 0.750000
#
# Coordination Sequence:
#
# PCOD9434030 Si02
#       6
#     8   8   8   8   8   8
#     4   9  18  31  47  66  90 118 150 186 226 269
#     4   9  15  23  34  51  77 109 143 179 217 262
#     4  10  20  34  49  67  91 120 153 191 230 273
#     4   8  13  20  31  47  71 102 135 169 208 251
#     4   8  15  27  38  52  79 113 143 177 218 260
#     4  10  17  25  39  59  82 112 146 180 221 269
#
# _framework density 21.679389
#
# number of rings (size 3 to 8) (size 9 to 14) (size 15 to 20)
#    0.000    3.000    0.000    4.500    0.000    7.333 
#    0.000    0.000    0.000    0.000    0.000    0.000 
#    0.000    1.333    0.000    7.000    0.000   10.167 
#
# Total GULP energy -267552.827600 kJ/mol
# GULP energy per Si atom -5574.017242 kJ/mol
# Density = 2.163005 g / cm^3
# Si number density = 21.679389 Si / 1000 Ang^3
#
#
#
# Elastic Constant Matrix: (Units=GPa)
#
#
# Indices 1 2 3 4 5 6 
#
# 1 69.4610 9.2392 10.8816 0.0000 0.0000 0.0000
# 2 9.2392 311.1912 126.7538 0.0000 0.0000 0.0000
# 3 10.8816 126.7538 133.9597 0.0000 0.0000 0.0000
# 4 0.0000 0.0000 0.0000 46.9854 0.0000 0.0000
# 5 0.0000 0.0000 0.0000 0.0000 -0.1152 0.0000
# 6 0.0000 0.0000 0.0000 0.0000 0.0000 8.6864
#
#
#
# Elastic Compliance Matrix: (Units=1/GPa)
#
#
# Indices 1 2 3 4 5 6 
#
# 1 0.014583 0.000081 -0.001261 0.000000 0.000000 0.000000
# 2 0.000081 0.005229 -0.004954 0.000000 0.000000 0.000000
# 3 -0.001261 -0.004954 0.012255 0.000000 0.000000 0.000000
# 4 0.000000 0.000000 0.000000 0.021283 0.000000 0.000000
# 5 0.000000 0.000000 0.000000 0.000000 -8.678952 0.000000
# 6 0.000000 0.000000 0.000000 0.000000 0.000000 0.115123
#
#
# Mechanical properties :
#
#
# Convention : Reuss Voigt Hill
#
# Bulk Modulus (GPa) = 50.50913 89.81791 70.16352
# Shear Modulus (GPa) = -0.58882 35.62714 17.51916
#
# Velocity S-wave (km/s) = -0.52172 4.05824 2.84580
# Velocity P-wave (km/s) = 4.79436 7.96738 6.57514
#
# Compressibility (1/GPa) = 0.01979840
#
# Stress axis : x y z
#
# Youngs Moduli (GPa) = 68.57121 191.23935 81.59821
#
# Poissons Ratio (x) = -0.01542 0.10289
# Poissons Ratio (y) = -0.00553 0.40426
# Poissons Ratio (z) = 0.08646 0.94746
#
# Static dielectric constant tensor:
#      x y z
#    x 1.958120 0.000000 0.000000 
#    y 0.000000 1.859710 0.000000 
#    z 0.000000 0.000000 1.742760 
# 
# From -- ./inp_files/3515.got.cif
#   From: 2010.05.17/outbox.cif.g08.bks.cpg/sg57_2_cif.got.tgz:3515.got - 2010.06.03 13:58:18.
