data_PCOD9434247
_publ_section_title
;
Structure prediction by ZEFSAII (Michael W. Deem and Ramdas Pophale) SiO2 
 PCOD9434247
Probable space group: P B C M
;
_chemical_formula_sum "Si O2"
_cell_formula_units_Z 64
_cell_length_a 17.284234
_cell_length_b 24.215500
_cell_length_c 8.554298
_cell_angle_alpha 90.000000
_cell_angle_beta 90.000000
_cell_angle_gamma 90.000000
_cell_volume 3580.370362
_symmetry_space_group_name_H-M "P B C M"
_symmetry_group_IT_number 57
_symmetry_cell_setting 'orthorhombic'
loop_
_space_group_symop_operation_xyz
x,y,z
-x,-y,1/2+z
x,1/2-y,-z
-x,1/2+y,1/2-z
-x,-y,-z
x,y,1/2-z
-x,1/2+y,z
x,1/2-y,1/2+z
loop_
_atom_site_type_symbol
_atom_site_label
_atom_site_fract_x
_atom_site_fract_y
_atom_site_fract_z
Si Si1 0.792294 0.908891 0.935699
Si Si2 0.436544 0.691215 0.063285
Si Si3 0.085562 0.006697 0.435594
Si Si4 0.558118 0.609437 0.937089
Si Si5 0.743304 0.192298 0.437923
Si Si6 0.779429 0.071982 0.439768
Si Si7 0.692213 0.811123 0.564876
Si Si8 0.340124 0.013813 0.565782
O O1 0.776883 0.920010 0.750000
O O2 0.876232 0.933361 0.971029
O O3 0.771555 0.845295 0.961551
O O4 0.731058 0.943923 0.036277
O O5 0.440596 0.692868 0.250000
O O6 0.346940 0.688730 0.013475
O O7 0.468882 0.750000 0.000000
O O8 0.481645 0.637371 0.004990
O O9 0.083129 0.000402 0.250000
O O10 0.147408 0.962817 0.502023
O O11 0.000000 0.000000 0.500000
O O12 0.552633 0.606927 0.750000
O O13 0.586385 0.548807 0.996785
O O14 0.625113 0.652801 0.984948
O O15 0.775561 0.250000 0.500000
O O16 0.744752 0.193858 0.250000
O O17 0.782675 0.135531 0.489791
O O18 0.778610 0.069987 0.250000
O O19 0.698638 0.042841 0.494679
O O20 0.694939 0.750000 0.500000
O O21 0.676501 0.809942 0.750000
O O22 0.353956 0.006035 0.750000
#
# Coordination Sequence:
#
# PCOD9434247 Si02
#       8
#     8   8   8   8   8   8   8   8
#     4   8  16  29  44  63  91 121 150 183 221 263
#     4  10  19  31  45  63  88 122 162 206 250 291
#     4  10  19  32  52  79 103 124 150 184 226 276
#     4  10  18  28  42  63  90 122 159 201 242 283
#     4   9  19  34  53  73  95 124 161 202 245 288
#     4   9  17  33  54  75  98 126 157 194 238 286
#     4  10  18  28  42  62  88 121 157 193 229 270
#     4   8  15  27  45  66  90 120 155 191 232 279
#
# _framework density 17.875245
#
# number of rings (size 3 to 8) (size 9 to 14) (size 15 to 20)
#    0.000    2.750    0.000    1.875    0.000    2.500 
#    0.000    0.625    0.000    0.750    0.000    1.750 
#    0.000    0.000    0.000    0.000    0.000    0.000 
#
# Total GULP energy -356375.262312 kJ/mol
# GULP energy per Si atom -5568.363474 kJ/mol
# Density = 1.783456 g / cm^3
# Si number density = 17.875245 Si / 1000 Ang^3
#
#
#
# Elastic Constant Matrix: (Units=GPa)
#
#
# Indices 1 2 3 4 5 6 
#
# 1 42.0423 16.2560 5.5263 0.0000 0.0000 0.0000
# 2 16.2560 89.5025 6.2733 0.0000 0.0000 0.0000
# 3 5.5263 6.2733 19.7205 0.0000 0.0000 0.0000
# 4 0.0000 0.0000 0.0000 18.2791 0.0000 0.0000
# 5 0.0000 0.0000 0.0000 0.0000 17.3194 0.0000
# 6 0.0000 0.0000 0.0000 0.0000 0.0000 -28.3268
#
#
#
# Elastic Compliance Matrix: (Units=1/GPa)
#
#
# Indices 1 2 3 4 5 6 
#
# 1 0.026252 -0.004349 -0.005973 0.000000 0.000000 0.000000
# 2 -0.004349 0.012148 -0.002646 0.000000 0.000000 0.000000
# 3 -0.005973 -0.002646 0.053224 0.000000 0.000000 0.000000
# 4 0.000000 0.000000 0.000000 0.054707 0.000000 0.000000
# 5 0.000000 0.000000 0.000000 0.000000 0.057739 0.000000
# 6 0.000000 0.000000 0.000000 0.000000 0.000000 -0.035302
#
#
# Mechanical properties :
#
#
# Convention : Reuss Voigt Hill
#
# Bulk Modulus (GPa) = 15.22341 23.04184 19.13263
# Shear Modulus (GPa) = 23.08387 9.66831 16.37609
#
# Velocity S-wave (km/s) = 3.59749 2.32820 3.03005
# Velocity P-wave (km/s) = 5.07847 4.48840 4.79252
#
# Compressibility (1/GPa) = 0.06568832
#
# Stress axis : x y z
#
# Youngs Moduli (GPa) = 38.09162 82.31608 18.78846
#
# Poissons Ratio (x) = 0.35803 0.11223
# Poissons Ratio (y) = 0.16568 0.04971
# Poissons Ratio (z) = 0.22753 0.21778
#
# Static dielectric constant tensor:
#      x y z
#    x 1.613500 0.000000 0.000000 
#    y 0.000000 1.651820 0.000000 
#    z 0.000000 0.000000 1.620510 
# 
# From -- ./inp_files/5680.got.cif
#   From: 2010.05.17/outbox.cif.g08.bks.cpg/sg57_3_cif.got.tgz:5680.got - 2010.06.03 13:58:18.
