data_PCOD9434147
_publ_section_title
;
Structure prediction by ZEFSAII (Michael W. Deem and Ramdas Pophale) SiO2 
 PCOD9434147
Probable space group: P B C M
;
_chemical_formula_sum "Si O2"
_cell_formula_units_Z 64
_cell_length_a 9.218227
_cell_length_b 18.599299
_cell_length_c 21.085919
_cell_angle_alpha 90.000000
_cell_angle_beta 90.000000
_cell_angle_gamma 90.000000
_cell_volume 3615.234797
_symmetry_space_group_name_H-M "P B C M"
_symmetry_group_IT_number 57
_symmetry_cell_setting 'orthorhombic'
loop_
_space_group_symop_operation_xyz
x,y,z
-x,-y,1/2+z
x,1/2-y,-z
-x,1/2+y,1/2-z
-x,-y,-z
x,y,1/2-z
-x,1/2+y,z
x,1/2-y,1/2+z
loop_
_atom_site_type_symbol
_atom_site_label
_atom_site_fract_x
_atom_site_fract_y
_atom_site_fract_z
Si Si1 0.165871 0.366066 0.498207
Si Si2 0.827692 0.141063 0.476938
Si Si3 0.346551 0.431480 0.178098
Si Si4 0.486937 0.719918 0.822241
Si Si5 0.930041 0.666607 0.822252
Si Si6 0.642117 0.500052 0.954866
Si Si7 0.799908 0.282966 0.397725
Si Si8 0.253779 0.238773 0.398497
O O1 0.252632 0.437052 0.480696
O O2 0.212773 0.304124 0.447222
O O3 0.212720 0.333197 0.565716
O O4 0.993005 0.376835 0.502555
O O5 0.840478 0.203875 0.424107
O O6 0.751891 0.174947 0.539172
O O7 0.732065 0.073825 0.456708
O O8 0.354136 0.461558 0.250000
O O9 0.449259 0.361121 0.176442
O O10 0.183224 0.399086 0.168474
O O11 0.388351 0.480734 0.118859
O O12 0.503582 0.746238 0.750000
O O13 0.323315 0.721439 0.845420
O O14 0.581955 0.760889 0.874940
O O15 0.978532 0.664433 0.750000
O O16 0.837558 0.738706 0.836752
O O17 0.065506 0.673892 0.868267
O O18 0.500000 0.500000 0.000000
#
# Coordination Sequence:
#
# PCOD9434147 Si02
#       8
#     8   8   8   8   8   8   8   8
#     4  11  20  37  58  84 113 147 188 242 290 341
#     4  11  23  36  58  82 120 150 184 248 300 340
#     4   9  19  39  60  81 113 154 197 237 284 350
#     4  10  20  33  56  85 114 149 188 236 284 343
#     4  10  17  32  60  85 109 147 190 229 279 350
#     4  12  24  37  58  88 114 160 201 239 292 359
#     4  11  20  36  54  90 117 139 190 246 299 339
#     4  10  18  34  60  81 111 147 188 237 295 334
#
# _framework density 17.702860000000001
#
# number of rings (size 3 to 8) (size 9 to 14) (size 15 to 20)
#    0.000    1.500    5.000    3.375    1.750    1.000 
#    0.000    1.250    0.000    0.000    0.000    0.000 
#    0.000    0.000    0.000    0.000    0.000    0.000 
#
# Total GULP energy -356679.856601 kJ/mol
# GULP energy per Si atom -5573.122759 kJ/mol
# Density = 1.766257 g / cm^3
# Si number density = 17.702860 Si / 1000 Ang^3
#
#
#
# Elastic Constant Matrix: (Units=GPa)
#
#
# Indices 1 2 3 4 5 6 
#
# 1 78.1443 8.6149 39.2396 0.0000 0.0000 0.0000
# 2 8.6149 58.6250 38.0864 0.0000 0.0000 0.0000
# 3 39.2396 38.0864 120.4886 0.0000 0.0000 0.0000
# 4 0.0000 0.0000 0.0000 22.2732 0.0000 0.0000
# 5 0.0000 0.0000 0.0000 0.0000 31.9667 0.0000
# 6 0.0000 0.0000 0.0000 0.0000 0.0000 12.1673
#
#
#
# Elastic Compliance Matrix: (Units=1/GPa)
#
#
# Indices 1 2 3 4 5 6 
#
# 1 0.015371 0.001250 -0.005401 0.000000 0.000000 0.000000
# 2 0.001250 0.021567 -0.007225 0.000000 0.000000 0.000000
# 3 -0.005401 -0.007225 0.012342 0.000000 0.000000 0.000000
# 4 0.000000 0.000000 0.000000 0.044897 0.000000 0.000000
# 5 0.000000 0.000000 0.000000 0.000000 0.031283 0.000000
# 6 0.000000 0.000000 0.000000 0.000000 0.000000 0.082187
#
#
# Mechanical properties :
#
#
# Convention : Reuss Voigt Hill
#
# Bulk Modulus (GPa) = 37.69373 47.68219 42.68796
# Shear Modulus (GPa) = 20.89933 24.70256 22.80094
#
# Velocity S-wave (km/s) = 3.43966 3.73956 3.59274
# Velocity P-wave (km/s) = 6.09210 6.75566 6.43244
#
# Compressibility (1/GPa) = 0.02652961
#
# Stress axis : x y z
#
# Youngs Moduli (GPa) = 65.05702 46.36626 81.02281
#
# Poissons Ratio (x) = -0.05796 0.43761
# Poissons Ratio (y) = -0.08133 0.58536
# Poissons Ratio (z) = 0.35138 0.33498
#
# Static dielectric constant tensor:
#      x y z
#    x 1.635630 0.000000 0.000000 
#    y 0.000000 1.584690 0.000000 
#    z 0.000000 0.000000 1.640010 
# 
# From -- ./inp_files/24623.got.cif
#   From: 2010.05.17/outbox.cif.g08.bks.cpg/sg57_13_cif.got.tgz:24623.got - 2010.06.03 13:58:18.
