data_PCOD9434151
_publ_section_title
;
Structure prediction by ZEFSAII (Michael W. Deem and Ramdas Pophale) SiO2 
 PCOD9434151
Probable space group: P B C M
;
_chemical_formula_sum "Si O2"
_cell_formula_units_Z 48
_cell_length_a 9.469962
_cell_length_b 16.035595
_cell_length_c 18.592376
_cell_angle_alpha 90.000000
_cell_angle_beta 90.000000
_cell_angle_gamma 90.000000
_cell_volume 2823.372687
_symmetry_space_group_name_H-M "P B C M"
_symmetry_group_IT_number 57
_symmetry_cell_setting 'orthorhombic'
loop_
_space_group_symop_operation_xyz
x,y,z
-x,-y,1/2+z
x,1/2-y,-z
-x,1/2+y,1/2-z
-x,-y,-z
x,y,1/2-z
-x,1/2+y,z
x,1/2-y,1/2+z
loop_
_atom_site_type_symbol
_atom_site_label
_atom_site_fract_x
_atom_site_fract_y
_atom_site_fract_z
Si Si1 0.686712 0.997470 0.577783
Si Si2 0.029615 0.073788 0.058564
Si Si3 0.373983 0.956023 0.586629
Si Si4 0.795932 0.204198 0.070226
Si Si5 0.137776 0.862003 0.335870
Si Si6 0.871686 0.965386 0.165526
O O1 0.802549 0.924453 0.566674
O O2 0.536621 0.966907 0.606865
O O3 0.651310 0.033531 0.498850
O O4 0.763653 0.068483 0.625232
O O5 0.936638 0.154795 0.042603
O O6 0.964844 0.041061 0.133605
O O7 0.000000 0.000000 0.000000
O O8 0.309492 0.865149 0.601850
O O9 0.276026 0.025328 0.624784
O O10 0.831667 0.273299 0.128989
O O11 0.734351 0.250000 0.000000
O O12 0.159984 0.863991 0.250000
O O13 0.973790 0.887213 0.349539
O O14 0.850349 0.972302 0.250000
#
# Coordination Sequence:
#
# PCOD9434151 Si02
#       6
#     8   8   8   8   8   8
#     4  10  19  36  55  81 109 147 185 223 276 335
#     4  10  17  33  55  77 104 140 182 225 266 324
#     4  10  20  33  57  81 112 146 185 225 269 343
#     4  11  19  32  54  81 111 142 181 230 283 328
#     4  10  21  36  56  80 110 144 187 237 284 328
#     4   9  18  33  54  79 105 142 186 225 268 325
#
# _framework density 17.000942999999999
#
# number of rings (size 3 to 8) (size 9 to 14) (size 15 to 20)
#    0.000    2.000    5.000    1.000    0.000    3.333 
#    0.000    2.500    0.000    0.000    0.000    0.000 
#    0.000    0.000    0.000    0.000    0.000    0.000 
#
# Total GULP energy -267276.092286 kJ/mol
# GULP energy per Si atom -5568.251923 kJ/mol
# Density = 1.696225 g / cm^3
# Si number density = 17.000943 Si / 1000 Ang^3
#
#
#
# Elastic Constant Matrix: (Units=GPa)
#
#
# Indices 1 2 3 4 5 6 
#
# 1 153.6287 44.1560 29.6918 0.0000 0.0000 0.0000
# 2 44.1560 77.1839 31.2773 0.0000 0.0000 0.0000
# 3 29.6918 31.2773 74.1742 0.0000 0.0000 0.0000
# 4 0.0000 0.0000 0.0000 22.9206 0.0000 0.0000
# 5 0.0000 0.0000 0.0000 0.0000 14.0791 0.0000
# 6 0.0000 0.0000 0.0000 0.0000 0.0000 10.2670
#
#
#
# Elastic Compliance Matrix: (Units=1/GPa)
#
#
# Indices 1 2 3 4 5 6 
#
# 1 0.007930 -0.003920 -0.001521 0.000000 0.000000 0.000000
# 2 -0.003920 0.017564 -0.005837 0.000000 0.000000 0.000000
# 3 -0.001521 -0.005837 0.016552 0.000000 0.000000 0.000000
# 4 0.000000 0.000000 0.000000 0.043629 0.000000 0.000000
# 5 0.000000 0.000000 0.000000 0.000000 0.071027 0.000000
# 6 0.000000 0.000000 0.000000 0.000000 0.000000 0.097399
#
#
# Mechanical properties :
#
#
# Convention : Reuss Voigt Hill
#
# Bulk Modulus (GPa) = 51.31090 57.24857 54.27973
# Shear Modulus (GPa) = 17.65815 22.77744 20.21780
#
# Velocity S-wave (km/s) = 3.22632 3.66426 3.45224
# Velocity P-wave (km/s) = 6.64271 7.18675 6.92007
#
# Compressibility (1/GPa) = 0.01948904
#
# Stress axis : x y z
#
# Youngs Moduli (GPa) = 126.10406 56.93423 60.41526
#
# Poissons Ratio (x) = 0.22319 0.09191
# Poissons Ratio (y) = 0.49435 0.35265
# Poissons Ratio (z) = 0.19185 0.33233
#
# Static dielectric constant tensor:
#      x y z
#    x 1.607870 0.000000 0.000000 
#    y 0.000000 1.594210 0.000000 
#    z 0.000000 0.000000 1.591150 
# 
# From -- ./inp_files/20946.got.cif
#   From: 2010.05.17/outbox.cif.g08.bks.cpg/sg57_11_cif.got.tgz:20946.got - 2010.06.03 13:58:18.
