data_PCOD9434252
_publ_section_title
;
Structure prediction by ZEFSAII (Michael W. Deem and Ramdas Pophale) SiO2 
 PCOD9434252
Probable space group: P B C M
;
_chemical_formula_sum "Si O2"
_cell_formula_units_Z 64
_cell_length_a 17.174301
_cell_length_b 24.195879
_cell_length_c 8.354230
_cell_angle_alpha 90.000000
_cell_angle_beta 90.000000
_cell_angle_gamma 90.000000
_cell_volume 3471.577794
_symmetry_space_group_name_H-M "P B C M"
_symmetry_group_IT_number 57
_symmetry_cell_setting 'orthorhombic'
loop_
_space_group_symop_operation_xyz
x,y,z
-x,-y,1/2+z
x,1/2-y,-z
-x,1/2+y,1/2-z
-x,-y,-z
x,y,1/2-z
-x,1/2+y,z
x,1/2-y,1/2+z
loop_
_atom_site_type_symbol
_atom_site_label
_atom_site_fract_x
_atom_site_fract_y
_atom_site_fract_z
Si Si1 0.567667 0.691166 0.559564
Si Si2 0.554917 0.392247 0.939833
Si Si3 0.220939 0.071649 0.554187
Si Si4 0.658890 0.486874 0.561964
Si Si5 0.086048 0.986783 0.941702
Si Si6 0.205984 0.591096 0.938720
Si Si7 0.310080 0.811932 0.060733
Si Si8 0.253151 0.191854 0.942767
O O1 0.533030 0.750000 0.500000
O O2 0.567856 0.693416 0.750000
O O3 0.521261 0.636696 0.508927
O O4 0.656769 0.689107 0.501018
O O5 0.546092 0.397649 0.750000
O O6 0.586044 0.451617 0.005540
O O7 0.622787 0.347797 0.976949
O O8 0.223321 0.070426 0.750000
O O9 0.147822 0.034125 0.505202
O O10 0.214062 0.134944 0.503270
O O11 0.302542 0.043396 0.498291
O O12 0.643275 0.495364 0.750000
O O13 0.731877 0.444953 0.539420
O O14 0.087386 0.984453 0.750000
O O15 0.121628 0.930059 0.011055
O O16 0.000000 0.000000 0.000000
O O17 0.218570 0.579508 0.750000
O O18 0.229956 0.654354 0.966005
O O19 0.326951 0.812415 0.250000
O O20 0.307376 0.750000 0.000000
O O21 0.253701 0.192260 0.750000
O O22 0.219366 0.250000 0.000000
#
# Coordination Sequence:
#
# PCOD9434252 Si02
#       8
#     8   8   8   8   8   8   8   8
#     4  10  19  30  44  62  87 120 159 203 247 286
#     4  10  18  28  43  63  90 122 159 202 242 282
#     4   8  15  31  53  73  94 123 155 186 227 281
#     4   8  15  28  46  66  89 122 158 190 230 280
#     4  10  19  32  53  78 101 123 149 182 224 276
#     4   9  17  29  45  67  95 123 152 188 228 269
#     4  10  19  29  43  64  91 124 161 197 232 274
#     4   9  18  33  52  71  92 121 158 198 238 280
#
# _framework density 18.435421999999999
#
# number of rings (size 3 to 8) (size 9 to 14) (size 15 to 20)
#    0.000    2.750    0.000    3.000    0.000    2.500 
#    0.000    3.750    0.000    0.750    0.000    1.750 
#    0.000    0.000    0.000    0.000    0.000    0.000 
#
# Total GULP energy -356481.361027 kJ/mol
# GULP energy per Si atom -5570.021266 kJ/mol
# Density = 1.839346 g / cm^3
# Si number density = 18.435422 Si / 1000 Ang^3
#
#
#
# Elastic Constant Matrix: (Units=GPa)
#
#
# Indices 1 2 3 4 5 6 
#
# 1 38.8493 11.4873 2.0511 0.0000 0.0000 0.0000
# 2 11.4873 88.4038 3.4749 0.0000 0.0000 0.0000
# 3 2.0511 3.4749 21.4163 0.0000 0.0000 0.0000
# 4 0.0000 0.0000 0.0000 18.9731 0.0000 0.0000
# 5 0.0000 0.0000 0.0000 0.0000 11.5035 0.0000
# 6 0.0000 0.0000 0.0000 0.0000 0.0000 26.0650
#
#
#
# Elastic Compliance Matrix: (Units=1/GPa)
#
#
# Indices 1 2 3 4 5 6 
#
# 1 0.026855 -0.003410 -0.002019 0.000000 0.000000 0.000000
# 2 -0.003410 0.011817 -0.001591 0.000000 0.000000 0.000000
# 3 -0.002019 -0.001591 0.047145 0.000000 0.000000 0.000000
# 4 0.000000 0.000000 0.000000 0.052706 0.000000 0.000000
# 5 0.000000 0.000000 0.000000 0.000000 0.086930 0.000000
# 6 0.000000 0.000000 0.000000 0.000000 0.000000 0.038366
#
#
# Mechanical properties :
#
#
# Convention : Reuss Voigt Hill
#
# Bulk Modulus (GPa) = 13.93184 20.29954 17.11569
# Shear Modulus (GPa) = 16.56807 20.08539 18.32673
#
# Velocity S-wave (km/s) = 3.00110 3.30434 3.15636
# Velocity P-wave (km/s) = 4.42519 5.05898 4.75266
#
# Compressibility (1/GPa) = 0.07177803
#
# Stress axis : x y z
#
# Youngs Moduli (GPa) = 37.23637 84.62098 21.21127
#
# Poissons Ratio (x) = 0.28858 0.04282
# Poissons Ratio (y) = 0.12699 0.03374
# Poissons Ratio (z) = 0.07517 0.13461
#
# Static dielectric constant tensor:
#      x y z
#    x 1.644960 0.000000 0.000000 
#    y 0.000000 1.675990 0.000000 
#    z 0.000000 0.000000 1.654350 
# 
# From -- ./inp_files/7349.got.cif
#   From: 2010.05.17/outbox.cif.g08.bks.cpg/sg57_4_cif.got.tgz:7349.got - 2010.06.03 13:58:18.
