data_PCOD9434570
_publ_section_title
;
Structure prediction by ZEFSAII (Michael W. Deem and Ramdas Pophale) SiO2 
 PCOD9434570
Probable space group: P B C M
;
_chemical_formula_sum "Si O2"
_cell_formula_units_Z 64
_cell_length_a 15.287117
_cell_length_b 30.638457
_cell_length_c 8.591402
_cell_angle_alpha 90.000000
_cell_angle_beta 90.000000
_cell_angle_gamma 90.000000
_cell_volume 4023.986544
_symmetry_space_group_name_H-M "P B C M"
_symmetry_group_IT_number 57
_symmetry_cell_setting 'orthorhombic'
loop_
_space_group_symop_operation_xyz
x,y,z
-x,-y,1/2+z
x,1/2-y,-z
-x,1/2+y,1/2-z
-x,-y,-z
x,y,1/2-z
-x,1/2+y,z
x,1/2-y,1/2+z
loop_
_atom_site_type_symbol
_atom_site_label
_atom_site_fract_x
_atom_site_fract_y
_atom_site_fract_z
Si Si1 0.172657 0.035847 0.061591
Si Si2 0.795112 0.203839 0.937315
Si Si3 0.455722 0.563452 0.562689
Si Si4 0.708474 0.114714 0.938515
Si Si5 0.866823 0.057756 0.436586
Si Si6 0.627048 0.970419 0.562896
Si Si7 0.960046 0.889056 0.562163
Si Si8 0.001410 0.703231 0.563792
O O1 0.171659 0.033466 0.250000
O O2 0.273917 0.037297 0.009246
O O3 0.118031 0.078472 0.015163
O O4 0.129287 0.991525 0.998794
O O5 0.794416 0.204725 0.750000
O O6 0.739669 0.162346 0.990265
O O7 0.896503 0.198796 0.987480
O O8 0.762714 0.250000 0.000000
O O9 0.461774 0.563061 0.750000
O O10 0.389406 0.601521 0.514554
O O11 0.552973 0.562734 0.495414
O O12 0.407447 0.518340 0.513761
O O13 0.712335 0.112910 0.750000
O O14 0.778450 0.079929 0.000898
O O15 0.865871 0.056937 0.250000
O O16 0.949318 0.087332 0.487311
O O17 0.627958 0.969886 0.750000
O O18 0.960935 0.886288 0.750000
O O19 0.954629 0.840356 0.495774
O O20 0.969637 0.750000 0.500000
O O21 0.999136 0.704377 0.750000
#
# Coordination Sequence:
#
# PCOD9434570 Si02
#       8
#     8   8   8   8   8   8   8   8
#     4  10  20  35  50  64  93 134 166 197 237 285
#     4   9  18  30  47  68  92 123 155 189 229 278
#     4   9  17  29  47  67  90 119 154 193 230 276
#     4  10  18  32  49  67  93 130 162 185 231 289
#     4  11  21  30  44  70  98 126 162 202 231 269
#     4   9  17  30  47  66  89 120 156 193 235 275
#     4  10  21  34  48  69  96 128 165 199 237 282
#     4  10  19  32  51  71  95 125 158 198 240 282
#
# _framework density 15.904624999999999
#
# number of rings (size 3 to 8) (size 9 to 14) (size 15 to 20)
#    0.000    2.250    2.500    1.125    0.000    3.000 
#    0.000    0.000    0.000    0.000    0.000    0.875 
#    0.000    4.000    0.000    0.000    0.000    0.000 
#
# Total GULP energy -356890.002917 kJ/mol
# GULP energy per Si atom -5576.406296 kJ/mol
# Density = 1.586843 g / cm^3
# Si number density = 15.904625 Si / 1000 Ang^3
#
#
#
# Elastic Constant Matrix: (Units=GPa)
#
#
# Indices 1 2 3 4 5 6 
#
# 1 64.6130 42.3279 12.4782 0.0000 0.0000 0.0000
# 2 42.3279 134.9355 21.7689 0.0000 0.0000 0.0000
# 3 12.4782 21.7689 6.8291 0.0000 0.0000 0.0000
# 4 0.0000 0.0000 0.0000 25.9748 0.0000 0.0000
# 5 0.0000 0.0000 0.0000 0.0000 17.4996 0.0000
# 6 0.0000 0.0000 0.0000 0.0000 0.0000 22.0834
#
#
#
# Elastic Compliance Matrix: (Units=1/GPa)
#
#
# Indices 1 2 3 4 5 6 
#
# 1 0.023973 -0.000933 -0.040828 0.000000 0.000000 0.000000
# 2 -0.000933 0.015293 -0.047044 0.000000 0.000000 0.000000
# 3 -0.040828 -0.047044 0.370993 0.000000 0.000000 0.000000
# 4 0.000000 0.000000 0.000000 0.038499 0.000000 0.000000
# 5 0.000000 0.000000 0.000000 0.000000 0.057144 0.000000
# 6 0.000000 0.000000 0.000000 0.000000 0.000000 0.045283
#
#
# Mechanical properties :
#
#
# Convention : Reuss Voigt Hill
#
# Bulk Modulus (GPa) = 4.29834 39.94752 22.12293
# Shear Modulus (GPa) = 6.20080 21.76507 13.98294
#
# Velocity S-wave (km/s) = 1.97667 3.70330 2.96830
# Velocity P-wave (km/s) = 2.81390 6.59222 5.06831
#
# Compressibility (1/GPa) = 0.23264775
#
# Stress axis : x y z
#
# Youngs Moduli (GPa) = 41.71354 65.38810 2.69547
#
# Poissons Ratio (x) = 0.06103 0.11005
# Poissons Ratio (y) = 0.03893 0.12681
# Poissons Ratio (z) = 1.70310 3.07614
#
# Static dielectric constant tensor:
#      x y z
#    x 1.531180 0.000000 0.000000 
#    y 0.000000 1.527710 0.000000 
#    z 0.000000 0.000000 1.541120 
# 
# From -- ./inp_files/5998.got.cif
#   From: 2010.05.17/outbox.cif.g08.bks.cpg/sg57_3_cif.got.tgz:5998.got - 2010.06.03 13:58:18.
