data_PCOD9434041
_publ_section_title
;
Structure prediction by ZEFSAII (Michael W. Deem and Ramdas Pophale) SiO2 
 PCOD9434041
Probable space group: P B C M
;
_chemical_formula_sum "Si O2"
_cell_formula_units_Z 64
_cell_length_a 4.997031
_cell_length_b 30.594027
_cell_length_c 23.654601
_cell_angle_alpha 90.000000
_cell_angle_beta 90.000000
_cell_angle_gamma 90.000000
_cell_volume 3616.298874
_symmetry_space_group_name_H-M "P B C M"
_symmetry_group_IT_number 57
_symmetry_cell_setting 'orthorhombic'
loop_
_space_group_symop_operation_xyz
x,y,z
-x,-y,1/2+z
x,1/2-y,-z
-x,1/2+y,1/2-z
-x,-y,-z
x,y,1/2-z
-x,1/2+y,z
x,1/2-y,1/2+z
loop_
_atom_site_type_symbol
_atom_site_label
_atom_site_fract_x
_atom_site_fract_y
_atom_site_fract_z
Si Si1 0.634680 0.529359 0.876732
Si Si2 0.951539 0.912408 0.631385
Si Si3 0.917713 0.178701 0.684447
Si Si4 0.378616 0.737244 0.314884
Si Si5 0.543280 0.054115 0.188012
Si Si6 0.136678 0.178476 0.183735
Si Si7 0.402426 0.120808 0.816297
Si Si8 0.134020 0.006817 0.060587
O O1 0.576142 0.496806 0.824807
O O2 0.611927 0.578497 0.855535
O O3 0.424184 0.513873 0.925533
O O4 0.931351 0.517647 0.896975
O O5 0.765709 0.935264 0.678591
O O6 0.875809 0.862174 0.640983
O O7 0.872980 0.941476 0.576832
O O8 0.263380 0.920518 0.644504
O O9 0.974921 0.191117 0.750000
O O10 0.768802 0.220813 0.658350
O O11 0.698874 0.140484 0.683229
O O12 0.194689 0.158324 0.663285
O O13 0.445721 0.750385 0.250000
O O14 0.650107 0.715008 0.336066
O O15 0.155033 0.699800 0.314075
O O16 0.630342 0.066899 0.250000
O O17 0.205051 0.166173 0.250000
O O18 0.335087 0.110825 0.750000
O O19 0.000000 0.000000 0.000000
#
# Coordination Sequence:
#
# PCOD9434041 Si02
#       8
#     8   8   8   8   8   8   8   8
#     4  10  20  32  49  71  90 119 158 191 233 283
#     4  10  20  30  45  67  89 122 160 192 232 279
#     4   9  17  28  42  62  93 132 161 182 218 265
#     4   9  17  27  40  60  90 129 161 183 214 260
#     4  10  18  29  43  63  95 124 149 181 225 279
#     4  10  17  26  41  62  91 121 154 190 219 261
#     4  10  18  29  46  69  99 127 156 193 226 270
#     4  10  21  37  52  66  91 122 155 202 247 283
#
# _framework density 17.697652999999999
#
# number of rings (size 3 to 8) (size 9 to 14) (size 15 to 20)
#    0.000    2.250    0.000    4.125    0.000    4.000 
#    0.000    3.750    0.000    0.000    0.000    0.000 
#    0.000   15.000    0.000    0.000    0.000    0.000 
#
# Total GULP energy -356336.440273 kJ/mol
# GULP energy per Si atom -5567.756879 kJ/mol
# Density = 1.765737 g / cm^3
# Si number density = 17.697653 Si / 1000 Ang^3
#
#
#
# Elastic Constant Matrix: (Units=GPa)
#
#
# Indices 1 2 3 4 5 6 
#
# 1 75.4851 -6.3724 -4.6650 0.0000 0.0000 0.0000
# 2 -6.3724 54.8622 7.4148 0.0000 0.0000 0.0000
# 3 -4.6650 7.4148 19.5540 0.0000 0.0000 0.0000
# 4 0.0000 0.0000 0.0000 11.4490 0.0000 0.0000
# 5 0.0000 0.0000 0.0000 0.0000 9.9284 0.0000
# 6 0.0000 0.0000 0.0000 0.0000 0.0000 24.1106
#
#
#
# Elastic Compliance Matrix: (Units=1/GPa)
#
#
# Indices 1 2 3 4 5 6 
#
# 1 0.013520 0.001196 0.002772 0.000000 0.000000 0.000000
# 2 0.001196 0.019318 -0.007040 0.000000 0.000000 0.000000
# 3 0.002772 -0.007040 0.054471 0.000000 0.000000 0.000000
# 4 0.000000 0.000000 0.000000 0.087344 0.000000 0.000000
# 5 0.000000 0.000000 0.000000 0.000000 0.100722 0.000000
# 6 0.000000 0.000000 0.000000 0.000000 0.000000 0.041476
#
#
# Mechanical properties :
#
#
# Convention : Reuss Voigt Hill
#
# Bulk Modulus (GPa) = 12.32066 15.85069 14.08568
# Shear Modulus (GPa) = 14.28370 19.33251 16.80810
#
# Velocity S-wave (km/s) = 2.84402 3.30870 3.08512
# Velocity P-wave (km/s) = 4.21444 4.85515 4.54610
#
# Compressibility (1/GPa) = 0.08116447
#
# Stress axis : x y z
#
# Youngs Moduli (GPa) = 73.96508 51.76561 18.35833
#
# Poissons Ratio (x) = -0.06190 -0.05089
# Poissons Ratio (y) = -0.08844 0.12924
# Poissons Ratio (z) = -0.20503 0.36443
#
# Static dielectric constant tensor:
#      x y z
#    x 1.618840 0.000000 0.000000 
#    y 0.000000 1.647180 0.000000 
#    z 0.000000 0.000000 1.599850 
# 
# From -- ./inp_files/23881.got.cif
#   From: 2010.05.17/outbox.cif.g08.bks.cpg/sg57_12_cif.got.tgz:23881.got - 2010.06.03 13:58:18.
