data_PCOD9434118
_publ_section_title
;
Structure prediction by ZEFSAII (Michael W. Deem and Ramdas Pophale) SiO2 
 PCOD9434118
Probable space group: P B C M
;
_chemical_formula_sum "Si O2"
_cell_formula_units_Z 36
_cell_length_a 8.695154
_cell_length_b 20.705650
_cell_length_c 8.198956
_cell_angle_alpha 90.000000
_cell_angle_beta 90.000000
_cell_angle_gamma 90.000000
_cell_volume 1476.130326
_symmetry_space_group_name_H-M "P B C M"
_symmetry_group_IT_number 57
_symmetry_cell_setting 'orthorhombic'
loop_
_space_group_symop_operation_xyz
x,y,z
-x,-y,1/2+z
x,1/2-y,-z
-x,1/2+y,1/2-z
-x,-y,-z
x,y,1/2-z
-x,1/2+y,z
x,1/2-y,1/2+z
loop_
_atom_site_type_symbol
_atom_site_label
_atom_site_fract_x
_atom_site_fract_y
_atom_site_fract_z
Si Si1 0.404368 0.119723 0.750000
Si Si2 0.234820 0.324287 0.560507
Si Si3 0.731463 0.332215 0.250000
Si Si4 0.173076 0.508108 0.065261
Si Si5 0.333087 0.977553 0.250000
Si Si6 0.129710 0.841909 0.576266
O O1 0.315555 0.135211 0.583138
O O2 0.494839 0.050738 0.750000
O O3 0.548483 0.170289 0.750000
O O4 0.244460 0.250000 0.500000
O O5 0.290373 0.330422 0.750000
O O6 0.054727 0.343470 0.563243
O O7 0.804744 0.309854 0.416198
O O8 0.764590 0.410570 0.250000
O O9 0.183374 0.480566 0.250000
O O10 0.194852 0.585181 0.081975
O O11 0.000000 0.500000 0.000000
O O12 0.284956 0.487406 0.916578
O O13 0.171508 0.812337 0.750000
#
# Coordination Sequence:
#
# PCOD9434118 Si02
#       6
#     4   8   4   8   4   8
#     4  10  21  37  58  81 113 153 183 228 279 356
#     4  11  22  38  60  80 109 151 196 232 280 342
#     4   8  17  33  56  76 108 136 178 224 289 316
#     4  10  17  30  55  87 115 141 183 234 288 343
#     4   8  18  32  50  79 107 147 175 220 280 324
#     4   9  19  34  56  85 110 145 188 236 284 332
#
# _framework density 24.388090999999999
#
# number of rings (size 3 to 8) (size 9 to 14) (size 15 to 20)
#    0.667    1.778    2.222    0.667    0.000    1.778 
#    0.000    1.111    0.000    1.333    0.000    0.000 
#    0.000    0.000    0.000    0.000    0.000    0.000 
#
# Total GULP energy -201043.582428 kJ/mol
# GULP energy per Si atom -5584.543956 kJ/mol
# Density = 2.433258 g / cm^3
# Si number density = 24.388091 Si / 1000 Ang^3
#
#
#
# Elastic Constant Matrix: (Units=GPa)
#
#
# Indices 1 2 3 4 5 6 
#
# 1 69.9618 11.9937 94.6932 0.0000 0.0000 0.0000
# 2 11.9937 64.3189 62.9809 0.0000 0.0000 0.0000
# 3 94.6932 62.9809 332.8659 0.0000 0.0000 0.0000
# 4 0.0000 0.0000 0.0000 48.8274 0.0000 0.0000
# 5 0.0000 0.0000 0.0000 0.0000 99.0176 0.0000
# 6 0.0000 0.0000 0.0000 0.0000 0.0000 64.6097
#
#
#
# Elastic Compliance Matrix: (Units=1/GPa)
#
#
# Indices 1 2 3 4 5 6 
#
# 1 0.023610 0.002669 -0.007222 0.000000 0.000000 0.000000
# 2 0.002669 0.019385 -0.004427 0.000000 0.000000 0.000000
# 3 -0.007222 -0.004427 0.005896 0.000000 0.000000 0.000000
# 4 0.000000 0.000000 0.000000 0.020480 0.000000 0.000000
# 5 0.000000 0.000000 0.000000 0.000000 0.010099 0.000000
# 6 0.000000 0.000000 0.000000 0.000000 0.000000 0.015478
#
#
# Mechanical properties :
#
#
# Convention : Reuss Voigt Hill
#
# Bulk Modulus (GPa) = 32.32929 89.60914 60.96921
# Shear Modulus (GPa) = 40.57824 62.32285 51.45054
#
# Velocity S-wave (km/s) = 4.08346 5.06064 4.59808
# Velocity P-wave (km/s) = 5.95969 8.42434 7.29683
#
# Compressibility (1/GPa) = 0.03093170
#
# Stress axis : x y z
#
# Youngs Moduli (GPa) = 42.35413 51.58699 169.60028
#
# Poissons Ratio (x) = -0.13767 1.22479
# Poissons Ratio (y) = -0.11303 0.75081
# Poissons Ratio (z) = 0.30586 0.22837
#
# Static dielectric constant tensor:
#      x y z
#    x 1.882160 0.000000 0.000000 
#    y 0.000000 1.986490 0.000000 
#    z 0.000000 0.000000 -3.114070 
# 
# From -- ./inp_files/1690.got.cif
#   From: 2010.05.17/outbox.cif.g08.bks.cpg/sg57_1_cif.got.tgz:1690.got - 2010.06.03 13:58:18.
