data_PCOD9434539
_publ_section_title
;
Structure prediction by ZEFSAII (Michael W. Deem and Ramdas Pophale) SiO2 
 PCOD9434539
Probable space group: P B C M
;
_chemical_formula_sum "Si O2"
_cell_formula_units_Z 56
_cell_length_a 15.724570
_cell_length_b 23.534715
_cell_length_c 8.691816
_cell_angle_alpha 90.000000
_cell_angle_beta 90.000000
_cell_angle_gamma 90.000000
_cell_volume 3216.608799
_symmetry_space_group_name_H-M "P B C M"
_symmetry_group_IT_number 57
_symmetry_cell_setting 'orthorhombic'
loop_
_space_group_symop_operation_xyz
x,y,z
-x,-y,1/2+z
x,1/2-y,-z
-x,1/2+y,1/2-z
-x,-y,-z
x,y,1/2-z
-x,1/2+y,z
x,1/2-y,1/2+z
loop_
_atom_site_type_symbol
_atom_site_label
_atom_site_fract_x
_atom_site_fract_y
_atom_site_fract_z
Si Si1 0.001369 0.310757 0.932852
Si Si2 0.841441 0.876653 0.433676
Si Si3 0.686913 0.314073 0.066057
Si Si4 0.095606 0.004738 0.433523
Si Si5 0.838527 0.389491 0.566486
Si Si6 0.333040 0.186156 0.565440
Si Si7 0.490749 0.685769 0.065920
O O1 0.014378 0.306618 0.750000
O O2 0.926651 0.355868 0.961610
O O3 0.975855 0.250000 0.000000
O O4 0.087164 0.332138 0.012405
O O5 0.846603 0.883803 0.250000
O O6 0.863470 0.936036 0.513674
O O7 0.748834 0.851751 0.472078
O O8 0.683363 0.310528 0.250000
O O9 0.698664 0.250000 0.000000
O O10 0.763219 0.353847 0.010570
O O11 0.597327 0.337805 0.000931
O O12 0.090753 0.002400 0.250000
O O13 0.149423 0.951951 0.497845
O O14 0.000000 0.000000 0.500000
O O15 0.825239 0.392164 0.750000
O O16 0.320636 0.250000 0.500000
O O17 0.341750 0.190108 0.750000
O O18 0.420186 0.161329 0.494570
O O19 0.488528 0.686521 0.250000
O O20 0.492103 0.750000 0.000000
#
# Coordination Sequence:
#
# PCOD9434539 Si02
#       7
#     8   8   8   8   8   8   8
#     4  11  23  36  54  79 112 148 182 226 278 333
#     4  11  23  38  58  81 111 147 189 234 278 331
#     4  11  21  35  56  84 117 151 187 230 279 336
#     4  12  24  40  61  82 108 145 192 237 280 329
#     4  11  23  39  58  82 111 146 189 234 279 331
#     4  10  20  34  54  83 115 149 185 228 278 333
#     4  10  18  31  53  80 112 149 185 227 275 333
#
# _framework density 17.409638999999999
#
# number of rings (size 3 to 8) (size 9 to 14) (size 15 to 20)
#    0.000    1.143    1.429    8.143    0.000    6.286 
#    0.000    0.000    0.000    0.857    0.000    0.000 
#    0.000    0.000    0.000    0.000    0.000    0.000 
#
# Total GULP energy -312962.010158 kJ/mol
# GULP energy per Si atom -5588.607324 kJ/mol
# Density = 1.737001 g / cm^3
# Si number density = 17.409639 Si / 1000 Ang^3
#
#
#
# Elastic Constant Matrix: (Units=GPa)
#
#
# Indices 1 2 3 4 5 6 
#
# 1 117.5644 14.1152 56.5306 0.0000 0.0000 0.0000
# 2 14.1152 57.9611 20.1962 0.0000 0.0000 0.0000
# 3 56.5306 20.1962 108.0956 0.0000 0.0000 0.0000
# 4 0.0000 0.0000 0.0000 29.6917 0.0000 0.0000
# 5 0.0000 0.0000 0.0000 0.0000 29.6148 0.0000
# 6 0.0000 0.0000 0.0000 0.0000 0.0000 6.1179
#
#
#
# Elastic Compliance Matrix: (Units=1/GPa)
#
#
# Indices 1 2 3 4 5 6 
#
# 1 0.011394 -0.000747 -0.005819 0.000000 0.000000 0.000000
# 2 -0.000747 0.018503 -0.003066 0.000000 0.000000 0.000000
# 3 -0.005819 -0.003066 0.012867 0.000000 0.000000 0.000000
# 4 0.000000 0.000000 0.000000 0.033679 0.000000 0.000000
# 5 0.000000 0.000000 0.000000 0.000000 0.033767 0.000000
# 6 0.000000 0.000000 0.000000 0.000000 0.000000 0.163456
#
#
# Mechanical properties :
#
#
# Convention : Reuss Voigt Hill
#
# Bulk Modulus (GPa) = 42.55454 51.70058 47.12756
# Shear Modulus (GPa) = 16.62429 25.93680 21.28055
#
# Velocity S-wave (km/s) = 3.09348 3.86397 3.49999
# Velocity P-wave (km/s) = 6.10374 7.04756 6.59256
#
# Compressibility (1/GPa) = 0.02349925
#
# Stress axis : x y z
#
# Youngs Moduli (GPa) = 87.76768 54.04422 77.71744
#
# Poissons Ratio (x) = 0.04038 0.45224
# Poissons Ratio (y) = 0.06557 0.23831
# Poissons Ratio (z) = 0.51072 0.16572
#
# Static dielectric constant tensor:
#      x y z
#    x 1.608900 0.000000 0.000000 
#    y 0.000000 1.574750 0.000000 
#    z 0.000000 0.000000 1.581110 
# 
# From -- ./inp_files/5105.got.cif
#   From: 2010.05.17/outbox.cif.g08.bks.cpg/sg57_3_cif.got.tgz:5105.got - 2010.06.03 13:58:18.
