data_PCOD9434340
_publ_section_title
;
Structure prediction by ZEFSAII (Michael W. Deem and Ramdas Pophale) SiO2 
 PCOD9434340
Probable space group: P B C M
;
_chemical_formula_sum "Si O2"
_cell_formula_units_Z 64
_cell_length_a 20.447831
_cell_length_b 20.482689
_cell_length_c 7.808578
_cell_angle_alpha 90.000000
_cell_angle_beta 90.000000
_cell_angle_gamma 90.000000
_cell_volume 3270.439886
_symmetry_space_group_name_H-M "P B C M"
_symmetry_group_IT_number 57
_symmetry_cell_setting 'orthorhombic'
loop_
_space_group_symop_operation_xyz
x,y,z
-x,-y,1/2+z
x,1/2-y,-z
-x,1/2+y,1/2-z
-x,-y,-z
x,y,1/2-z
-x,1/2+y,z
x,1/2-y,1/2+z
loop_
_atom_site_type_symbol
_atom_site_label
_atom_site_fract_x
_atom_site_fract_y
_atom_site_fract_z
Si Si1 0.119294 0.823264 0.954181
Si Si2 0.258288 0.322265 0.544091
Si Si3 0.856503 0.582083 0.040543
Si Si4 0.388779 0.120819 0.449334
Si Si5 0.029669 0.176357 0.043751
Si Si6 0.347245 0.977526 0.548878
Si Si7 0.201151 0.948239 0.451502
Si Si8 0.521587 0.073780 0.455592
O O1 0.117189 0.828516 0.750000
O O2 0.044706 0.831510 0.020870
O O3 0.140584 0.750000 0.000000
O O4 0.166481 0.879538 0.019696
O O5 0.235706 0.250000 0.500000
O O6 0.261016 0.328238 0.750000
O O7 0.206704 0.376219 0.484949
O O8 0.331139 0.335470 0.473395
O O9 0.858816 0.582778 0.250000
O O10 0.844635 0.507816 0.984402
O O11 0.920717 0.620845 0.980940
O O12 0.520516 0.081840 0.250000
O O13 0.360370 0.046735 0.457682
O O14 0.462171 0.118200 0.524887
O O15 0.027923 0.172424 0.250000
O O16 0.051859 0.250000 0.000000
O O17 0.359257 0.989964 0.750000
O O18 0.273551 0.953821 0.527826
O O19 0.402683 0.925650 0.488800
O O20 0.210067 0.958766 0.250000
O O21 0.395293 0.139367 0.250000
O O22 0.500000 0.000000 0.500000
#
# Coordination Sequence:
#
# PCOD9434340 Si02
#       8
#     8   8   8   8   8   8   8   8
#     4  10  21  38  58  81 104 131 168 212 261 316
#     4  10  19  31  47  69 100 140 180 214 253 304
#     4   9  18  33  51  74 104 139 175 212 255 304
#     4   9  16  30  48  67  96 135 173 210 259 314
#     4   9  18  34  55  76 104 138 175 215 255 304
#     4  10  18  29  47  75 104 129 166 217 263 305
#     4  11  21  35  55  77 106 142 173 210 262 316
#     4   8  15  26  44  68  94 126 164 207 255 303
#
# _framework density 19.569234000000002
#
# number of rings (size 3 to 8) (size 9 to 14) (size 15 to 20)
#    0.000    2.500    1.250    1.500    0.000    2.000 
#    0.000    1.250    0.000    0.750    0.000    1.750 
#    0.000    0.000    0.000    0.000    0.000    0.000 
#
# Total GULP energy -356736.051609 kJ/mol
# GULP energy per Si atom -5574.000806 kJ/mol
# Density = 1.952469 g / cm^3
# Si number density = 19.569234 Si / 1000 Ang^3
#
#
#
# Elastic Constant Matrix: (Units=GPa)
#
#
# Indices 1 2 3 4 5 6 
#
# 1 93.4910 45.9058 -6.0355 0.0000 0.0000 0.0000
# 2 45.9058 81.5313 -10.9670 0.0000 0.0000 0.0000
# 3 -6.0355 -10.9670 27.2397 0.0000 0.0000 0.0000
# 4 0.0000 0.0000 0.0000 18.3951 0.0000 0.0000
# 5 0.0000 0.0000 0.0000 0.0000 8.0893 0.0000
# 6 0.0000 0.0000 0.0000 0.0000 0.0000 26.6796
#
#
#
# Elastic Compliance Matrix: (Units=1/GPa)
#
#
# Indices 1 2 3 4 5 6 
#
# 1 0.014783 -0.008335 -0.000080 0.000000 0.000000 0.000000
# 2 -0.008335 0.017666 0.005266 0.000000 0.000000 0.000000
# 3 -0.000080 0.005266 0.038813 0.000000 0.000000 0.000000
# 4 0.000000 0.000000 0.000000 0.054362 0.000000 0.000000
# 5 0.000000 0.000000 0.000000 0.000000 0.123620 0.000000
# 6 0.000000 0.000000 0.000000 0.000000 0.000000 0.037482
#
#
# Mechanical properties :
#
#
# Convention : Reuss Voigt Hill
#
# Bulk Modulus (GPa) = 15.39267 28.89654 22.14461
# Shear Modulus (GPa) = 15.88918 22.19006 19.03962
#
# Velocity S-wave (km/s) = 2.85256 3.37103 3.12258
# Velocity P-wave (km/s) = 4.32808 5.47268 4.93368
#
# Compressibility (1/GPa) = 0.06496598
#
# Stress axis : x y z
#
# Youngs Moduli (GPa) = 67.64321 56.60508 25.76427
#
# Poissons Ratio (x) = 0.47178 0.00206
# Poissons Ratio (y) = 0.56377 -0.13567
# Poissons Ratio (z) = 0.00541 -0.29808
#
# Static dielectric constant tensor:
#      x y z
#    x 1.740910 0.000000 0.000000 
#    y 0.000000 1.647600 0.000000 
#    z 0.000000 0.000000 1.714130 
# 
# From -- ./inp_files/7277.got.cif
#   From: 2010.05.17/outbox.cif.g08.bks.cpg/sg57_4_cif.got.tgz:7277.got - 2010.06.03 13:58:18.
