data_PCOD9434734
_publ_section_title
;
Structure prediction by ZEFSAII (Michael W. Deem and Ramdas Pophale) SiO2 
 PCOD9434734
Probable space group: P B C M
;
_chemical_formula_sum "Si O2"
_cell_formula_units_Z 40
_cell_length_a 12.436895
_cell_length_b 9.362331
_cell_length_c 14.844985
_cell_angle_alpha 90.000000
_cell_angle_beta 90.000000
_cell_angle_gamma 90.000000
_cell_volume 1728.525227
_symmetry_space_group_name_H-M "P B C M"
_symmetry_group_IT_number 57
_symmetry_cell_setting 'orthorhombic'
loop_
_space_group_symop_operation_xyz
x,y,z
-x,-y,1/2+z
x,1/2-y,-z
-x,1/2+y,1/2-z
-x,-y,-z
x,y,1/2-z
-x,1/2+y,z
x,1/2-y,1/2+z
loop_
_atom_site_type_symbol
_atom_site_label
_atom_site_fract_x
_atom_site_fract_y
_atom_site_fract_z
Si Si1 0.455211 0.120469 0.933061
Si Si2 0.309680 0.863026 0.111517
Si Si3 0.934350 0.644157 0.859857
Si Si4 0.877375 0.544664 0.147304
Si Si5 0.259975 0.558483 0.096688
O O1 0.562345 0.154828 0.876372
O O2 0.356366 0.051412 0.879688
O O3 0.423171 0.250000 0.000000
O O4 0.500000 0.000000 0.000000
O O5 0.260649 0.712529 0.143626
O O6 0.246432 0.997569 0.150972
O O7 0.285495 0.895670 0.006060
O O8 0.927817 0.649153 0.750000
O O9 0.902575 0.801652 0.894515
O O10 0.849115 0.526626 0.891929
O O11 0.050789 0.585671 0.890131
O O12 0.914895 0.557417 0.250000
#
# Coordination Sequence:
#
# PCOD9434734 Si02
#       5
#     8   8   8   8   8
#     4  10  18  34  55  82 115 148 179 220 275 331
#     4  10  20  36  56  86 114 145 188 228 279 334
#     4  10  22  39  58  81 109 148 190 231 285 338
#     4  10  22  39  59  80 110 149 188 232 284 339
#     4  10  21  34  58  86 113 147 185 232 277 333
#
# _framework density 23.141114000000002
#
# number of rings (size 3 to 8) (size 9 to 14) (size 15 to 20)
#    0.000    2.000    4.000    1.200    5.600    3.200 
#    0.000    1.000    0.000    0.000    0.000    0.000 
#    0.000    0.000    0.000    0.000    0.000    0.000 
#
# Total GULP energy -223015.874978 kJ/mol
# GULP energy per Si atom -5575.396874 kJ/mol
# Density = 2.308844 g / cm^3
# Si number density = 23.141114 Si / 1000 Ang^3
#
#
#
# Elastic Constant Matrix: (Units=GPa)
#
#
# Indices 1 2 3 4 5 6 
#
# 1 93.6669 24.1274 0.4058 0.0000 0.0000 0.0000
# 2 24.1274 140.5237 7.8120 0.0000 0.0000 0.0000
# 3 0.4058 7.8120 41.1372 0.0000 0.0000 0.0000
# 4 0.0000 0.0000 0.0000 11.3104 0.0000 0.0000
# 5 0.0000 0.0000 0.0000 0.0000 33.7768 0.0000
# 6 0.0000 0.0000 0.0000 0.0000 0.0000 40.7235
#
#
#
# Elastic Compliance Matrix: (Units=1/GPa)
#
#
# Indices 1 2 3 4 5 6 
#
# 1 0.011173 -0.001933 0.000257 0.000000 0.000000 0.000000
# 2 -0.001933 0.007526 -0.001410 0.000000 0.000000 0.000000
# 3 0.000257 -0.001410 0.024574 0.000000 0.000000 0.000000
# 4 0.000000 0.000000 0.000000 0.088414 0.000000 0.000000
# 5 0.000000 0.000000 0.000000 0.000000 0.029606 0.000000
# 6 0.000000 0.000000 0.000000 0.000000 0.000000 0.024556
#
#
# Mechanical properties :
#
#
# Convention : Reuss Voigt Hill
#
# Bulk Modulus (GPa) = 26.95319 37.77981 32.36650
# Shear Modulus (GPa) = 24.46316 33.36099 28.91208
#
# Velocity S-wave (km/s) = 3.25488 3.80100 3.53849
# Velocity P-wave (km/s) = 5.07920 5.96865 5.54180
#
# Compressibility (1/GPa) = 0.03710136
#
# Stress axis : x y z
#
# Youngs Moduli (GPa) = 89.50284 132.86468 40.69316
#
# Poissons Ratio (x) = 0.25678 -0.01045
# Poissons Ratio (y) = 0.17297 0.05739
# Poissons Ratio (z) = -0.02298 0.18737
#
# Static dielectric constant tensor:
#      x y z
#    x 1.920110 0.000000 0.000000 
#    y 0.000000 1.913240 0.000000 
#    z 0.000000 0.000000 2.074090 
# 
# From -- ./inp_files/24863.got.cif
#   From: 2010.05.17/outbox.cif.g08.bks.cpg/sg57_13_cif.got.tgz:24863.got - 2010.06.03 13:58:18.
