data_PCOD9434294
_publ_section_title
;
Structure prediction by ZEFSAII (Michael W. Deem and Ramdas Pophale) SiO2 
 PCOD9434294
Probable space group: P B C M
;
_chemical_formula_sum "Si O2"
_cell_formula_units_Z 56
_cell_length_a 14.782831
_cell_length_b 8.787356
_cell_length_c 21.947703
_cell_angle_alpha 90.000000
_cell_angle_beta 90.000000
_cell_angle_gamma 90.000000
_cell_volume 2851.050486
_symmetry_space_group_name_H-M "P B C M"
_symmetry_group_IT_number 57
_symmetry_cell_setting 'orthorhombic'
loop_
_space_group_symop_operation_xyz
x,y,z
-x,-y,1/2+z
x,1/2-y,-z
-x,1/2+y,1/2-z
-x,-y,-z
x,y,1/2-z
-x,1/2+y,z
x,1/2-y,1/2+z
loop_
_atom_site_type_symbol
_atom_site_label
_atom_site_fract_x
_atom_site_fract_y
_atom_site_fract_z
Si Si1 0.221931 0.034709 0.029305
Si Si2 0.900328 0.968282 0.405837
Si Si3 0.461167 0.683396 0.896487
Si Si4 0.382930 0.512094 0.444397
Si Si5 0.914259 0.302490 0.430205
Si Si6 0.745928 0.707024 0.872329
Si Si7 0.403939 0.101731 0.319991
O O1 0.233825 0.183557 0.069835
O O2 0.176660 0.901390 0.068601
O O3 0.152775 0.048031 0.971483
O O4 0.320968 0.997459 0.003802
O O5 0.840583 0.872755 0.358392
O O6 0.000268 0.902188 0.411284
O O7 0.903771 0.147223 0.393297
O O8 0.526938 0.591550 0.942898
O O9 0.524855 0.781670 0.850783
O O10 0.409232 0.553932 0.858552
O O11 0.403315 0.814472 0.928212
O O12 0.320683 0.429334 0.393214
O O13 0.931953 0.250000 0.500000
O O14 0.692413 0.814110 0.826274
O O15 0.426633 0.072928 0.250000
#
# Coordination Sequence:
#
# PCOD9434294 Si02
#       7
#     8   8   8   8   8   8   8
#     4  10  19  32  48  73 111 145 174 215 255 307
#     4  10  18  30  47  75 106 136 172 206 247 307
#     4   9  19  35  55  75  99 133 178 219 269 322
#     4   9  18  34  50  74 104 138 175 214 259 316
#     4  10  18  28  48  73 103 143 174 203 246 299
#     4  10  20  33  50  74 105 137 172 214 261 312
#     4  10  20  36  56  76  97 128 172 227 274 313
#
# _framework density 19.641883
#
# number of rings (size 3 to 8) (size 9 to 14) (size 15 to 20)
#    0.000    2.286    0.000    5.571    0.000    4.571 
#    0.000   15.000    0.000    0.000    0.000    4.000 
#    0.000    0.000    0.000    0.000    0.000    0.000 
#
# Total GULP energy -312613.633942 kJ/mol
# GULP energy per Si atom -5582.386320 kJ/mol
# Density = 1.959718 g / cm^3
# Si number density = 19.641883 Si / 1000 Ang^3
#
#
#
# Elastic Constant Matrix: (Units=GPa)
#
#
# Indices 1 2 3 4 5 6 
#
# 1 86.3366 73.7557 18.9825 0.0000 0.0000 0.0000
# 2 73.7557 173.2583 42.8017 0.0000 0.0000 0.0000
# 3 18.9825 42.8017 31.4317 0.0000 0.0000 0.0000
# 4 0.0000 0.0000 0.0000 12.5603 0.0000 0.0000
# 5 0.0000 0.0000 0.0000 0.0000 8.9144 0.0000
# 6 0.0000 0.0000 0.0000 0.0000 0.0000 33.5449
#
#
#
# Elastic Compliance Matrix: (Units=1/GPa)
#
#
# Indices 1 2 3 4 5 6 
#
# 1 0.018211 -0.007588 -0.000665 0.000000 0.000000 0.000000
# 2 -0.007588 0.011859 -0.011567 0.000000 0.000000 0.000000
# 3 -0.000665 -0.011567 0.047968 0.000000 0.000000 0.000000
# 4 0.000000 0.000000 0.000000 0.079616 0.000000 0.000000
# 5 0.000000 0.000000 0.000000 0.000000 0.112178 0.000000
# 6 0.000000 0.000000 0.000000 0.000000 0.000000 0.029811
#
#
# Mechanical properties :
#
#
# Convention : Reuss Voigt Hill
#
# Bulk Modulus (GPa) = 26.04297 62.45628 44.24962
# Shear Modulus (GPa) = 14.20120 21.36969 17.78544
#
# Velocity S-wave (km/s) = 2.69179 3.30201 3.01239
# Velocity P-wave (km/s) = 4.79048 6.81206 5.88867
#
# Compressibility (1/GPa) = 0.03839809
#
# Stress axis : x y z
#
# Youngs Moduli (GPa) = 54.91113 84.32105 20.84738
#
# Poissons Ratio (x) = 0.63984 0.01387
# Poissons Ratio (y) = 0.41667 0.24114
# Poissons Ratio (z) = 0.03653 0.97532
#
# Static dielectric constant tensor:
#      x y z
#    x 1.725480 0.000000 0.000000 
#    y 0.000000 1.711330 0.000000 
#    z 0.000000 0.000000 1.683990 
# 
# From -- ./inp_files/25401.got.cif
#   From: 2010.05.17/outbox.cif.g08.bks.cpg/sg57_13_cif.got.tgz:25401.got - 2010.06.03 13:58:18.
