data_PCOD9434553
_publ_section_title
;
Structure prediction by ZEFSAII (Michael W. Deem and Ramdas Pophale) SiO2 
 PCOD9434553
Probable space group: P B C M
;
_chemical_formula_sum "Si O2"
_cell_formula_units_Z 40
_cell_length_a 6.574005
_cell_length_b 20.373872
_cell_length_c 18.449076
_cell_angle_alpha 90.000000
_cell_angle_beta 90.000000
_cell_angle_gamma 90.000000
_cell_volume 2471.031168
_symmetry_space_group_name_H-M "P B C M"
_symmetry_group_IT_number 57
_symmetry_cell_setting 'orthorhombic'
loop_
_space_group_symop_operation_xyz
x,y,z
-x,-y,1/2+z
x,1/2-y,-z
-x,1/2+y,1/2-z
-x,-y,-z
x,y,1/2-z
-x,1/2+y,z
x,1/2-y,1/2+z
loop_
_atom_site_type_symbol
_atom_site_label
_atom_site_fract_x
_atom_site_fract_y
_atom_site_fract_z
Si Si1 0.922180 0.364399 0.167159
Si Si2 0.157225 0.179287 0.535391
Si Si3 0.215460 0.491091 0.334543
Si Si4 0.886417 0.435546 0.969403
Si Si5 0.537512 0.405218 0.419919
O O1 0.923916 0.343199 0.250000
O O2 0.696874 0.373796 0.136281
O O3 0.044856 0.317727 0.113065
O O4 0.040504 0.434627 0.162581
O O5 0.170418 0.250000 0.500000
O O6 0.375427 0.146371 0.549187
O O7 0.021119 0.127859 0.488987
O O8 0.254983 0.505134 0.250000
O O9 0.147734 0.551699 0.384477
O O10 0.408416 0.459435 0.376112
O O11 0.676063 0.430823 0.014066
O O12 0.000000 0.500000 0.000000
#
# Coordination Sequence:
#
# PCOD9434553 Si02
#       5
#     8   8   8   8   8
#     4   9  18  33  55  80 106 135 175 225 270 311
#     4  10  22  36  53  78 108 145 182 217 262 321
#     4  10  19  31  51  84 112 134 172 224 275 318
#     4  11  19  35  57  80 107 139 179 223 268 316
#     4  10  18  31  56  79 110 135 179 221 268 319
#
# _framework density 16.187574000000001
#
# number of rings (size 3 to 8) (size 9 to 14) (size 15 to 20)
#    0.000    2.000    6.000    1.200    0.000    4.000 
#    0.000    1.000    0.000    1.200    0.000    0.000 
#    0.000    0.000    0.000    0.000    0.000    0.000 
#
# Total GULP energy -222968.716326 kJ/mol
# GULP energy per Si atom -5574.217908 kJ/mol
# Density = 1.615073 g / cm^3
# Si number density = 16.187574 Si / 1000 Ang^3
#
#
#
# Elastic Constant Matrix: (Units=GPa)
#
#
# Indices 1 2 3 4 5 6 
#
# 1 119.5275 45.6079 56.7139 0.0000 0.0000 0.0000
# 2 45.6079 73.9237 65.7573 0.0000 0.0000 0.0000
# 3 56.7139 65.7573 157.6717 0.0000 0.0000 0.0000
# 4 0.0000 0.0000 0.0000 23.9234 0.0000 0.0000
# 5 0.0000 0.0000 0.0000 0.0000 12.2889 0.0000
# 6 0.0000 0.0000 0.0000 0.0000 0.0000 7.7705
#
#
#
# Elastic Compliance Matrix: (Units=1/GPa)
#
#
# Indices 1 2 3 4 5 6 
#
# 1 0.011266 -0.005319 -0.001834 0.000000 0.000000 0.000000
# 2 -0.005319 0.024017 -0.008103 0.000000 0.000000 0.000000
# 3 -0.001834 -0.008103 0.010381 0.000000 0.000000 0.000000
# 4 0.000000 0.000000 0.000000 0.041800 0.000000 0.000000
# 5 0.000000 0.000000 0.000000 0.000000 0.081374 0.000000
# 6 0.000000 0.000000 0.000000 0.000000 0.000000 0.128691
#
#
# Mechanical properties :
#
#
# Convention : Reuss Voigt Hill
#
# Bulk Modulus (GPa) = 65.99823 76.36457 71.18140
# Shear Modulus (GPa) = 15.01079 20.99949 18.00514
#
# Velocity S-wave (km/s) = 3.04847 3.60566 3.33871
# Velocity P-wave (km/s) = 7.29728 8.03813 7.67665
#
# Compressibility (1/GPa) = 0.01515192
#
# Stress axis : x y z
#
# Youngs Moduli (GPa) = 88.76128 41.63680 96.32680
#
# Poissons Ratio (x) = 0.22148 0.17666
# Poissons Ratio (y) = 0.47216 0.78054
# Poissons Ratio (z) = 0.16278 0.33738
#
# Static dielectric constant tensor:
#      x y z
#    x 1.554680 0.000000 0.000000 
#    y 0.000000 1.514070 0.000000 
#    z 0.000000 0.000000 1.560430 
# 
# From -- ./inp_files/20103.got.cif
#   From: 2010.05.17/outbox.cif.g08.bks.cpg/sg57_11_cif.got.tgz:20103.got - 2010.06.03 13:58:18.
