data_PCOD9434310
_publ_section_title
;
Structure prediction by ZEFSAII (Michael W. Deem and Ramdas Pophale) SiO2 
 PCOD9434310
Probable space group: P B C M
;
_chemical_formula_sum "Si O2"
_cell_formula_units_Z 56
_cell_length_a 21.222813
_cell_length_b 18.937485
_cell_length_c 8.620622
_cell_angle_alpha 90.000000
_cell_angle_beta 90.000000
_cell_angle_gamma 90.000000
_cell_volume 3464.685764
_symmetry_space_group_name_H-M "P B C M"
_symmetry_group_IT_number 57
_symmetry_cell_setting 'orthorhombic'
loop_
_space_group_symop_operation_xyz
x,y,z
-x,-y,1/2+z
x,1/2-y,-z
-x,1/2+y,1/2-z
-x,-y,-z
x,y,1/2-z
-x,1/2+y,z
x,1/2-y,1/2+z
loop_
_atom_site_type_symbol
_atom_site_label
_atom_site_fract_x
_atom_site_fract_y
_atom_site_fract_z
Si Si1 0.562239 0.960885 0.436239
Si Si2 0.490637 0.828275 0.436358
Si Si3 0.935259 0.966391 0.436196
Si Si4 0.250576 0.827636 0.936363
Si Si5 0.882175 0.389803 0.561806
Si Si6 0.982264 0.672459 0.436037
Si Si7 0.634435 0.084507 0.564045
O O1 0.563750 0.965737 0.250000
O O2 0.548757 0.879683 0.480541
O O3 0.500000 0.000000 0.500000
O O4 0.619461 0.005452 0.505884
O O5 0.495184 0.750000 0.500000
O O6 0.489050 0.825611 0.250000
O O7 0.425205 0.866310 0.485583
O O8 0.937531 0.962132 0.250000
O O9 0.934443 0.888003 0.505017
O O10 0.884996 0.027007 0.480533
O O11 0.000000 0.000000 0.500000
O O12 0.250944 0.825950 0.750000
O O13 0.181014 0.851501 0.991427
O O14 0.265178 0.750000 0.000000
O O15 0.302772 0.882238 0.994925
O O16 0.882729 0.387281 0.750000
O O17 0.947006 0.351599 0.511094
O O18 0.968797 0.750000 0.500000
O O19 0.981928 0.672954 0.250000
O O20 0.636722 0.085041 0.750000
#
# Coordination Sequence:
#
# PCOD9434310 Si02
#       7
#     8   8   8   8   8   8   8
#     4   9  17  30  46  66  90 119 152 189 229 273
#     4   9  18  29  44  66  92 117 146 181 223 267
#     4   9  16  29  46  65  89 118 151 189 230 276
#     4  11  21  33  47  66  92 124 157 190 224 264
#     4   8  17  31  46  64  90 122 156 188 224 269
#     4  10  18  29  45  68  94 121 152 189 231 276
#     4  10  20  33  46  65  91 123 159 192 224 267
#
# _framework density 16.163080999999998
#
# number of rings (size 3 to 8) (size 9 to 14) (size 15 to 20)
#    0.000    2.571    0.000    4.714    0.000    4.571 
#    0.000    7.857    0.000    0.000    0.000    1.000 
#    0.000    4.571    0.000    0.000    0.000    0.000 
#
# Total GULP energy -311941.278495 kJ/mol
# GULP energy per Si atom -5570.379973 kJ/mol
# Density = 1.612629 g / cm^3
# Si number density = 16.163081 Si / 1000 Ang^3
#
#
#
# Elastic Constant Matrix: (Units=GPa)
#
#
# Indices 1 2 3 4 5 6 
#
# 1 17.2001 -6.9850 3.2123 0.0000 0.0000 0.0000
# 2 -6.9850 77.2201 14.2776 0.0000 0.0000 0.0000
# 3 3.2123 14.2776 41.5453 0.0000 0.0000 0.0000
# 4 0.0000 0.0000 0.0000 29.8423 0.0000 0.0000
# 5 0.0000 0.0000 0.0000 0.0000 16.9377 0.0000
# 6 0.0000 0.0000 0.0000 0.0000 0.0000 26.8935
#
#
#
# Elastic Compliance Matrix: (Units=1/GPa)
#
#
# Indices 1 2 3 4 5 6 
#
# 1 0.062317 0.006971 -0.007214 0.000000 0.000000 0.000000
# 2 0.006971 0.014608 -0.005559 0.000000 0.000000 0.000000
# 3 -0.007214 -0.005559 0.026538 0.000000 0.000000 0.000000
# 4 0.000000 0.000000 0.000000 0.033509 0.000000 0.000000
# 5 0.000000 0.000000 0.000000 0.000000 0.059040 0.000000
# 6 0.000000 0.000000 0.000000 0.000000 0.000000 0.037184
#
#
# Mechanical properties :
#
#
# Convention : Reuss Voigt Hill
#
# Bulk Modulus (GPa) = 10.88623 17.44169 14.16396
# Shear Modulus (GPa) = 18.15394 23.09874 20.62634
#
# Velocity S-wave (km/s) = 3.35501 3.78445 3.57618
# Velocity P-wave (km/s) = 4.66455 5.46906 5.08275
#
# Compressibility (1/GPa) = 0.09185920
#
# Stress axis : x y z
#
# Youngs Moduli (GPa) = 16.04687 68.45353 37.68112
#
# Poissons Ratio (x) = -0.47718 0.27183
# Poissons Ratio (y) = -0.11186 0.20948
# Poissons Ratio (z) = 0.11576 0.38056
#
# Static dielectric constant tensor:
#      x y z
#    x 1.509840 0.000000 0.000000 
#    y 0.000000 1.562640 0.000000 
#    z 0.000000 0.000000 1.544970 
# 
# From -- ./inp_files/8291.got.cif
#   From: 2010.05.17/outbox.cif.g08.bks.cpg/sg57_5_cif.got.tgz:8291.got - 2010.06.03 13:58:18.
