data_PCOD9434411
_publ_section_title
;
Structure prediction by ZEFSAII (Michael W. Deem and Ramdas Pophale) SiO2 
 PCOD9434411
Probable space group: P B C M
;
_chemical_formula_sum "Si O2"
_cell_formula_units_Z 48
_cell_length_a 9.468329
_cell_length_b 16.339884
_cell_length_c 16.390410
_cell_angle_alpha 90.000000
_cell_angle_beta 90.000000
_cell_angle_gamma 90.000000
_cell_volume 2535.783237
_symmetry_space_group_name_H-M "P B C M"
_symmetry_group_IT_number 57
_symmetry_cell_setting 'orthorhombic'
loop_
_space_group_symop_operation_xyz
x,y,z
-x,-y,1/2+z
x,1/2-y,-z
-x,1/2+y,1/2-z
-x,-y,-z
x,y,1/2-z
-x,1/2+y,z
x,1/2-y,1/2+z
loop_
_atom_site_type_symbol
_atom_site_label
_atom_site_fract_x
_atom_site_fract_y
_atom_site_fract_z
Si Si1 0.289101 0.053448 0.843739
Si Si2 0.348935 0.224498 0.906443
Si Si3 0.801050 0.885330 0.653605
Si Si4 0.462651 0.034439 0.088845
Si Si5 0.607097 0.301684 0.848140
Si Si6 0.877314 0.390632 0.651061
O O1 0.252173 0.070232 0.750000
O O2 0.279713 0.136479 0.893895
O O3 0.451127 0.023101 0.849688
O O4 0.195667 0.976569 0.873654
O O5 0.265131 0.294936 0.857854
O O6 0.511897 0.225249 0.875001
O O7 0.347220 0.250000 0.000000
O O8 0.797333 0.904959 0.750000
O O9 0.962058 0.884482 0.623300
O O10 0.701206 0.950136 0.607065
O O11 0.530624 0.123369 0.105639
O O12 0.500000 0.000000 0.000000
O O13 0.593373 0.311713 0.750000
O O14 0.771361 0.315661 0.869739
O O15 0.880510 0.392182 0.750000
#
# Coordination Sequence:
#
# PCOD9434411 Si02
#       6
#     8   8   8   8   8   8
#     4  10  18  32  52  76 101 132 173 222 263 303
#     4  11  21  33  50  77 106 135 172 217 263 310
#     4  10  19  36  57  77 102 141 178 210 259 324
#     4  10  18  30  49  75 102 130 166 209 250 300
#     4   9  17  34  54  71  94 134 173 204 248 312
#     4   8  17  33  56  78  99 130 177 220 257 309
#
# _framework density 18.929062999999999
#
# number of rings (size 3 to 8) (size 9 to 14) (size 15 to 20)
#    0.000    2.333    0.000    7.000    0.000    0.000 
#    0.000   10.000    0.000    4.000    0.000    0.000 
#    0.000    0.000    0.000    0.000    0.000    0.000 
#
# Total GULP energy -267373.871638 kJ/mol
# GULP energy per Si atom -5570.288992 kJ/mol
# Density = 1.888598 g / cm^3
# Si number density = 18.929063 Si / 1000 Ang^3
#
#
#
# Elastic Constant Matrix: (Units=GPa)
#
#
# Indices 1 2 3 4 5 6 
#
# 1 145.6853 23.5162 10.6001 0.0000 0.0000 0.0000
# 2 23.5162 48.1425 -10.7648 0.0000 0.0000 0.0000
# 3 10.6001 -10.7648 46.2898 0.0000 0.0000 0.0000
# 4 0.0000 0.0000 0.0000 0.4118 0.0000 0.0000
# 5 0.0000 0.0000 0.0000 0.0000 -2.6494 0.0000
# 6 0.0000 0.0000 0.0000 0.0000 0.0000 13.9783
#
#
#
# Elastic Compliance Matrix: (Units=1/GPa)
#
#
# Indices 1 2 3 4 5 6 
#
# 1 0.007784 -0.004431 -0.002813 0.000000 0.000000 0.000000
# 2 -0.004431 0.024434 0.006697 0.000000 0.000000 0.000000
# 3 -0.002813 0.006697 0.023805 0.000000 0.000000 0.000000
# 4 0.000000 0.000000 0.000000 2.428274 0.000000 0.000000
# 5 0.000000 0.000000 0.000000 0.000000 -0.377449 0.000000
# 6 0.000000 0.000000 0.000000 0.000000 0.000000 0.071540
#
#
# Mechanical properties :
#
#
# Convention : Reuss Voigt Hill
#
# Bulk Modulus (GPa) = 18.20588 31.86898 25.03743
# Shear Modulus (GPa) = 2.27501 16.79921 9.53711
#
# Velocity S-wave (km/s) = 1.09748 2.98230 2.24706
# Velocity P-wave (km/s) = 3.35333 5.36016 4.47080
#
# Compressibility (1/GPa) = 0.05492730
#
# Stress axis : x y z
#
# Youngs Moduli (GPa) = 128.46739 40.92717 42.00878
#
# Poissons Ratio (x) = 0.18136 0.11817
# Poissons Ratio (y) = 0.56928 -0.28133
# Poissons Ratio (z) = 0.36138 -0.27408
#
# Static dielectric constant tensor:
#      x y z
#    x 1.711670 0.000000 0.000000 
#    y 0.000000 1.691100 0.000000 
#    z 0.000000 0.000000 1.677480 
# 
# From -- ./inp_files/16366.got.cif
#   From: 2010.05.17/outbox.cif.g08.bks.cpg/sg57_9_cif.got.tgz:16366.got - 2010.06.03 13:58:18.
