data_PCOD9434906
_publ_section_title
;
Structure prediction by ZEFSAII (Michael W. Deem and Ramdas Pophale) SiO2 
 PCOD9434906
Probable space group: P B C M
;
_chemical_formula_sum "Si O2"
_cell_formula_units_Z 56
_cell_length_a 21.118683
_cell_length_b 14.288103
_cell_length_c 7.659332
_cell_angle_alpha 90.000000
_cell_angle_beta 90.000000
_cell_angle_gamma 90.000000
_cell_volume 2311.172165
_symmetry_space_group_name_H-M "P B C M"
_symmetry_group_IT_number 57
_symmetry_cell_setting 'orthorhombic'
loop_
_space_group_symop_operation_xyz
x,y,z
-x,-y,1/2+z
x,1/2-y,-z
-x,1/2+y,1/2-z
-x,-y,-z
x,y,1/2-z
-x,1/2+y,z
x,1/2-y,1/2+z
loop_
_atom_site_type_symbol
_atom_site_label
_atom_site_fract_x
_atom_site_fract_y
_atom_site_fract_z
Si Si1 0.419788 0.085834 0.035621
Si Si2 0.551486 0.372618 0.951449
Si Si3 0.988776 0.609184 0.542191
Si Si4 0.124313 0.851807 0.942942
Si Si5 0.312510 0.650605 0.458478
Si Si6 0.142168 0.441392 0.455478
Si Si7 0.719387 0.938428 0.546155
O O1 0.420825 0.081048 0.250000
O O2 0.347404 0.104647 0.979981
O O3 0.481020 0.145450 0.977734
O O4 0.436423 0.984029 0.959701
O O5 0.550825 0.341805 0.750000
O O6 0.616524 0.340876 0.038909
O O7 0.995753 0.627687 0.750000
O O8 0.916211 0.622541 0.479853
O O9 0.000000 0.500000 0.500000
O O10 0.047863 0.654596 0.445612
O O11 0.151067 0.862766 0.750000
O O12 0.139187 0.952054 0.033163
O O13 0.146054 0.750000 0.000000
O O14 0.281076 0.750000 0.500000
O O15 0.316294 0.641011 0.250000
O O16 0.285129 0.551638 0.521972
O O17 0.126986 0.451124 0.250000
O O18 0.213570 0.406210 0.471142
O O19 0.721743 0.918548 0.750000
#
# Coordination Sequence:
#
# PCOD9434906 Si02
#       7
#     8   8   8   8   8   8   8
#     4   8  14  25  40  60  82 102 132 174 216 254
#     4   8  14  25  41  58  77 104 136 173 215 254
#     4   9  17  31  50  70  93 121 153 192 233 274
#     4  10  20  33  50  72  96 123 155 192 232 274
#     4  10  19  30  43  59  84 117 149 181 219 264
#     4   9  19  33  47  66  95 128 158 188 226 273
#     4  10  19  29  44  65  89 117 148 182 218 262
#
# _framework density 24.230131
#
# number of rings (size 3 to 8) (size 9 to 14) (size 15 to 20)
#    0.000    2.857    0.000    2.571    0.000    5.143 
#    0.000    1.429    0.000    0.000    0.000    1.000 
#    0.000    4.571    0.000    0.000    0.000    0.000 
#
# Total GULP energy -311839.219419 kJ/mol
# GULP energy per Si atom -5568.557490 kJ/mol
# Density = 2.417498 g / cm^3
# Si number density = 24.230131 Si / 1000 Ang^3
#
#
#
# Elastic Constant Matrix: (Units=GPa)
#
#
# Indices 1 2 3 4 5 6 
#
# 1 220.1145 2.6112 -4.8325 0.0000 0.0000 0.0000
# 2 2.6112 28.2221 -6.9630 0.0000 0.0000 0.0000
# 3 -4.8325 -6.9630 59.8534 0.0000 0.0000 0.0000
# 4 0.0000 0.0000 0.0000 6.5184 0.0000 0.0000
# 5 0.0000 0.0000 0.0000 0.0000 18.0104 0.0000
# 6 0.0000 0.0000 0.0000 0.0000 0.0000 -12.1669
#
#
#
# Elastic Compliance Matrix: (Units=1/GPa)
#
#
# Indices 1 2 3 4 5 6 
#
# 1 0.004554 -0.000340 0.000328 0.000000 0.000000 0.000000
# 2 -0.000340 0.036506 0.004219 0.000000 0.000000 0.000000
# 3 0.000328 0.004219 0.017225 0.000000 0.000000 0.000000
# 4 0.000000 0.000000 0.000000 0.153412 0.000000 0.000000
# 5 0.000000 0.000000 0.000000 0.000000 0.055523 0.000000
# 6 0.000000 0.000000 0.000000 0.000000 0.000000 -0.082191
#
#
# Mechanical properties :
#
#
# Convention : Reuss Voigt Hill
#
# Bulk Modulus (GPa) = 14.99274 32.20239 23.59756
# Shear Modulus (GPa) = 25.14474 23.63068 24.38771
#
# Velocity S-wave (km/s) = 3.22490 3.12630 3.17599
# Velocity P-wave (km/s) = 4.47970 5.13330 4.81760
#
# Compressibility (1/GPa) = 0.06669897
#
# Stress axis : x y z
#
# Youngs Moduli (GPa) = 219.57117 27.39297 58.05571
#
# Poissons Ratio (x) = 0.00933 -0.01905
# Poissons Ratio (y) = 0.07475 -0.24496
# Poissons Ratio (z) = -0.07204 -0.11558
#
# Static dielectric constant tensor:
#      x y z
#    x 2.035800 0.000000 0.000000 
#    y 0.000000 1.971230 0.000000 
#    z 0.000000 0.000000 1.707990 
# 
# From -- ./inp_files/8349.got.cif
#   From: 2010.05.17/outbox.cif.g08.bks.cpg/sg57_5_cif.got.tgz:8349.got - 2010.06.03 13:58:18.
