data_PCOD9434824
_publ_section_title
;
Structure prediction by ZEFSAII (Michael W. Deem and Ramdas Pophale) SiO2 
 PCOD9434824
Probable space group: P B C M
;
_chemical_formula_sum "Si O2"
_cell_formula_units_Z 64
_cell_length_a 24.450479
_cell_length_b 15.926037
_cell_length_c 8.490588
_cell_angle_alpha 90.000000
_cell_angle_beta 90.000000
_cell_angle_gamma 90.000000
_cell_volume 3306.228457
_symmetry_space_group_name_H-M "P B C M"
_symmetry_group_IT_number 57
_symmetry_cell_setting 'orthorhombic'
loop_
_space_group_symop_operation_xyz
x,y,z
-x,-y,1/2+z
x,1/2-y,-z
-x,1/2+y,1/2-z
-x,-y,-z
x,y,1/2-z
-x,1/2+y,z
x,1/2-y,1/2+z
loop_
_atom_site_type_symbol
_atom_site_label
_atom_site_fract_x
_atom_site_fract_y
_atom_site_fract_z
Si Si1 0.131136 0.659924 0.440129
Si Si2 0.061602 0.498138 0.438891
Si Si3 0.561652 0.500446 0.940497
Si Si4 0.248701 0.902363 0.558449
Si Si5 0.366106 0.159114 0.559968
Si Si6 0.869480 0.840833 0.936827
Si Si7 0.633054 0.340714 0.940278
Si Si8 0.753678 0.900897 0.059422
O O1 0.112008 0.750000 0.500000
O O2 0.131424 0.660632 0.250000
O O3 0.093950 0.581824 0.491771
O O4 0.193368 0.642599 0.495473
O O5 0.061669 0.497772 0.250000
O O6 0.093797 0.416110 0.496398
O O7 0.000000 0.500000 0.500000
O O8 0.561626 0.500889 0.750000
O O9 0.594859 0.583189 0.992865
O O10 0.594185 0.416973 0.991524
O O11 0.500000 0.500000 0.000000
O O12 0.249026 0.900125 0.750000
O O13 0.304994 0.860289 0.504386
O O14 0.247103 0.000611 0.515344
O O15 0.383560 0.250000 0.500000
O O16 0.366266 0.159117 0.750000
O O17 0.303663 0.140060 0.509502
O O18 0.872802 0.841217 0.750000
O O19 0.886943 0.750000 0.000000
O O20 0.806982 0.857648 0.989097
O O21 0.633516 0.340250 0.750000
O O22 0.615256 0.250000 0.000000
O O23 0.757289 0.896448 0.250000
#
# Coordination Sequence:
#
# PCOD9434824 Si02
#       8
#     8   8   8   8   8   8   8   8
#     4  10  21  37  61  89 120 156 191 234 292 350
#     4  11  24  44  66  89 121 163 207 255 305 354
#     4  10  22  40  59  80 110 153 197 241 293 346
#     4   9  16  33  60  86 116 154 188 229 291 354
#     4  10  21  37  60  86 115 152 192 237 294 356
#     4  12  25  41  63  93 125 160 202 250 303 363
#     4  10  20  36  59  85 115 151 190 234 288 348
#     4  10  18  36  63  88 120 157 192 239 299 362
#
# _framework density 19.357403999999999
#
# number of rings (size 3 to 8) (size 9 to 14) (size 15 to 20)
#    0.000    1.750    2.500    2.250    0.000    4.500 
#    0.000    4.375    0.000    0.000    0.000    0.000 
#    0.000    0.000    0.000    0.000    0.000    0.000 
#
# Total GULP energy -357633.994967 kJ/mol
# GULP energy per Si atom -5588.031171 kJ/mol
# Density = 1.931335 g / cm^3
# Si number density = 19.357404 Si / 1000 Ang^3
#
#
#
# Elastic Constant Matrix: (Units=GPa)
#
#
# Indices 1 2 3 4 5 6 
#
# 1 161.2754 96.1457 30.9328 0.0000 0.0000 0.0000
# 2 96.1457 205.1233 33.2725 0.0000 0.0000 0.0000
# 3 30.9328 33.2725 29.1186 0.0000 0.0000 0.0000
# 4 0.0000 0.0000 0.0000 29.8418 0.0000 0.0000
# 5 0.0000 0.0000 0.0000 0.0000 27.4720 0.0000
# 6 0.0000 0.0000 0.0000 0.0000 0.0000 0.4830
#
#
#
# Elastic Compliance Matrix: (Units=1/GPa)
#
#
# Indices 1 2 3 4 5 6 
#
# 1 0.009408 -0.003423 -0.006083 0.000000 0.000000 0.000000
# 2 -0.003423 0.007230 -0.004625 0.000000 0.000000 0.000000
# 3 -0.006083 -0.004625 0.046089 0.000000 0.000000 0.000000
# 4 0.000000 0.000000 0.000000 0.033510 0.000000 0.000000
# 5 0.000000 0.000000 0.000000 0.000000 0.036401 0.000000
# 6 0.000000 0.000000 0.000000 0.000000 0.000000 2.070509
#
#
# Mechanical properties :
#
#
# Convention : Reuss Voigt Hill
#
# Bulk Modulus (GPa) = 29.01486 79.57994 54.29740
# Shear Modulus (GPa) = 2.22926 27.23711 14.73318
#
# Velocity S-wave (km/s) = 1.07431 3.75515 2.76182
# Velocity P-wave (km/s) = 4.06945 7.74608 6.18717
#
# Compressibility (1/GPa) = 0.03446509
#
# Stress axis : x y z
#
# Youngs Moduli (GPa) = 106.29342 138.31752 21.69736
#
# Poissons Ratio (x) = 0.47347 0.13198
# Poissons Ratio (y) = 0.36385 0.10035
# Poissons Ratio (z) = 0.64655 0.63969
#
# Static dielectric constant tensor:
#      x y z
#    x 1.655720 0.000000 0.000000 
#    y 0.000000 1.663190 0.000000 
#    z 0.000000 0.000000 1.669120 
# 
# From -- ./inp_files/9464.got.cif
#   From: 2010.05.17/outbox.cif.g08.bks.cpg/sg57_5_cif.got.tgz:9464.got - 2010.06.03 13:58:18.
