data_PCOD9434716
_publ_section_title
;
Structure prediction by ZEFSAII (Michael W. Deem and Ramdas Pophale) SiO2 
 PCOD9434716
Probable space group: P B C M
;
_chemical_formula_sum "Si O2"
_cell_formula_units_Z 32
_cell_length_a 19.496541
_cell_length_b 8.568893
_cell_length_c 9.977299
_cell_angle_alpha 90.000000
_cell_angle_beta 90.000000
_cell_angle_gamma 90.000000
_cell_volume 1666.845222
_symmetry_space_group_name_H-M "P B C M"
_symmetry_group_IT_number 57
_symmetry_cell_setting 'orthorhombic'
loop_
_space_group_symop_operation_xyz
x,y,z
-x,-y,1/2+z
x,1/2-y,-z
-x,1/2+y,1/2-z
-x,-y,-z
x,y,1/2-z
-x,1/2+y,z
x,1/2-y,1/2+z
loop_
_atom_site_type_symbol
_atom_site_label
_atom_site_fract_x
_atom_site_fract_y
_atom_site_fract_z
Si Si1 0.590876 0.483759 0.250000
Si Si2 0.560265 0.111570 0.250000
Si Si3 0.054544 0.403889 0.089802
Si Si4 0.807397 0.104425 0.098398
Si Si5 0.660656 0.438691 0.517241
O O1 0.572157 0.298357 0.250000
O O2 0.519608 0.574660 0.250000
O O3 0.636303 0.513700 0.380107
O O4 0.600162 0.040045 0.376350
O O5 0.035077 0.379606 0.250000
O O6 0.126063 0.496955 0.092301
O O7 0.063951 0.250000 0.000000
O O8 0.000000 0.500000 0.000000
O O9 0.798864 0.164769 0.250000
O O10 0.736665 0.015881 0.062814
O O11 0.816862 0.250000 0.000000
O O12 0.665670 0.250000 0.500000
#
# Coordination Sequence:
#
# PCOD9434716 Si02
#       5
#     4   4   8   8   8
#     4  10  20  32  52  78 103 144 183 236 283 346
#     4  10  18  34  52  74 107 140 185 232 285 342
#     4  11  24  43  64  93 126 161 199 242 293 350
#     4  10  21  37  61  88 116 152 197 244 292 348
#     4   9  18  33  53  78 107 141 189 232 284 341
#
# _framework density 19.197944
#
# number of rings (size 3 to 8) (size 9 to 14) (size 15 to 20)
#    0.000    2.000    1.250    2.250    5.250    4.000 
#    0.000    2.500    0.000    0.000    0.000    0.000 
#    0.000    0.000    0.000    0.000    0.000    0.000 
#
# Total GULP energy -178467.915178 kJ/mol
# GULP energy per Si atom -5577.122349 kJ/mol
# Density = 1.915425 g / cm^3
# Si number density = 19.197944 Si / 1000 Ang^3
#
#
#
# Elastic Constant Matrix: (Units=GPa)
#
#
# Indices 1 2 3 4 5 6 
#
# 1 120.7055 19.6191 63.5939 0.0000 0.0000 0.0000
# 2 19.6191 32.5437 38.0200 0.0000 0.0000 0.0000
# 3 63.5939 38.0200 185.4585 0.0000 0.0000 0.0000
# 4 0.0000 0.0000 0.0000 15.3656 0.0000 0.0000
# 5 0.0000 0.0000 0.0000 0.0000 36.5702 0.0000
# 6 0.0000 0.0000 0.0000 0.0000 0.0000 17.5019
#
#
#
# Elastic Compliance Matrix: (Units=1/GPa)
#
#
# Indices 1 2 3 4 5 6 
#
# 1 0.010294 -0.002737 -0.002968 0.000000 0.000000 0.000000
# 2 -0.002737 0.041133 -0.007494 0.000000 0.000000 0.000000
# 3 -0.002968 -0.007494 0.007946 0.000000 0.000000 0.000000
# 4 0.000000 0.000000 0.000000 0.065080 0.000000 0.000000
# 5 0.000000 0.000000 0.000000 0.000000 0.027345 0.000000
# 6 0.000000 0.000000 0.000000 0.000000 0.000000 0.057137
#
#
# Mechanical properties :
#
#
# Convention : Reuss Voigt Hill
#
# Bulk Modulus (GPa) = 30.32766 64.57485 47.45126
# Shear Modulus (GPa) = 20.29839 28.38586 24.34213
#
# Velocity S-wave (km/s) = 3.25518 3.84941 3.56470
# Velocity P-wave (km/s) = 5.47356 7.31209 6.45858
#
# Compressibility (1/GPa) = 0.03297320
#
# Stress axis : x y z
#
# Youngs Moduli (GPa) = 97.14862 24.31140 125.84644
#
# Poissons Ratio (x) = 0.06655 0.37357
# Poissons Ratio (y) = 0.26594 0.94307
# Poissons Ratio (z) = 0.28838 0.18218
#
# Static dielectric constant tensor:
#      x y z
#    x 1.655520 0.000000 0.000000 
#    y 0.000000 1.675490 0.000000 
#    z 0.000000 0.000000 1.684070 
# 
# From -- ./inp_files/7550.got.cif
#   From: 2010.05.17/outbox.cif.g08.bks.cpg/sg57_4_cif.got.tgz:7550.got - 2010.06.03 13:58:18.
