data_PCOD9434947
_publ_section_title
;
Structure prediction by ZEFSAII (Michael W. Deem and Ramdas Pophale) SiO2 
 PCOD9434947
Probable space group: P B C M
;
_chemical_formula_sum "Si O2"
_cell_formula_units_Z 64
_cell_length_a 24.040865
_cell_length_b 17.172627
_cell_length_c 8.302491
_cell_angle_alpha 90.000000
_cell_angle_beta 90.000000
_cell_angle_gamma 90.000000
_cell_volume 3427.640298
_symmetry_space_group_name_H-M "P B C M"
_symmetry_group_IT_number 57
_symmetry_cell_setting 'orthorhombic'
loop_
_space_group_symop_operation_xyz
x,y,z
-x,-y,1/2+z
x,1/2-y,-z
-x,1/2+y,1/2-z
-x,-y,-z
x,y,1/2-z
-x,1/2+y,z
x,1/2-y,1/2+z
loop_
_atom_site_type_symbol
_atom_site_label
_atom_site_fract_x
_atom_site_fract_y
_atom_site_fract_z
Si Si1 0.573595 0.577876 0.435869
Si Si2 0.629347 0.425827 0.937705
Si Si3 0.073847 0.335438 0.942986
Si Si4 0.863538 0.991395 0.054920
Si Si5 0.737780 0.509318 0.553901
Si Si6 0.031540 0.577862 0.444128
Si Si7 0.325010 0.166585 0.557064
Si Si8 0.469810 0.663304 0.562855
O O1 0.578806 0.554450 0.250000
O O2 0.595420 0.506850 0.543461
O O3 0.615695 0.648394 0.475175
O O4 0.511595 0.605113 0.472502
O O5 0.631693 0.404215 0.750000
O O6 0.691147 0.447092 0.998359
O O7 0.593327 0.362948 0.031565
O O8 0.075055 0.337091 0.750000
O O9 0.009969 0.353728 0.998962
O O10 0.091372 0.250000 0.000000
O O11 0.111445 0.407565 0.003478
O O12 0.862872 0.991545 0.250000
O O13 0.800535 0.002115 0.997144
O O14 0.905528 0.060440 0.000888
O O15 0.737657 0.506562 0.750000
O O16 0.715101 0.595079 0.510122
O O17 0.032722 0.581173 0.250000
O O18 0.000000 0.500000 0.500000
O O19 0.303923 0.250000 0.500000
O O20 0.331497 0.165763 0.750000
O O21 0.478626 0.750000 0.500000
O O22 0.483251 0.658987 0.750000
#
# Coordination Sequence:
#
# PCOD9434947 Si02
#       8
#     8   8   8   8   8   8   8   8
#     4  11  21  35  54  77 102 132 166 204 248 300
#     4  10  20  37  56  77 103 133 166 205 247 296
#     4  10  19  30  44  70 102 133 161 196 241 288
#     4   9  16  31  52  73  94 125 164 204 242 285
#     4   8  17  32  52  73  96 127 166 203 243 289
#     4   8  15  27  46  68  93 122 158 195 234 278
#     4  10  19  32  47  68  98 132 165 202 244 295
#     4  12  24  38  55  78 103 130 163 205 254 305
#
# _framework density 18.671737
#
# number of rings (size 3 to 8) (size 9 to 14) (size 15 to 20)
#    0.000    2.250    0.000    4.875    0.000    1.000 
#    0.000    5.000    0.000    0.750    0.000    1.750 
#    0.000    0.000    0.000    0.000    0.000    0.000 
#
# Total GULP energy -356885.277819 kJ/mol
# GULP energy per Si atom -5576.332466 kJ/mol
# Density = 1.862924 g / cm^3
# Si number density = 18.671737 Si / 1000 Ang^3
#
#
#
# Elastic Constant Matrix: (Units=GPa)
#
#
# Indices 1 2 3 4 5 6 
#
# 1 129.1932 8.7223 3.3930 0.0000 0.0000 0.0000
# 2 8.7223 15.9853 -6.7853 0.0000 0.0000 0.0000
# 3 3.3930 -6.7853 30.7231 0.0000 0.0000 0.0000
# 4 0.0000 0.0000 0.0000 18.4376 0.0000 0.0000
# 5 0.0000 0.0000 0.0000 0.0000 16.5126 0.0000
# 6 0.0000 0.0000 0.0000 0.0000 0.0000 17.8078
#
#
#
# Elastic Compliance Matrix: (Units=1/GPa)
#
#
# Indices 1 2 3 4 5 6 
#
# 1 0.008155 -0.005332 -0.002078 0.000000 0.000000 0.000000
# 2 -0.005332 0.072514 0.016604 0.000000 0.000000 0.000000
# 3 -0.002078 0.016604 0.036445 0.000000 0.000000 0.000000
# 4 0.000000 0.000000 0.000000 0.054237 0.000000 0.000000
# 5 0.000000 0.000000 0.000000 0.000000 0.060560 0.000000
# 6 0.000000 0.000000 0.000000 0.000000 0.000000 0.056155
#
#
# Mechanical properties :
#
#
# Convention : Reuss Voigt Hill
#
# Bulk Modulus (GPa) = 7.37995 20.72908 14.05451
# Shear Modulus (GPa) = 15.88078 21.92305 18.90192
#
# Velocity S-wave (km/s) = 2.91954 3.43028 3.18516
# Velocity P-wave (km/s) = 3.91484 5.17832 4.59026
#
# Compressibility (1/GPa) = 0.13550233
#
# Stress axis : x y z
#
# Youngs Moduli (GPa) = 122.62585 13.79038 27.43838
#
# Poissons Ratio (x) = 0.07353 0.05702
# Poissons Ratio (y) = 0.65381 -0.45558
# Poissons Ratio (z) = 0.25484 -0.22897
#
# Static dielectric constant tensor:
#      x y z
#    x 1.687890 0.000000 0.000000 
#    y 0.000000 1.628530 0.000000 
#    z 0.000000 0.000000 1.663160 
# 
# From -- ./inp_files/9486.got.cif
#   From: 2010.05.17/outbox.cif.g08.bks.cpg/sg57_5_cif.got.tgz:9486.got - 2010.06.03 13:58:18.
