data_PCOD9434154
_publ_section_title
;
Structure prediction by ZEFSAII (Michael W. Deem and Ramdas Pophale) SiO2 
 PCOD9434154
Probable space group: P B C M
;
_chemical_formula_sum "Si O2"
_cell_formula_units_Z 28
_cell_length_a 8.500789
_cell_length_b 16.528034
_cell_length_c 9.428887
_cell_angle_alpha 90.000000
_cell_angle_beta 90.000000
_cell_angle_gamma 90.000000
_cell_volume 1324.771160
_symmetry_space_group_name_H-M "P B C M"
_symmetry_group_IT_number 57
_symmetry_cell_setting 'orthorhombic'
loop_
_space_group_symop_operation_xyz
x,y,z
-x,-y,1/2+z
x,1/2-y,-z
-x,1/2+y,1/2-z
-x,-y,-z
x,y,1/2-z
-x,1/2+y,z
x,1/2-y,1/2+z
loop_
_atom_site_type_symbol
_atom_site_label
_atom_site_fract_x
_atom_site_fract_y
_atom_site_fract_z
Si Si1 0.586612 0.250000 0.500000
Si Si2 0.950108 0.855927 0.250000
Si Si3 0.678373 0.466888 0.250000
Si Si4 0.420173 0.153415 0.750000
Si Si5 0.155788 0.867319 0.999478
Si Si6 0.970689 0.547766 0.250000
O O1 0.486123 0.201362 0.613854
O O2 0.710126 0.187450 0.429804
O O3 0.766041 0.843752 0.250000
O O4 0.039561 0.823325 0.111386
O O5 0.976903 0.953510 0.250000
O O6 0.496809 0.437740 0.250000
O O7 0.746191 0.425902 0.394020
O O8 0.778636 0.550204 0.250000
O O9 0.047537 0.912182 0.887368
#
# Coordination Sequence:
#
# PCOD9434154 Si02
#       6
#     4   4   4   4   8   4
#     4  10  20  38  56  78 108 148 180 212 278 326
#     4  10  20  35  53  80 109 139 177 231 273 304
#     4   8  16  32  49  73 107 140 164 212 280 310
#     4  10  21  36  55  78 115 142 169 228 283 318
#     4   9  18  33  57  77 102 143 184 219 252 321
#     4  10  17  33  57  81 101 137 192 221 250 322
#
# _framework density 21.135725999999998
#
# number of rings (size 3 to 8) (size 9 to 14) (size 15 to 20)
#    0.000    2.857    0.000    5.143    0.000    1.143 
#    0.000   14.286    0.000    0.000    0.000    0.000 
#    0.000    0.000    0.000    0.000    0.000    0.000 
#
# Total GULP energy -155873.850733 kJ/mol
# GULP energy per Si atom -5566.923240 kJ/mol
# Density = 2.108762 g / cm^3
# Si number density = 21.135726 Si / 1000 Ang^3
#
#
#
# Elastic Constant Matrix: (Units=GPa)
#
#
# Indices 1 2 3 4 5 6 
#
# 1 117.0929 1.5020 21.5649 0.0000 0.0000 0.0000
# 2 1.5020 20.2877 7.9296 0.0000 0.0000 0.0000
# 3 21.5649 7.9296 91.7532 0.0000 0.0000 0.0000
# 4 0.0000 0.0000 0.0000 22.9571 0.0000 0.0000
# 5 0.0000 0.0000 0.0000 0.0000 5.7328 0.0000
# 6 0.0000 0.0000 0.0000 0.0000 0.0000 15.9824
#
#
#
# Elastic Compliance Matrix: (Units=1/GPa)
#
#
# Indices 1 2 3 4 5 6 
#
# 1 0.008927 0.000165 -0.002112 0.000000 0.000000 0.000000
# 2 0.000165 0.051017 -0.004448 0.000000 0.000000 0.000000
# 3 -0.002112 -0.004448 0.011780 0.000000 0.000000 0.000000
# 4 0.000000 0.000000 0.000000 0.043560 0.000000 0.000000
# 5 0.000000 0.000000 0.000000 0.000000 0.174435 0.000000
# 6 0.000000 0.000000 0.000000 0.000000 0.000000 0.062569
#
#
# Mechanical properties :
#
#
# Convention : Reuss Voigt Hill
#
# Bulk Modulus (GPa) = 16.96841 32.34743 24.65792
# Shear Modulus (GPa) = 12.99637 22.14360 17.56999
#
# Velocity S-wave (km/s) = 2.48241 3.24031 2.88634
# Velocity P-wave (km/s) = 4.03264 5.41639 4.77491
#
# Compressibility (1/GPa) = 0.05893303
#
# Stress axis : x y z
#
# Youngs Moduli (GPa) = 112.01783 19.60126 84.89195
#
# Poissons Ratio (x) = -0.00323 0.17933
# Poissons Ratio (y) = -0.01845 0.37758
# Poissons Ratio (z) = 0.23663 0.08718
#
# Static dielectric constant tensor:
#      x y z
#    x 1.779230 0.000000 0.000000 
#    y 0.000000 1.850370 0.000000 
#    z 0.000000 0.000000 1.741800 
# 
# From -- ./inp_files/1165.got.cif
#   From: 2010.05.17/outbox.cif.g08.bks.cpg/sg57_1_cif.got.tgz:1165.got - 2010.06.03 13:58:18.
