data_PCOD9434845
_publ_section_title
;
Structure prediction by ZEFSAII (Michael W. Deem and Ramdas Pophale) SiO2 
 PCOD9434845
Probable space group: P B C M
;
_chemical_formula_sum "Si O2"
_cell_formula_units_Z 64
_cell_length_a 15.923333
_cell_length_b 9.849456
_cell_length_c 21.320689
_cell_angle_alpha 90.000000
_cell_angle_beta 90.000000
_cell_angle_gamma 90.000000
_cell_volume 3343.855157
_symmetry_space_group_name_H-M "P B C M"
_symmetry_group_IT_number 57
_symmetry_cell_setting 'orthorhombic'
loop_
_space_group_symop_operation_xyz
x,y,z
-x,-y,1/2+z
x,1/2-y,-z
-x,1/2+y,1/2-z
-x,-y,-z
x,y,1/2-z
-x,1/2+y,z
x,1/2-y,1/2+z
loop_
_atom_site_type_symbol
_atom_site_label
_atom_site_fract_x
_atom_site_fract_y
_atom_site_fract_z
Si Si1 0.581368 0.591893 0.006993
Si Si2 0.046789 0.405240 0.879078
Si Si3 0.789821 0.761277 0.820690
Si Si4 0.304847 0.483163 0.618083
Si Si5 0.835682 0.909130 0.515959
Si Si6 0.725809 0.242211 0.177009
Si Si7 0.269109 0.480748 0.090994
Si Si8 0.075737 0.799099 0.177168
O O1 0.653198 0.551478 0.955767
O O2 0.561865 0.750000 0.000000
O O3 0.500000 0.500000 0.000000
O O4 0.619411 0.569309 0.076100
O O5 0.121332 0.316257 0.846481
O O6 0.073597 0.413102 0.951939
O O7 0.047940 0.555124 0.849682
O O8 0.964046 0.322139 0.862939
O O9 0.799980 0.713435 0.750000
O O10 0.724856 0.885979 0.826049
O O11 0.752296 0.645543 0.864614
O O12 0.226300 0.469481 0.569321
O O13 0.320390 0.631962 0.644331
O O14 0.815625 0.750000 0.500000
O O15 0.812820 0.992341 0.454048
O O16 0.702688 0.221124 0.250000
O O17 0.823846 0.286204 0.175742
O O18 0.715343 0.109944 0.134287
O O19 0.049043 0.787027 0.250000
#
# Coordination Sequence:
#
# PCOD9434845 Si02
#       8
#     8   8   8   8   8   8   8   8
#     4  11  24  42  70 101 128 163 203 252 305 381
#     4  11  23  38  59  85 118 163 214 270 320 366
#     4  11  19  36  66  89 115 167 217 256 311 367
#     4  10  19  39  65  90 124 159 206 257 299 363
#     4  10  18  38  62  82 116 156 208 257 304 366
#     4  11  24  40  62  96 128 162 214 268 313 368
#     4  11  22  40  65  92 128 160 207 258 306 377
#     4  11  23  40  57  85 123 163 216 265 316 377
#
# _framework density 19.139583999999999
#
# number of rings (size 3 to 8) (size 9 to 14) (size 15 to 20)
#    0.000    1.250    6.250    2.625    3.500    1.500 
#    0.000    2.500    0.000    4.500    0.000    0.000 
#    0.000    0.000    0.000    0.000    0.000    0.000 
#
# Total GULP energy -357270.249287 kJ/mol
# GULP energy per Si atom -5582.347645 kJ/mol
# Density = 1.909602 g / cm^3
# Si number density = 19.139584 Si / 1000 Ang^3
#
#
#
# Elastic Constant Matrix: (Units=GPa)
#
#
# Indices 1 2 3 4 5 6 
#
# 1 39.8702 12.2847 13.8929 0.0000 0.0000 0.0000
# 2 12.2847 102.2641 39.3650 0.0000 0.0000 0.0000
# 3 13.8929 39.3650 104.5004 0.0000 0.0000 0.0000
# 4 0.0000 0.0000 0.0000 30.6188 0.0000 0.0000
# 5 0.0000 0.0000 0.0000 0.0000 12.2046 0.0000
# 6 0.0000 0.0000 0.0000 0.0000 0.0000 27.4920
#
#
#
# Elastic Compliance Matrix: (Units=1/GPa)
#
#
# Indices 1 2 3 4 5 6 
#
# 1 0.026699 -0.002153 -0.002738 0.000000 0.000000 0.000000
# 2 -0.002153 0.011611 -0.004087 0.000000 0.000000 0.000000
# 3 -0.002738 -0.004087 0.011473 0.000000 0.000000 0.000000
# 4 0.000000 0.000000 0.000000 0.032660 0.000000 0.000000
# 5 0.000000 0.000000 0.000000 0.000000 0.081936 0.000000
# 6 0.000000 0.000000 0.000000 0.000000 0.000000 0.036374
#
#
# Mechanical properties :
#
#
# Convention : Reuss Voigt Hill
#
# Bulk Modulus (GPa) = 31.42213 41.96888 36.69550
# Shear Modulus (GPa) = 21.80364 26.13588 23.96976
#
# Velocity S-wave (km/s) = 3.37885 3.69933 3.54272
# Velocity P-wave (km/s) = 5.62807 6.34209 5.99572
#
# Compressibility (1/GPa) = 0.03182471
#
# Stress axis : x y z
#
# Youngs Moduli (GPa) = 37.45456 86.12773 87.16009
#
# Poissons Ratio (x) = 0.18545 0.23868
# Poissons Ratio (y) = 0.08065 0.35626
# Poissons Ratio (z) = 0.10257 0.35204
#
# Static dielectric constant tensor:
#      x y z
#    x 1.703320 0.000000 0.000000 
#    y 0.000000 1.667540 0.000000 
#    z 0.000000 0.000000 1.683460 
# 
# From -- ./inp_files/25618.got.cif
#   From: 2010.05.17/outbox.cif.g08.bks.cpg/sg57_13_cif.got.tgz:25618.got - 2010.06.03 13:58:18.
