data_PCOD9434292
_publ_section_title
;
Structure prediction by ZEFSAII (Michael W. Deem and Ramdas Pophale) SiO2 
 PCOD9434292
Probable space group: P B C M
;
_chemical_formula_sum "Si O2"
_cell_formula_units_Z 64
_cell_length_a 15.411135
_cell_length_b 24.505880
_cell_length_c 7.728706
_cell_angle_alpha 90.000000
_cell_angle_beta 90.000000
_cell_angle_gamma 90.000000
_cell_volume 2918.849579
_symmetry_space_group_name_H-M "P B C M"
_symmetry_group_IT_number 57
_symmetry_cell_setting 'orthorhombic'
loop_
_space_group_symop_operation_xyz
x,y,z
-x,-y,1/2+z
x,1/2-y,-z
-x,1/2+y,1/2-z
-x,-y,-z
x,y,1/2-z
-x,1/2+y,z
x,1/2-y,1/2+z
loop_
_atom_site_type_symbol
_atom_site_label
_atom_site_fract_x
_atom_site_fract_y
_atom_site_fract_z
Si Si1 0.887189 0.893708 0.953951
Si Si2 0.854216 0.492193 0.447529
Si Si3 0.573837 0.871335 0.458072
Si Si4 0.964386 0.311309 0.044477
Si Si5 0.388141 0.895521 0.458434
Si Si6 0.194847 0.875422 0.037837
Si Si7 0.659023 0.515209 0.543058
Si Si8 0.256305 0.188101 0.453504
O O1 0.869873 0.903026 0.750000
O O2 0.899486 0.954657 0.028616
O O3 0.806849 0.858628 0.030759
O O4 0.969595 0.855164 0.969619
O O5 0.884800 0.485285 0.250000
O O6 0.851139 0.431570 0.524672
O O7 0.752307 0.509069 0.453058
O O8 0.570386 0.873105 0.250000
O O9 0.475171 0.866031 0.522083
O O10 0.611522 0.929985 0.516240
O O11 0.644327 0.826102 0.505171
O O12 0.967943 0.317470 0.250000
O O13 0.866841 0.325932 0.986459
O O14 0.989224 0.250000 0.000000
O O15 0.386423 0.891327 0.250000
O O16 0.294414 0.874790 0.522451
O O17 0.392575 0.959768 0.503068
O O18 0.197783 0.877945 0.250000
O O19 0.672781 0.518365 0.750000
O O20 0.233401 0.250000 0.500000
O O21 0.244874 0.184267 0.250000
#
# Coordination Sequence:
#
# PCOD9434292 Si02
#       8
#     8   8   8   8   8   8   8   8
#     4  10  21  37  59  86 111 141 178 221 276 337
#     4   9  17  34  57  81 112 148 182 215 271 341
#     4  10  20  33  52  79 110 146 186 226 269 319
#     4  11  23  39  59  82 106 140 184 230 276 323
#     4   9  18  34  55  77 108 148 184 222 272 328
#     4   8  17  35  58  81 109 145 184 224 270 327
#     4  10  18  28  47  81 117 145 180 223 266 316
#     4  11  23  38  56  78 108 147 185 227 276 329
#
# _framework density 21.926447
#
# number of rings (size 3 to 8) (size 9 to 14) (size 15 to 20)
#    0.000    2.250    1.250    2.625    0.000    4.000 
#    0.000    5.625    0.000    1.500    0.000    0.000 
#    0.000    0.000    0.000    0.000    0.000    0.000 
#
# Total GULP energy -357245.982555 kJ/mol
# GULP energy per Si atom -5581.968477 kJ/mol
# Density = 2.187654 g / cm^3
# Si number density = 21.926447 Si / 1000 Ang^3
#
#
#
# Elastic Constant Matrix: (Units=GPa)
#
#
# Indices 1 2 3 4 5 6 
#
# 1 56.4468 19.0316 0.9640 0.0000 0.0000 0.0000
# 2 19.0316 20.2862 -0.2906 0.0000 0.0000 0.0000
# 3 0.9640 -0.2906 35.4970 0.0000 0.0000 0.0000
# 4 0.0000 0.0000 0.0000 13.4308 0.0000 0.0000
# 5 0.0000 0.0000 0.0000 0.0000 6.2286 0.0000
# 6 0.0000 0.0000 0.0000 0.0000 0.0000 49.3389
#
#
#
# Elastic Compliance Matrix: (Units=1/GPa)
#
#
# Indices 1 2 3 4 5 6 
#
# 1 0.025941 -0.024350 -0.000904 0.000000 0.000000 0.000000
# 2 -0.024350 0.072156 0.001252 0.000000 0.000000 0.000000
# 3 -0.000904 0.001252 0.028206 0.000000 0.000000 0.000000
# 4 0.000000 0.000000 0.000000 0.074456 0.000000 0.000000
# 5 0.000000 0.000000 0.000000 0.000000 0.160549 0.000000
# 6 0.000000 0.000000 0.000000 0.000000 0.000000 0.020268
#
#
# Mechanical properties :
#
#
# Convention : Reuss Voigt Hill
#
# Bulk Modulus (GPa) = 12.77131 16.84889 14.81010
# Shear Modulus (GPa) = 10.97263 19.96801 15.47032
#
# Velocity S-wave (km/s) = 2.23945 3.02102 2.65911
# Velocity P-wave (km/s) = 3.53895 4.45755 4.02454
#
# Compressibility (1/GPa) = 0.07830048
#
# Stress axis : x y z
#
# Youngs Moduli (GPa) = 38.54910 13.85884 35.45319
#
# Poissons Ratio (x) = 0.33746 0.03204
# Poissons Ratio (y) = 0.93865 -0.04439
# Poissons Ratio (z) = 0.03484 -0.01735
#
# Static dielectric constant tensor:
#      x y z
#    x 1.835670 0.000000 0.000000 
#    y 0.000000 1.734990 0.000000 
#    z 0.000000 0.000000 1.791120 
# 
# From -- ./inp_files/5754.got.cif
#   From: 2010.05.17/outbox.cif.g08.bks.cpg/sg57_3_cif.got.tgz:5754.got - 2010.06.03 13:58:18.
