data_PCOD9434157
_publ_section_title
;
Structure prediction by ZEFSAII (Michael W. Deem and Ramdas Pophale) SiO2 
 PCOD9434157
Probable space group: P B C M
;
_chemical_formula_sum "Si O2"
_cell_formula_units_Z 44
_cell_length_a 7.793148
_cell_length_b 9.688333
_cell_length_c 22.274719
_cell_angle_alpha 90.000000
_cell_angle_beta 90.000000
_cell_angle_gamma 90.000000
_cell_volume 1681.799487
_symmetry_space_group_name_H-M "P B C M"
_symmetry_group_IT_number 57
_symmetry_cell_setting 'orthorhombic'
loop_
_space_group_symop_operation_xyz
x,y,z
-x,-y,1/2+z
x,1/2-y,-z
-x,1/2+y,1/2-z
-x,-y,-z
x,y,1/2-z
-x,1/2+y,z
x,1/2-y,1/2+z
loop_
_atom_site_type_symbol
_atom_site_label
_atom_site_fract_x
_atom_site_fract_y
_atom_site_fract_z
Si Si1 0.538654 0.029640 0.879411
Si Si2 0.942117 0.798210 0.250000
Si Si3 0.031456 0.372798 0.113575
Si Si4 0.300040 0.713005 0.250000
Si Si5 0.354491 0.274402 0.566125
Si Si6 0.797723 0.365304 0.880117
Si Si7 0.647407 0.581944 0.250000
O O1 0.482879 0.187279 0.889745
O O2 0.666424 0.934680 0.917677
O O3 0.367406 0.946835 0.902410
O O4 0.596331 0.001615 0.810564
O O5 0.902591 0.849392 0.317321
O O6 0.836302 0.651257 0.250000
O O7 0.150199 0.827925 0.250000
O O8 0.171872 0.299614 0.072311
O O9 0.043731 0.535324 0.104980
O O10 0.854488 0.290144 0.105217
O O11 0.239476 0.634391 0.309202
O O12 0.505858 0.709009 0.250000
O O13 0.424464 0.250000 0.500000
#
# Coordination Sequence:
#
# PCOD9434157 Si02
#       7
#     8   4   8   4   8   8   4
#     4  10  22  39  61  90 121 159 202 260 320 378
#     4  10  17  33  61  86 122 162 202 243 326 373
#     4  10  20  36  60  85 118 157 202 250 313 376
#     4   8  17  31  51  83 124 152 191 245 305 382
#     4  11  23  41  61  86 121 166 213 261 310 372
#     4   9  19  35  55  83 118 154 195 252 312 371
#     4  10  18  36  62  93 126 156 201 260 321 381
#
# _framework density 26.162454
#
# number of rings (size 3 to 8) (size 9 to 14) (size 15 to 20)
#    0.000    2.182    1.818    1.091    0.000    4.364 
#    0.000    4.545    4.000    0.000    0.000    0.000 
#    0.000    0.000    0.000    0.000    0.000    0.000 
#
# Total GULP energy -245269.132695 kJ/mol
# GULP energy per Si atom -5574.298470 kJ/mol
# Density = 2.610291 g / cm^3
# Si number density = 26.162454 Si / 1000 Ang^3
#
#
#
# Elastic Constant Matrix: (Units=GPa)
#
#
# Indices 1 2 3 4 5 6 
#
# 1 106.8718 2.2443 4.8466 0.0000 0.0000 0.0000
# 2 2.2443 99.0930 -1.1218 0.0000 0.0000 0.0000
# 3 4.8466 -1.1218 66.8204 0.0000 0.0000 0.0000
# 4 0.0000 0.0000 0.0000 7.4401 0.0000 0.0000
# 5 0.0000 0.0000 0.0000 0.0000 -3.8664 0.0000
# 6 0.0000 0.0000 0.0000 0.0000 0.0000 37.0751
#
#
#
# Elastic Compliance Matrix: (Units=1/GPa)
#
#
# Indices 1 2 3 4 5 6 
#
# 1 0.009393 -0.000220 -0.000685 0.000000 0.000000 0.000000
# 2 -0.000220 0.010099 0.000186 0.000000 0.000000 0.000000
# 3 -0.000685 0.000186 0.015018 0.000000 0.000000 0.000000
# 4 0.000000 0.000000 0.000000 0.134407 0.000000 0.000000
# 5 0.000000 0.000000 0.000000 0.000000 -0.258639 0.000000
# 6 0.000000 0.000000 0.000000 0.000000 0.000000 0.026972
#
#
# Mechanical properties :
#
#
# Convention : Reuss Voigt Hill
#
# Bulk Modulus (GPa) = 30.23913 31.63596 30.93754
# Shear Modulus (GPa) = -99.43051 25.91749 -36.75651
#
# Velocity S-wave (km/s) = -6.17151 3.15085 -3.75231
# Velocity P-wave (km/s) = 6.26100 5.03543 2.63102
#
# Compressibility (1/GPa) = 0.03306974
#
# Stress axis : x y z
#
# Youngs Moduli (GPa) = 106.46572 99.02342 66.58546
#
# Poissons Ratio (x) = 0.02183 0.04561
# Poissons Ratio (y) = 0.02347 -0.01235
# Poissons Ratio (z) = 0.07293 -0.01837
#
# Static dielectric constant tensor:
#      x y z
#    x 2.193910 0.000000 0.000000 
#    y 0.000000 2.220850 0.000000 
#    z 0.000000 0.000000 1.998760 
# 
# From -- ./inp_files/26632.got.cif
#   From: 2010.05.17/outbox.cif.g08.bks.cpg/sg57_14_cif.got.tgz:26632.got - 2010.06.03 13:58:18.
