data_PCOD9434856
_publ_section_title
;
Structure prediction by ZEFSAII (Michael W. Deem and Ramdas Pophale) SiO2 
 PCOD9434856
Probable space group: P B C M
;
_chemical_formula_sum "Si O2"
_cell_formula_units_Z 56
_cell_length_a 22.546269
_cell_length_b 9.407491
_cell_length_c 14.974423
_cell_angle_alpha 90.000000
_cell_angle_beta 90.000000
_cell_angle_gamma 90.000000
_cell_volume 3176.132361
_symmetry_space_group_name_H-M "P B C M"
_symmetry_group_IT_number 57
_symmetry_cell_setting 'orthorhombic'
loop_
_space_group_symop_operation_xyz
x,y,z
-x,-y,1/2+z
x,1/2-y,-z
-x,1/2+y,1/2-z
-x,-y,-z
x,y,1/2-z
-x,1/2+y,z
x,1/2-y,1/2+z
loop_
_atom_site_type_symbol
_atom_site_label
_atom_site_fract_x
_atom_site_fract_y
_atom_site_fract_z
Si Si1 0.555141 0.100252 0.997386
Si Si2 0.249528 0.675382 0.404341
Si Si3 0.077914 0.429038 0.349532
Si Si4 0.620165 0.264025 0.852029
Si Si5 0.153602 0.897810 0.349542
Si Si6 0.032678 0.743496 0.106863
Si Si7 0.811618 0.910901 0.481015
O O1 0.593958 0.106516 0.087772
O O2 0.401365 0.873343 0.088311
O O3 0.521949 0.250000 0.000000
O O4 0.500000 0.000000 0.000000
O O5 0.258044 0.750000 0.500000
O O6 0.309598 0.710845 0.352905
O O7 0.193761 0.756122 0.360959
O O8 0.233389 0.512220 0.425716
O O9 0.103860 0.428111 0.250000
O O10 0.046866 0.582361 0.364771
O O11 0.128130 0.406753 0.423307
O O12 0.028523 0.306818 0.357514
O O13 0.598935 0.256920 0.750000
O O14 0.161572 0.956325 0.250000
O O15 0.086489 0.844934 0.362607
O O16 0.173104 0.006629 0.426766
O O17 0.030963 0.750000 0.000000
O O18 0.791498 0.750000 0.500000
#
# Coordination Sequence:
#
# PCOD9434856 Si02
#       7
#     8   8   8   8   8   8   8
#     4   8  18  34  54  88 125 162 195 239 290 340
#     4  10  18  39  63  85 116 154 204 249 297 358
#     4  12  25  40  59  84 114 149 194 247 311 379
#     4   9  18  32  61  92 119 160 205 244 283 341
#     4  11  22  39  64  87 112 152 201 251 303 366
#     4  12  23  42  58  82 112 147 193 245 309 376
#     4  11  25  41  58  87 119 158 196 253 317 367
#
# _framework density 17.631508
#
# number of rings (size 3 to 8) (size 9 to 14) (size 15 to 20)
#    0.857    0.571    4.286    3.000    2.000    1.714 
#    0.000    0.714    0.000    0.000    0.000    0.000 
#    0.000    0.000    0.000    0.000    0.000    0.000 
#
# Total GULP energy -311779.929585 kJ/mol
# GULP energy per Si atom -5567.498743 kJ/mol
# Density = 1.759138 g / cm^3
# Si number density = 17.631508 Si / 1000 Ang^3
#
#
#
# Elastic Constant Matrix: (Units=GPa)
#
#
# Indices 1 2 3 4 5 6 
#
# 1 72.9754 24.5676 25.8506 0.0000 0.0000 0.0000
# 2 24.5676 79.9396 11.4541 0.0000 0.0000 0.0000
# 3 25.8506 11.4541 142.3569 0.0000 0.0000 0.0000
# 4 0.0000 0.0000 0.0000 5.1320 0.0000 0.0000
# 5 0.0000 0.0000 0.0000 0.0000 3.6229 0.0000
# 6 0.0000 0.0000 0.0000 0.0000 0.0000 25.8028
#
#
#
# Elastic Compliance Matrix: (Units=1/GPa)
#
#
# Indices 1 2 3 4 5 6 
#
# 1 0.016160 -0.004599 -0.002564 0.000000 0.000000 0.000000
# 2 -0.004599 0.013964 -0.000288 0.000000 0.000000 0.000000
# 3 -0.002564 -0.000288 0.007513 0.000000 0.000000 0.000000
# 4 0.000000 0.000000 0.000000 0.194857 0.000000 0.000000
# 5 0.000000 0.000000 0.000000 0.000000 0.276021 0.000000
# 6 0.000000 0.000000 0.000000 0.000000 0.000000 0.038756
#
#
# Mechanical properties :
#
#
# Convention : Reuss Voigt Hill
#
# Bulk Modulus (GPa) = 43.98715 46.55738 45.27227
# Shear Modulus (GPa) = 8.77574 22.47150 15.62362
#
# Velocity S-wave (km/s) = 2.23341 3.57390 2.98001
# Velocity P-wave (km/s) = 5.62610 6.59496 6.12970
#
# Compressibility (1/GPa) = 0.02273391
#
# Stress axis : x y z
#
# Youngs Moduli (GPa) = 61.88142 71.61193 133.09404
#
# Poissons Ratio (x) = 0.32934 0.34131
# Poissons Ratio (y) = 0.28459 0.03839
# Poissons Ratio (z) = 0.15869 0.02066
#
# Static dielectric constant tensor:
#      x y z
#    x 1.541620 0.000000 0.000000 
#    y 0.000000 1.597840 0.000000 
#    z 0.000000 0.000000 1.652260 
# 
# From -- ./inp_files/19341.got.cif
#   From: 2010.05.17/outbox.cif.g08.bks.cpg/sg57_10_cif.got.tgz:19341.got - 2010.06.03 13:58:18.
