data_PCOD9434382
_publ_section_title
;
Structure prediction by ZEFSAII (Michael W. Deem and Ramdas Pophale) SiO2 
 PCOD9434382
Probable space group: P B C M
;
_chemical_formula_sum "Si O2"
_cell_formula_units_Z 56
_cell_length_a 18.495806
_cell_length_b 20.551755
_cell_length_c 8.990765
_cell_angle_alpha 90.000000
_cell_angle_beta 90.000000
_cell_angle_gamma 90.000000
_cell_volume 3417.581041
_symmetry_space_group_name_H-M "P B C M"
_symmetry_group_IT_number 57
_symmetry_cell_setting 'orthorhombic'
loop_
_space_group_symop_operation_xyz
x,y,z
-x,-y,1/2+z
x,1/2-y,-z
-x,1/2+y,1/2-z
-x,-y,-z
x,y,1/2-z
-x,1/2+y,z
x,1/2-y,1/2+z
loop_
_atom_site_type_symbol
_atom_site_label
_atom_site_fract_x
_atom_site_fract_y
_atom_site_fract_z
Si Si1 0.339023 0.440911 0.424224
Si Si2 0.961611 0.937238 0.428625
Si Si3 0.213020 0.887718 0.427751
Si Si4 0.485490 0.071055 0.429738
Si Si5 0.190192 0.459435 0.928363
Si Si6 0.640482 0.401641 0.577429
Si Si7 0.931710 0.318542 0.071200
O O1 0.336349 0.424387 0.250000
O O2 0.408293 0.408799 0.503860
O O3 0.263338 0.428548 0.505946
O O4 0.350355 0.519599 0.433897
O O5 0.958671 0.944646 0.250000
O O6 0.881712 0.932092 0.496281
O O7 0.010409 0.874529 0.463755
O O8 0.000000 0.000000 0.500000
O O9 0.215789 0.883852 0.250000
O O10 0.292219 0.872261 0.490056
O O11 0.147469 0.842787 0.481319
O O12 0.193812 0.962989 0.464023
O O13 0.482411 0.066143 0.250000
O O14 0.557698 0.111728 0.469881
O O15 0.500000 0.000000 0.500000
O O16 0.187721 0.453000 0.750000
O O17 0.647485 0.384296 0.750000
O O18 0.929175 0.312623 0.250000
O O19 0.950288 0.250000 0.000000
#
# Coordination Sequence:
#
# PCOD9434382 Si02
#       7
#     8   8   8   8   8   8   8
#     4   9  16  25  37  58  87 120 157 194 237 287
#     4  11  21  35  53  74 100 127 165 209 252 303
#     4   9  17  30  45  64  92 121 156 199 240 286
#     4   9  15  23  34  52  82 119 156 194 234 281
#     4  10  18  30  47  69  95 124 160 202 248 294
#     4   8  15  24  36  57  83 115 157 193 228 278
#     4  10  22  38  52  72  99 129 165 207 252 302
#
# _framework density 16.385857999999999
#
# number of rings (size 3 to 8) (size 9 to 14) (size 15 to 20)
#    0.000    2.571    1.429    2.571    0.000    6.286 
#    0.000    0.000    0.000    0.000    0.000    0.000 
#    0.000    1.143    0.000    5.714    0.000    6.571 
#
# Total GULP energy -311934.048219 kJ/mol
# GULP energy per Si atom -5570.250861 kJ/mol
# Density = 1.634856 g / cm^3
# Si number density = 16.385858 Si / 1000 Ang^3
#
#
#
# Elastic Constant Matrix: (Units=GPa)
#
#
# Indices 1 2 3 4 5 6 
#
# 1 178.6043 47.3796 63.8257 0.0000 0.0000 0.0000
# 2 47.3796 52.1218 31.2217 0.0000 0.0000 0.0000
# 3 63.8257 31.2217 57.0618 0.0000 0.0000 0.0000
# 4 0.0000 0.0000 0.0000 14.2656 0.0000 0.0000
# 5 0.0000 0.0000 0.0000 0.0000 35.9586 0.0000
# 6 0.0000 0.0000 0.0000 0.0000 0.0000 11.0020
#
#
#
# Elastic Compliance Matrix: (Units=1/GPa)
#
#
# Indices 1 2 3 4 5 6 
#
# 1 0.009729 -0.003459 -0.008990 0.000000 0.000000 0.000000
# 2 -0.003459 0.029770 -0.012420 0.000000 0.000000 0.000000
# 3 -0.008990 -0.012420 0.034376 0.000000 0.000000 0.000000
# 4 0.000000 0.000000 0.000000 0.070099 0.000000 0.000000
# 5 0.000000 0.000000 0.000000 0.000000 0.027810 0.000000
# 6 0.000000 0.000000 0.000000 0.000000 0.000000 0.090892
#
#
# Mechanical properties :
#
#
# Convention : Reuss Voigt Hill
#
# Bulk Modulus (GPa) = 41.42896 63.62686 52.52791
# Shear Modulus (GPa) = 15.60266 21.93597 18.76932
#
# Velocity S-wave (km/s) = 3.08913 3.66281 3.38813
# Velocity P-wave (km/s) = 6.16943 7.53677 6.88712
#
# Compressibility (1/GPa) = 0.02413771
#
# Stress axis : x y z
#
# Youngs Moduli (GPa) = 102.78413 33.59132 29.09021
#
# Poissons Ratio (x) = 0.11619 0.26152
# Poissons Ratio (y) = 0.35552 0.36129
# Poissons Ratio (z) = 0.92401 0.41719
#
# Static dielectric constant tensor:
#      x y z
#    x 1.593030 0.000000 0.000000 
#    y 0.000000 1.522260 0.000000 
#    z 0.000000 0.000000 1.548270 
# 
# From -- ./inp_files/6985.got.cif
#   From: 2010.05.17/outbox.cif.g08.bks.cpg/sg57_4_cif.got.tgz:6985.got - 2010.06.03 13:58:18.
