data_PCOD9434313
_publ_section_title
;
Structure prediction by ZEFSAII (Michael W. Deem and Ramdas Pophale) SiO2 
 PCOD9434313
Probable space group: P B C M
;
_chemical_formula_sum "Si O2"
_cell_formula_units_Z 64
_cell_length_a 22.574579
_cell_length_b 18.524235
_cell_length_c 8.619497
_cell_angle_alpha 90.000000
_cell_angle_beta 90.000000
_cell_angle_gamma 90.000000
_cell_volume 3604.473728
_symmetry_space_group_name_H-M "P B C M"
_symmetry_group_IT_number 57
_symmetry_cell_setting 'orthorhombic'
loop_
_space_group_symop_operation_xyz
x,y,z
-x,-y,1/2+z
x,1/2-y,-z
-x,1/2+y,1/2-z
-x,-y,-z
x,y,1/2-z
-x,1/2+y,z
x,1/2-y,1/2+z
loop_
_atom_site_type_symbol
_atom_site_label
_atom_site_fract_x
_atom_site_fract_y
_atom_site_fract_z
Si Si1 0.997685 0.918305 0.436940
Si Si2 0.379572 0.172391 0.564123
Si Si3 0.130743 0.076424 0.561999
Si Si4 0.240685 0.829930 0.934475
Si Si5 0.438605 0.470351 0.564427
Si Si6 0.316414 0.956128 0.064381
Si Si7 0.872886 0.087737 0.936756
Si Si8 0.741025 0.600799 0.937217
O O1 0.998025 0.920321 0.250000
O O2 0.932808 0.889997 0.485818
O O3 0.060975 0.885155 0.483359
O O4 0.000000 0.000000 0.500000
O O5 0.397112 0.250000 0.500000
O O6 0.381022 0.172971 0.750000
O O7 0.420384 0.107390 0.503603
O O8 0.311951 0.153539 0.511921
O O9 0.131074 0.071810 0.750000
O O10 0.191407 0.115914 0.513803
O O11 0.133048 0.994700 0.496721
O O12 0.240342 0.828650 0.750000
O O13 0.247480 0.750000 0.000000
O O14 0.292489 0.882471 0.993916
O O15 0.179254 0.864521 0.994149
O O16 0.500000 0.500000 0.500000
O O17 0.441300 0.464989 0.750000
O O18 0.383967 0.523658 0.524233
O O19 0.310516 0.954276 0.250000
O O20 0.276965 0.021949 0.999307
O O21 0.868323 0.087511 0.750000
O O22 0.739604 0.598809 0.750000
#
# Coordination Sequence:
#
# PCOD9434313 Si02
#       8
#     8   8   8   8   8   8   8   8
#     4   8  15  25  40  64  95 127 163 210 262 316
#     4  10  20  35  55  82 115 149 185 225 267 316
#     4   9  15  26  45  71  99 132 172 216 267 319
#     4  12  24  37  53  73 100 137 180 227 277 330
#     4  10  21  38  62  90 118 149 182 218 259 310
#     4  10  20  35  55  80 109 137 171 215 262 311
#     4  10  18  29  45  68  98 132 171 221 273 322
#     4   9  17  29  50  77 105 139 177 217 265 315
#
# _framework density 17.755713
#
# number of rings (size 3 to 8) (size 9 to 14) (size 15 to 20)
#    0.000    2.250    1.250    2.625    0.000    2.500 
#    0.000    0.625    0.000    3.750    0.000    1.750 
#    0.000    0.000    0.000    0.000    0.000    0.000 
#
# Total GULP energy -356782.142217 kJ/mol
# GULP energy per Si atom -5574.720972 kJ/mol
# Density = 1.771530 g / cm^3
# Si number density = 17.755713 Si / 1000 Ang^3
#
#
#
# Elastic Constant Matrix: (Units=GPa)
#
#
# Indices 1 2 3 4 5 6 
#
# 1 162.7413 58.9303 38.6322 0.0000 0.0000 0.0000
# 2 58.9303 92.2973 25.2941 0.0000 0.0000 0.0000
# 3 38.6322 25.2941 32.3774 0.0000 0.0000 0.0000
# 4 0.0000 0.0000 0.0000 23.1185 0.0000 0.0000
# 5 0.0000 0.0000 0.0000 0.0000 21.1034 0.0000
# 6 0.0000 0.0000 0.0000 0.0000 0.0000 15.9810
#
#
#
# Elastic Compliance Matrix: (Units=1/GPa)
#
#
# Indices 1 2 3 4 5 6 
#
# 1 0.009501 -0.003766 -0.008395 0.000000 0.000000 0.000000
# 2 -0.003766 0.015279 -0.007443 0.000000 0.000000 0.000000
# 3 -0.008395 -0.007443 0.046717 0.000000 0.000000 0.000000
# 4 0.000000 0.000000 0.000000 0.043255 0.000000 0.000000
# 5 0.000000 0.000000 0.000000 0.000000 0.047386 0.000000
# 6 0.000000 0.000000 0.000000 0.000000 0.000000 0.062574
#
#
# Mechanical properties :
#
#
# Convention : Reuss Voigt Hill
#
# Bulk Modulus (GPa) = 30.96948 59.23658 45.10303
# Shear Modulus (GPa) = 18.20288 23.01119 20.60704
#
# Velocity S-wave (km/s) = 3.20532 3.60389 3.41043
# Velocity P-wave (km/s) = 5.58378 7.12403 6.40041
#
# Compressibility (1/GPa) = 0.03228986
#
# Stress axis : x y z
#
# Youngs Moduli (GPa) = 105.25112 65.45091 21.40567
#
# Poissons Ratio (x) = 0.24647 0.17969
# Poissons Ratio (y) = 0.39635 0.15932
# Poissons Ratio (z) = 0.88355 0.48714
#
# Static dielectric constant tensor:
#      x y z
#    x 1.658870 0.000000 0.000000 
#    y 0.000000 1.565760 0.000000 
#    z 0.000000 0.000000 1.590130 
# 
# From -- ./inp_files/8427.got.cif
#   From: 2010.05.17/outbox.cif.g08.bks.cpg/sg57_5_cif.got.tgz:8427.got - 2010.06.03 13:58:18.
