data_PCOD9434124
_publ_section_title
;
Structure prediction by ZEFSAII (Michael W. Deem and Ramdas Pophale) SiO2 
 PCOD9434124
Probable space group: P B C M
;
_chemical_formula_sum "Si O2"
_cell_formula_units_Z 56
_cell_length_a 15.758801
_cell_length_b 8.198021
_cell_length_c 21.047124
_cell_angle_alpha 90.000000
_cell_angle_beta 90.000000
_cell_angle_gamma 90.000000
_cell_volume 2719.098608
_symmetry_space_group_name_H-M "P B C M"
_symmetry_group_IT_number 57
_symmetry_cell_setting 'orthorhombic'
loop_
_space_group_symop_operation_xyz
x,y,z
-x,-y,1/2+z
x,1/2-y,-z
-x,1/2+y,1/2-z
-x,-y,-z
x,y,1/2-z
-x,1/2+y,z
x,1/2-y,1/2+z
loop_
_atom_site_type_symbol
_atom_site_label
_atom_site_fract_x
_atom_site_fract_y
_atom_site_fract_z
Si Si1 0.782738 0.571495 0.130948
Si Si2 0.746852 0.299361 0.826222
Si Si3 0.915439 0.354513 0.629482
Si Si4 0.944819 0.036069 0.562439
Si Si5 0.572099 0.059564 0.176146
Si Si6 0.389860 0.176235 0.174331
Si Si7 0.129075 0.295281 0.750000
Si Si8 0.033146 0.639130 0.750000
O O1 0.771759 0.386925 0.157846
O O2 0.856111 0.559813 0.076744
O O3 0.685958 0.630376 0.126485
O O4 0.818040 0.688533 0.186261
O O5 0.749796 0.324096 0.750000
O O6 0.818823 0.408023 0.860389
O O7 0.652423 0.340547 0.849795
O O8 0.937174 0.246405 0.690567
O O9 0.987595 0.485831 0.617143
O O10 0.922418 0.224726 0.572083
O O11 0.000000 0.000000 0.500000
O O12 0.565974 0.111517 0.250000
O O13 0.477571 0.093001 0.152344
O O14 0.595124 0.869737 0.174034
O O15 0.371666 0.129443 0.250000
O O16 0.073702 0.462061 0.750000
O O17 0.068466 0.140418 0.750000
#
# Coordination Sequence:
#
# PCOD9434124 Si02
#       8
#     8   8   8   8   8   8   4   4
#     4  11  19  33  53  72 105 148 187 236 278 331
#     4  10  17  31  49  75 106 140 178 221 280 337
#     4  11  20  35  55  75 107 142 184 234 281 337
#     4  11  24  38  52  74 107 151 193 233 279 333
#     4   9  19  30  46  76 115 152 181 219 276 350
#     4  10  18  31  48  75 110 148 185 223 279 344
#     4  12  20  34  50  79 113 140 188 233 291 343
#     4  12  18  36  52  81 103 140 184 231 299 331
#
# _framework density 20.595058999999999
#
# number of rings (size 3 to 8) (size 9 to 14) (size 15 to 20)
#    0.000    1.429    6.429    1.286    0.000    3.429 
#    2.571    0.000    0.000    0.000    0.000    1.000 
#    0.000    2.286    0.000    0.571    0.000    0.429 
#
# Total GULP energy -312413.464443 kJ/mol
# GULP energy per Si atom -5578.811865 kJ/mol
# Density = 2.054818 g / cm^3
# Si number density = 20.595059 Si / 1000 Ang^3
#
#
#
# Elastic Constant Matrix: (Units=GPa)
#
#
# Indices 1 2 3 4 5 6 
#
# 1 198.3640 28.6963 37.6302 0.0000 0.0000 0.0000
# 2 28.6963 31.2456 9.6103 0.0000 0.0000 0.0000
# 3 37.6302 9.6103 64.9263 0.0000 0.0000 0.0000
# 4 0.0000 0.0000 0.0000 15.1212 0.0000 0.0000
# 5 0.0000 0.0000 0.0000 0.0000 22.8951 0.0000
# 6 0.0000 0.0000 0.0000 0.0000 0.0000 38.6277
#
#
#
# Elastic Compliance Matrix: (Units=1/GPa)
#
#
# Indices 1 2 3 4 5 6 
#
# 1 0.006304 -0.004889 -0.002930 0.000000 0.000000 0.000000
# 2 -0.004889 0.037322 -0.002691 0.000000 0.000000 0.000000
# 3 -0.002930 -0.002691 0.017499 0.000000 0.000000 0.000000
# 4 0.000000 0.000000 0.000000 0.066132 0.000000 0.000000
# 5 0.000000 0.000000 0.000000 0.000000 0.043677 0.000000
# 6 0.000000 0.000000 0.000000 0.000000 0.000000 0.025888
#
#
# Mechanical properties :
#
#
# Convention : Reuss Voigt Hill
#
# Bulk Modulus (GPa) = 24.93438 49.60106 37.26772
# Shear Modulus (GPa) = 21.62526 29.90208 25.76367
#
# Velocity S-wave (km/s) = 3.24392 3.81452 3.54073
# Velocity P-wave (km/s) = 5.11507 6.59826 5.90343
#
# Compressibility (1/GPa) = 0.04010526
#
# Stress axis : x y z
#
# Youngs Moduli (GPa) = 158.62077 26.79383 57.14702
#
# Poissons Ratio (x) = 0.13099 0.16746
# Poissons Ratio (y) = 0.77545 0.15378
# Poissons Ratio (z) = 0.46480 0.07210
#
# Static dielectric constant tensor:
#      x y z
#    x 1.843340 0.000000 0.000000 
#    y 0.000000 1.773250 0.000000 
#    z 0.000000 0.000000 1.813980 
# 
# From -- ./inp_files/25437.got.cif
#   From: 2010.05.17/outbox.cif.g08.bks.cpg/sg57_13_cif.got.tgz:25437.got - 2010.06.03 13:58:18.
