data_PCOD9434723
_publ_section_title
;
Structure prediction by ZEFSAII (Michael W. Deem and Ramdas Pophale) SiO2 
 PCOD9434723
Probable space group: P B C M
;
_chemical_formula_sum "Si O2"
_cell_formula_units_Z 36
_cell_length_a 6.252225
_cell_length_b 13.100806
_cell_length_c 18.737501
_cell_angle_alpha 90.000000
_cell_angle_beta 90.000000
_cell_angle_gamma 90.000000
_cell_volume 1534.773469
_symmetry_space_group_name_H-M "P B C M"
_symmetry_group_IT_number 57
_symmetry_cell_setting 'orthorhombic'
loop_
_space_group_symop_operation_xyz
x,y,z
-x,-y,1/2+z
x,1/2-y,-z
-x,1/2+y,1/2-z
-x,-y,-z
x,y,1/2-z
-x,1/2+y,z
x,1/2-y,1/2+z
loop_
_atom_site_type_symbol
_atom_site_label
_atom_site_fract_x
_atom_site_fract_y
_atom_site_fract_z
Si Si1 0.665817 0.451413 0.250000
Si Si2 0.587487 0.355805 0.975464
Si Si3 0.380207 0.457176 0.109164
Si Si4 0.988462 0.868601 0.750000
Si Si5 0.260651 0.240422 0.371403
Si Si6 0.386521 0.730706 0.250000
O O1 0.517814 0.468456 0.180732
O O2 0.864491 0.526259 0.250000
O O3 0.746077 0.335077 0.250000
O O4 0.699728 0.434333 0.921129
O O5 0.360397 0.320776 0.938542
O O6 0.697240 0.250000 0.000000
O O7 0.540813 0.416273 0.047890
O O8 0.219338 0.360903 0.115821
O O9 0.917999 0.811650 0.822985
O O10 0.240878 0.867469 0.750000
O O11 0.463912 0.236777 0.318178
#
# Coordination Sequence:
#
# PCOD9434723 Si02
#       6
#     4   8   8   4   8   4
#     4  10  18  34  54  76 114 144 176 240 276 310
#     4   9  16  29  53  83 108 141 182 217 271 330
#     4   9  17  30  53  81 109 140 182 225 269 323
#     4  11  19  35  55  80 112 146 187 229 271 325
#     4   9  18  34  55  78 108 146 182 228 274 320
#     4   9  21  35  49  82 110 140 187 229 273 319
#
# _framework density 23.456229
#
# number of rings (size 3 to 8) (size 9 to 14) (size 15 to 20)
#    0.000    2.667    2.222    0.667    0.000    0.000 
#    4.000    0.000    0.000   21.333    0.000    0.000 
#    0.000    0.000    0.000    0.000    0.000    0.000 
#
# Total GULP energy -200887.284499 kJ/mol
# GULP energy per Si atom -5580.202347 kJ/mol
# Density = 2.340284 g / cm^3
# Si number density = 23.456229 Si / 1000 Ang^3
#
#
#
# Elastic Constant Matrix: (Units=GPa)
#
#
# Indices 1 2 3 4 5 6 
#
# 1 23.7464 29.9859 12.3853 0.0000 0.0000 0.0000
# 2 29.9859 130.5584 45.6285 0.0000 0.0000 0.0000
# 3 12.3853 45.6285 151.3198 0.0000 0.0000 0.0000
# 4 0.0000 0.0000 0.0000 50.6528 0.0000 0.0000
# 5 0.0000 0.0000 0.0000 0.0000 -42.8036 0.0000
# 6 0.0000 0.0000 0.0000 0.0000 0.0000 20.1159
#
#
#
# Elastic Compliance Matrix: (Units=1/GPa)
#
#
# Indices 1 2 3 4 5 6 
#
# 1 0.059409 -0.013352 -0.000836 0.000000 0.000000 0.000000
# 2 -0.013352 0.011563 -0.002394 0.000000 0.000000 0.000000
# 3 -0.000836 -0.002394 0.007399 0.000000 0.000000 0.000000
# 4 0.000000 0.000000 0.000000 0.019742 0.000000 0.000000
# 5 0.000000 0.000000 0.000000 0.000000 -0.023363 0.000000
# 6 0.000000 0.000000 0.000000 0.000000 0.000000 0.049712
#
#
# Mechanical properties :
#
#
# Convention : Reuss Voigt Hill
#
# Bulk Modulus (GPa) = 22.12128 53.51378 37.81753
# Shear Modulus (GPa) = 28.95281 20.10135 24.52708
#
# Velocity S-wave (km/s) = 3.51712 2.93059 3.23716
# Velocity P-wave (km/s) = 5.09361 5.85790 5.48907
#
# Compressibility (1/GPa) = 0.04520534
#
# Stress axis : x y z
#
# Youngs Moduli (GPa) = 16.83257 86.48521 135.15781
#
# Poissons Ratio (x) = 1.15478 0.11303
# Poissons Ratio (y) = 0.22475 0.32353
# Poissons Ratio (z) = 0.01408 0.20702
#
# Static dielectric constant tensor:
#      x y z
#    x 1.805290 0.000000 0.000000 
#    y 0.000000 1.994770 0.000000 
#    z 0.000000 0.000000 2.024420 
# 
# From -- ./inp_files/23516.got.cif
#   From: 2010.05.17/outbox.cif.g08.bks.cpg/sg57_12_cif.got.tgz:23516.got - 2010.06.03 13:58:18.
