data_PCOD9434696
_publ_section_title
;
Structure prediction by ZEFSAII (Michael W. Deem and Ramdas Pophale) SiO2 
 PCOD9434696
Probable space group: P B C M
;
_chemical_formula_sum "Si O2"
_cell_formula_units_Z 64
_cell_length_a 18.854561
_cell_length_b 11.431253
_cell_length_c 15.361057
_cell_angle_alpha 90.000000
_cell_angle_beta 90.000000
_cell_angle_gamma 90.000000
_cell_volume 3310.787924
_symmetry_space_group_name_H-M "P B C M"
_symmetry_group_IT_number 57
_symmetry_cell_setting 'orthorhombic'
loop_
_space_group_symop_operation_xyz
x,y,z
-x,-y,1/2+z
x,1/2-y,-z
-x,1/2+y,1/2-z
-x,-y,-z
x,y,1/2-z
-x,1/2+y,z
x,1/2-y,1/2+z
loop_
_atom_site_type_symbol
_atom_site_label
_atom_site_fract_x
_atom_site_fract_y
_atom_site_fract_z
Si Si1 0.442412 0.569643 0.057146
Si Si2 0.570286 0.844615 0.850662
Si Si3 0.656976 0.428732 0.403836
Si Si4 0.903702 0.236480 0.850266
Si Si5 0.259541 0.710813 0.343841
Si Si6 0.925620 0.063593 0.010050
Si Si7 0.342955 0.378382 0.145857
Si Si8 0.231899 0.494597 0.468809
O O1 0.492406 0.658333 0.107688
O O2 0.398179 0.481825 0.119198
O O3 0.500000 0.500000 0.000000
O O4 0.387063 0.614852 0.987189
O O5 0.560851 0.820333 0.750000
O O6 0.620912 0.742374 0.885105
O O7 0.607725 0.971821 0.860353
O O8 0.683937 0.314054 0.354887
O O9 0.726179 0.496600 0.440517
O O10 0.931209 0.230030 0.750000
O O11 0.818604 0.234182 0.842658
O O12 0.925315 0.353612 0.903718
O O13 0.920561 0.136779 0.920338
O O14 0.272023 0.651266 0.250000
O O15 0.251626 0.616846 0.420090
O O16 0.852561 0.989423 0.019611
O O17 0.000000 0.000000 0.000000
O O18 0.332207 0.376008 0.250000
O O19 0.270545 0.400693 0.092848
#
# Coordination Sequence:
#
# PCOD9434696 Si02
#       8
#     8   8   8   8   8   8   8   8
#     4   9  20  36  54  78 108 150 197 244 300 363
#     4  10  21  39  57  78 113 154 197 248 304 362
#     4  10  19  34  57  86 109 145 192 249 299 353
#     4   9  19  36  60  89 122 159 201 251 302 354
#     4  10  18  33  58  85 115 144 187 248 295 346
#     4  10  20  37  62  91 126 164 201 247 309 374
#     4  10  21  39  59  79 113 157 202 254 307 364
#     4  10  20  36  57  85 117 150 197 240 295 362
#
# _framework density 19.330746000000001
#
# number of rings (size 3 to 8) (size 9 to 14) (size 15 to 20)
#    0.000    2.250    1.250    1.500    0.000    5.500 
#   15.750    2.500    0.000    1.500    0.000    0.000 
#    0.000    0.000    0.000    0.000    0.000    0.000 
#
# Total GULP energy -356660.114938 kJ/mol
# GULP energy per Si atom -5572.814296 kJ/mol
# Density = 1.928675 g / cm^3
# Si number density = 19.330746 Si / 1000 Ang^3
#
#
#
# Elastic Constant Matrix: (Units=GPa)
#
#
# Indices 1 2 3 4 5 6 
#
# 1 139.9621 36.4457 33.8560 0.0000 0.0000 0.0000
# 2 36.4457 53.9237 11.8213 0.0000 0.0000 0.0000
# 3 33.8560 11.8213 88.9898 0.0000 0.0000 0.0000
# 4 0.0000 0.0000 0.0000 17.2909 0.0000 0.0000
# 5 0.0000 0.0000 0.0000 0.0000 23.4865 0.0000
# 6 0.0000 0.0000 0.0000 0.0000 0.0000 33.3616
#
#
#
# Elastic Compliance Matrix: (Units=1/GPa)
#
#
# Indices 1 2 3 4 5 6 
#
# 1 0.009295 -0.005672 -0.002783 0.000000 0.000000 0.000000
# 2 -0.005672 0.022562 -0.000839 0.000000 0.000000 0.000000
# 3 -0.002783 -0.000839 0.012407 0.000000 0.000000 0.000000
# 4 0.000000 0.000000 0.000000 0.057834 0.000000 0.000000
# 5 0.000000 0.000000 0.000000 0.000000 0.042578 0.000000
# 6 0.000000 0.000000 0.000000 0.000000 0.000000 0.029975
#
#
# Mechanical properties :
#
#
# Convention : Reuss Voigt Hill
#
# Bulk Modulus (GPa) = 38.94613 49.68018 44.31315
# Shear Modulus (GPa) = 24.77725 28.21131 26.49428
#
# Velocity S-wave (km/s) = 3.58404 3.82436 3.70615
# Velocity P-wave (km/s) = 6.10886 6.72732 6.42553
#
# Compressibility (1/GPa) = 0.02567649
#
# Stress axis : x y z
#
# Youngs Moduli (GPa) = 107.58542 44.32156 80.59699
#
# Poissons Ratio (x) = 0.25140 0.22428
# Poissons Ratio (y) = 0.61024 0.06764
# Poissons Ratio (z) = 0.29938 0.03719
#
# Static dielectric constant tensor:
#      x y z
#    x 1.684220 0.000000 0.000000 
#    y 0.000000 1.724320 0.000000 
#    z 0.000000 0.000000 1.709890 
# 
# From -- ./inp_files/19126.got.cif
#   From: 2010.05.17/outbox.cif.g08.bks.cpg/sg57_10_cif.got.tgz:19126.got - 2010.06.03 13:58:18.
