data_PCOD9434736
_publ_section_title
;
Structure prediction by ZEFSAII (Michael W. Deem and Ramdas Pophale) SiO2 
 PCOD9434736
Probable space group: P B C M
;
_chemical_formula_sum "Si O2"
_cell_formula_units_Z 28
_cell_length_a 7.011318
_cell_length_b 19.024782
_cell_length_c 8.223665
_cell_angle_alpha 90.000000
_cell_angle_beta 90.000000
_cell_angle_gamma 90.000000
_cell_volume 1096.944777
_symmetry_space_group_name_H-M "P B C M"
_symmetry_group_IT_number 57
_symmetry_cell_setting 'orthorhombic'
loop_
_space_group_symop_operation_xyz
x,y,z
-x,-y,1/2+z
x,1/2-y,-z
-x,1/2+y,1/2-z
-x,-y,-z
x,y,1/2-z
-x,1/2+y,z
x,1/2-y,1/2+z
loop_
_atom_site_type_symbol
_atom_site_label
_atom_site_fract_x
_atom_site_fract_y
_atom_site_fract_z
Si Si1 0.935368 0.120995 0.750000
Si Si2 0.130766 0.843804 0.920140
Si Si3 0.421819 0.174855 0.436309
Si Si4 0.517830 0.914574 0.250000
Si Si5 0.185780 0.981521 0.750000
O O1 0.968862 0.166808 0.589287
O O2 0.708749 0.100099 0.750000
O O3 0.058114 0.050366 0.750000
O O4 0.045870 0.818980 0.750000
O O5 0.347464 0.818715 0.924990
O O6 0.143841 0.929045 0.898778
O O7 0.350966 0.250000 0.500000
O O8 0.362590 0.156924 0.250000
O O9 0.398585 0.119526 0.583671
O O10 0.594290 0.994097 0.250000
#
# Coordination Sequence:
#
# PCOD9434736 Si02
#       5
#     4   8   8   4   4
#     4  10  18  34  56  74 110 150 168 216 274 318
#     4   8  19  33  51  83 110 139 185 220 270 330
#     4  10  18  34  56  82 105 142 192 229 266 323
#     4  10  22  35  55  85 111 142 181 226 277 326
#     4  10  20  37  51  83 123 136 179 226 267 344
#
# _framework density 25.525438999999999
#
# number of rings (size 3 to 8) (size 9 to 14) (size 15 to 20)
#    0.857    1.714    1.429    0.857    0.000    4.571 
#    2.571    0.000    0.000    6.857    0.000    0.000 
#    0.000    0.000    0.000    0.000    0.000    0.000 
#
# Total GULP energy -156313.627045 kJ/mol
# GULP energy per Si atom -5582.629537 kJ/mol
# Density = 2.546734 g / cm^3
# Si number density = 25.525439 Si / 1000 Ang^3
#
#
#
# Elastic Constant Matrix: (Units=GPa)
#
#
# Indices 1 2 3 4 5 6 
#
# 1 115.6258 14.9812 11.4324 0.0000 0.0000 0.0000
# 2 14.9812 82.3841 64.7773 0.0000 0.0000 0.0000
# 3 11.4324 64.7773 260.8938 0.0000 0.0000 0.0000
# 4 0.0000 0.0000 0.0000 28.8088 0.0000 0.0000
# 5 0.0000 0.0000 0.0000 0.0000 -47.7782 0.0000
# 6 0.0000 0.0000 0.0000 0.0000 0.0000 31.7565
#
#
#
# Elastic Compliance Matrix: (Units=1/GPa)
#
#
# Indices 1 2 3 4 5 6 
#
# 1 0.008857 -0.001622 0.000015 0.000000 0.000000 0.000000
# 2 -0.001622 0.015380 -0.003748 0.000000 0.000000 0.000000
# 3 0.000015 -0.003748 0.004763 0.000000 0.000000 0.000000
# 4 0.000000 0.000000 0.000000 0.034712 0.000000 0.000000
# 5 0.000000 0.000000 0.000000 0.000000 -0.020930 0.000000
# 6 0.000000 0.000000 0.000000 0.000000 0.000000 0.031490
#
#
# Mechanical properties :
#
#
# Convention : Reuss Voigt Hill
#
# Bulk Modulus (GPa) = 54.67525 71.25393 62.96459
# Shear Modulus (GPa) = 54.89794 27.07162 40.98478
#
# Velocity S-wave (km/s) = 4.64261 3.26018 4.01140
# Velocity P-wave (km/s) = 7.08554 6.49208 6.79529
#
# Compressibility (1/GPa) = 0.01828981
#
# Stress axis : x y z
#
# Youngs Moduli (GPa) = 112.90097 65.01986 209.95942
#
# Poissons Ratio (x) = 0.10547 -0.00307
# Poissons Ratio (y) = 0.18314 0.78684
# Poissons Ratio (z) = -0.00165 0.24367
#
# Static dielectric constant tensor:
#      x y z
#    x 1.981960 0.000000 0.000000 
#    y 0.000000 1.959720 0.000000 
#    z 0.000000 0.000000 2.076970 
# 
# From -- ./inp_files/1154.got.cif
#   From: 2010.05.17/outbox.cif.g08.bks.cpg/sg57_1_cif.got.tgz:1154.got - 2010.06.03 13:58:18.
