data_PCOD9434629
_publ_section_title
;
Structure prediction by ZEFSAII (Michael W. Deem and Ramdas Pophale) SiO2 
 PCOD9434629
Probable space group: P B C M
;
_chemical_formula_sum "Si O2"
_cell_formula_units_Z 48
_cell_length_a 8.974354
_cell_length_b 16.547342
_cell_length_c 16.058243
_cell_angle_alpha 90.000000
_cell_angle_beta 90.000000
_cell_angle_gamma 90.000000
_cell_volume 2384.676463
_symmetry_space_group_name_H-M "P B C M"
_symmetry_group_IT_number 57
_symmetry_cell_setting 'orthorhombic'
loop_
_space_group_symop_operation_xyz
x,y,z
-x,-y,1/2+z
x,1/2-y,-z
-x,1/2+y,1/2-z
-x,-y,-z
x,y,1/2-z
-x,1/2+y,z
x,1/2-y,1/2+z
loop_
_atom_site_type_symbol
_atom_site_label
_atom_site_fract_x
_atom_site_fract_y
_atom_site_fract_z
Si Si1 0.291655 0.127085 0.846121
Si Si2 0.364594 0.289139 0.909037
Si Si3 0.793743 0.944668 0.654354
Si Si4 0.462883 0.971681 0.093305
Si Si5 0.646010 0.382162 0.845845
Si Si6 0.904502 0.483416 0.583554
O O1 0.286941 0.104164 0.750000
O O2 0.276932 0.222667 0.854770
O O3 0.454546 0.110192 0.885570
O O4 0.179952 0.066821 0.893543
O O5 0.267861 0.371088 0.901756
O O6 0.531216 0.313569 0.878252
O O7 0.369224 0.250000 0.000000
O O8 0.751406 0.930121 0.750000
O O9 0.967920 0.959050 0.648330
O O10 0.708652 0.022520 0.616464
O O11 0.542531 0.037871 0.151784
O O12 0.500000 0.000000 0.000000
O O13 0.692668 0.366832 0.750000
O O14 0.781072 0.411442 0.906473
O O15 0.000000 0.500000 0.500000
#
# Coordination Sequence:
#
# PCOD9434629 Si02
#       6
#     8   8   8   8   8   8
#     4  11  21  37  59  87 116 152 201 255 294 335
#     4  11  22  38  60  86 116 155 201 250 298 350
#     4  11  21  37  58  84 117 159 196 235 297 371
#     4  10  18  32  55  82 111 147 194 245 291 345
#     4  10  20  38  58  81 113 156 196 236 294 365
#     4  11  22  38  61  88 119 155 195 243 297 358
#
# _framework density 20.128516999999999
#
# number of rings (size 3 to 8) (size 9 to 14) (size 15 to 20)
#    0.000    1.333    0.000   11.500    0.000    0.000 
#    0.000    4.167    0.000    0.000    0.000    0.000 
#    0.000    0.000    0.000    0.000    0.000    0.000 
#
# Total GULP energy -267532.469724 kJ/mol
# GULP energy per Si atom -5573.593119 kJ/mol
# Density = 2.008270 g / cm^3
# Si number density = 20.128517 Si / 1000 Ang^3
#
#
#
# Elastic Constant Matrix: (Units=GPa)
#
#
# Indices 1 2 3 4 5 6 
#
# 1 117.8757 34.9009 24.2296 0.0000 0.0000 0.0000
# 2 34.9009 73.2375 26.2582 0.0000 0.0000 0.0000
# 3 24.2296 26.2582 132.0729 0.0000 0.0000 0.0000
# 4 0.0000 0.0000 0.0000 28.4218 0.0000 0.0000
# 5 0.0000 0.0000 0.0000 0.0000 36.7412 0.0000
# 6 0.0000 0.0000 0.0000 0.0000 0.0000 31.4189
#
#
#
# Elastic Compliance Matrix: (Units=1/GPa)
#
#
# Indices 1 2 3 4 5 6 
#
# 1 0.009988 -0.004417 -0.000954 0.000000 0.000000 0.000000
# 2 -0.004417 0.016656 -0.002501 0.000000 0.000000 0.000000
# 3 -0.000954 -0.002501 0.008244 0.000000 0.000000 0.000000
# 4 0.000000 0.000000 0.000000 0.035184 0.000000 0.000000
# 5 0.000000 0.000000 0.000000 0.000000 0.027217 0.000000
# 6 0.000000 0.000000 0.000000 0.000000 0.000000 0.031828
#
#
# Mechanical properties :
#
#
# Convention : Reuss Voigt Hill
#
# Bulk Modulus (GPa) = 52.24021 54.88481 53.56251
# Shear Modulus (GPa) = 33.05938 35.16953 34.11445
#
# Velocity S-wave (km/s) = 4.05707 4.18455 4.12130
# Velocity P-wave (km/s) = 6.92503 7.11854 7.02245
#
# Compressibility (1/GPa) = 0.01914234
#
# Stress axis : x y z
#
# Youngs Moduli (GPa) = 100.12476 60.03826 121.30249
#
# Poissons Ratio (x) = 0.26522 0.11572
# Poissons Ratio (y) = 0.44230 0.30339
# Poissons Ratio (z) = 0.09552 0.15016
#
# Static dielectric constant tensor:
#      x y z
#    x 1.753580 0.000000 0.000000 
#    y 0.000000 1.737030 0.000000 
#    z 0.000000 0.000000 1.767890 
# 
# From -- ./inp_files/16365.got.cif
#   From: 2010.05.17/outbox.cif.g08.bks.cpg/sg57_9_cif.got.tgz:16365.got - 2010.06.03 13:58:18.
