data_PCOD9434416
_publ_section_title
;
Structure prediction by ZEFSAII (Michael W. Deem and Ramdas Pophale) SiO2 
 PCOD9434416
Probable space group: P B C M
;
_chemical_formula_sum "Si O2"
_cell_formula_units_Z 64
_cell_length_a 24.990651
_cell_length_b 15.133365
_cell_length_c 8.277728
_cell_angle_alpha 90.000000
_cell_angle_beta 90.000000
_cell_angle_gamma 90.000000
_cell_volume 3130.575832
_symmetry_space_group_name_H-M "P B C M"
_symmetry_group_IT_number 57
_symmetry_cell_setting 'orthorhombic'
loop_
_space_group_symop_operation_xyz
x,y,z
-x,-y,1/2+z
x,1/2-y,-z
-x,1/2+y,1/2-z
-x,-y,-z
x,y,1/2-z
-x,1/2+y,z
x,1/2-y,1/2+z
loop_
_atom_site_type_symbol
_atom_site_label
_atom_site_fract_x
_atom_site_fract_y
_atom_site_fract_z
Si Si1 0.901280 0.343243 0.561567
Si Si2 0.477283 0.846341 0.056044
Si Si3 0.819020 0.022953 0.559771
Si Si4 0.724386 0.148932 0.945750
Si Si5 0.129745 0.347473 0.555516
Si Si6 0.378504 0.962144 0.447267
Si Si7 0.011253 0.099694 0.557341
Si Si8 0.599427 0.653449 0.441801
O O1 0.879228 0.250000 0.500000
O O2 0.890664 0.354565 0.750000
O O3 0.873403 0.422170 0.465650
O O4 0.964356 0.345892 0.528349
O O5 0.480885 0.847030 0.250000
O O6 0.435452 0.920914 0.002766
O O7 0.457177 0.750000 0.000000
O O8 0.536727 0.856425 0.986500
O O9 0.808125 0.013395 0.750000
O O10 0.772061 0.085132 0.493127
O O11 0.830448 0.924885 0.495608
O O12 0.725853 0.149504 0.750000
O O13 0.668947 0.102995 0.997774
O O14 0.729270 0.250000 0.000000
O O15 0.145349 0.250000 0.500000
O O16 0.127801 0.350545 0.750000
O O17 0.070217 0.369247 0.491755
O O18 0.378257 0.963055 0.250000
O O19 0.372623 0.063608 0.502705
O O20 0.005488 0.106050 0.750000
O O21 0.000000 0.000000 0.500000
O O22 0.617681 0.750000 0.500000
O O23 0.603976 0.654485 0.250000
#
# Coordination Sequence:
#
# PCOD9434416 Si02
#       8
#     8   8   8   8   8   8   8   8
#     4  12  24  38  59  85 117 153 189 232 280 336
#     4  10  18  30  49  77 110 146 184 228 276 335
#     4  10  22  40  62  84 112 147 188 234 283 339
#     4  10  21  40  62  86 112 144 182 229 285 340
#     4  11  23  40  61  86 117 153 193 237 284 338
#     4   9  19  34  54  78 109 146 186 228 281 338
#     4  12  23  38  59  87 120 155 191 231 281 338
#     4  10  19  33  51  75 108 148 187 230 275 328
#
# _framework density 20.443524
#
# number of rings (size 3 to 8) (size 9 to 14) (size 15 to 20)
#    0.000    1.500    1.250    5.625    0.000    2.000 
#    0.000    4.375    0.000    0.000    0.000    0.000 
#    0.000    0.000    0.000    0.000    0.000    0.000 
#
# Total GULP energy -357528.402193 kJ/mol
# GULP energy per Si atom -5586.381284 kJ/mol
# Density = 2.039699 g / cm^3
# Si number density = 20.443524 Si / 1000 Ang^3
#
#
#
# Elastic Constant Matrix: (Units=GPa)
#
#
# Indices 1 2 3 4 5 6 
#
# 1 50.6409 40.6112 -6.6463 0.0000 0.0000 0.0000
# 2 40.6112 181.9122 -2.5895 0.0000 0.0000 0.0000
# 3 -6.6463 -2.5895 20.3019 0.0000 0.0000 0.0000
# 4 0.0000 0.0000 0.0000 29.2702 0.0000 0.0000
# 5 0.0000 0.0000 0.0000 0.0000 12.9416 0.0000
# 6 0.0000 0.0000 0.0000 0.0000 0.0000 38.6792
#
#
#
# Elastic Compliance Matrix: (Units=1/GPa)
#
#
# Indices 1 2 3 4 5 6 
#
# 1 0.025152 -0.005508 0.007532 0.000000 0.000000 0.000000
# 2 -0.005508 0.006713 -0.000947 0.000000 0.000000 0.000000
# 3 0.007532 -0.000947 0.051601 0.000000 0.000000 0.000000
# 4 0.000000 0.000000 0.000000 0.034164 0.000000 0.000000
# 5 0.000000 0.000000 0.000000 0.000000 0.077270 0.000000
# 6 0.000000 0.000000 0.000000 0.000000 0.000000 0.025854
#
#
# Mechanical properties :
#
#
# Convention : Reuss Voigt Hill
#
# Bulk Modulus (GPa) = 11.67939 35.06731 23.37335
# Shear Modulus (GPa) = 20.23128 30.94352 25.58740
#
# Velocity S-wave (km/s) = 3.14923 3.89473 3.54165
# Velocity P-wave (km/s) = 4.35304 6.11684 5.30871
#
# Compressibility (1/GPa) = 0.08562095
#
# Stress axis : x y z
#
# Youngs Moduli (GPa) = 39.75757 148.95778 19.37930
#
# Poissons Ratio (x) = 0.82046 -0.14596
# Poissons Ratio (y) = 0.21898 0.01835
# Poissons Ratio (z) = -0.29944 0.14105
#
# Static dielectric constant tensor:
#      x y z
#    x 1.719800 0.000000 0.000000 
#    y 0.000000 1.736200 0.000000 
#    z 0.000000 0.000000 1.708450 
# 
# From -- ./inp_files/9426.got.cif
#   From: 2010.05.17/outbox.cif.g08.bks.cpg/sg57_5_cif.got.tgz:9426.got - 2010.06.03 13:58:18.
