data_PCOD9434412
_publ_section_title
;
Structure prediction by ZEFSAII (Michael W. Deem and Ramdas Pophale) SiO2 
 PCOD9434412
Probable space group: P B C M
;
_chemical_formula_sum "Si O2"
_cell_formula_units_Z 56
_cell_length_a 22.636579
_cell_length_b 15.047722
_cell_length_c 8.364507
_cell_angle_alpha 90.000000
_cell_angle_beta 90.000000
_cell_angle_gamma 90.000000
_cell_volume 2849.193218
_symmetry_space_group_name_H-M "P B C M"
_symmetry_group_IT_number 57
_symmetry_cell_setting 'orthorhombic'
loop_
_space_group_symop_operation_xyz
x,y,z
-x,-y,1/2+z
x,1/2-y,-z
-x,1/2+y,1/2-z
-x,-y,-z
x,y,1/2-z
-x,1/2+y,z
x,1/2-y,1/2+z
loop_
_atom_site_type_symbol
_atom_site_label
_atom_site_fract_x
_atom_site_fract_y
_atom_site_fract_z
Si Si1 0.971123 0.152950 0.441864
Si Si2 0.530366 0.347230 0.943038
Si Si3 0.894903 0.653342 0.940544
Si Si4 0.394664 0.346434 0.559214
Si Si5 0.362994 0.967653 0.557114
Si Si6 0.138469 0.535587 0.054768
Si Si7 0.251164 0.851117 0.556654
O O1 0.950567 0.250000 0.500000
O O2 0.974571 0.153063 0.250000
O O3 0.923560 0.080006 0.494071
O O4 0.036754 0.139936 0.509130
O O5 0.529988 0.347824 0.750000
O O6 0.462825 0.358514 0.999549
O O7 0.575685 0.422493 0.999033
O O8 0.550778 0.250000 0.000000
O O9 0.892829 0.655189 0.750000
O O10 0.859534 0.566789 0.998306
O O11 0.875440 0.750000 0.000000
O O12 0.374118 0.250000 0.500000
O O13 0.395506 0.345548 0.750000
O O14 0.358919 0.431440 0.500236
O O15 0.363454 0.968036 0.750000
O O16 0.308941 0.905718 0.504114
O O17 0.139161 0.535735 0.250000
O O18 0.192842 0.596172 0.001440
O O19 0.251895 0.750000 0.500000
O O20 0.250847 0.850663 0.750000
#
# Coordination Sequence:
#
# PCOD9434412 Si02
#       7
#     8   8   8   8   8   8   8
#     4  10  18  30  49  75 104 133 165 203 249 301
#     4   9  18  31  49  77 107 137 170 210 258 307
#     4  10  19  33  51  73 101 131 165 207 252 300
#     4  10  20  34  53  76 105 136 171 213 258 307
#     4  10  20  34  53  76 105 138 173 211 255 302
#     4   9  19  34  52  73 101 136 170 205 250 297
#     4  10  21  38  57  78 104 135 169 209 252 298
#
# _framework density 19.654686000000002
#
# number of rings (size 3 to 8) (size 9 to 14) (size 15 to 20)
#    0.000    2.286    0.000    3.857    0.000    1.714 
#    0.000    5.000    0.000    1.714    0.000    0.000 
#    0.000    0.000    0.000    0.000    0.000    0.000 
#
# Total GULP energy -312629.279452 kJ/mol
# GULP energy per Si atom -5582.665704 kJ/mol
# Density = 1.960995 g / cm^3
# Si number density = 19.654686 Si / 1000 Ang^3
#
#
#
# Elastic Constant Matrix: (Units=GPa)
#
#
# Indices 1 2 3 4 5 6 
#
# 1 45.3191 66.9536 9.5279 0.0000 0.0000 0.0000
# 2 66.9536 203.2666 19.7520 0.0000 0.0000 0.0000
# 3 9.5279 19.7520 19.0127 0.0000 0.0000 0.0000
# 4 0.0000 0.0000 0.0000 30.5603 0.0000 0.0000
# 5 0.0000 0.0000 0.0000 0.0000 10.6337 0.0000
# 6 0.0000 0.0000 0.0000 0.0000 0.0000 35.1318
#
#
#
# Elastic Compliance Matrix: (Units=1/GPa)
#
#
# Indices 1 2 3 4 5 6 
#
# 1 0.043992 -0.013735 -0.007777 0.000000 0.000000 0.000000
# 2 -0.013735 0.009760 -0.003257 0.000000 0.000000 0.000000
# 3 -0.007777 -0.003257 0.059877 0.000000 0.000000 0.000000
# 4 0.000000 0.000000 0.000000 0.032722 0.000000 0.000000
# 5 0.000000 0.000000 0.000000 0.000000 0.094041 0.000000
# 6 0.000000 0.000000 0.000000 0.000000 0.000000 0.028464
#
#
# Mechanical properties :
#
#
# Convention : Reuss Voigt Hill
#
# Bulk Modulus (GPa) = 15.60251 51.11838 33.36045
# Shear Modulus (GPa) = 14.71633 26.68947 20.70290
#
# Velocity S-wave (km/s) = 2.73929 3.68899 3.24903
# Velocity P-wave (km/s) = 4.23798 6.64903 5.57540
#
# Compressibility (1/GPa) = 0.06409225
#
# Stress axis : x y z
#
# Youngs Moduli (GPa) = 22.73120 102.45681 16.70089
#
# Poissons Ratio (x) = 1.40723 0.12988
# Poissons Ratio (y) = 0.31221 0.05439
# Poissons Ratio (z) = 0.17678 0.33368
#
# Static dielectric constant tensor:
#      x y z
#    x 1.687600 0.000000 0.000000 
#    y 0.000000 1.686060 0.000000 
#    z 0.000000 0.000000 1.668130 
# 
# From -- ./inp_files/8100.got.cif
#   From: 2010.05.17/outbox.cif.g08.bks.cpg/sg57_5_cif.got.tgz:8100.got - 2010.06.03 13:58:18.
