data_PCOD9434682
_publ_section_title
;
Structure prediction by ZEFSAII (Michael W. Deem and Ramdas Pophale) SiO2 
 PCOD9434682
Probable space group: P B C M
;
_chemical_formula_sum "Si O2"
_cell_formula_units_Z 52
_cell_length_a 17.788245
_cell_length_b 14.473642
_cell_length_c 7.860738
_cell_angle_alpha 90.000000
_cell_angle_beta 90.000000
_cell_angle_gamma 90.000000
_cell_volume 2023.831029
_symmetry_space_group_name_H-M "P B C M"
_symmetry_group_IT_number 57
_symmetry_cell_setting 'orthorhombic'
loop_
_space_group_symop_operation_xyz
x,y,z
-x,-y,1/2+z
x,1/2-y,-z
-x,1/2+y,1/2-z
-x,-y,-z
x,y,1/2-z
-x,1/2+y,z
x,1/2-y,1/2+z
loop_
_atom_site_type_symbol
_atom_site_label
_atom_site_fract_x
_atom_site_fract_y
_atom_site_fract_z
Si Si1 0.690209 0.356440 0.552829
Si Si2 0.999892 0.889804 0.453421
Si Si3 0.115597 0.172295 0.250000
Si Si4 0.470993 0.640785 0.548471
Si Si5 0.206417 0.117416 0.930885
Si Si6 0.365087 0.359043 0.550377
Si Si7 0.842342 0.434761 0.439359
O O1 0.682891 0.250000 0.500000
O O2 0.710262 0.364751 0.750000
O O3 0.607246 0.397651 0.523578
O O4 0.759729 0.393270 0.445269
O O5 0.980947 0.875574 0.250000
O O6 0.088786 0.867178 0.473443
O O7 0.949317 0.840284 0.595241
O O8 0.000000 0.000000 0.500000
O O9 0.180149 0.167309 0.401186
O O10 0.473175 0.750000 0.500000
O O11 0.467810 0.866620 0.250000
O O12 0.551236 0.603969 0.486265
O O13 0.188150 0.161746 0.750000
O O14 0.295308 0.098735 0.948287
O O15 0.162254 0.020931 0.936640
O O16 0.364099 0.250000 0.500000
O O17 0.351347 0.369038 0.750000
O O18 0.857095 0.475398 0.250000
#
# Coordination Sequence:
#
# PCOD9434682 Si02
#       7
#     8   8   4   8   8   8   8
#     4  11  22  37  59  88 118 159 197 246 296 349
#     4  11  20  34  57  86 114 150 199 249 295 348
#     4  12  22  36  58  88 118 152 198 250 294 352
#     4  10  18  33  56  84 115 153 200 244 284 344
#     4  12  23  39  59  92 123 155 198 247 299 354
#     4  11  21  38  61  90 120 159 199 244 293 352
#     4  11  22  39  59  89 120 154 196 250 298 354
#
# _framework density 25.693846000000001
#
# number of rings (size 3 to 8) (size 9 to 14) (size 15 to 20)
#    0.000    0.923    3.846    6.923    2.154    0.000 
#    0.000    0.769    0.000    0.923    4.000    0.000 
#    0.000    0.000    0.000    0.000    0.000    0.000 
#
# Total GULP energy -290163.207666 kJ/mol
# GULP energy per Si atom -5580.061686 kJ/mol
# Density = 2.563537 g / cm^3
# Si number density = 25.693846 Si / 1000 Ang^3
#
#
#
# Elastic Constant Matrix: (Units=GPa)
#
#
# Indices 1 2 3 4 5 6 
#
# 1 211.1860 9.4524 48.8247 0.0000 0.0000 0.0000
# 2 9.4524 48.5049 16.3036 0.0000 0.0000 0.0000
# 3 48.8247 16.3036 230.5676 0.0000 0.0000 0.0000
# 4 0.0000 0.0000 0.0000 26.9688 0.0000 0.0000
# 5 0.0000 0.0000 0.0000 0.0000 132.8676 0.0000
# 6 0.0000 0.0000 0.0000 0.0000 0.0000 6.4549
#
#
#
# Elastic Compliance Matrix: (Units=1/GPa)
#
#
# Indices 1 2 3 4 5 6 
#
# 1 0.004998 -0.000633 -0.001014 0.000000 0.000000 0.000000
# 2 -0.000633 0.021199 -0.001365 0.000000 0.000000 0.000000
# 3 -0.001014 -0.001365 0.004648 0.000000 0.000000 0.000000
# 4 0.000000 0.000000 0.000000 0.037080 0.000000 0.000000
# 5 0.000000 0.000000 0.000000 0.000000 0.007526 0.000000
# 6 0.000000 0.000000 0.000000 0.000000 0.000000 0.154920
#
#
# Mechanical properties :
#
#
# Convention : Reuss Voigt Hill
#
# Bulk Modulus (GPa) = 40.28791 71.04667 55.66729
# Shear Modulus (GPa) = 20.43581 60.97012 40.70296
#
# Velocity S-wave (km/s) = 2.82327 4.87657 3.98446
# Velocity P-wave (km/s) = 5.13243 7.70839 6.54832
#
# Compressibility (1/GPa) = 0.02482134
#
# Stress axis : x y z
#
# Youngs Moduli (GPa) = 200.08667 47.17280 215.13414
#
# Poissons Ratio (x) = 0.02987 0.21805
# Poissons Ratio (y) = 0.12671 0.29363
# Poissons Ratio (z) = 0.20280 0.06438
#
# Static dielectric constant tensor:
#      x y z
#    x 2.072040 0.000000 0.000000 
#    y 0.000000 2.922640 0.000000 
#    z 0.000000 0.000000 1.921420 
# 
# From -- ./inp_files/6795.got.cif
#   From: 2010.05.17/outbox.cif.g08.bks.cpg/sg57_4_cif.got.tgz:6795.got - 2010.06.03 13:58:18.
