data_PCOD9434169
_publ_section_title
;
Structure prediction by ZEFSAII (Michael W. Deem and Ramdas Pophale) SiO2 
 PCOD9434169
Probable space group: P B C M
;
_chemical_formula_sum "Si O2"
_cell_formula_units_Z 64
_cell_length_a 16.000939
_cell_length_b 24.576773
_cell_length_c 7.940910
_cell_angle_alpha 90.000000
_cell_angle_beta 90.000000
_cell_angle_gamma 90.000000
_cell_volume 3122.774337
_symmetry_space_group_name_H-M "P B C M"
_symmetry_group_IT_number 57
_symmetry_cell_setting 'orthorhombic'
loop_
_space_group_symop_operation_xyz
x,y,z
-x,-y,1/2+z
x,1/2-y,-z
-x,1/2+y,1/2-z
-x,-y,-z
x,y,1/2-z
-x,1/2+y,z
x,1/2-y,1/2+z
loop_
_atom_site_type_symbol
_atom_site_label
_atom_site_fract_x
_atom_site_fract_y
_atom_site_fract_z
Si Si1 0.592635 0.881302 0.453052
Si Si2 0.845026 0.002969 0.453750
Si Si3 0.091384 0.384772 0.456322
Si Si4 0.248084 0.312894 0.046989
Si Si5 0.408192 0.883430 0.546930
Si Si6 0.906330 0.120614 0.552245
Si Si7 0.350605 0.000636 0.544755
Si Si8 0.254716 0.812328 0.947174
O O1 0.596957 0.882393 0.250000
O O2 0.667671 0.842787 0.513848
O O3 0.500189 0.863272 0.502202
O O4 0.608967 0.943047 0.514513
O O5 0.848555 0.006234 0.250000
O O6 0.887186 0.056937 0.524725
O O7 0.747236 0.001265 0.501327
O O8 0.888197 0.946760 0.506731
O O9 0.090854 0.384523 0.250000
O O10 0.166095 0.345509 0.512466
O O11 0.999302 0.367833 0.515042
O O12 0.248096 0.316842 0.250000
O O13 0.245982 0.250000 0.000000
O O14 0.402292 0.885599 0.750000
O O15 0.394697 0.945460 0.485279
O O16 0.333299 0.845780 0.478564
O O17 0.906755 0.132209 0.750000
O O18 0.830973 0.155463 0.477967
O O19 0.353439 0.001195 0.750000
O O20 0.269362 0.811835 0.750000
O O21 0.249587 0.750000 0.000000
#
# Coordination Sequence:
#
# PCOD9434169 Si02
#       8
#     8   8   8   8   8   8   8   8
#     4  10  20  35  59  85 111 147 188 228 278 338
#     4  10  17  34  61  84 114 155 191 227 282 345
#     4   9  19  36  60  85 114 153 192 232 281 341
#     4  10  21  39  59  80 109 149 193 234 279 335
#     4  10  21  37  58  84 114 145 182 229 285 341
#     4  11  22  36  57  90 122 148 187 236 284 339
#     4   9  16  32  58  84 110 146 185 224 277 341
#     4  11  24  43  63  82 110 153 196 239 288 339
#
# _framework density 20.494596000000001
#
# number of rings (size 3 to 8) (size 9 to 14) (size 15 to 20)
#    0.000    2.000    2.500    1.500    0.000    2.500 
#    0.000    6.875    0.000    0.000    0.000    0.000 
#    0.000    0.000    0.000    0.000    0.000    0.000 
#
# Total GULP energy -357503.547099 kJ/mol
# GULP energy per Si atom -5585.992923 kJ/mol
# Density = 2.044795 g / cm^3
# Si number density = 20.494596 Si / 1000 Ang^3
#
#
#
# Elastic Constant Matrix: (Units=GPa)
#
#
# Indices 1 2 3 4 5 6 
#
# 1 175.9022 82.5892 -3.1004 0.0000 0.0000 0.0000
# 2 82.5892 155.4244 2.7618 0.0000 0.0000 0.0000
# 3 -3.1004 2.7618 13.6910 0.0000 0.0000 0.0000
# 4 0.0000 0.0000 0.0000 24.4169 0.0000 0.0000
# 5 0.0000 0.0000 0.0000 0.0000 11.3213 0.0000
# 6 0.0000 0.0000 0.0000 0.0000 0.0000 -0.8595
#
#
#
# Elastic Compliance Matrix: (Units=1/GPa)
#
#
# Indices 1 2 3 4 5 6 
#
# 1 0.007664 -0.004118 0.002566 0.000000 0.000000 0.000000
# 2 -0.004118 0.008670 -0.002681 0.000000 0.000000 0.000000
# 3 0.002566 -0.002681 0.074163 0.000000 0.000000 0.000000
# 4 0.000000 0.000000 0.000000 0.040955 0.000000 0.000000
# 5 0.000000 0.000000 0.000000 0.000000 0.088329 0.000000
# 6 0.000000 0.000000 0.000000 0.000000 0.000000 -1.163458
#
#
# Mechanical properties :
#
#
# Convention : Reuss Voigt Hill
#
# Bulk Modulus (GPa) = 12.19070 56.61318 34.40194
# Shear Modulus (GPa) = -5.50741 24.49354 9.49306
#
# Velocity S-wave (km/s) = -1.64106 3.46080 2.15454
# Velocity P-wave (km/s) = 1.53961 6.60704 4.79705
#
# Compressibility (1/GPa) = 0.08202974
#
# Stress axis : x y z
#
# Youngs Moduli (GPa) = 130.48654 115.34293 13.48388
#
# Poissons Ratio (x) = 0.47497 -0.03460
# Poissons Ratio (y) = 0.53733 0.03616
# Poissons Ratio (z) = -0.33484 0.30928
#
# Static dielectric constant tensor:
#      x y z
#    x 1.731130 0.000000 0.000000 
#    y 0.000000 1.478170 0.000000 
#    z 0.000000 0.000000 1.740260 
# 
# From -- ./inp_files/5658.got.cif
#   From: 2010.05.17/outbox.cif.g08.bks.cpg/sg57_3_cif.got.tgz:5658.got - 2010.06.03 13:58:18.
