data_PCOD9434188
_publ_section_title
;
Structure prediction by ZEFSAII (Michael W. Deem and Ramdas Pophale) SiO2 
 PCOD9434188
Probable space group: P B C M
;
_chemical_formula_sum "Si O2"
_cell_formula_units_Z 64
_cell_length_a 18.098914
_cell_length_b 27.265133
_cell_length_c 7.728853
_cell_angle_alpha 90.000000
_cell_angle_beta 90.000000
_cell_angle_gamma 90.000000
_cell_volume 3813.951659
_symmetry_space_group_name_H-M "P B C M"
_symmetry_group_IT_number 57
_symmetry_cell_setting 'orthorhombic'
loop_
_space_group_symop_operation_xyz
x,y,z
-x,-y,1/2+z
x,1/2-y,-z
-x,1/2+y,1/2-z
-x,-y,-z
x,y,1/2-z
-x,1/2+y,z
x,1/2-y,1/2+z
loop_
_atom_site_type_symbol
_atom_site_label
_atom_site_fract_x
_atom_site_fract_y
_atom_site_fract_z
Si Si1 0.974969 0.887882 0.458707
Si Si2 0.834733 0.938383 0.542471
Si Si3 0.327148 0.460052 0.958886
Si Si4 0.090557 0.964056 0.050261
Si Si5 0.793642 0.383048 0.545957
Si Si6 0.355876 0.574313 0.042154
Si Si7 0.514114 0.557138 0.041960
Si Si8 0.089632 0.693292 0.955859
O O1 0.979410 0.888581 0.250000
O O2 0.889674 0.893543 0.506822
O O3 0.020175 0.935694 0.526918
O O4 0.021183 0.840539 0.519733
O O5 0.829698 0.944088 0.750000
O O6 0.750587 0.938338 0.477609
O O7 0.876263 0.986798 0.469962
O O8 0.328022 0.456782 0.750000
O O9 0.402553 0.434074 0.023229
O O10 0.332424 0.518090 0.001650
O O11 0.072425 0.974753 0.250000
O O12 0.155101 0.923452 0.045067
O O13 0.794948 0.394595 0.750000
O O14 0.709852 0.390090 0.482791
O O15 0.834620 0.331469 0.521387
O O16 0.359961 0.578165 0.250000
O O17 0.439380 0.582944 0.975199
O O18 0.515660 0.563136 0.250000
O O19 0.500000 0.500000 0.000000
O O20 0.091035 0.688625 0.750000
O O21 0.082185 0.750000 0.000000
#
# Coordination Sequence:
#
# PCOD9434188 Si02
#       8
#     8   8   8   8   8   8   8   8
#     4   9  19  31  43  60  81 107 137 171 212 255
#     4  10  18  26  39  59  84 114 148 181 211 246
#     4   9  16  25  38  55  80 116 150 180 213 241
#     4   9  17  29  40  55  83 114 146 180 211 245
#     4  10  18  27  43  66  87 112 144 176 213 254
#     4   9  16  25  38  58  83 111 146 180 207 243
#     4   8  14  24  36  52  77 110 146 179 207 237
#     4  10  21  37  53  67  84 106 134 171 215 262
#
# _framework density 16.780495999999999
#
# number of rings (size 3 to 8) (size 9 to 14) (size 15 to 20)
#    0.000    2.750    1.250    1.875    0.000    4.000 
#    0.000    0.000    0.000    0.000    0.000    0.000 
#    0.000    1.000    0.000    4.250    0.000    2.750 
#
# Total GULP energy -356328.908303 kJ/mol
# GULP energy per Si atom -5567.639192 kJ/mol
# Density = 1.674230 g / cm^3
# Si number density = 16.780496 Si / 1000 Ang^3
#
#
#
# Elastic Constant Matrix: (Units=GPa)
#
#
# Indices 1 2 3 4 5 6 
#
# 1 187.9487 58.0957 5.3810 0.0000 0.0000 0.0000
# 2 58.0957 52.6489 1.1920 0.0000 0.0000 0.0000
# 3 5.3810 1.1920 30.3349 0.0000 0.0000 0.0000
# 4 0.0000 0.0000 0.0000 12.9691 0.0000 0.0000
# 5 0.0000 0.0000 0.0000 0.0000 9.8817 0.0000
# 6 0.0000 0.0000 0.0000 0.0000 0.0000 12.6471
#
#
#
# Elastic Compliance Matrix: (Units=1/GPa)
#
#
# Indices 1 2 3 4 5 6 
#
# 1 0.008110 -0.008925 -0.001088 0.000000 0.000000 0.000000
# 2 -0.008925 0.028832 0.000450 0.000000 0.000000 0.000000
# 3 -0.001088 0.000450 0.033141 0.000000 0.000000 0.000000
# 4 0.000000 0.000000 0.000000 0.077107 0.000000 0.000000
# 5 0.000000 0.000000 0.000000 0.000000 0.101197 0.000000
# 6 0.000000 0.000000 0.000000 0.000000 0.000000 0.079070
#
#
# Mechanical properties :
#
#
# Convention : Reuss Voigt Hill
#
# Bulk Modulus (GPa) = 19.62416 44.47442 32.04929
# Shear Modulus (GPa) = 13.75259 20.85048 17.30153
#
# Velocity S-wave (km/s) = 2.86590 3.52880 3.21448
# Velocity P-wave (km/s) = 4.76143 6.56996 5.73740
#
# Compressibility (1/GPa) = 0.05095760
#
# Stress axis : x y z
#
# Youngs Moduli (GPa) = 123.29738 34.68393 30.17441
#
# Poissons Ratio (x) = 0.30955 0.03283
# Poissons Ratio (y) = 1.10042 -0.01359
# Poissons Ratio (z) = 0.13415 -0.01562
#
# Static dielectric constant tensor:
#      x y z
#    x 1.652010 0.000000 0.000000 
#    y 0.000000 1.539390 0.000000 
#    z 0.000000 0.000000 1.600960 
# 
# From -- ./inp_files/7488.got.cif
#   From: 2010.05.17/outbox.cif.g08.bks.cpg/sg57_4_cif.got.tgz:7488.got - 2010.06.03 13:58:18.
