data_PCOD9434673
_publ_section_title
;
Structure prediction by ZEFSAII (Michael W. Deem and Ramdas Pophale) SiO2 
 PCOD9434673
Probable space group: P B C M
;
_chemical_formula_sum "Si O2"
_cell_formula_units_Z 40
_cell_length_a 8.104807
_cell_length_b 29.579461
_cell_length_c 7.877145
_cell_angle_alpha 90.000000
_cell_angle_beta 90.000000
_cell_angle_gamma 90.000000
_cell_volume 1888.433836
_symmetry_space_group_name_H-M "P B C M"
_symmetry_group_IT_number 57
_symmetry_cell_setting 'orthorhombic'
loop_
_space_group_symop_operation_xyz
x,y,z
-x,-y,1/2+z
x,1/2-y,-z
-x,1/2+y,1/2-z
-x,-y,-z
x,y,1/2-z
-x,1/2+y,z
x,1/2-y,1/2+z
loop_
_atom_site_type_symbol
_atom_site_label
_atom_site_fract_x
_atom_site_fract_y
_atom_site_fract_z
Si Si1 0.830808 0.606964 0.041795
Si Si2 0.321759 0.200956 0.047051
Si Si3 0.488452 0.447704 0.545121
Si Si4 0.191137 0.603916 0.052907
Si Si5 0.296120 0.699674 0.945709
O O1 0.834983 0.606278 0.250000
O O2 0.786182 0.658330 0.992525
O O3 0.681251 0.575147 0.984739
O O4 0.011615 0.593381 0.978584
O O5 0.342409 0.198839 0.250000
O O6 0.252053 0.250000 0.000000
O O7 0.505480 0.197558 0.970225
O O8 0.500000 0.500000 0.500000
O O9 0.486748 0.443045 0.750000
O O10 0.648642 0.420734 0.478064
O O11 0.185433 0.590191 0.250000
O O12 0.219061 0.657790 0.045005
O O13 0.255818 0.693129 0.750000
O O14 0.244463 0.750000 0.000000
#
# Coordination Sequence:
#
# PCOD9434673 Si02
#       5
#     8   8   8   8   8
#     4   9  19  36  59  84 112 149 188 228 280 338
#     4  10  18  33  55  82 114 151 190 227 273 329
#     4  10  21  39  60  83 112 147 186 232 287 340
#     4  10  20  38  61  83 113 150 188 232 282 334
#     4  11  21  34  55  84 117 153 192 231 274 330
#
# _framework density 21.181573
#
# number of rings (size 3 to 8) (size 9 to 14) (size 15 to 20)
#    0.000    2.000    2.000    3.600    0.000    2.400 
#    0.000    5.000    0.000    0.000    0.000    0.000 
#    0.000    0.000    0.000    0.000    0.000    0.000 
#
# Total GULP energy -223414.546030 kJ/mol
# GULP energy per Si atom -5585.363651 kJ/mol
# Density = 2.113336 g / cm^3
# Si number density = 21.181573 Si / 1000 Ang^3
#
#
#
# Elastic Constant Matrix: (Units=GPa)
#
#
# Indices 1 2 3 4 5 6 
#
# 1 170.5776 82.3219 -1.7242 0.0000 0.0000 0.0000
# 2 82.3219 124.7061 -13.7773 0.0000 0.0000 0.0000
# 3 -1.7242 -13.7773 29.3417 0.0000 0.0000 0.0000
# 4 0.0000 0.0000 0.0000 29.1245 0.0000 0.0000
# 5 0.0000 0.0000 0.0000 0.0000 1.7633 0.0000
# 6 0.0000 0.0000 0.0000 0.0000 0.0000 -6.3239
#
#
#
# Elastic Compliance Matrix: (Units=1/GPa)
#
#
# Indices 1 2 3 4 5 6 
#
# 1 0.008750 -0.006032 -0.002318 0.000000 0.000000 0.000000
# 2 -0.006032 0.012616 0.005569 0.000000 0.000000 0.000000
# 3 -0.002318 0.005569 0.036560 0.000000 0.000000 0.000000
# 4 0.000000 0.000000 0.000000 0.034335 0.000000 0.000000
# 5 0.000000 0.000000 0.000000 0.000000 0.567128 0.000000
# 6 0.000000 0.000000 0.000000 0.000000 0.000000 -0.158131
#
#
# Mechanical properties :
#
#
# Convention : Reuss Voigt Hill
#
# Bulk Modulus (GPa) = 19.09703 50.91848 35.00775
# Shear Modulus (GPa) = 9.53696 22.09978 15.81837
#
# Velocity S-wave (km/s) = 2.12421 3.23360 2.73573
# Velocity P-wave (km/s) = 3.87966 6.16707 5.15192
#
# Compressibility (1/GPa) = 0.05236417
#
# Stress axis : x y z
#
# Youngs Moduli (GPa) = 114.28191 79.26238 27.35223
#
# Poissons Ratio (x) = 0.47814 0.06341
# Poissons Ratio (y) = 0.68940 -0.15234
# Poissons Ratio (z) = 0.26494 -0.44145
#
# Static dielectric constant tensor:
#      x y z
#    x 1.781720 0.000000 0.000000 
#    y 0.000000 1.713100 0.000000 
#    z 0.000000 0.000000 1.758680 
# 
# From -- ./inp_files/1807.got.cif
#   From: 2010.05.17/outbox.cif.g08.bks.cpg/sg57_1_cif.got.tgz:1807.got - 2010.06.03 13:58:18.
