data_PCOD9434429
_publ_section_title
;
Structure prediction by ZEFSAII (Michael W. Deem and Ramdas Pophale) SiO2 
 PCOD9434429
Probable space group: P B C M
;
_chemical_formula_sum "Si O2"
_cell_formula_units_Z 64
_cell_length_a 20.289630
_cell_length_b 20.514006
_cell_length_c 8.623660
_cell_angle_alpha 90.000000
_cell_angle_beta 90.000000
_cell_angle_gamma 90.000000
_cell_volume 3589.353490
_symmetry_space_group_name_H-M "P B C M"
_symmetry_group_IT_number 57
_symmetry_cell_setting 'orthorhombic'
loop_
_space_group_symop_operation_xyz
x,y,z
-x,-y,1/2+z
x,1/2-y,-z
-x,1/2+y,1/2-z
-x,-y,-z
x,y,1/2-z
-x,1/2+y,z
x,1/2-y,1/2+z
loop_
_atom_site_type_symbol
_atom_site_label
_atom_site_fract_x
_atom_site_fract_y
_atom_site_fract_z
Si Si1 0.979294 0.929410 0.436288
Si Si2 0.388535 0.179715 0.436908
Si Si3 0.158672 0.028890 0.563448
Si Si4 0.239293 0.819926 0.933884
Si Si5 0.541200 0.320745 0.564293
Si Si6 0.349255 0.914849 0.064464
Si Si7 0.883365 0.113095 0.936198
Si Si8 0.697675 0.556624 0.062269
O O1 0.981700 0.931495 0.250000
O O2 0.902506 0.923181 0.479274
O O3 0.039502 0.882644 0.483946
O O4 0.000000 0.000000 0.500000
O O5 0.367375 0.250000 0.500000
O O6 0.387381 0.181644 0.250000
O O7 0.464951 0.169412 0.483790
O O8 0.342529 0.120323 0.488202
O O9 0.159592 0.020845 0.750000
O O10 0.229003 0.053226 0.505655
O O11 0.142279 0.958670 0.487553
O O12 0.246044 0.820700 0.750000
O O13 0.259283 0.750000 0.000000
O O14 0.285624 0.875281 0.006152
O O15 0.164708 0.835800 0.983663
O O16 0.562509 0.250000 0.500000
O O17 0.544656 0.318825 0.750000
O O18 0.587678 0.377844 0.503141
O O19 0.351745 0.911853 0.250000
O O20 0.340303 0.990115 0.017615
O O21 0.877820 0.118684 0.750000
O O22 0.702261 0.557101 0.250000
#
# Coordination Sequence:
#
# PCOD9434429 Si02
#       8
#     8   8   8   8   8   8   8   8
#     4   8  16  28  46  72 102 134 170 213 259 308
#     4   9  20  39  60  82 106 138 177 221 271 328
#     4  10  18  30  50  79 109 139 177 219 264 315
#     4  12  24  37  53  75 106 145 189 229 271 326
#     4  10  20  36  57  79 107 141 182 225 267 317
#     4  11  22  36  54  78 110 144 180 221 270 322
#     4  10  18  32  51  73 104 140 177 222 271 315
#     4  10  21  36  55  79 112 146 177 220 276 325
#
# _framework density 17.830508999999999
#
# number of rings (size 3 to 8) (size 9 to 14) (size 15 to 20)
#    0.000    2.000    1.250    3.000    0.000    3.000 
#    0.000    0.000    0.000    0.750    0.000    1.750 
#    0.000    0.000    0.000    0.000    0.000    0.000 
#
# Total GULP energy -357051.621852 kJ/mol
# GULP energy per Si atom -5578.931591 kJ/mol
# Density = 1.778993 g / cm^3
# Si number density = 17.830509 Si / 1000 Ang^3
#
#
#
# Elastic Constant Matrix: (Units=GPa)
#
#
# Indices 1 2 3 4 5 6 
#
# 1 113.3062 67.6713 23.2700 0.0000 0.0000 0.0000
# 2 67.6713 107.5364 25.1791 0.0000 0.0000 0.0000
# 3 23.2700 25.1791 33.6231 0.0000 0.0000 0.0000
# 4 0.0000 0.0000 0.0000 22.0278 0.0000 0.0000
# 5 0.0000 0.0000 0.0000 0.0000 22.7248 0.0000
# 6 0.0000 0.0000 0.0000 0.0000 0.0000 18.3058
#
#
#
# Elastic Compliance Matrix: (Units=1/GPa)
#
#
# Indices 1 2 3 4 5 6 
#
# 1 0.014549 -0.008243 -0.003896 0.000000 0.000000 0.000000
# 2 -0.008243 0.015947 -0.006237 0.000000 0.000000 0.000000
# 3 -0.003896 -0.006237 0.037109 0.000000 0.000000 0.000000
# 4 0.000000 0.000000 0.000000 0.045397 0.000000 0.000000
# 5 0.000000 0.000000 0.000000 0.000000 0.044005 0.000000
# 6 0.000000 0.000000 0.000000 0.000000 0.000000 0.054627
#
#
# Mechanical properties :
#
#
# Convention : Reuss Voigt Hill
#
# Bulk Modulus (GPa) = 32.41302 54.07848 43.24575
# Shear Modulus (GPa) = 19.32960 21.83470 20.58215
#
# Velocity S-wave (km/s) = 3.29610 3.50318 3.40122
# Velocity P-wave (km/s) = 5.71870 6.83799 6.30324
#
# Compressibility (1/GPa) = 0.03085180
#
# Stress axis : x y z
#
# Youngs Moduli (GPa) = 68.73310 62.70796 26.94796
#
# Poissons Ratio (x) = 0.51692 0.10499
# Poissons Ratio (y) = 0.56659 0.16808
# Poissons Ratio (z) = 0.26779 0.39111
#
# Static dielectric constant tensor:
#      x y z
#    x 1.641730 0.000000 0.000000 
#    y 0.000000 1.582770 0.000000 
#    z 0.000000 0.000000 1.629320 
# 
# From -- ./inp_files/8428.got.cif
#   From: 2010.05.17/outbox.cif.g08.bks.cpg/sg57_5_cif.got.tgz:8428.got - 2010.06.03 13:58:18.
