data_PCOD9434189
_publ_section_title
;
Structure prediction by ZEFSAII (Michael W. Deem and Ramdas Pophale) SiO2 
 PCOD9434189
Probable space group: P B C M
;
_chemical_formula_sum "Si O2"
_cell_formula_units_Z 64
_cell_length_a 12.826511
_cell_length_b 31.995086
_cell_length_c 8.015598
_cell_angle_alpha 90.000000
_cell_angle_beta 90.000000
_cell_angle_gamma 90.000000
_cell_volume 3289.483770
_symmetry_space_group_name_H-M "P B C M"
_symmetry_group_IT_number 57
_symmetry_cell_setting 'orthorhombic'
loop_
_space_group_symop_operation_xyz
x,y,z
-x,-y,1/2+z
x,1/2-y,-z
-x,1/2+y,1/2-z
-x,-y,-z
x,y,1/2-z
-x,1/2+y,z
x,1/2-y,1/2+z
loop_
_atom_site_type_symbol
_atom_site_label
_atom_site_fract_x
_atom_site_fract_y
_atom_site_fract_z
Si Si1 0.805071 0.886216 0.945588
Si Si2 0.578230 0.880780 0.438091
Si Si3 0.606045 0.980276 0.061745
Si Si4 0.016163 0.853581 0.048925
Si Si5 0.200036 0.797307 0.049653
Si Si6 0.159120 0.568599 0.954198
Si Si7 0.171285 0.478804 0.559837
Si Si8 0.653442 0.373430 0.454604
O O1 0.800559 0.893938 0.750000
O O2 0.833274 0.932547 0.021804
O O3 0.691383 0.869035 0.992336
O O4 0.898758 0.855539 0.987694
O O5 0.573794 0.864057 0.250000
O O6 0.586236 0.930891 0.433958
O O7 0.465282 0.872313 0.517803
O O8 0.631728 0.994168 0.250000
O O9 0.704205 0.987955 0.943765
O O10 0.500000 0.000000 0.000000
O O11 0.015003 0.853393 0.250000
O O12 0.088293 0.815276 0.990987
O O13 0.075747 0.896170 0.996464
O O14 0.199297 0.799187 0.250000
O O15 0.285832 0.831318 0.995715
O O16 0.219730 0.750000 0.000000
O O17 0.159852 0.566763 0.750000
O O18 0.129511 0.522222 0.016500
O O19 0.272463 0.587479 0.004722
O O20 0.132429 0.476284 0.750000
O O21 0.649570 0.375425 0.250000
#
# Coordination Sequence:
#
# PCOD9434189 Si02
#       8
#     8   8   8   8   8   8   8   8
#     4  10  20  31  44  67  99 131 165 206 245 274
#     4   9  17  30  48  66  88 125 167 197 226 276
#     4  10  18  26  39  60  86 120 161 203 241 276
#     4   9  18  33  52  71  93 126 165 196 228 284
#     4   9  18  33  55  81 102 119 144 184 235 288
#     4   8  14  27  47  68  91 123 163 203 240 280
#     4   9  17  29  43  61  89 125 163 204 246 279
#     4   8  14  27  49  74  95 119 155 193 229 278
#
# _framework density 19.455942
#
# number of rings (size 3 to 8) (size 9 to 14) (size 15 to 20)
#    0.000    3.000    0.000    3.000    0.000    4.000 
#    0.000    1.250    0.000    3.750    0.000    1.750 
#    0.000    0.000    0.000    0.000    0.000    0.000 
#
# Total GULP energy -356408.854503 kJ/mol
# GULP energy per Si atom -5568.888352 kJ/mol
# Density = 1.941166 g / cm^3
# Si number density = 19.455942 Si / 1000 Ang^3
#
#
#
# Elastic Constant Matrix: (Units=GPa)
#
#
# Indices 1 2 3 4 5 6 
#
# 1 105.9425 21.4107 10.0434 0.0000 0.0000 0.0000
# 2 21.4107 59.4984 0.8376 0.0000 0.0000 0.0000
# 3 10.0434 0.8376 20.3927 0.0000 0.0000 0.0000
# 4 0.0000 0.0000 0.0000 13.3913 0.0000 0.0000
# 5 0.0000 0.0000 0.0000 0.0000 9.1447 0.0000
# 6 0.0000 0.0000 0.0000 0.0000 0.0000 14.7913
#
#
#
# Elastic Compliance Matrix: (Units=1/GPa)
#
#
# Indices 1 2 3 4 5 6 
#
# 1 0.010686 -0.003773 -0.005108 0.000000 0.000000 0.000000
# 2 -0.003773 0.018149 0.001113 0.000000 0.000000 0.000000
# 3 -0.005108 0.001113 0.051507 0.000000 0.000000 0.000000
# 4 0.000000 0.000000 0.000000 0.074675 0.000000 0.000000
# 5 0.000000 0.000000 0.000000 0.000000 0.109353 0.000000
# 6 0.000000 0.000000 0.000000 0.000000 0.000000 0.067607
#
#
# Mechanical properties :
#
#
# Convention : Reuss Voigt Hill
#
# Bulk Modulus (GPa) = 15.43075 27.82413 21.62744
# Shear Modulus (GPa) = 13.54587 17.70159 15.62373
#
# Velocity S-wave (km/s) = 2.64149 3.01961 2.83685
# Velocity P-wave (km/s) = 4.15351 5.14680 4.67660
#
# Compressibility (1/GPa) = 0.06480566
#
# Stress axis : x y z
#
# Youngs Moduli (GPa) = 93.58110 55.09825 19.41483
#
# Poissons Ratio (x) = 0.20791 0.09917
# Poissons Ratio (y) = 0.35312 -0.02161
# Poissons Ratio (z) = 0.47800 -0.06132
#
# Static dielectric constant tensor:
#      x y z
#    x 1.716490 0.000000 0.000000 
#    y 0.000000 1.698620 0.000000 
#    z 0.000000 0.000000 1.730810 
# 
# From -- ./inp_files/3746.got.cif
#   From: 2010.05.17/outbox.cif.g08.bks.cpg/sg57_2_cif.got.tgz:3746.got - 2010.06.03 13:58:18.
