data_PCOD9434015
_publ_section_title
;
Structure prediction by ZEFSAII (Michael W. Deem and Ramdas Pophale) SiO2 
 PCOD9434015
Probable space group: P B C M
;
_chemical_formula_sum "Si O2"
_cell_formula_units_Z 32
_cell_length_a 20.345184
_cell_length_b 5.185040
_cell_length_c 14.243156
_cell_angle_alpha 90.000000
_cell_angle_beta 90.000000
_cell_angle_gamma 90.000000
_cell_volume 1502.518970
_symmetry_space_group_name_H-M "P B C M"
_symmetry_group_IT_number 57
_symmetry_cell_setting 'orthorhombic'
loop_
_space_group_symop_operation_xyz
x,y,z
-x,-y,1/2+z
x,1/2-y,-z
-x,1/2+y,1/2-z
-x,-y,-z
x,y,1/2-z
-x,1/2+y,z
x,1/2-y,1/2+z
loop_
_atom_site_type_symbol
_atom_site_label
_atom_site_fract_x
_atom_site_fract_y
_atom_site_fract_z
Si Si1 0.470880 0.527610 0.894426
Si Si2 0.039300 0.765459 0.887938
Si Si3 0.850767 0.045475 0.250000
Si Si4 0.679470 0.006669 0.936493
Si Si5 0.235322 0.038655 0.250000
O O1 0.488307 0.256575 0.850280
O O2 0.393799 0.577447 0.901088
O O3 0.500000 0.500000 0.000000
O O4 0.103587 0.877230 0.838387
O O5 0.016863 0.476201 0.861986
O O6 0.047458 0.750000 0.000000
O O7 0.792148 0.249097 0.250000
O O8 0.821870 0.757150 0.250000
O O9 0.723133 0.940717 0.845845
O O10 0.703150 0.250000 0.000000
O O11 0.674558 0.750000 0.000000
#
# Coordination Sequence:
#
# PCOD9434015 Si02
#       5
#     8   8   4   8   4
#     4  10  16  32  62  92 112 154 207 265 353 405
#     4  10  21  39  69 104 128 162 215 271 326 376
#     4  12  24  45  64  89 146 176 216 268 318 388
#     4  12  23  43  68  87 132 170 215 286 334 387
#     4  12  30  43  60 101 128 186 242 250 314 432
#
# _framework density 21.297568999999999
#
# number of rings (size 3 to 8) (size 9 to 14) (size 15 to 20)
#    0.000    1.000    5.000    3.750    0.000    3.000 
#    0.000    1.250    0.000    0.000    0.000    0.000 
#    0.000    0.000    0.000    0.000    0.000    0.000 
#
# Total GULP energy -178682.461200 kJ/mol
# GULP energy per Si atom -5583.826912 kJ/mol
# Density = 2.124909 g / cm^3
# Si number density = 21.297569 Si / 1000 Ang^3
#
#
#
# Elastic Constant Matrix: (Units=GPa)
#
#
# Indices 1 2 3 4 5 6 
#
# 1 64.2649 -8.5543 33.5327 0.0000 0.0000 0.0000
# 2 -8.5543 117.6004 16.2903 0.0000 0.0000 0.0000
# 3 33.5327 16.2903 122.9205 0.0000 0.0000 0.0000
# 4 0.0000 0.0000 0.0000 6.1752 0.0000 0.0000
# 5 0.0000 0.0000 0.0000 0.0000 95.6198 0.0000
# 6 0.0000 0.0000 0.0000 0.0000 0.0000 43.3098
#
#
#
# Elastic Compliance Matrix: (Units=1/GPa)
#
#
# Indices 1 2 3 4 5 6 
#
# 1 0.018638 0.002099 -0.005363 0.000000 0.000000 0.000000
# 2 0.002099 0.008899 -0.001752 0.000000 0.000000 0.000000
# 3 -0.005363 -0.001752 0.009830 0.000000 0.000000 0.000000
# 4 0.000000 0.000000 0.000000 0.161939 0.000000 0.000000
# 5 0.000000 0.000000 0.000000 0.000000 0.010458 0.000000
# 6 0.000000 0.000000 0.000000 0.000000 0.000000 0.023089
#
#
# Mechanical properties :
#
#
# Convention : Reuss Voigt Hill
#
# Bulk Modulus (GPa) = 36.58237 43.03590 39.80913
# Shear Modulus (GPa) = 19.84150 46.58874 33.21512
#
# Velocity S-wave (km/s) = 3.05558 4.68216 3.95343
# Velocity P-wave (km/s) = 5.44636 7.03427 6.29062
#
# Compressibility (1/GPa) = 0.02733557
#
# Stress axis : x y z
#
# Youngs Moduli (GPa) = 53.65354 112.37604 101.72500
#
# Poissons Ratio (x) = -0.23583 0.54551
# Poissons Ratio (y) = -0.11260 0.17820
# Poissons Ratio (z) = 0.28772 0.19686
#
# Static dielectric constant tensor:
#      x y z
#    x 1.738950 0.000000 0.000000 
#    y 0.000000 1.808520 0.000000 
#    z 0.000000 0.000000 1.764790 
# 
# From -- ./inp_files/18829.got.cif
#   From: 2010.05.17/outbox.cif.g08.bks.cpg/sg57_10_cif.got.tgz:18829.got - 2010.06.03 13:58:18.
