data_PCOD9434285
_publ_section_title
;
Structure prediction by ZEFSAII (Michael W. Deem and Ramdas Pophale) SiO2 
 PCOD9434285
Probable space group: P B C M
;
_chemical_formula_sum "Si O2"
_cell_formula_units_Z 64
_cell_length_a 21.984347
_cell_length_b 19.245454
_cell_length_c 9.039185
_cell_angle_alpha 90.000000
_cell_angle_beta 90.000000
_cell_angle_gamma 90.000000
_cell_volume 3824.467774
_symmetry_space_group_name_H-M "P B C M"
_symmetry_group_IT_number 57
_symmetry_cell_setting 'orthorhombic'
loop_
_space_group_symop_operation_xyz
x,y,z
-x,-y,1/2+z
x,1/2-y,-z
-x,1/2+y,1/2-z
-x,-y,-z
x,y,1/2-z
-x,1/2+y,z
x,1/2-y,1/2+z
loop_
_atom_site_type_symbol
_atom_site_label
_atom_site_fract_x
_atom_site_fract_y
_atom_site_fract_z
Si Si1 0.906083 0.175106 0.572491
Si Si2 0.390136 0.180484 0.573309
Si Si3 0.730742 0.865290 0.580558
Si Si4 0.322499 0.977568 0.418278
Si Si5 0.845677 0.581899 0.927023
Si Si6 0.194247 0.937148 0.428520
Si Si7 0.984926 0.925924 0.427817
Si Si8 0.439170 0.471619 0.426136
O O1 0.904749 0.250000 0.500000
O O2 0.908311 0.182306 0.750000
O O3 0.846927 0.128876 0.535988
O O4 0.965067 0.130463 0.525911
O O5 0.416452 0.250000 0.500000
O O6 0.389732 0.186476 0.750000
O O7 0.321344 0.172276 0.512842
O O8 0.424717 0.108886 0.532512
O O9 0.733105 0.840261 0.750000
O O10 0.796591 0.868047 0.504705
O O11 0.707758 0.945520 0.584083
O O12 0.340846 0.960606 0.250000
O O13 0.265748 0.929900 0.465151
O O14 0.381184 0.983684 0.519974
O O15 0.837217 0.583646 0.750000
O O16 0.916018 0.596696 0.962761
O O17 0.831937 0.504367 0.987729
O O18 0.190603 0.949704 0.250000
O O19 0.989038 0.933985 0.250000
O O20 0.000000 0.000000 0.500000
O O21 0.500000 0.500000 0.500000
O O22 0.444146 0.474716 0.250000
#
# Coordination Sequence:
#
# PCOD9434285 Si02
#       8
#     8   8   8   8   8   8   8   8
#     4  10  21  36  51  71 100 132 169 215 267 323
#     4  10  20  34  53  78 107 140 178 219 261 311
#     4   9  17  30  48  71 100 134 166 203 252 302
#     4   8  15  28  48  73  98 126 161 201 247 296
#     4  10  18  28  47  75 100 125 164 215 261 304
#     4   9  17  31  51  72  97 128 162 206 257 310
#     4  10  20  33  51  73  99 131 173 222 266 317
#     4  10  20  33  52  79 110 142 176 215 254 299
#
# _framework density 16.734355000000001
#
# number of rings (size 3 to 8) (size 9 to 14) (size 15 to 20)
#    0.000    2.500    1.250    2.250    0.000    6.000 
#    0.000    0.625    0.000    2.250    0.000    1.750 
#    0.000    0.000    0.000    0.000    0.000    0.000 
#
# Total GULP energy -356764.553773 kJ/mol
# GULP energy per Si atom -5574.446153 kJ/mol
# Density = 1.669627 g / cm^3
# Si number density = 16.734355 Si / 1000 Ang^3
#
#
#
# Elastic Constant Matrix: (Units=GPa)
#
#
# Indices 1 2 3 4 5 6 
#
# 1 143.2483 58.8409 53.8921 0.0000 0.0000 0.0000
# 2 58.8409 85.3188 35.5192 0.0000 0.0000 0.0000
# 3 53.8921 35.5192 51.0101 0.0000 0.0000 0.0000
# 4 0.0000 0.0000 0.0000 25.9781 0.0000 0.0000
# 5 0.0000 0.0000 0.0000 0.0000 28.0657 0.0000
# 6 0.0000 0.0000 0.0000 0.0000 0.0000 15.7067
#
#
#
# Elastic Compliance Matrix: (Units=1/GPa)
#
#
# Indices 1 2 3 4 5 6 
#
# 1 0.012688 -0.004464 -0.010297 0.000000 0.000000 0.000000
# 2 -0.004464 0.018076 -0.007870 0.000000 0.000000 0.000000
# 3 -0.010297 -0.007870 0.035963 0.000000 0.000000 0.000000
# 4 0.000000 0.000000 0.000000 0.038494 0.000000 0.000000
# 5 0.000000 0.000000 0.000000 0.000000 0.035631 0.000000
# 6 0.000000 0.000000 0.000000 0.000000 0.000000 0.063667
#
#
# Mechanical properties :
#
#
# Convention : Reuss Voigt Hill
#
# Bulk Modulus (GPa) = 46.58820 64.00908 55.29864
# Shear Modulus (GPa) = 19.46006 22.70508 21.08257
#
# Velocity S-wave (km/s) = 3.41380 3.68747 3.55327
# Velocity P-wave (km/s) = 6.59083 7.51419 7.06760
#
# Compressibility (1/GPa) = 0.02146466
#
# Stress axis : x y z
#
# Youngs Moduli (GPa) = 78.81255 55.32238 27.80633
#
# Poissons Ratio (x) = 0.24695 0.28632
# Poissons Ratio (y) = 0.35181 0.21885
# Poissons Ratio (z) = 0.81153 0.43541
#
# Static dielectric constant tensor:
#      x y z
#    x 1.573300 0.000000 0.000000 
#    y 0.000000 1.558020 0.000000 
#    z 0.000000 0.000000 1.565150 
# 
# From -- ./inp_files/8540.got.cif
#   From: 2010.05.17/outbox.cif.g08.bks.cpg/sg57_5_cif.got.tgz:8540.got - 2010.06.03 13:58:18.
