data_PCOD9434601
_publ_section_title
;
Structure prediction by ZEFSAII (Michael W. Deem and Ramdas Pophale) SiO2 
 PCOD9434601
Probable space group: P B C M
;
_chemical_formula_sum "Si O2"
_cell_formula_units_Z 48
_cell_length_a 18.650067
_cell_length_b 15.408404
_cell_length_c 8.542189
_cell_angle_alpha 90.000000
_cell_angle_beta 90.000000
_cell_angle_gamma 90.000000
_cell_volume 2454.749778
_symmetry_space_group_name_H-M "P B C M"
_symmetry_group_IT_number 57
_symmetry_cell_setting 'orthorhombic'
loop_
_space_group_symop_operation_xyz
x,y,z
-x,-y,1/2+z
x,1/2-y,-z
-x,1/2+y,1/2-z
-x,-y,-z
x,y,1/2-z
-x,1/2+y,z
x,1/2-y,1/2+z
loop_
_atom_site_type_symbol
_atom_site_label
_atom_site_fract_x
_atom_site_fract_y
_atom_site_fract_z
Si Si1 0.054656 0.654844 0.060959
Si Si2 0.110339 0.155502 0.437057
Si Si3 0.334196 0.971937 0.937499
Si Si4 0.474641 0.906325 0.063348
Si Si5 0.826964 0.017958 0.438606
Si Si6 0.616362 0.659034 0.064253
O O1 0.055618 0.655827 0.250000
O O2 0.110320 0.582245 0.005462
O O3 0.972348 0.638183 0.011182
O O4 0.074680 0.750000 0.000000
O O5 0.131011 0.250000 0.500000
O O6 0.111970 0.157137 0.250000
O O7 0.158747 0.078059 0.498800
O O8 0.342519 0.968139 0.750000
O O9 0.252591 0.951474 0.982180
O O10 0.350360 0.071434 0.990317
O O11 0.391719 0.906843 0.014172
O O12 0.482095 0.900915 0.250000
O O13 0.531946 0.844258 0.981629
O O14 0.500000 0.000000 0.000000
O O15 0.829882 0.015163 0.250000
O O16 0.624389 0.845216 0.750000
O O17 0.646470 0.750000 0.000000
#
# Coordination Sequence:
#
# PCOD9434601 Si02
#       6
#     8   8   8   8   8   8
#     4   9  19  36  56  80 106 139 181 229 277 324
#     4  10  20  34  55  80 109 142 182 227 274 327
#     4  10  20  35  53  75 105 141 174 212 262 316
#     4  10  18  32  53  75  99 130 167 206 247 298
#     4  10  21  36  55  79 111 146 183 225 274 326
#     4  11  21  35  55  79 105 134 172 217 261 313
#
# _framework density 19.553927000000002
#
# number of rings (size 3 to 8) (size 9 to 14) (size 15 to 20)
#    0.000    2.000    0.000    6.500    0.000    3.333 
#    0.000    0.833    0.000    2.000    0.000    0.000 
#    0.000    0.000    0.000    0.000    0.000    0.000 
#
# Total GULP energy -267947.852122 kJ/mol
# GULP energy per Si atom -5582.246919 kJ/mol
# Density = 1.950942 g / cm^3
# Si number density = 19.553927 Si / 1000 Ang^3
#
#
#
# Elastic Constant Matrix: (Units=GPa)
#
#
# Indices 1 2 3 4 5 6 
#
# 1 47.6179 -6.0954 2.8264 0.0000 0.0000 0.0000
# 2 -6.0954 17.4258 -14.0022 0.0000 0.0000 0.0000
# 3 2.8264 -14.0022 37.5494 0.0000 0.0000 0.0000
# 4 0.0000 0.0000 0.0000 24.0189 0.0000 0.0000
# 5 0.0000 0.0000 0.0000 0.0000 20.9822 0.0000
# 6 0.0000 0.0000 0.0000 0.0000 0.0000 10.5564
#
#
#
# Elastic Compliance Matrix: (Units=1/GPa)
#
#
# Indices 1 2 3 4 5 6 
#
# 1 0.022064 0.009114 0.001738 0.000000 0.000000 0.000000
# 2 0.009114 0.085703 0.031273 0.000000 0.000000 0.000000
# 3 0.001738 0.031273 0.038162 0.000000 0.000000 0.000000
# 4 0.000000 0.000000 0.000000 0.041634 0.000000 0.000000
# 5 0.000000 0.000000 0.000000 0.000000 0.047659 0.000000
# 6 0.000000 0.000000 0.000000 0.000000 0.000000 0.094729
#
#
# Mechanical properties :
#
#
# Convention : Reuss Voigt Hill
#
# Bulk Modulus (GPa) = 4.34445 7.56119 5.95282
# Shear Modulus (GPa) = 15.50732 19.10244 17.30488
#
# Velocity S-wave (km/s) = 2.81918 3.12895 2.97809
# Velocity P-wave (km/s) = 3.58101 4.11449 3.85698
#
# Compressibility (1/GPa) = 0.23017864
#
# Stress axis : x y z
#
# Youngs Moduli (GPa) = 45.32260 11.66822 26.20390
#
# Poissons Ratio (x) = -0.10635 -0.04554
# Poissons Ratio (y) = -0.41308 -0.81946
# Poissons Ratio (z) = -0.07877 -0.36489
#
# Static dielectric constant tensor:
#      x y z
#    x 1.736810 0.000000 0.000000 
#    y 0.000000 1.644030 0.000000 
#    z 0.000000 0.000000 1.656750 
# 
# From -- ./inp_files/6511.got.cif
#   From: 2010.05.17/outbox.cif.g08.bks.cpg/sg57_4_cif.got.tgz:6511.got - 2010.06.03 13:58:18.
