data_PCOD9434286
_publ_section_title
;
Structure prediction by ZEFSAII (Michael W. Deem and Ramdas Pophale) SiO2 
 PCOD9434286
Probable space group: P B C M
;
_chemical_formula_sum "Si O2"
_cell_formula_units_Z 64
_cell_length_a 17.058880
_cell_length_b 24.401993
_cell_length_c 8.899495
_cell_angle_alpha 90.000000
_cell_angle_beta 90.000000
_cell_angle_gamma 90.000000
_cell_volume 3704.598749
_symmetry_space_group_name_H-M "P B C M"
_symmetry_group_IT_number 57
_symmetry_cell_setting 'orthorhombic'
loop_
_space_group_symop_operation_xyz
x,y,z
-x,-y,1/2+z
x,1/2-y,-z
-x,1/2+y,1/2-z
-x,-y,-z
x,y,1/2-z
-x,1/2+y,z
x,1/2-y,1/2+z
loop_
_atom_site_type_symbol
_atom_site_label
_atom_site_fract_x
_atom_site_fract_y
_atom_site_fract_z
Si Si1 0.186333 0.020773 0.070506
Si Si2 0.124435 0.191241 0.928498
Si Si3 0.144769 0.588823 0.071013
Si Si4 0.232435 0.689287 0.570475
Si Si5 0.271239 0.369290 0.569753
Si Si6 0.591234 0.189292 0.570633
Si Si7 0.964425 0.592648 0.430008
Si Si8 0.433269 0.310952 0.929935
O O1 0.188637 0.012083 0.250000
O O2 0.249754 0.067807 0.031934
O O3 0.101691 0.047754 0.031873
O O4 0.193236 0.963104 0.988711
O O5 0.124655 0.194527 0.750000
O O6 0.109589 0.250000 0.000000
O O7 0.207847 0.168537 0.987220
O O8 0.060995 0.147721 0.986373
O O9 0.151489 0.593163 0.250000
O O10 0.053419 0.578201 0.032617
O O11 0.173346 0.645125 0.996898
O O12 0.223712 0.750000 0.500000
O O13 0.223883 0.693725 0.750000
O O14 0.321416 0.667783 0.539227
O O15 0.258874 0.363639 0.750000
O O16 0.358129 0.348373 0.535258
O O17 0.592830 0.250000 0.500000
O O18 0.581111 0.192081 0.750000
O O19 0.513736 0.164166 0.496402
O O20 0.958947 0.601350 0.250000
O O21 0.440009 0.305404 0.750000
O O22 0.422059 0.250000 0.000000
#
# Coordination Sequence:
#
# PCOD9434286 Si02
#       8
#     8   8   8   8   8   8   8   8
#     4   9  18  35  55  73 100 134 167 207 252 296
#     4  11  21  32  49  71  99 136 172 207 250 300
#     4  11  22  35  55  80 102 128 166 209 251 301
#     4  10  21  37  56  78 105 135 165 203 253 303
#     4   9  19  34  50  72 103 137 171 208 250 294
#     4   9  17  30  49  73 101 132 165 202 246 295
#     4   9  20  37  53  72 100 132 167 210 256 299
#     4  10  18  28  47  75 105 136 169 204 245 294
#
# _framework density 17.275824
#
# number of rings (size 3 to 8) (size 9 to 14) (size 15 to 20)
#    0.000    2.250    0.000    4.875    0.000    7.000 
#    0.000    0.000    0.000    0.750    0.000    0.000 
#    0.000    0.000    0.000    0.000    0.000    0.000 
#
# Total GULP energy -356948.623889 kJ/mol
# GULP energy per Si atom -5577.322248 kJ/mol
# Density = 1.723650 g / cm^3
# Si number density = 17.275824 Si / 1000 Ang^3
#
#
#
# Elastic Constant Matrix: (Units=GPa)
#
#
# Indices 1 2 3 4 5 6 
#
# 1 59.1737 20.9246 22.3236 0.0000 0.0000 0.0000
# 2 20.9246 91.2391 34.4472 0.0000 0.0000 0.0000
# 3 22.3236 34.4472 39.0841 0.0000 0.0000 0.0000
# 4 0.0000 0.0000 0.0000 26.0260 0.0000 0.0000
# 5 0.0000 0.0000 0.0000 0.0000 15.4520 0.0000
# 6 0.0000 0.0000 0.0000 0.0000 0.0000 12.2798
#
#
#
# Elastic Compliance Matrix: (Units=1/GPa)
#
#
# Indices 1 2 3 4 5 6 
#
# 1 0.021553 -0.000442 -0.011920 0.000000 0.000000 0.000000
# 2 -0.000442 0.016435 -0.014233 0.000000 0.000000 0.000000
# 3 -0.011920 -0.014233 0.044939 0.000000 0.000000 0.000000
# 4 0.000000 0.000000 0.000000 0.038423 0.000000 0.000000
# 5 0.000000 0.000000 0.000000 0.000000 0.064716 0.000000
# 6 0.000000 0.000000 0.000000 0.000000 0.000000 0.081434
#
#
# Mechanical properties :
#
#
# Convention : Reuss Voigt Hill
#
# Bulk Modulus (GPa) = 33.62964 38.32087 35.97526
# Shear Modulus (GPa) = 15.12386 18.20501 16.66443
#
# Velocity S-wave (km/s) = 2.96198 3.24973 3.10919
# Velocity P-wave (km/s) = 5.58627 6.02585 5.81022
#
# Compressibility (1/GPa) = 0.02973567
#
# Stress axis : x y z
#
# Youngs Moduli (GPa) = 46.39752 60.84512 22.25258
#
# Poissons Ratio (x) = 0.02691 0.26526
# Poissons Ratio (y) = 0.02052 0.31671
# Poissons Ratio (z) = 0.55308 0.86599
#
# Static dielectric constant tensor:
#      x y z
#    x 1.614580 0.000000 0.000000 
#    y 0.000000 1.563440 0.000000 
#    z 0.000000 0.000000 1.574850 
# 
# From -- ./inp_files/7346.got.cif
#   From: 2010.05.17/outbox.cif.g08.bks.cpg/sg57_4_cif.got.tgz:7346.got - 2010.06.03 13:58:18.
