data_PCOD9434766
_publ_section_title
;
Structure prediction by ZEFSAII (Michael W. Deem and Ramdas Pophale) SiO2 
 PCOD9434766
Probable space group: P B C M
;
_chemical_formula_sum "Si O2"
_cell_formula_units_Z 56
_cell_length_a 7.196909
_cell_length_b 16.280083
_cell_length_c 22.522463
_cell_angle_alpha 90.000000
_cell_angle_beta 90.000000
_cell_angle_gamma 90.000000
_cell_volume 2638.873113
_symmetry_space_group_name_H-M "P B C M"
_symmetry_group_IT_number 57
_symmetry_cell_setting 'orthorhombic'
loop_
_space_group_symop_operation_xyz
x,y,z
-x,-y,1/2+z
x,1/2-y,-z
-x,1/2+y,1/2-z
-x,-y,-z
x,y,1/2-z
-x,1/2+y,z
x,1/2-y,1/2+z
loop_
_atom_site_type_symbol
_atom_site_label
_atom_site_fract_x
_atom_site_fract_y
_atom_site_fract_z
Si Si1 0.400152 0.765599 0.067758
Si Si2 0.084042 0.211236 0.184489
Si Si3 0.843801 0.794433 0.438595
Si Si4 0.355070 0.062096 0.315339
Si Si5 0.230666 0.019473 0.952125
Si Si6 0.252070 0.887366 0.857021
Si Si7 0.329155 0.949688 0.075446
O O1 0.623367 0.774606 0.067722
O O2 0.339123 0.688070 0.105770
O O3 0.314018 0.852749 0.086348
O O4 0.345048 0.750000 0.000000
O O5 0.091338 0.252418 0.250000
O O6 0.073493 0.264269 0.124181
O O7 0.262239 0.151630 0.179183
O O8 0.908076 0.150742 0.182559
O O9 0.905953 0.750000 0.500000
O O10 0.861832 0.891896 0.446362
O O11 0.309851 0.029837 0.250000
O O12 0.576414 0.072007 0.322686
O O13 0.284830 0.003455 0.367287
O O14 0.451733 0.034429 0.939370
O O15 0.170709 0.953183 0.903488
O O16 0.220963 0.982252 0.017911
#
# Coordination Sequence:
#
# PCOD9434766 Si02
#       7
#     8   8   8   8   8   8   8
#     4  10  18  34  63  95 124 157 201 256 313 366
#     4  11  24  42  62  89 123 163 209 255 308 373
#     4  10  20  38  63  93 126 164 204 257 310 369
#     4  10  21  40  61  82 117 161 201 254 309 366
#     4   9  18  33  61  92 122 155 202 251 314 360
#     4  11  21  39  64  88 119 162 207 250 311 374
#     4   9  17  33  60  93 118 155 200 253 305 371
#
# _framework density 21.221178999999999
#
# number of rings (size 3 to 8) (size 9 to 14) (size 15 to 20)
#    0.000    2.000    2.857    1.286    4.000    0.571 
#    2.571   10.000    0.000    0.000    0.000    0.000 
#    0.000    0.000    0.000    0.000    0.000    0.000 
#
# Total GULP energy -313006.128533 kJ/mol
# GULP energy per Si atom -5589.395152 kJ/mol
# Density = 2.117288 g / cm^3
# Si number density = 21.221179 Si / 1000 Ang^3
#
#
#
# Elastic Constant Matrix: (Units=GPa)
#
#
# Indices 1 2 3 4 5 6 
#
# 1 69.5230 6.7757 19.4461 0.0000 0.0000 0.0000
# 2 6.7757 108.8435 58.8622 0.0000 0.0000 0.0000
# 3 19.4461 58.8622 159.3474 0.0000 0.0000 0.0000
# 4 0.0000 0.0000 0.0000 30.6037 0.0000 0.0000
# 5 0.0000 0.0000 0.0000 0.0000 22.5771 0.0000
# 6 0.0000 0.0000 0.0000 0.0000 0.0000 6.1963
#
#
#
# Elastic Compliance Matrix: (Units=1/GPa)
#
#
# Indices 1 2 3 4 5 6 
#
# 1 0.014892 0.000070 -0.001843 0.000000 0.000000 0.000000
# 2 0.000070 0.011481 -0.004250 0.000000 0.000000 0.000000
# 3 -0.001843 -0.004250 0.008070 0.000000 0.000000 0.000000
# 4 0.000000 0.000000 0.000000 0.032676 0.000000 0.000000
# 5 0.000000 0.000000 0.000000 0.000000 0.044293 0.000000
# 6 0.000000 0.000000 0.000000 0.000000 0.000000 0.161387
#
#
# Mechanical properties :
#
#
# Convention : Reuss Voigt Hill
#
# Bulk Modulus (GPa) = 44.64702 56.43132 50.53917
# Shear Modulus (GPa) = 17.10501 28.71742 22.91121
#
# Velocity S-wave (km/s) = 2.84216 3.68264 3.28935
# Velocity P-wave (km/s) = 5.64403 6.68821 6.18818
#
# Compressibility (1/GPa) = 0.02239791
#
# Stress axis : x y z
#
# Youngs Moduli (GPa) = 67.14802 87.09761 123.91058
#
# Poissons Ratio (x) = -0.00607 0.22839
# Poissons Ratio (y) = -0.00468 0.52658
# Poissons Ratio (z) = 0.12376 0.37014
#
# Static dielectric constant tensor:
#      x y z
#    x 1.825730 0.000000 0.000000 
#    y 0.000000 1.729010 0.000000 
#    z 0.000000 0.000000 1.889460 
# 
# From -- ./inp_files/24526.got.cif
#   From: 2010.05.17/outbox.cif.g08.bks.cpg/sg57_13_cif.got.tgz:24526.got - 2010.06.03 13:58:18.
