data_PCOD9434788
_publ_section_title
;
Structure prediction by ZEFSAII (Michael W. Deem and Ramdas Pophale) SiO2 
 PCOD9434788
Probable space group: P B C M
;
_chemical_formula_sum "Si O2"
_cell_formula_units_Z 56
_cell_length_a 15.169458
_cell_length_b 9.593508
_cell_length_c 21.073138
_cell_angle_alpha 90.000000
_cell_angle_beta 90.000000
_cell_angle_gamma 90.000000
_cell_volume 3066.738300
_symmetry_space_group_name_H-M "P B C M"
_symmetry_group_IT_number 57
_symmetry_cell_setting 'orthorhombic'
loop_
_space_group_symop_operation_xyz
x,y,z
-x,-y,1/2+z
x,1/2-y,-z
-x,1/2+y,1/2-z
-x,-y,-z
x,y,1/2-z
-x,1/2+y,z
x,1/2-y,1/2+z
loop_
_atom_site_type_symbol
_atom_site_label
_atom_site_fract_x
_atom_site_fract_y
_atom_site_fract_z
Si Si1 0.522726 0.877072 0.547797
Si Si2 0.004925 0.868485 0.545002
Si Si3 0.143255 0.461253 0.865986
Si Si4 0.893992 0.793192 0.750000
Si Si5 0.287810 0.400783 0.529793
Si Si6 0.667621 0.351139 0.561460
Si Si7 0.159399 0.783875 0.633522
Si Si8 0.917150 0.455651 0.750000
O O1 0.533576 0.750000 0.500000
O O2 0.621540 0.901541 0.571754
O O3 0.433118 0.856696 0.587342
O O4 0.500000 0.000000 0.500000
O O5 0.965344 0.750000 0.500000
O O6 0.098703 0.817085 0.571756
O O7 0.949452 0.910554 0.605948
O O8 0.000000 0.000000 0.500000
O O9 0.160053 0.350018 0.810628
O O10 0.210613 0.450458 0.924484
O O11 0.140927 0.623620 0.846024
O O12 0.914425 0.626404 0.750000
O O13 0.984878 0.885710 0.750000
O O14 0.269699 0.250000 0.500000
O O15 0.303310 0.502958 0.470079
O O16 0.666127 0.250000 0.500000
O O17 0.739851 0.301748 0.611511
O O18 0.132049 0.891776 0.688354
#
# Coordination Sequence:
#
# PCOD9434788 Si02
#       8
#     8   8   8   4   8   8   8   4
#     4   8  16  30  53  86 122 158 186 228 286 354
#     4  12  24  36  56  87 121 148 181 233 295 346
#     4  12  24  41  61  83 117 155 200 243 286 348
#     4  12  28  46  64  81 108 157 204 251 292 342
#     4  10  20  34  57  92 128 153 191 238 296 353
#     4  10  18  35  60  89 124 155 192 236 293 355
#     4  12  24  41  61  84 115 156 202 242 285 350
#     4  12  28  46  64  81 108 155 208 247 294 340
#
# _framework density 18.260444
#
# number of rings (size 3 to 8) (size 9 to 14) (size 15 to 20)
#    0.000    1.143    4.286    3.000    4.000    0.000 
#    0.000    0.000    0.000    0.857    0.000    0.000 
#    0.000    0.000    0.000    0.000    0.000    0.000 
#
# Total GULP energy -312100.869270 kJ/mol
# GULP energy per Si atom -5573.229808 kJ/mol
# Density = 1.821888 g / cm^3
# Si number density = 18.260444 Si / 1000 Ang^3
#
#
#
# Elastic Constant Matrix: (Units=GPa)
#
#
# Indices 1 2 3 4 5 6 
#
# 1 82.9024 -10.3137 -1.5761 0.0000 0.0000 0.0000
# 2 -10.3137 145.1879 14.4471 0.0000 0.0000 0.0000
# 3 -1.5761 14.4471 54.1612 0.0000 0.0000 0.0000
# 4 0.0000 0.0000 0.0000 26.0397 0.0000 0.0000
# 5 0.0000 0.0000 0.0000 0.0000 -8.2542 0.0000
# 6 0.0000 0.0000 0.0000 0.0000 0.0000 19.9615
#
#
#
# Elastic Compliance Matrix: (Units=1/GPa)
#
#
# Indices 1 2 3 4 5 6 
#
# 1 0.012171 0.000852 0.000127 0.000000 0.000000 0.000000
# 2 0.000852 0.007135 -0.001878 0.000000 0.000000 0.000000
# 3 0.000127 -0.001878 0.018968 0.000000 0.000000 0.000000
# 4 0.000000 0.000000 0.000000 0.038403 0.000000 0.000000
# 5 0.000000 0.000000 0.000000 0.000000 -0.121150 0.000000
# 6 0.000000 0.000000 0.000000 0.000000 0.000000 0.050096
#
#
# Mechanical properties :
#
#
# Convention : Reuss Voigt Hill
#
# Bulk Modulus (GPa) = 27.41614 31.92956 29.67285
# Shear Modulus (GPa) = 255.35052 26.19567 140.77309
#
# Velocity S-wave (km/s) = 11.83814 3.79167 8.78972
# Velocity P-wave (km/s) = 14.20922 6.05744 10.92233
#
# Compressibility (1/GPa) = 0.03647487
#
# Stress axis : x y z
#
# Youngs Moduli (GPa) = 82.16406 140.15296 52.71992
#
# Poissons Ratio (x) = -0.11940 -0.00669
# Poissons Ratio (y) = -0.07000 0.09903
# Poissons Ratio (z) = -0.01043 0.26327
#
# Static dielectric constant tensor:
#      x y z
#    x 1.707900 0.000000 0.000000 
#    y 0.000000 1.673820 0.000000 
#    z 0.000000 0.000000 1.589990 
# 
# From -- ./inp_files/25435.got.cif
#   From: 2010.05.17/outbox.cif.g08.bks.cpg/sg57_13_cif.got.tgz:25435.got - 2010.06.03 13:58:18.
