data_PCOD9434099
_publ_section_title
;
Structure prediction by ZEFSAII (Michael W. Deem and Ramdas Pophale) SiO2 
 PCOD9434099
Probable space group: P B C M
;
_chemical_formula_sum "Si O2"
_cell_formula_units_Z 64
_cell_length_a 19.366384
_cell_length_b 9.105727
_cell_length_c 19.395587
_cell_angle_alpha 90.000000
_cell_angle_beta 90.000000
_cell_angle_gamma 90.000000
_cell_volume 3420.314900
_symmetry_space_group_name_H-M "P B C M"
_symmetry_group_IT_number 57
_symmetry_cell_setting 'orthorhombic'
loop_
_space_group_symop_operation_xyz
x,y,z
-x,-y,1/2+z
x,1/2-y,-z
-x,1/2+y,1/2-z
-x,-y,-z
x,y,1/2-z
-x,1/2+y,z
x,1/2-y,1/2+z
loop_
_atom_site_type_symbol
_atom_site_label
_atom_site_fract_x
_atom_site_fract_y
_atom_site_fract_z
Si Si1 0.049803 0.558668 0.330701
Si Si2 0.297827 0.328735 0.427205
Si Si3 0.852710 0.248395 0.582130
Si Si4 0.432116 0.324296 0.576823
Si Si5 0.296948 0.668121 0.426853
Si Si6 0.430018 0.679767 0.922414
Si Si7 0.169591 0.174734 0.673667
Si Si8 0.890539 0.998927 0.672284
O O1 0.051072 0.604007 0.250000
O O2 0.081441 0.680815 0.380302
O O3 0.103085 0.425569 0.339995
O O4 0.971496 0.514098 0.345391
O O5 0.282529 0.250000 0.500000
O O6 0.360333 0.236507 0.392912
O O7 0.319008 0.499333 0.437603
O O8 0.229983 0.333230 0.381241
O O9 0.861060 0.250000 0.500000
O O10 0.780459 0.325809 0.603368
O O11 0.850303 0.087266 0.614080
O O12 0.429813 0.250000 0.500000
O O13 0.501156 0.253407 0.609130
O O14 0.434571 0.502137 0.574793
O O15 0.287334 0.750000 0.500000
O O16 0.358351 0.759585 0.390575
O O17 0.428061 0.750000 0.000000
O O18 0.196143 0.134004 0.750000
O O19 0.140997 0.338431 0.675268
O O20 0.884484 0.063824 0.750000
#
# Coordination Sequence:
#
# PCOD9434099 Si02
#       8
#     8   8   8   8   8   8   8   8
#     4  10  20  41  62  81 106 147 193 236 280 331
#     4  11  21  34  56  81 112 150 184 227 283 331
#     4  11  23  35  55  86 119 149 180 228 291 339
#     4  10  18  28  49  78 109 148 186 227 271 321
#     4  10  20  33  49  78 116 152 180 224 278 336
#     4  10  17  29  47  74 115 147 185 226 268 328
#     4  10  22  37  57  83 109 142 186 234 282 331
#     4  10  22  39  62  81 106 145 193 238 278 333
#
# _framework density 18.711727
#
# number of rings (size 3 to 8) (size 9 to 14) (size 15 to 20)
#    0.000    1.750    1.250    6.375    5.250    2.500 
#    0.000    1.250    0.000    0.000    0.000    5.250 
#    0.000    0.000    0.000    0.000    0.000    0.000 
#
# Total GULP energy -356643.171373 kJ/mol
# GULP energy per Si atom -5572.549553 kJ/mol
# Density = 1.866914 g / cm^3
# Si number density = 18.711727 Si / 1000 Ang^3
#
#
#
# Elastic Constant Matrix: (Units=GPa)
#
#
# Indices 1 2 3 4 5 6 
#
# 1 107.7604 29.8675 29.5360 0.0000 0.0000 0.0000
# 2 29.8675 140.8006 17.0734 0.0000 0.0000 0.0000
# 3 29.5360 17.0734 27.0809 0.0000 0.0000 0.0000
# 4 0.0000 0.0000 0.0000 18.1515 0.0000 0.0000
# 5 0.0000 0.0000 0.0000 0.0000 -10.3163 0.0000
# 6 0.0000 0.0000 0.0000 0.0000 0.0000 22.9029
#
#
#
# Elastic Compliance Matrix: (Units=1/GPa)
#
#
# Indices 1 2 3 4 5 6 
#
# 1 0.013409 -0.001160 -0.013894 0.000000 0.000000 0.000000
# 2 -0.001160 0.007790 -0.003647 0.000000 0.000000 0.000000
# 3 -0.013894 -0.003647 0.054379 0.000000 0.000000 0.000000
# 4 0.000000 0.000000 0.000000 0.055092 0.000000 0.000000
# 5 0.000000 0.000000 0.000000 0.000000 -0.096934 0.000000
# 6 0.000000 0.000000 0.000000 0.000000 0.000000 0.043663
#
#
# Mechanical properties :
#
#
# Convention : Reuss Voigt Hill
#
# Bulk Modulus (GPa) = 26.19300 47.62176 36.90738
# Shear Modulus (GPa) = 39.20758 19.42529 29.31643
#
# Velocity S-wave (km/s) = 4.58246 3.22550 3.96250
# Velocity P-wave (km/s) = 6.48284 6.27513 6.37983
#
# Compressibility (1/GPa) = 0.03817814
#
# Stress axis : x y z
#
# Youngs Moduli (GPa) = 74.57407 128.36236 18.38943
#
# Poissons Ratio (x) = 0.14887 0.25550
# Poissons Ratio (y) = 0.08649 0.06706
# Poissons Ratio (z) = 1.03613 0.46810
#
# Static dielectric constant tensor:
#      x y z
#    x 1.719570 0.000000 0.000000 
#    y 0.000000 1.694180 0.000000 
#    z 0.000000 0.000000 1.639380 
# 
# From -- ./inp_files/25598.got.cif
#   From: 2010.05.17/outbox.cif.g08.bks.cpg/sg57_13_cif.got.tgz:25598.got - 2010.06.03 13:58:18.
