data_PCOD9434050
_publ_section_title
;
Structure prediction by ZEFSAII (Michael W. Deem and Ramdas Pophale) SiO2 
 PCOD9434050
Probable space group: P B C M
;
_chemical_formula_sum "Si O2"
_cell_formula_units_Z 48
_cell_length_a 9.903228
_cell_length_b 32.258883
_cell_length_c 8.765450
_cell_angle_alpha 90.000000
_cell_angle_beta 90.000000
_cell_angle_gamma 90.000000
_cell_volume 2800.272658
_symmetry_space_group_name_H-M "P B C M"
_symmetry_group_IT_number 57
_symmetry_cell_setting 'orthorhombic'
loop_
_space_group_symop_operation_xyz
x,y,z
-x,-y,1/2+z
x,1/2-y,-z
-x,1/2+y,1/2-z
-x,-y,-z
x,y,1/2-z
-x,1/2+y,z
x,1/2-y,1/2+z
loop_
_atom_site_type_symbol
_atom_site_label
_atom_site_fract_x
_atom_site_fract_y
_atom_site_fract_z
Si Si1 0.151989 0.791671 0.566943
Si Si2 0.651221 0.453058 0.067712
Si Si3 0.841508 0.621667 0.065856
Si Si4 0.644988 0.547289 0.433914
Si Si5 0.157401 0.883518 0.933000
Si Si6 0.847603 0.707840 0.567948
O O1 0.218008 0.750000 0.500000
O O2 0.142238 0.788333 0.750000
O O3 0.210209 0.837032 0.528942
O O4 0.000888 0.792824 0.497478
O O5 0.646951 0.451627 0.250000
O O6 0.686145 0.500463 0.021097
O O7 0.502222 0.444399 0.002621
O O8 0.756580 0.419589 0.007620
O O9 0.837502 0.626567 0.250000
O O10 0.751771 0.582330 0.021263
O O11 0.998798 0.614701 0.023676
O O12 0.789718 0.664229 0.990509
O O13 0.634438 0.548110 0.250000
O O14 0.164086 0.887730 0.750000
O O15 0.784656 0.750000 0.500000
O O16 0.849693 0.709843 0.750000
#
# Coordination Sequence:
#
# PCOD9434050 Si02
#       6
#     8   8   8   8   8   8
#     4   9  16  27  44  67  96 129 163 197 237 284
#     4  10  20  33  51  74  97 126 165 201 237 290
#     4   9  18  33  51  72  98 128 163 202 244 286
#     4   9  19  36  54  70  94 129 164 200 244 290
#     4   9  18  31  48  72 101 130 159 197 245 289
#     4  10  17  26  43  68  98 129 160 195 237 284
#
# _framework density 17.141189000000001
#
# number of rings (size 3 to 8) (size 9 to 14) (size 15 to 20)
#    0.000    2.667    0.000    4.500    0.000    5.333 
#    0.000    0.000    0.000    1.000    0.000    4.667 
#    0.000    0.000    0.000    0.000    0.000    0.000 
#
# Total GULP energy -267405.565686 kJ/mol
# GULP energy per Si atom -5570.949285 kJ/mol
# Density = 1.710217 g / cm^3
# Si number density = 17.141189 Si / 1000 Ang^3
#
#
#
# Elastic Constant Matrix: (Units=GPa)
#
#
# Indices 1 2 3 4 5 6 
#
# 1 51.1346 82.6831 25.6389 0.0000 0.0000 0.0000
# 2 82.6831 194.7757 58.1153 0.0000 0.0000 0.0000
# 3 25.6389 58.1153 48.0666 0.0000 0.0000 0.0000
# 4 0.0000 0.0000 0.0000 29.9523 0.0000 0.0000
# 5 0.0000 0.0000 0.0000 0.0000 19.8816 0.0000
# 6 0.0000 0.0000 0.0000 0.0000 0.0000 -8.0828
#
#
#
# Elastic Compliance Matrix: (Units=1/GPa)
#
#
# Indices 1 2 3 4 5 6 
#
# 1 0.062481 -0.025936 -0.001970 0.000000 0.000000 0.000000
# 2 -0.025936 0.018797 -0.008893 0.000000 0.000000 0.000000
# 3 -0.001970 -0.008893 0.032607 0.000000 0.000000 0.000000
# 4 0.000000 0.000000 0.000000 0.033386 0.000000 0.000000
# 5 0.000000 0.000000 0.000000 0.000000 0.050298 0.000000
# 6 0.000000 0.000000 0.000000 0.000000 0.000000 -0.123720
#
#
# Mechanical properties :
#
#
# Convention : Reuss Voigt Hill
#
# Bulk Modulus (GPa) = 24.82075 69.65019 47.23547
# Shear Modulus (GPa) = 31.07966 16.85287 23.96626
#
# Velocity S-wave (km/s) = 4.26274 3.13897 3.74327
# Velocity P-wave (km/s) = 6.22411 7.33887 6.80435
#
# Compressibility (1/GPa) = 0.04028887
#
# Stress axis : x y z
#
# Youngs Moduli (GPa) = 16.00475 53.19895 30.66821
#
# Poissons Ratio (x) = 1.37976 0.06041
# Poissons Ratio (y) = 0.41510 0.27273
# Poissons Ratio (z) = 0.03153 0.47309
#
# Static dielectric constant tensor:
#      x y z
#    x 1.546320 0.000000 0.000000 
#    y 0.000000 1.634260 0.000000 
#    z 0.000000 0.000000 1.573110 
# 
# From -- ./inp_files/3324.got.cif
#   From: 2010.05.17/outbox.cif.g08.bks.cpg/sg57_2_cif.got.tgz:3324.got - 2010.06.03 13:58:18.
