data_PCOD9434764
_publ_section_title
;
Structure prediction by ZEFSAII (Michael W. Deem and Ramdas Pophale) SiO2 
 PCOD9434764
Probable space group: P B C M
;
_chemical_formula_sum "Si O2"
_cell_formula_units_Z 60
_cell_length_a 18.376452
_cell_length_b 11.603813
_cell_length_c 14.579412
_cell_angle_alpha 90.000000
_cell_angle_beta 90.000000
_cell_angle_gamma 90.000000
_cell_volume 3108.868803
_symmetry_space_group_name_H-M "P B C M"
_symmetry_group_IT_number 57
_symmetry_cell_setting 'orthorhombic'
loop_
_space_group_symop_operation_xyz
x,y,z
-x,-y,1/2+z
x,1/2-y,-z
-x,1/2+y,1/2-z
-x,-y,-z
x,y,1/2-z
-x,1/2+y,z
x,1/2-y,1/2+z
loop_
_atom_site_type_symbol
_atom_site_label
_atom_site_fract_x
_atom_site_fract_y
_atom_site_fract_z
Si Si1 0.889071 0.757205 0.854726
Si Si2 0.765446 0.019719 0.007303
Si Si3 0.278405 0.173704 0.645411
Si Si4 0.673807 0.914989 0.859537
Si Si5 0.451038 0.740871 0.361179
Si Si6 0.923835 0.561546 0.986850
Si Si7 0.517563 0.492784 0.139207
Si Si8 0.677832 0.250000 0.500000
O O1 0.090167 0.280032 0.750000
O O2 0.802815 0.728826 0.856935
O O3 0.907487 0.858472 0.924923
O O4 0.926050 0.644044 0.898020
O O5 0.725884 0.932837 0.077962
O O6 0.729423 0.142163 0.015187
O O7 0.742946 0.969929 0.908441
O O8 0.851713 0.016487 0.022907
O O9 0.294982 0.138977 0.750000
O O10 0.330051 0.279152 0.617777
O O11 0.680636 0.921580 0.750000
O O12 0.600872 0.980268 0.888096
O O13 0.445647 0.740956 0.250000
O O14 0.476135 0.610865 0.389927
O O15 0.374901 0.760426 0.412222
O O16 0.497696 0.858058 0.385894
O O17 0.000000 0.500000 0.000000
O O18 0.513226 0.494998 0.250000
#
# Coordination Sequence:
#
# PCOD9434764 Si02
#       8
#     8   8   8   8   8   8   8   4
#     4   9  18  35  58  83 112 149 194 247 301 350
#     4  11  22  38  56  86 120 153 199 242 292 357
#     4   9  18  34  59  86 111 143 194 253 300 339
#     4  10  18  34  62  90 110 144 194 249 301 349
#     4  10  22  42  60  83 118 159 206 255 304 360
#     4  10  21  36  59  86 120 156 194 247 302 357
#     4   9  19  37  61  83 115 155 197 250 303 354
#     4  12  26  38  58  84 122 170 196 232 300 368
#
# _framework density 19.299624999999999
#
# number of rings (size 3 to 8) (size 9 to 14) (size 15 to 20)
#    0.000    2.133    2.667    0.400    0.000    3.733 
#    2.400    2.667    0.000    1.600    0.000    0.000 
#    0.000    0.000    0.000    0.000    0.000    0.000 
#
# Total GULP energy -334554.974169 kJ/mol
# GULP energy per Si atom -5575.916236 kJ/mol
# Density = 1.925570 g / cm^3
# Si number density = 19.299625 Si / 1000 Ang^3
#
#
#
# Elastic Constant Matrix: (Units=GPa)
#
#
# Indices 1 2 3 4 5 6 
#
# 1 44.4262 47.1831 -0.3390 0.0000 0.0000 0.0000
# 2 47.1831 146.6770 25.1173 0.0000 0.0000 0.0000
# 3 -0.3390 25.1173 63.1505 0.0000 0.0000 0.0000
# 4 0.0000 0.0000 0.0000 8.8729 0.0000 0.0000
# 5 0.0000 0.0000 0.0000 0.0000 18.8543 0.0000
# 6 0.0000 0.0000 0.0000 0.0000 0.0000 29.9980
#
#
#
# Elastic Compliance Matrix: (Units=1/GPa)
#
#
# Indices 1 2 3 4 5 6 
#
# 1 0.035658 -0.012344 0.005101 0.000000 0.000000 0.000000
# 2 -0.012344 0.011589 -0.004676 0.000000 0.000000 0.000000
# 3 0.005101 -0.004676 0.017722 0.000000 0.000000 0.000000
# 4 0.000000 0.000000 0.000000 0.112703 0.000000 0.000000
# 5 0.000000 0.000000 0.000000 0.000000 0.053038 0.000000
# 6 0.000000 0.000000 0.000000 0.000000 0.000000 0.033336
#
#
# Mechanical properties :
#
#
# Convention : Reuss Voigt Hill
#
# Bulk Modulus (GPa) = 24.31175 44.24183 34.27679
# Shear Modulus (GPa) = 16.57855 23.69786 20.13821
#
# Velocity S-wave (km/s) = 2.93407 3.50793 3.23375
# Velocity P-wave (km/s) = 4.90945 6.27542 5.63398
#
# Compressibility (1/GPa) = 0.04113237
#
# Stress axis : x y z
#
# Youngs Moduli (GPa) = 28.04396 86.28693 56.42616
#
# Poissons Ratio (x) = 1.06513 -0.28784
# Poissons Ratio (y) = 0.34618 0.26383
# Poissons Ratio (z) = -0.14306 0.40345
#
# Static dielectric constant tensor:
#      x y z
#    x 1.666530 0.000000 0.000000 
#    y 0.000000 1.710830 0.000000 
#    z 0.000000 0.000000 1.683730 
# 
# From -- ./inp_files/19074.got.cif
#   From: 2010.05.17/outbox.cif.g08.bks.cpg/sg57_10_cif.got.tgz:19074.got - 2010.06.03 13:58:18.
