data_PCOD9434465
_publ_section_title
;
Structure prediction by ZEFSAII (Michael W. Deem and Ramdas Pophale) SiO2 
 PCOD9434465
Probable space group: P B C M
;
_chemical_formula_sum "Si O2"
_cell_formula_units_Z 32
_cell_length_a 10.024729
_cell_length_b 21.944563
_cell_length_c 5.597412
_cell_angle_alpha 90.000000
_cell_angle_beta 90.000000
_cell_angle_gamma 90.000000
_cell_volume 1231.365134
_symmetry_space_group_name_H-M "P B C M"
_symmetry_group_IT_number 57
_symmetry_cell_setting 'orthorhombic'
loop_
_space_group_symop_operation_xyz
x,y,z
-x,-y,1/2+z
x,1/2-y,-z
-x,1/2+y,1/2-z
-x,-y,-z
x,y,1/2-z
-x,1/2+y,z
x,1/2-y,1/2+z
loop_
_atom_site_type_symbol
_atom_site_label
_atom_site_fract_x
_atom_site_fract_y
_atom_site_fract_z
Si Si1 0.487560 0.589249 0.250000
Si Si2 0.526249 0.046177 0.750000
Si Si3 0.430918 0.227335 0.250000
Si Si4 0.085936 0.537439 0.750000
Si Si5 0.739165 0.271900 0.750000
Si Si6 0.857334 0.396928 0.750000
Si Si7 0.779810 0.583071 0.750000
Si Si8 0.852625 0.607737 0.250000
O O1 0.570986 0.524195 0.250000
O O2 0.426770 0.579461 0.512539
O O3 0.552616 0.654870 0.250000
O O4 0.362366 0.048061 0.750000
O O5 0.370835 0.250000 0.500000
O O6 0.585724 0.251342 0.250000
O O7 0.139416 0.566578 0.502254
O O8 0.120551 0.466065 0.750000
O O9 0.925089 0.549280 0.750000
O O10 0.800367 0.250000 0.500000
O O11 0.746408 0.344888 0.750000
O O12 0.001096 0.363310 0.750000
O O13 0.784021 0.619745 0.502594
#
# Coordination Sequence:
#
# PCOD9434465 Si02
#       8
#     4   4   4   4   4   4   4   4
#     4  10  21  37  55  79 110 136 173 221 264 334
#     4  10  21  36  54  80 107 142 177 210 274 323
#     4  10  21  37  57  81 106 137 175 218 267 314
#     4  10  19  30  47  76 106 134 172 204 239 299
#     4  10  21  36  52  76 105 135 177 214 246 301
#     4  10  18  31  48  69 101 136 165 205 251 285
#     4  10  18  31  48  71 105 140 168 206 246 299
#     4  10  19  30  47  76 108 134 171 204 239 299
#
# _framework density 25.987418999999999
#
# number of rings (size 3 to 8) (size 9 to 14) (size 15 to 20)
#    0.000    2.000    0.000    6.000    0.000    3.000 
#    0.000    0.000    0.000    0.000    0.000   70.000 
#    0.000    0.000    0.000    0.000    0.000    0.000 
#
# Total GULP energy -178699.811529 kJ/mol
# GULP energy per Si atom -5584.369110 kJ/mol
# Density = 2.592827 g / cm^3
# Si number density = 25.987419 Si / 1000 Ang^3
#
#
#
# Elastic Constant Matrix: (Units=GPa)
#
#
# Indices 1 2 3 4 5 6 
#
# 1 130.7498 2.1214 19.7909 0.0000 0.0000 0.0000
# 2 2.1214 102.5571 74.5883 0.0000 0.0000 0.0000
# 3 19.7909 74.5883 337.2579 0.0000 0.0000 0.0000
# 4 0.0000 0.0000 0.0000 32.1124 0.0000 0.0000
# 5 0.0000 0.0000 0.0000 0.0000 15.0406 0.0000
# 6 0.0000 0.0000 0.0000 0.0000 0.0000 23.8950
#
#
#
# Elastic Compliance Matrix: (Units=1/GPa)
#
#
# Indices 1 2 3 4 5 6 
#
# 1 0.007720 0.000202 -0.000498 0.000000 0.000000 0.000000
# 2 0.000202 0.011625 -0.002583 0.000000 0.000000 0.000000
# 3 -0.000498 -0.002583 0.003566 0.000000 0.000000 0.000000
# 4 0.000000 0.000000 0.000000 0.031141 0.000000 0.000000
# 5 0.000000 0.000000 0.000000 0.000000 0.066487 0.000000
# 6 0.000000 0.000000 0.000000 0.000000 0.000000 0.041850
#
#
# Mechanical properties :
#
#
# Convention : Reuss Voigt Hill
#
# Bulk Modulus (GPa) = 58.29502 84.84067 71.56785
# Shear Modulus (GPa) = 28.75834 45.81388 37.28611
#
# Velocity S-wave (km/s) = 3.33021 4.20328 3.79195
# Velocity P-wave (km/s) = 6.10473 7.50163 6.83894
#
# Compressibility (1/GPa) = 0.01715413
#
# Stress axis : x y z
#
# Youngs Moduli (GPa) = 129.52935 86.02182 280.46326
#
# Poissons Ratio (x) = -0.01741 0.13961
# Poissons Ratio (y) = -0.02621 0.72440
# Poissons Ratio (z) = 0.06448 0.22218
#
# Static dielectric constant tensor:
#      x y z
#    x 2.180340 0.000000 0.000000 
#    y 0.000000 1.986580 0.000000 
#    z 0.000000 0.000000 2.067540 
# 
# From -- ./inp_files/354.got.cif
#   From: 2010.05.17/outbox.cif.g08.bks.cpg/sg57_1_cif.got.tgz:354.got - 2010.06.03 13:58:18.
