data_PCOD9434199
_publ_section_title
;
Structure prediction by ZEFSAII (Michael W. Deem and Ramdas Pophale) SiO2 
 PCOD9434199
Probable space group: P B C M
;
_chemical_formula_sum "Si O2"
_cell_formula_units_Z 28
_cell_length_a 15.440690
_cell_length_b 5.479129
_cell_length_c 14.221789
_cell_angle_alpha 90.000000
_cell_angle_beta 90.000000
_cell_angle_gamma 90.000000
_cell_volume 1203.185142
_symmetry_space_group_name_H-M "P B C M"
_symmetry_group_IT_number 57
_symmetry_cell_setting 'orthorhombic'
loop_
_space_group_symop_operation_xyz
x,y,z
-x,-y,1/2+z
x,1/2-y,-z
-x,1/2+y,1/2-z
-x,-y,-z
x,y,1/2-z
-x,1/2+y,z
x,1/2-y,1/2+z
loop_
_atom_site_type_symbol
_atom_site_label
_atom_site_fract_x
_atom_site_fract_y
_atom_site_fract_z
Si Si1 0.028899 0.304266 0.104740
Si Si2 0.226792 0.473665 0.400209
Si Si3 0.293248 0.972665 0.114098
Si Si4 0.553618 0.120353 0.750000
O O1 0.127687 0.389582 0.094280
O O2 0.979203 0.534760 0.147860
O O3 0.991933 0.250000 0.000000
O O4 0.233769 0.742629 0.357098
O O5 0.273561 0.502147 0.502254
O O6 0.272646 0.245091 0.351342
O O7 0.385828 0.902369 0.156976
O O8 0.491504 0.884302 0.750000
#
# Coordination Sequence:
#
# PCOD9434199 Si02
#       4
#     8   8   8   4
#     4  10  18  26  48  86 123 149 182 234 273 303
#     4  10  19  37  57  90 115 149 195 233 269 333
#     4  10  21  37  60  82 113 145 186 234 285 342
#     4  12  26  46  62  84 110 144 186 236 296 364
#
# _framework density 23.271564999999999
#
# number of rings (size 3 to 8) (size 9 to 14) (size 15 to 20)
#    0.000    1.714    2.857    3.429    8.000    0.000 
#    0.000   17.143    0.000    0.000    0.000   34.000 
#    0.000    0.000    0.000    0.000    0.000    0.000 
#
# Total GULP energy -156007.180514 kJ/mol
# GULP energy per Si atom -5571.685018 kJ/mol
# Density = 2.321860 g / cm^3
# Si number density = 23.271565 Si / 1000 Ang^3
#
#
#
# Elastic Constant Matrix: (Units=GPa)
#
#
# Indices 1 2 3 4 5 6 
#
# 1 100.0739 41.3937 24.3273 0.0000 0.0000 0.0000
# 2 41.3937 257.1029 18.6253 0.0000 0.0000 0.0000
# 3 24.3273 18.6253 129.9450 0.0000 0.0000 0.0000
# 4 0.0000 0.0000 0.0000 -17.5874 0.0000 0.0000
# 5 0.0000 0.0000 0.0000 0.0000 467.6837 0.0000
# 6 0.0000 0.0000 0.0000 0.0000 0.0000 64.3214
#
#
#
# Elastic Compliance Matrix: (Units=1/GPa)
#
#
# Indices 1 2 3 4 5 6 
#
# 1 0.011127 -0.001658 -0.001845 0.000000 0.000000 0.000000
# 2 -0.001658 0.004177 -0.000288 0.000000 0.000000 0.000000
# 3 -0.001845 -0.000288 0.008082 0.000000 0.000000 0.000000
# 4 0.000000 0.000000 0.000000 -0.056859 0.000000 0.000000
# 5 0.000000 0.000000 0.000000 0.000000 0.002138 0.000000
# 6 0.000000 0.000000 0.000000 0.000000 0.000000 0.015547
#
#
# Mechanical properties :
#
#
# Convention : Reuss Voigt Hill
#
# Bulk Modulus (GPa) = 63.27768 72.86827 68.07297
# Shear Modulus (GPa) = -1702.90159 129.73525 -786.58317
#
# Velocity S-wave (km/s) = -27.08026 7.47459 -18.40477
# Velocity P-wave (km/s) = 30.83079 10.28945 20.55073
#
# Compressibility (1/GPa) = 0.01580336
#
# Stress axis : x y z
#
# Youngs Moduli (GPa) = 89.87200 239.39008 123.72570
#
# Poissons Ratio (x) = 0.39685 0.22833
# Poissons Ratio (y) = 0.14899 0.03568
# Poissons Ratio (z) = 0.16586 0.06904
#
# Static dielectric constant tensor:
#      x y z
#    x 1.844160 0.000000 0.000000 
#    y 0.000000 1.976280 0.000000 
#    z 0.000000 0.000000 2.012530 
# 
# From -- ./inp_files/22217.got.cif
#   From: 2010.05.17/outbox.cif.g08.bks.cpg/sg57_12_cif.got.tgz:22217.got - 2010.06.03 13:58:18.
