data_PCOD9434162
_publ_section_title
;
Structure prediction by ZEFSAII (Michael W. Deem and Ramdas Pophale) SiO2 
 PCOD9434162
Probable space group: P B C M
;
_chemical_formula_sum "Si O2"
_cell_formula_units_Z 64
_cell_length_a 22.070138
_cell_length_b 9.907493
_cell_length_c 17.519121
_cell_angle_alpha 90.000000
_cell_angle_beta 90.000000
_cell_angle_gamma 90.000000
_cell_volume 3830.726403
_symmetry_space_group_name_H-M "P B C M"
_symmetry_group_IT_number 57
_symmetry_cell_setting 'orthorhombic'
loop_
_space_group_symop_operation_xyz
x,y,z
-x,-y,1/2+z
x,1/2-y,-z
-x,1/2+y,1/2-z
-x,-y,-z
x,y,1/2-z
-x,1/2+y,z
x,1/2-y,1/2+z
loop_
_atom_site_type_symbol
_atom_site_label
_atom_site_fract_x
_atom_site_fract_y
_atom_site_fract_z
Si Si1 0.029620 0.287566 0.660046
Si Si2 0.779950 0.784502 0.910236
Si Si3 0.101325 0.781980 0.911120
Si Si4 0.469658 0.304368 0.162871
Si Si5 0.640111 0.802245 0.586724
Si Si6 0.133206 0.433643 0.159239
Si Si7 0.133062 0.998763 0.160101
Si Si8 0.524953 0.954642 0.918441
O O1 0.012630 0.281531 0.750000
O O2 0.069114 0.423107 0.648221
O O3 0.969870 0.286746 0.609893
O O4 0.074261 0.161370 0.644110
O O5 0.709709 0.810239 0.890814
O O6 0.810134 0.659017 0.865519
O O7 0.818601 0.915984 0.888097
O O8 0.784595 0.750000 0.000000
O O9 0.128481 0.925975 0.885653
O O10 0.128419 0.655759 0.864398
O O11 0.109791 0.750000 0.000000
O O12 0.477294 0.263845 0.250000
O O13 0.398635 0.298474 0.140215
O O14 0.500081 0.444685 0.144506
O O15 0.497021 0.194775 0.104368
O O16 0.637337 0.750000 0.500000
O O17 0.597888 0.563675 0.413694
O O18 0.134603 0.459323 0.250000
O O19 0.147032 0.011981 0.250000
O O20 0.500000 0.000000 0.000000
#
# Coordination Sequence:
#
# PCOD9434162 Si02
#       8
#     8   8   8   8   8   8   8   8
#     4   9  19  35  54  78 105 139 182 223 276 348
#     4  10  20  37  59  80 105 136 188 226 259 319
#     4  12  23  33  52  80 110 139 179 235 287 327
#     4  10  19  30  52  85 114 141 180 225 263 300
#     4   9  19  34  56  82 107 146 180 210 266 319
#     4  10  21  37  56  77 106 146 183 223 279 332
#     4  10  21  37  56  77 106 147 182 221 281 335
#     4  10  17  34  55  79 114 150 179 210 263 334
#
# _framework density 16.707014000000001
#
# number of rings (size 3 to 8) (size 9 to 14) (size 15 to 20)
#    0.750    1.250    1.250    4.500    0.000    7.000 
#    0.000    0.000    2.750    0.000    0.000    0.000 
#    0.000    0.000    0.000    0.000    0.000    0.000 
#
# Total GULP energy -356577.048938 kJ/mol
# GULP energy per Si atom -5571.516390 kJ/mol
# Density = 1.666899 g / cm^3
# Si number density = 16.707014 Si / 1000 Ang^3
#
#
#
# Elastic Constant Matrix: (Units=GPa)
#
#
# Indices 1 2 3 4 5 6 
#
# 1 96.7830 27.2465 26.1973 0.0000 0.0000 0.0000
# 2 27.2465 74.3125 4.0974 0.0000 0.0000 0.0000
# 3 26.1973 4.0974 46.4447 0.0000 0.0000 0.0000
# 4 0.0000 0.0000 0.0000 30.3408 0.0000 0.0000
# 5 0.0000 0.0000 0.0000 0.0000 -807.4847 0.0000
# 6 0.0000 0.0000 0.0000 0.0000 0.0000 8.9483
#
#
#
# Elastic Compliance Matrix: (Units=1/GPa)
#
#
# Indices 1 2 3 4 5 6 
#
# 1 0.013587 -0.004581 -0.007260 0.000000 0.000000 0.000000
# 2 -0.004581 0.015067 0.001255 0.000000 0.000000 0.000000
# 3 -0.007260 0.001255 0.025515 0.000000 0.000000 0.000000
# 4 0.000000 0.000000 0.000000 0.032959 0.000000 0.000000
# 5 0.000000 0.000000 0.000000 0.000000 -0.001238 0.000000
# 6 0.000000 0.000000 0.000000 0.000000 0.000000 0.111753
#
#
# Mechanical properties :
#
#
# Convention : Reuss Voigt Hill
#
# Bulk Modulus (GPa) = 30.30566 36.95808 33.63187
# Shear Modulus (GPa) = 21.75662 -142.97253 -60.60796
#
# Velocity S-wave (km/s) = 3.61258 -9.26078 -6.02957
# Velocity P-wave (km/s) = 5.96488 9.60105 5.31979
#
# Compressibility (1/GPa) = 0.03299714
#
# Stress axis : x y z
#
# Youngs Moduli (GPa) = 73.59837 66.36896 39.19239
#
# Poissons Ratio (x) = 0.30407 0.28453
# Poissons Ratio (y) = 0.33719 -0.04918
# Poissons Ratio (z) = 0.53431 -0.08329
#
# Static dielectric constant tensor:
#      x y z
#    x 1.559290 0.000000 0.000000 
#    y 0.000000 1.552240 0.000000 
#    z 0.000000 0.000000 1.539630 
# 
# From -- ./inp_files/23012.got.cif
#   From: 2010.05.17/outbox.cif.g08.bks.cpg/sg57_12_cif.got.tgz:23012.got - 2010.06.03 13:58:18.
