data_PCOD9434695
_publ_section_title
;
Structure prediction by ZEFSAII (Michael W. Deem and Ramdas Pophale) SiO2 
 PCOD9434695
Probable space group: P B C M
;
_chemical_formula_sum "Si O2"
_cell_formula_units_Z 40
_cell_length_a 12.026707
_cell_length_b 17.060601
_cell_length_c 10.218066
_cell_angle_alpha 90.000000
_cell_angle_beta 90.000000
_cell_angle_gamma 90.000000
_cell_volume 2096.571898
_symmetry_space_group_name_H-M "P B C M"
_symmetry_group_IT_number 57
_symmetry_cell_setting 'orthorhombic'
loop_
_space_group_symop_operation_xyz
x,y,z
-x,-y,1/2+z
x,1/2-y,-z
-x,1/2+y,1/2-z
-x,-y,-z
x,y,1/2-z
-x,1/2+y,z
x,1/2-y,1/2+z
loop_
_atom_site_type_symbol
_atom_site_label
_atom_site_fract_x
_atom_site_fract_y
_atom_site_fract_z
Si Si1 0.994400 0.594292 0.250000
Si Si2 0.404423 0.345515 0.497342
Si Si3 0.116677 0.843984 0.492226
Si Si4 0.016003 0.409307 0.250000
Si Si5 0.259965 0.154191 0.750000
Si Si6 0.642133 0.329823 0.411452
Si Si7 0.260478 0.344279 0.750000
O O1 0.865769 0.623606 0.250000
O O2 0.063980 0.623628 0.375128
O O3 0.993038 0.500964 0.250000
O O4 0.409423 0.250000 0.500000
O O5 0.329135 0.368450 0.376325
O O6 0.530320 0.371392 0.464455
O O7 0.336844 0.368155 0.626582
O O8 0.117064 0.750000 0.500000
O O9 0.241723 0.869833 0.451976
O O10 0.037778 0.870611 0.376347
O O11 0.144403 0.388975 0.250000
O O12 0.247588 0.249180 0.750000
O O13 0.644403 0.250000 0.500000
O O14 0.637070 0.317968 0.250000
#
# Coordination Sequence:
#
# PCOD9434695 Si02
#       7
#     4   8   8   4   4   8   4
#     4  12  26  41  60  90 130 167 213 256 317 370
#     4   9  18  31  55  87 120 149 193 252 311 356
#     4  11  23  40  65  91 122 163 210 259 305 370
#     4  12  24  41  62  88 128 171 205 262 317 368
#     4  10  18  33  58  83 114 157 200 245 304 360
#     4  10  20  34  59  93 125 153 197 259 315 364
#     4  10  20  35  56  87 120 157 202 255 296 370
#
# _framework density 19.078762999999999
#
# number of rings (size 3 to 8) (size 9 to 14) (size 15 to 20)
#    0.000    1.600    2.000    3.600    8.400    1.600 
#    0.000    0.000    0.000    7.200    0.000    0.000 
#    0.000    0.000    0.000    0.000    0.000    0.000 
#
# Total GULP energy -222988.042615 kJ/mol
# GULP energy per Si atom -5574.701065 kJ/mol
# Density = 1.903534 g / cm^3
# Si number density = 19.078763 Si / 1000 Ang^3
#
#
#
# Elastic Constant Matrix: (Units=GPa)
#
#
# Indices 1 2 3 4 5 6 
#
# 1 137.4189 12.8959 63.6093 0.0000 0.0000 0.0000
# 2 12.8959 40.8909 16.8080 0.0000 0.0000 0.0000
# 3 63.6093 16.8080 186.3802 0.0000 0.0000 0.0000
# 4 0.0000 0.0000 0.0000 12.6746 0.0000 0.0000
# 5 0.0000 0.0000 0.0000 0.0000 38.1922 0.0000
# 6 0.0000 0.0000 0.0000 0.0000 0.0000 -15.8311
#
#
#
# Elastic Compliance Matrix: (Units=1/GPa)
#
#
# Indices 1 2 3 4 5 6 
#
# 1 0.008741 -0.001589 -0.002840 0.000000 0.000000 0.000000
# 2 -0.001589 0.025686 -0.001774 0.000000 0.000000 0.000000
# 3 -0.002840 -0.001774 0.006495 0.000000 0.000000 0.000000
# 4 0.000000 0.000000 0.000000 0.078898 0.000000 0.000000
# 5 0.000000 0.000000 0.000000 0.000000 0.026183 0.000000
# 6 0.000000 0.000000 0.000000 0.000000 0.000000 -0.063167
#
#
# Mechanical properties :
#
#
# Convention : Reuss Voigt Hill
#
# Bulk Modulus (GPa) = 35.06945 61.25738 48.16342
# Shear Modulus (GPa) = 47.73436 25.09894 36.41665
#
# Velocity S-wave (km/s) = 5.00739 3.63098 4.37367
# Velocity P-wave (km/s) = 7.20092 7.05379 7.12774
#
# Compressibility (1/GPa) = 0.02851484
#
# Stress axis : x y z
#
# Youngs Moduli (GPa) = 114.40800 38.93217 153.97585
#
# Poissons Ratio (x) = 0.06188 0.43725
# Poissons Ratio (y) = 0.18183 0.27315
# Poissons Ratio (z) = 0.32489 0.06906
#
# Static dielectric constant tensor:
#      x y z
#    x 1.690060 0.000000 0.000000 
#    y 0.000000 1.634110 0.000000 
#    z 0.000000 0.000000 1.500880 
# 
# From -- ./inp_files/2754.got.cif
#   From: 2010.05.17/outbox.cif.g08.bks.cpg/sg57_2_cif.got.tgz:2754.got - 2010.06.03 13:58:18.
