data_PCOD9434135
_publ_section_title
;
Structure prediction by ZEFSAII (Michael W. Deem and Ramdas Pophale) SiO2 
 PCOD9434135
Probable space group: P B C M
;
_chemical_formula_sum "Si O2"
_cell_formula_units_Z 64
_cell_length_a 9.774064
_cell_length_b 25.731738
_cell_length_c 13.963949
_cell_angle_alpha 90.000000
_cell_angle_beta 90.000000
_cell_angle_gamma 90.000000
_cell_volume 3511.984198
_symmetry_space_group_name_H-M "P B C M"
_symmetry_group_IT_number 57
_symmetry_cell_setting 'orthorhombic'
loop_
_space_group_symop_operation_xyz
x,y,z
-x,-y,1/2+z
x,1/2-y,-z
-x,1/2+y,1/2-z
-x,-y,-z
x,y,1/2-z
-x,1/2+y,z
x,1/2-y,1/2+z
loop_
_atom_site_type_symbol
_atom_site_label
_atom_site_fract_x
_atom_site_fract_y
_atom_site_fract_z
Si Si1 0.268592 0.913700 0.058951
Si Si2 0.451707 0.456807 0.075356
Si Si3 0.871771 0.789619 0.139283
Si Si4 0.069754 0.329823 0.639479
Si Si5 0.233922 0.965373 0.643839
Si Si6 0.774856 0.879347 0.481172
Si Si7 0.853965 0.307402 0.021361
Si Si8 0.983456 0.549293 0.862352
O O1 0.269836 0.929834 0.946429
O O2 0.244365 0.852047 0.059444
O O3 0.407349 0.931634 0.110515
O O4 0.138368 0.943243 0.103982
O O5 0.345560 0.487620 0.142437
O O6 0.363230 0.411553 0.025991
O O7 0.500000 0.500000 0.000000
O O8 0.859368 0.804659 0.250000
O O9 0.860984 0.727409 0.132136
O O10 0.772427 0.824030 0.073698
O O11 0.023575 0.800655 0.098242
O O12 0.042190 0.340937 0.750000
O O13 0.170620 0.369754 0.587645
O O14 0.933314 0.326827 0.574468
O O15 0.234544 0.941504 0.750000
O O16 0.086452 0.992729 0.626167
O O17 0.890717 0.911996 0.424758
O O18 0.796289 0.250000 0.000000
O O19 0.972543 0.562305 0.750000
#
# Coordination Sequence:
#
# PCOD9434135 Si02
#       8
#     8   8   8   8   8   8   8   8
#     4  11  19  34  55  79 107 141 179 218 264 320
#     4   9  21  37  53  71 104 143 178 215 264 318
#     4   9  16  29  52  78 104 136 174 218 265 308
#     4   9  17  30  51  79 107 137 176 220 260 308
#     4   9  20  37  55  76 104 141 179 222 269 318
#     4  10  17  32  52  76 103 138 178 219 262 309
#     4   9  18  31  49  78 113 141 169 214 267 324
#     4  10  19  32  53  79 105 133 176 228 270 307
#
# _framework density 18.223317000000002
#
# number of rings (size 3 to 8) (size 9 to 14) (size 15 to 20)
#    0.000    2.500    2.500    1.875    0.000    1.500 
#    0.000    3.750    0.000    0.000    0.000    3.500 
#    0.000    0.000    0.000    0.000    0.000    0.000 
#
# Total GULP energy -356632.853148 kJ/mol
# GULP energy per Si atom -5572.388330 kJ/mol
# Density = 1.818184 g / cm^3
# Si number density = 18.223317 Si / 1000 Ang^3
#
#
#
# Elastic Constant Matrix: (Units=GPa)
#
#
# Indices 1 2 3 4 5 6 
#
# 1 91.4315 25.2828 0.2153 0.0000 0.0000 0.0000
# 2 25.2828 47.6384 1.1803 0.0000 0.0000 0.0000
# 3 0.2153 1.1803 71.9083 0.0000 0.0000 0.0000
# 4 0.0000 0.0000 0.0000 18.7679 0.0000 0.0000
# 5 0.0000 0.0000 0.0000 0.0000 3.0363 0.0000
# 6 0.0000 0.0000 0.0000 0.0000 0.0000 30.0326
#
#
#
# Elastic Compliance Matrix: (Units=1/GPa)
#
#
# Indices 1 2 3 4 5 6 
#
# 1 0.012819 -0.006805 0.000073 0.000000 0.000000 0.000000
# 2 -0.006805 0.024613 -0.000384 0.000000 0.000000 0.000000
# 3 0.000073 -0.000384 0.013913 0.000000 0.000000 0.000000
# 4 0.000000 0.000000 0.000000 0.053282 0.000000 0.000000
# 5 0.000000 0.000000 0.000000 0.000000 0.329347 0.000000
# 6 0.000000 0.000000 0.000000 0.000000 0.000000 0.033297
#
#
# Mechanical properties :
#
#
# Convention : Reuss Voigt Hill
#
# Bulk Modulus (GPa) = 26.94449 29.37056 28.15753
# Shear Modulus (GPa) = 10.12407 22.65403 16.38905
#
# Velocity S-wave (km/s) = 2.35958 3.52964 3.00216
# Velocity P-wave (km/s) = 4.71607 5.72391 5.24426
#
# Compressibility (1/GPa) = 0.03711333
#
# Stress axis : x y z
#
# Youngs Moduli (GPa) = 78.01096 40.62966 71.87691
#
# Poissons Ratio (x) = 0.27649 -0.00527
# Poissons Ratio (y) = 0.53087 0.02757
# Poissons Ratio (z) = -0.00572 0.01559
#
# Static dielectric constant tensor:
#      x y z
#    x 1.620220 0.000000 0.000000 
#    y 0.000000 1.673640 0.000000 
#    z 0.000000 0.000000 1.631350 
# 
# From -- ./inp_files/17045.got.cif
#   From: 2010.05.17/outbox.cif.g08.bks.cpg/sg57_9_cif.got.tgz:17045.got - 2010.06.03 13:58:18.
