data_PCOD9434677
_publ_section_title
;
Structure prediction by ZEFSAII (Michael W. Deem and Ramdas Pophale) SiO2 
 PCOD9434677
Probable space group: P B C M
;
_chemical_formula_sum "Si O2"
_cell_formula_units_Z 56
_cell_length_a 20.037287
_cell_length_b 19.012997
_cell_length_c 8.468538
_cell_angle_alpha 90.000000
_cell_angle_beta 90.000000
_cell_angle_gamma 90.000000
_cell_volume 3226.249417
_symmetry_space_group_name_H-M "P B C M"
_symmetry_group_IT_number 57
_symmetry_cell_setting 'orthorhombic'
loop_
_space_group_symop_operation_xyz
x,y,z
-x,-y,1/2+z
x,1/2-y,-z
-x,1/2+y,1/2-z
-x,-y,-z
x,y,1/2-z
-x,1/2+y,z
x,1/2-y,1/2+z
loop_
_atom_site_type_symbol
_atom_site_label
_atom_site_fract_x
_atom_site_fract_y
_atom_site_fract_z
Si Si1 0.293694 0.461282 0.061159
Si Si2 0.930984 0.831431 0.438954
Si Si3 0.959524 0.431999 0.561732
Si Si4 0.365059 0.325812 0.439360
Si Si5 0.484059 0.825847 0.439146
Si Si6 0.148076 0.029093 0.063563
Si Si7 0.570958 0.469375 0.060062
O O1 0.283822 0.465372 0.250000
O O2 0.311384 0.381992 0.011152
O O3 0.225885 0.479826 0.974546
O O4 0.362312 0.500435 0.016609
O O5 0.921086 0.750000 0.500000
O O6 0.926503 0.829475 0.250000
O O7 0.880758 0.895155 0.497532
O O8 0.003507 0.863587 0.490407
O O9 0.963157 0.426932 0.750000
O O10 0.887077 0.459437 0.509381
O O11 0.000000 0.500000 0.500000
O O12 0.347144 0.250000 0.500000
O O13 0.367731 0.326786 0.250000
O O14 0.440379 0.341872 0.497661
O O15 0.464799 0.750000 0.500000
O O16 0.487614 0.824106 0.250000
O O17 0.434617 0.887398 0.483110
O O18 0.134947 0.030251 0.250000
O O19 0.573553 0.477992 0.250000
O O20 0.500000 0.500000 0.000000
#
# Coordination Sequence:
#
# PCOD9434677 Si02
#       7
#     8   8   8   8   8   8   8
#     4  11  22  37  53  76 108 144 184 228 278 331
#     4  11  21  36  58  87 118 151 187 228 269 319
#     4  10  18  33  56  82 110 145 183 224 267 315
#     4   9  18  32  48  69  99 133 170 214 262 321
#     4   9  18  33  51  74  99 128 167 216 270 325
#     4  11  22  37  55  80 112 150 189 227 276 333
#     4  11  21  35  54  78 105 136 180 233 281 332
#
# _framework density 17.357617000000001
#
# number of rings (size 3 to 8) (size 9 to 14) (size 15 to 20)
#    0.000    1.714    1.429    6.429    0.000    2.857 
#    0.000    1.429    0.000    0.857    0.000    4.000 
#    0.000    0.000    0.000    0.000    0.000    0.000 
#
# Total GULP energy -311938.592834 kJ/mol
# GULP energy per Si atom -5570.332015 kJ/mol
# Density = 1.731811 g / cm^3
# Si number density = 17.357617 Si / 1000 Ang^3
#
#
#
# Elastic Constant Matrix: (Units=GPa)
#
#
# Indices 1 2 3 4 5 6 
#
# 1 89.6728 28.1849 14.9026 0.0000 0.0000 0.0000
# 2 28.1849 41.6673 12.0952 0.0000 0.0000 0.0000
# 3 14.9026 12.0952 79.8551 0.0000 0.0000 0.0000
# 4 0.0000 0.0000 0.0000 28.8771 0.0000 0.0000
# 5 0.0000 0.0000 0.0000 0.0000 27.1357 0.0000
# 6 0.0000 0.0000 0.0000 0.0000 0.0000 32.8570
#
#
#
# Elastic Compliance Matrix: (Units=1/GPa)
#
#
# Indices 1 2 3 4 5 6 
#
# 1 0.014282 -0.009296 -0.001257 0.000000 0.000000 0.000000
# 2 -0.009296 0.031154 -0.002984 0.000000 0.000000 0.000000
# 3 -0.001257 -0.002984 0.013209 0.000000 0.000000 0.000000
# 4 0.000000 0.000000 0.000000 0.034630 0.000000 0.000000
# 5 0.000000 0.000000 0.000000 0.000000 0.036852 0.000000
# 6 0.000000 0.000000 0.000000 0.000000 0.000000 0.030435
#
#
# Mechanical properties :
#
#
# Convention : Reuss Voigt Hill
#
# Bulk Modulus (GPa) = 31.67460 35.72896 33.70178
# Shear Modulus (GPa) = 25.23213 28.17480 26.70346
#
# Velocity S-wave (km/s) = 3.81683 4.03326 3.92654
# Velocity P-wave (km/s) = 6.14102 6.50525 6.32576
#
# Compressibility (1/GPa) = 0.03157103
#
# Stress axis : x y z
#
# Youngs Moduli (GPa) = 70.01606 32.09874 75.70432
#
# Poissons Ratio (x) = 0.29839 0.09519
# Poissons Ratio (y) = 0.65087 0.22589
# Poissons Ratio (z) = 0.08804 0.09578
#
# Static dielectric constant tensor:
#      x y z
#    x 1.550940 0.000000 0.000000 
#    y 0.000000 1.606760 0.000000 
#    z 0.000000 0.000000 1.596920 
# 
# From -- ./inp_files/8296.got.cif
#   From: 2010.05.17/outbox.cif.g08.bks.cpg/sg57_5_cif.got.tgz:8296.got - 2010.06.03 13:58:18.
