data_PCOD9434080
_publ_section_title
;
Structure prediction by ZEFSAII (Michael W. Deem and Ramdas Pophale) SiO2 
 PCOD9434080
Probable space group: P B C M
;
_chemical_formula_sum "Si O2"
_cell_formula_units_Z 48
_cell_length_a 15.714497
_cell_length_b 21.980988
_cell_length_c 8.633080
_cell_angle_alpha 90.000000
_cell_angle_beta 90.000000
_cell_angle_gamma 90.000000
_cell_volume 2982.039961
_symmetry_space_group_name_H-M "P B C M"
_symmetry_group_IT_number 57
_symmetry_cell_setting 'orthorhombic'
loop_
_space_group_symop_operation_xyz
x,y,z
-x,-y,1/2+z
x,1/2-y,-z
-x,1/2+y,1/2-z
-x,-y,-z
x,y,1/2-z
-x,1/2+y,z
x,1/2-y,1/2+z
loop_
_atom_site_type_symbol
_atom_site_label
_atom_site_fract_x
_atom_site_fract_y
_atom_site_fract_z
Si Si1 0.055624 0.911157 0.064604
Si Si2 0.343017 0.596587 0.437880
Si Si3 0.524477 0.933276 0.563905
Si Si4 0.190488 0.817851 0.564016
Si Si5 0.699069 0.542412 0.564413
Si Si6 0.118220 0.046496 0.064636
O O1 0.056759 0.906849 0.250000
O O2 0.098315 0.976084 0.019648
O O3 0.110306 0.857274 0.992114
O O4 0.959052 0.914636 0.004858
O O5 0.340797 0.596223 0.250000
O O6 0.441802 0.606397 0.481939
O O7 0.275120 0.646062 0.491523
O O8 0.314844 0.528396 0.486480
O O9 0.529378 0.935152 0.750000
O O10 0.617334 0.920440 0.495855
O O11 0.500000 0.000000 0.500000
O O12 0.188251 0.750000 0.500000
O O13 0.191274 0.816472 0.750000
O O14 0.700048 0.543404 0.750000
O O15 0.789279 0.563278 0.498737
O O16 0.116613 0.050204 0.250000
#
# Coordination Sequence:
#
# PCOD9434080 Si02
#       6
#     8   8   8   8   8   8
#     4  10  20  33  48  70  96 127 164 203 247 296
#     4   8  16  29  45  63  92 127 159 195 238 283
#     4   9  16  27  42  65  92 124 157 191 234 284
#     4  11  21  35  51  70  96 130 168 207 245 288
#     4  10  17  28  45  69  97 129 158 192 239 292
#     4  10  19  30  48  72  98 129 161 199 246 299
#
# _framework density 16.096364000000001
#
# number of rings (size 3 to 8) (size 9 to 14) (size 15 to 20)
#    0.000    2.333    1.667    3.500    0.000    1.333 
#    0.000    2.500    0.000    0.000    0.000    1.167 
#    0.000    2.667    0.000    0.000    0.000    0.000 
#
# Total GULP energy -267533.100705 kJ/mol
# GULP energy per Si atom -5573.606265 kJ/mol
# Density = 1.605973 g / cm^3
# Si number density = 16.096364 Si / 1000 Ang^3
#
#
#
# Elastic Constant Matrix: (Units=GPa)
#
#
# Indices 1 2 3 4 5 6 
#
# 1 180.4943 55.1980 40.7090 0.0000 0.0000 0.0000
# 2 55.1980 68.4545 22.4906 0.0000 0.0000 0.0000
# 3 40.7090 22.4906 48.1790 0.0000 0.0000 0.0000
# 4 0.0000 0.0000 0.0000 16.4888 0.0000 0.0000
# 5 0.0000 0.0000 0.0000 0.0000 28.3318 0.0000
# 6 0.0000 0.0000 0.0000 0.0000 0.0000 14.0558
#
#
#
# Elastic Compliance Matrix: (Units=1/GPa)
#
#
# Indices 1 2 3 4 5 6 
#
# 1 0.008098 -0.005057 -0.004481 0.000000 0.000000 0.000000
# 2 -0.005057 0.020413 -0.005256 0.000000 0.000000 0.000000
# 3 -0.004481 -0.005256 0.026996 0.000000 0.000000 0.000000
# 4 0.000000 0.000000 0.000000 0.060647 0.000000 0.000000
# 5 0.000000 0.000000 0.000000 0.000000 0.035296 0.000000
# 6 0.000000 0.000000 0.000000 0.000000 0.000000 0.071145
#
#
# Mechanical properties :
#
#
# Convention : Reuss Voigt Hill
#
# Bulk Modulus (GPa) = 38.58379 59.32476 48.95428
# Shear Modulus (GPa) = 19.17012 23.69065 21.43039
#
# Velocity S-wave (km/s) = 3.45477 3.84057 3.65277
# Velocity P-wave (km/s) = 6.31953 7.52347 6.94763
#
# Compressibility (1/GPa) = 0.02591762
#
# Stress axis : x y z
#
# Youngs Moduli (GPa) = 123.49281 48.98866 37.04247
#
# Poissons Ratio (x) = 0.24774 0.16600
# Poissons Ratio (y) = 0.62452 0.19469
# Poissons Ratio (z) = 0.55342 0.25748
#
# Static dielectric constant tensor:
#      x y z
#    x 1.574770 0.000000 0.000000 
#    y 0.000000 1.507820 0.000000 
#    z 0.000000 0.000000 1.535890 
# 
# From -- ./inp_files/4835.got.cif
#   From: 2010.05.17/outbox.cif.g08.bks.cpg/sg57_3_cif.got.tgz:4835.got - 2010.06.03 13:58:18.
