data_PCOD9434159
_publ_section_title
;
Structure prediction by ZEFSAII (Michael W. Deem and Ramdas Pophale) SiO2 
 PCOD9434159
Probable space group: P B C M
;
_chemical_formula_sum "Si O2"
_cell_formula_units_Z 36
_cell_length_a 7.670484
_cell_length_b 7.818266
_cell_length_c 23.973726
_cell_angle_alpha 90.000000
_cell_angle_beta 90.000000
_cell_angle_gamma 90.000000
_cell_volume 1437.701574
_symmetry_space_group_name_H-M "P B C M"
_symmetry_group_IT_number 57
_symmetry_cell_setting 'orthorhombic'
loop_
_space_group_symop_operation_xyz
x,y,z
-x,-y,1/2+z
x,1/2-y,-z
-x,1/2+y,1/2-z
-x,-y,-z
x,y,1/2-z
-x,1/2+y,z
x,1/2-y,1/2+z
loop_
_atom_site_type_symbol
_atom_site_label
_atom_site_fract_x
_atom_site_fract_y
_atom_site_fract_z
Si Si1 0.154255 0.116667 0.686998
Si Si2 0.338673 0.987101 0.250000
Si Si3 0.925197 0.910333 0.611356
Si Si4 0.735686 0.265915 0.063744
Si Si5 0.568940 0.324086 0.672224
O O1 0.114489 0.177890 0.750000
O O2 0.156048 0.233656 0.631993
O O3 0.321815 0.994228 0.687458
O O4 0.994051 0.990784 0.669855
O O5 0.338965 0.835226 0.202153
O O6 0.387363 0.133747 0.298208
O O7 0.097368 0.856848 0.576478
O O8 0.804158 0.044390 0.579752
O O9 0.586110 0.210234 0.107073
O O10 0.683862 0.250000 0.000000
#
# Coordination Sequence:
#
# PCOD9434159 Si02
#       5
#     8   4   8   8   8
#     4  10  17  34  51  89 121 152 188 228 289 359
#     4  10  20  42  56  78 110 142 200 254 314 340
#     4   9  20  31  57  89 128 160 184 222 288 349
#     4  10  20  39  59  89 124 161 200 231 280 357
#     4  10  22  37  62  82 111 154 197 250 302 349
#
# _framework density 25.039967999999998
#
# number of rings (size 3 to 8) (size 9 to 14) (size 15 to 20)
#    0.000    2.222    2.222    1.333    0.000    3.556 
#    8.000    1.111    0.000    0.000    0.000    0.000 
#    0.000    0.000    0.000    0.000    0.000    0.000 
#
# Total GULP energy -200438.244548 kJ/mol
# GULP energy per Si atom -5567.729015 kJ/mol
# Density = 2.498298 g / cm^3
# Si number density = 25.039968 Si / 1000 Ang^3
#
#
#
# Elastic Constant Matrix: (Units=GPa)
#
#
# Indices 1 2 3 4 5 6 
#
# 1 39.9619 -7.7821 13.3101 0.0000 0.0000 0.0000
# 2 -7.7821 94.7565 36.8481 0.0000 0.0000 0.0000
# 3 13.3101 36.8481 229.5512 0.0000 0.0000 0.0000
# 4 0.0000 0.0000 0.0000 24.2717 0.0000 0.0000
# 5 0.0000 0.0000 0.0000 0.0000 186.7165 0.0000
# 6 0.0000 0.0000 0.0000 0.0000 0.0000 35.3616
#
#
#
# Elastic Compliance Matrix: (Units=1/GPa)
#
#
# Indices 1 2 3 4 5 6 
#
# 1 0.026259 0.002932 -0.001993 0.000000 0.000000 0.000000
# 2 0.002932 0.011583 -0.002029 0.000000 0.000000 0.000000
# 3 -0.001993 -0.002029 0.004798 0.000000 0.000000 0.000000
# 4 0.000000 0.000000 0.000000 0.041200 0.000000 0.000000
# 5 0.000000 0.000000 0.000000 0.000000 0.005356 0.000000
# 6 0.000000 0.000000 0.000000 0.000000 0.000000 0.028279
#
#
# Mechanical properties :
#
#
# Convention : Reuss Voigt Hill
#
# Bulk Modulus (GPa) = 24.71716 49.89133 37.30424
# Shear Modulus (GPa) = 37.55377 70.72954 54.14165
#
# Velocity S-wave (km/s) = 3.87687 5.32052 4.65500
# Velocity P-wave (km/s) = 5.47107 7.59684 6.61984
#
# Compressibility (1/GPa) = 0.04045772
#
# Stress axis : x y z
#
# Youngs Moduli (GPa) = 38.08282 86.33127 208.43524
#
# Poissons Ratio (x) = -0.25309 0.41544
# Poissons Ratio (y) = -0.11164 0.42299
# Poissons Ratio (z) = 0.07590 0.17520
#
# Static dielectric constant tensor:
#      x y z
#    x 2.246280 0.000000 0.000000 
#    y 0.000000 2.022230 0.000000 
#    z 0.000000 0.000000 1.919980 
# 
# From -- ./inp_files/24012.got.cif
#   From: 2010.05.17/outbox.cif.g08.bks.cpg/sg57_13_cif.got.tgz:24012.got - 2010.06.03 13:58:18.
