data_PCOD9434017
_publ_section_title
;
Structure prediction by ZEFSAII (Michael W. Deem and Ramdas Pophale) SiO2 
 PCOD9434017
Probable space group: P B C M
;
_chemical_formula_sum "Si O2"
_cell_formula_units_Z 28
_cell_length_a 18.307430
_cell_length_b 10.723280
_cell_length_c 5.630637
_cell_angle_alpha 90.000000
_cell_angle_beta 90.000000
_cell_angle_gamma 90.000000
_cell_volume 1105.382433
_symmetry_space_group_name_H-M "P B C M"
_symmetry_group_IT_number 57
_symmetry_cell_setting 'orthorhombic'
loop_
_space_group_symop_operation_xyz
x,y,z
-x,-y,1/2+z
x,1/2-y,-z
-x,1/2+y,1/2-z
-x,-y,-z
x,y,1/2-z
-x,1/2+y,z
x,1/2-y,1/2+z
loop_
_atom_site_type_symbol
_atom_site_label
_atom_site_fract_x
_atom_site_fract_y
_atom_site_fract_z
Si Si1 0.150491 0.875019 0.250000
Si Si2 0.228647 0.184001 0.250000
Si Si3 0.093299 0.901755 0.750000
Si Si4 0.695085 0.085757 0.750000
Si Si5 0.416313 0.044175 0.500198
Si Si6 0.053745 0.181177 0.250000
O O1 0.131196 0.941049 0.502189
O O2 0.103847 0.748058 0.250000
O O3 0.235131 0.827410 0.250000
O O4 0.249489 0.250000 0.500000
O O5 0.141047 0.172770 0.250000
O O6 0.261609 0.046069 0.250000
O O7 0.007013 0.928948 0.750000
O O8 0.638598 0.074008 0.532066
O O9 0.400473 0.105481 0.750000
O O10 0.500000 0.000000 0.500000
O O11 0.406827 0.113984 0.250000
O O12 0.038329 0.250000 0.500000
#
# Coordination Sequence:
#
# PCOD9434017 Si02
#       6
#     4   4   4   4   8   4
#     4  10  20  30  55  80 106 135 178 222 267 320
#     4  10  24  37  55  78 108 145 184 232 278 303
#     4  10  18  35  51  78 105 147 172 209 280 324
#     4  10  22  34  57  84 109 136 190 226 264 325
#     4   8  16  30  51  78  99 132 171 210 256 320
#     4  10  16  34  56  68 100 149 186 205 265 344
#
# _framework density 25.330597999999998
#
# number of rings (size 3 to 8) (size 9 to 14) (size 15 to 20)
#    0.857    1.714    2.857    0.000    4.000    0.000 
#    0.000    1.429    0.000    0.000   22.286    0.000 
#    0.000    0.000    0.000    0.000    0.000    0.000 
#
# Total GULP energy -155872.885955 kJ/mol
# GULP energy per Si atom -5566.888784 kJ/mol
# Density = 2.527294 g / cm^3
# Si number density = 25.330598 Si / 1000 Ang^3
#
#
#
# Elastic Constant Matrix: (Units=GPa)
#
#
# Indices 1 2 3 4 5 6 
#
# 1 180.2246 -20.0943 28.0060 0.0000 0.0000 0.0000
# 2 -20.0943 24.3958 19.4302 0.0000 0.0000 0.0000
# 3 28.0060 19.4302 293.3173 0.0000 0.0000 0.0000
# 4 0.0000 0.0000 0.0000 18.5551 0.0000 0.0000
# 5 0.0000 0.0000 0.0000 0.0000 38.7181 0.0000
# 6 0.0000 0.0000 0.0000 0.0000 0.0000 -45.7731
#
#
#
# Elastic Compliance Matrix: (Units=1/GPa)
#
#
# Indices 1 2 3 4 5 6 
#
# 1 0.006382 0.006061 -0.001011 0.000000 0.000000 0.000000
# 2 0.006061 0.049031 -0.003827 0.000000 0.000000 0.000000
# 3 -0.001011 -0.003827 0.003759 0.000000 0.000000 0.000000
# 4 0.000000 0.000000 0.000000 0.053894 0.000000 0.000000
# 5 0.000000 0.000000 0.000000 0.000000 0.025828 0.000000
# 6 0.000000 0.000000 0.000000 0.000000 0.000000 -0.021847
#
#
# Mechanical properties :
#
#
# Convention : Reuss Voigt Hill
#
# Bulk Modulus (GPa) = 16.22860 61.40240 38.81550
# Shear Modulus (GPa) = 36.99909 33.67306 35.33608
#
# Velocity S-wave (km/s) = 3.82599 3.64997 3.73902
# Velocity P-wave (km/s) = 5.09296 6.48507 5.83071
#
# Compressibility (1/GPa) = 0.06161960
#
# Stress axis : x y z
#
# Youngs Moduli (GPa) = 156.70214 20.39524 266.00805
#
# Poissons Ratio (x) = -0.12362 0.26889
# Poissons Ratio (y) = -0.94984 1.01793
# Poissons Ratio (z) = 0.15840 0.07805
#
# Static dielectric constant tensor:
#      x y z
#    x 2.061240 0.000000 0.000000 
#    y 0.000000 1.512130 0.000000 
#    z 0.000000 0.000000 2.042440 
# 
# From -- ./inp_files/553.got.cif
#   From: 2010.05.17/outbox.cif.g08.bks.cpg/sg57_1_cif.got.tgz:553.got - 2010.06.03 13:58:18.
