data_PCOD9434602
_publ_section_title
;
Structure prediction by ZEFSAII (Michael W. Deem and Ramdas Pophale) SiO2 
 PCOD9434602
Probable space group: P B C M
;
_chemical_formula_sum "Si O2"
_cell_formula_units_Z 48
_cell_length_a 18.746159
_cell_length_b 15.749075
_cell_length_c 8.598323
_cell_angle_alpha 90.000000
_cell_angle_beta 90.000000
_cell_angle_gamma 90.000000
_cell_volume 2538.523002
_symmetry_space_group_name_H-M "P B C M"
_symmetry_group_IT_number 57
_symmetry_cell_setting 'orthorhombic'
loop_
_space_group_symop_operation_xyz
x,y,z
-x,-y,1/2+z
x,1/2-y,-z
-x,1/2+y,1/2-z
-x,-y,-z
x,y,1/2-z
-x,1/2+y,z
x,1/2-y,1/2+z
loop_
_atom_site_type_symbol
_atom_site_label
_atom_site_fract_x
_atom_site_fract_y
_atom_site_fract_z
Si Si1 0.333117 0.517100 0.563163
Si Si2 0.392239 0.161264 0.935441
Si Si3 0.898793 0.658660 0.437257
Si Si4 0.064092 0.842007 0.563907
Si Si5 0.170006 0.983910 0.062289
Si Si6 0.469692 0.589295 0.435926
O O1 0.340388 0.518068 0.750000
O O2 0.354180 0.422483 0.504607
O O3 0.251575 0.534494 0.518878
O O4 0.388132 0.585064 0.491194
O O5 0.388335 0.158610 0.750000
O O6 0.362451 0.250000 0.000000
O O7 0.474968 0.154725 0.989755
O O8 0.875280 0.750000 0.500000
O O9 0.897018 0.661909 0.250000
O O10 0.852530 0.578477 0.489530
O O11 0.981469 0.644675 0.485487
O O12 0.086274 0.750000 0.500000
O O13 0.065776 0.840681 0.750000
O O14 0.114935 0.915568 0.502562
O O15 0.165799 0.982325 0.250000
O O16 0.500000 0.500000 0.500000
O O17 0.474082 0.592553 0.250000
#
# Coordination Sequence:
#
# PCOD9434602 Si02
#       6
#     8   8   8   8   8   8
#     4  10  20  35  53  76 107 142 175 214 263 317
#     4  11  21  35  55  79 106 137 174 217 262 314
#     4   9  19  35  54  80 110 144 183 228 275 324
#     4  10  20  35  57  80 106 140 184 232 279 328
#     4  10  21  36  55  80 113 147 183 225 274 328
#     4  10  18  32  53  75  99 130 168 208 248 299
#
# _framework density 18.908632000000001
#
# number of rings (size 3 to 8) (size 9 to 14) (size 15 to 20)
#    0.000    2.000    0.000    6.500    0.000    3.333 
#    0.000    2.500    0.000    4.000    0.000    0.000 
#    0.000    0.000    0.000    0.000    0.000    0.000 
#
# Total GULP energy -267925.955929 kJ/mol
# GULP energy per Si atom -5581.790749 kJ/mol
# Density = 1.886560 g / cm^3
# Si number density = 18.908632 Si / 1000 Ang^3
#
#
#
# Elastic Constant Matrix: (Units=GPa)
#
#
# Indices 1 2 3 4 5 6 
#
# 1 51.1006 -1.5875 6.5828 0.0000 0.0000 0.0000
# 2 -1.5875 27.8488 -6.2728 0.0000 0.0000 0.0000
# 3 6.5828 -6.2728 54.4400 0.0000 0.0000 0.0000
# 4 0.0000 0.0000 0.0000 28.1733 0.0000 0.0000
# 5 0.0000 0.0000 0.0000 0.0000 21.8519 0.0000
# 6 0.0000 0.0000 0.0000 0.0000 0.0000 6.8695
#
#
#
# Elastic Compliance Matrix: (Units=1/GPa)
#
#
# Indices 1 2 3 4 5 6 
#
# 1 0.019889 0.000608 -0.002335 0.000000 0.000000 0.000000
# 2 0.000608 0.036884 0.004176 0.000000 0.000000 0.000000
# 3 -0.002335 0.004176 0.019132 0.000000 0.000000 0.000000
# 4 0.000000 0.000000 0.000000 0.035495 0.000000 0.000000
# 5 0.000000 0.000000 0.000000 0.000000 0.045763 0.000000
# 6 0.000000 0.000000 0.000000 0.000000 0.000000 0.145572
#
#
# Mechanical properties :
#
#
# Convention : Reuss Voigt Hill
#
# Bulk Modulus (GPa) = 12.37569 14.53715 13.45642
# Shear Modulus (GPa) = 15.39552 20.35673 17.87612
#
# Velocity S-wave (km/s) = 2.85652 3.28469 3.07806
# Velocity P-wave (km/s) = 4.17598 4.70004 4.44574
#
# Compressibility (1/GPa) = 0.08080358
#
# Stress axis : x y z
#
# Youngs Moduli (GPa) = 50.27931 27.11232 52.26738
#
# Poissons Ratio (x) = -0.01648 0.12204
# Poissons Ratio (y) = -0.03056 -0.21829
# Poissons Ratio (z) = 0.11740 -0.11323
#
# Static dielectric constant tensor:
#      x y z
#    x 1.681170 0.000000 0.000000 
#    y 0.000000 1.621450 0.000000 
#    z 0.000000 0.000000 1.635290 
# 
# From -- ./inp_files/6497.got.cif
#   From: 2010.05.17/outbox.cif.g08.bks.cpg/sg57_4_cif.got.tgz:6497.got - 2010.06.03 13:58:18.
