data_PCOD9434114
_publ_section_title
;
Structure prediction by ZEFSAII (Michael W. Deem and Ramdas Pophale) SiO2 
 PCOD9434114
Probable space group: P B C M
;
_chemical_formula_sum "Si O2"
_cell_formula_units_Z 24
_cell_length_a 13.462357
_cell_length_b 14.142188
_cell_length_c 5.422130
_cell_angle_alpha 90.000000
_cell_angle_beta 90.000000
_cell_angle_gamma 90.000000
_cell_volume 1032.304060
_symmetry_space_group_name_H-M "P B C M"
_symmetry_group_IT_number 57
_symmetry_cell_setting 'orthorhombic'
loop_
_space_group_symop_operation_xyz
x,y,z
-x,-y,1/2+z
x,1/2-y,-z
-x,1/2+y,1/2-z
-x,-y,-z
x,y,1/2-z
-x,1/2+y,z
x,1/2-y,1/2+z
loop_
_atom_site_type_symbol
_atom_site_label
_atom_site_fract_x
_atom_site_fract_y
_atom_site_fract_z
Si Si1 0.280580 0.499242 0.750000
Si Si2 0.997263 0.435661 0.750000
Si Si3 0.194995 0.190954 0.250000
Si Si4 0.437430 0.622796 0.250000
Si Si5 0.500610 0.088157 0.750000
Si Si6 0.219372 0.594869 0.250000
O O1 0.280612 0.387435 0.750000
O O2 0.388381 0.544720 0.750000
O O3 0.228539 0.535269 0.501489
O O4 0.895225 0.373394 0.750000
O O5 0.000000 0.500000 0.500000
O O6 0.092490 0.368357 0.750000
O O7 0.200094 0.250000 0.500000
O O8 0.432223 0.505264 0.250000
O O9 0.498093 0.644208 0.496571
O O10 0.322232 0.656891 0.250000
#
# Coordination Sequence:
#
# PCOD9434114 Si02
#       6
#     4   4   4   4   4   4
#     4  10  18  31  49  69  98 130 161 199 252 305
#     4  12  21  36  55  74  98 136 178 215 256 308
#     4  12  24  36  50  74 104 136 171 216 260 311
#     4   8  14  23  40  67  96 115 149 194 242 281
#     4   8  14  24  40  65  94 123 144 188 241 290
#     4  10  17  30  50  73  94 126 167 206 251 295
#
# _framework density 23.248964999999998
#
# number of rings (size 3 to 8) (size 9 to 14) (size 15 to 20)
#    0.000    2.000    3.333    2.000    0.000    0.000 
#    0.000    0.000    0.000    0.000    0.000    2.333 
#    0.000    0.000    0.000    0.000    0.000    0.000 
#
# Total GULP energy -133920.285506 kJ/mol
# GULP energy per Si atom -5580.011896 kJ/mol
# Density = 2.319605 g / cm^3
# Si number density = 23.248965 Si / 1000 Ang^3
#
#
#
# Elastic Constant Matrix: (Units=GPa)
#
#
# Indices 1 2 3 4 5 6 
#
# 1 92.5210 -13.1047 -6.4836 0.0000 0.0000 0.0000
# 2 -13.1047 56.4219 27.4998 0.0000 0.0000 0.0000
# 3 -6.4836 27.4998 236.7910 0.0000 0.0000 0.0000
# 4 0.0000 0.0000 0.0000 8.1486 0.0000 0.0000
# 5 0.0000 0.0000 0.0000 0.0000 -36.0703 0.0000
# 6 0.0000 0.0000 0.0000 0.0000 0.0000 3.3947
#
#
#
# Elastic Compliance Matrix: (Units=1/GPa)
#
#
# Indices 1 2 3 4 5 6 
#
# 1 0.011176 0.002593 0.000005 0.000000 0.000000 0.000000
# 2 0.002593 0.019389 -0.002181 0.000000 0.000000 0.000000
# 3 0.000005 -0.002181 0.004477 0.000000 0.000000 0.000000
# 4 0.000000 0.000000 0.000000 0.122721 0.000000 0.000000
# 5 0.000000 0.000000 0.000000 0.000000 -0.027724 0.000000
# 6 0.000000 0.000000 0.000000 0.000000 0.000000 0.294581
#
#
# Mechanical properties :
#
#
# Convention : Reuss Voigt Hill
#
# Bulk Modulus (GPa) = 27.87343 44.61743 36.24543
# Shear Modulus (GPa) = 11.47464 20.28276 15.87870
#
# Velocity S-wave (km/s) = 2.22402 2.95687 2.61623
# Velocity P-wave (km/s) = 4.31395 5.55790 4.97496
#
# Compressibility (1/GPa) = 0.03587646
#
# Stress axis : x y z
#
# Youngs Moduli (GPa) = 89.47720 51.57606 223.38760
#
# Poissons Ratio (x) = -0.13376 -0.00108
# Poissons Ratio (y) = -0.23205 0.48715
# Poissons Ratio (z) = -0.00043 0.11247
#
# Static dielectric constant tensor:
#      x y z
#    x 1.926830 0.000000 0.000000 
#    y 0.000000 1.862020 0.000000 
#    z 0.000000 0.000000 1.966890 
# 
# From -- ./inp_files/421.got.cif
#   From: 2010.05.17/outbox.cif.g08.bks.cpg/sg57_1_cif.got.tgz:421.got - 2010.06.03 13:58:18.
