data_PCOD9434337
_publ_section_title
;
Structure prediction by ZEFSAII (Michael W. Deem and Ramdas Pophale) SiO2 
 PCOD9434337
Probable space group: P B C M
;
_chemical_formula_sum "Si O2"
_cell_formula_units_Z 64
_cell_length_a 20.259201
_cell_length_b 20.413126
_cell_length_c 8.689300
_cell_angle_alpha 90.000000
_cell_angle_beta 90.000000
_cell_angle_gamma 90.000000
_cell_volume 3593.491493
_symmetry_space_group_name_H-M "P B C M"
_symmetry_group_IT_number 57
_symmetry_cell_setting 'orthorhombic'
loop_
_space_group_symop_operation_xyz
x,y,z
-x,-y,1/2+z
x,1/2-y,-z
-x,1/2+y,1/2-z
-x,-y,-z
x,y,1/2-z
-x,1/2+y,z
x,1/2-y,1/2+z
loop_
_atom_site_type_symbol
_atom_site_label
_atom_site_fract_x
_atom_site_fract_y
_atom_site_fract_z
Si Si1 0.854552 0.583588 0.435503
Si Si2 0.962787 0.820523 0.433638
Si Si3 0.616127 0.612958 0.934221
Si Si4 0.658756 0.028530 0.936041
Si Si5 0.191608 0.560245 0.564020
Si Si6 0.521013 0.429307 0.064825
Si Si7 0.890384 0.320047 0.933536
Si Si8 0.261799 0.318605 0.933097
O O1 0.861590 0.587034 0.250000
O O2 0.914891 0.621676 0.511975
O O3 0.844831 0.507826 0.477873
O O4 0.788099 0.623267 0.477550
O O5 0.939976 0.750000 0.500000
O O6 0.964612 0.816622 0.250000
O O7 0.036377 0.831437 0.498212
O O8 0.619757 0.616383 0.750000
O O9 0.539043 0.617887 0.983429
O O10 0.642194 0.541695 0.989535
O O11 0.665620 0.665167 0.005305
O O12 0.658742 0.019450 0.750000
O O13 0.731306 0.052867 0.979137
O O14 0.598017 0.077113 0.977715
O O15 0.188245 0.566822 0.750000
O O16 0.156914 0.621694 0.486478
O O17 0.518778 0.431688 0.250000
O O18 0.500000 0.500000 0.000000
O O19 0.894658 0.316357 0.750000
O O20 0.867745 0.250000 0.000000
O O21 0.263222 0.315173 0.750000
O O22 0.237833 0.250000 0.000000
#
# Coordination Sequence:
#
# PCOD9434337 Si02
#       8
#     8   8   8   8   8   8   8   8
#     4  10  21  37  56  81 112 145 183 225 271 323
#     4  11  22  38  60  83 110 146 185 227 270 320
#     4  10  18  29  47  74 106 139 179 228 269 318
#     4   9  16  31  52  76 107 143 177 218 271 321
#     4  10  20  36  58  84 114 146 179 224 275 325
#     4   8  15  26  45  72 101 134 174 216 263 313
#     4  11  23  41  63  85 109 140 178 222 271 331
#     4  11  22  36  52  74 105 149 191 230 276 328
#
# _framework density 17.809977
#
# number of rings (size 3 to 8) (size 9 to 14) (size 15 to 20)
#    0.000    2.000    1.250    4.125    0.000    4.000 
#    0.000    0.000    0.000    0.750    0.000    0.000 
#    0.000    0.000    0.000    0.000    0.000    0.000 
#
# Total GULP energy -357036.215550 kJ/mol
# GULP energy per Si atom -5578.690868 kJ/mol
# Density = 1.776944 g / cm^3
# Si number density = 17.809977 Si / 1000 Ang^3
#
#
#
# Elastic Constant Matrix: (Units=GPa)
#
#
# Indices 1 2 3 4 5 6 
#
# 1 107.5180 67.2708 42.0794 0.0000 0.0000 0.0000
# 2 67.2708 105.1749 44.3048 0.0000 0.0000 0.0000
# 3 42.0794 44.3048 56.9259 0.0000 0.0000 0.0000
# 4 0.0000 0.0000 0.0000 26.1636 0.0000 0.0000
# 5 0.0000 0.0000 0.0000 0.0000 20.6006 0.0000
# 6 0.0000 0.0000 0.0000 0.0000 0.0000 16.8002
#
#
#
# Elastic Compliance Matrix: (Units=1/GPa)
#
#
# Indices 1 2 3 4 5 6 
#
# 1 0.016791 -0.008199 -0.006030 0.000000 0.000000 0.000000
# 2 -0.008199 0.018150 -0.008065 0.000000 0.000000 0.000000
# 3 -0.006030 -0.008065 0.028301 0.000000 0.000000 0.000000
# 4 0.000000 0.000000 0.000000 0.038221 0.000000 0.000000
# 5 0.000000 0.000000 0.000000 0.000000 0.048542 0.000000
# 6 0.000000 0.000000 0.000000 0.000000 0.000000 0.059523
#
#
# Mechanical properties :
#
#
# Convention : Reuss Voigt Hill
#
# Bulk Modulus (GPa) = 53.61149 64.10321 58.85735
# Shear Modulus (GPa) = 19.20608 20.44381 19.82495
#
# Velocity S-wave (km/s) = 3.28745 3.39172 3.33999
# Velocity P-wave (km/s) = 6.67660 7.17003 6.92771
#
# Compressibility (1/GPa) = 0.01865272
#
# Stress axis : x y z
#
# Youngs Moduli (GPa) = 59.55584 55.09754 35.33453
#
# Poissons Ratio (x) = 0.45177 0.21308
# Poissons Ratio (y) = 0.48832 0.28496
# Poissons Ratio (z) = 0.35914 0.44435
#
# Static dielectric constant tensor:
#      x y z
#    x 1.640460 0.000000 0.000000 
#    y 0.000000 1.585380 0.000000 
#    z 0.000000 0.000000 1.597370 
# 
# From -- ./inp_files/8443.got.cif
#   From: 2010.05.17/outbox.cif.g08.bks.cpg/sg57_5_cif.got.tgz:8443.got - 2010.06.03 13:58:18.
