data_PCOD9434678
_publ_section_title
;
Structure prediction by ZEFSAII (Michael W. Deem and Ramdas Pophale) SiO2 
 PCOD9434678
Probable space group: P B C M
;
_chemical_formula_sum "Si O2"
_cell_formula_units_Z 48
_cell_length_a 9.401737
_cell_length_b 16.332254
_cell_length_c 16.456057
_cell_angle_alpha 90.000000
_cell_angle_beta 90.000000
_cell_angle_gamma 90.000000
_cell_volume 2526.853170
_symmetry_space_group_name_H-M "P B C M"
_symmetry_group_IT_number 57
_symmetry_cell_setting 'orthorhombic'
loop_
_space_group_symop_operation_xyz
x,y,z
-x,-y,1/2+z
x,1/2-y,-z
-x,1/2+y,1/2-z
-x,-y,-z
x,y,1/2-z
-x,1/2+y,z
x,1/2-y,1/2+z
loop_
_atom_site_type_symbol
_atom_site_label
_atom_site_fract_x
_atom_site_fract_y
_atom_site_fract_z
Si Si1 0.156743 0.597720 0.923088
Si Si2 0.085518 0.850572 0.896207
Si Si3 0.193320 0.430332 0.656146
Si Si4 0.345819 0.235197 0.403797
Si Si5 0.334514 0.742574 0.655587
Si Si6 0.925721 0.692721 0.845054
O O1 0.216186 0.509677 0.899082
O O2 0.266127 0.668751 0.896244
O O3 0.012396 0.613178 0.871163
O O4 0.116867 0.610550 0.016621
O O5 0.233853 0.821962 0.857238
O O6 0.974292 0.907191 0.848931
O O7 0.998035 0.764648 0.898777
O O8 0.231601 0.444997 0.750000
O O9 0.280156 0.352434 0.622233
O O10 0.342024 0.250000 0.500000
O O11 0.505600 0.241580 0.372019
O O12 0.240500 0.302145 0.363333
O O13 0.328907 0.719620 0.750000
O O14 0.950841 0.710916 0.750000
#
# Coordination Sequence:
#
# PCOD9434678 Si02
#       6
#     8   8   8   8   8   8
#     4  11  21  36  59  87 116 147 186 238 289 332
#     4  10  19  34  56  82 111 147 189 229 272 331
#     4  11  22  39  59  85 117 152 187 233 287 337
#     4  11  22  38  58  81 111 150 193 235 280 339
#     4  11  21  38  60  84 113 153 194 233 278 339
#     4  10  18  33  56  83 111 149 192 234 277 334
#
# _framework density 18.995958999999999
#
# number of rings (size 3 to 8) (size 9 to 14) (size 15 to 20)
#    0.000    1.333    0.000   12.000    0.000    0.000 
#    0.000    5.000    0.000    0.000    0.000    0.000 
#    0.000    0.000    0.000    0.000    0.000    0.000 
#
# Total GULP energy -267941.094536 kJ/mol
# GULP energy per Si atom -5582.106136 kJ/mol
# Density = 1.895272 g / cm^3
# Si number density = 18.995959 Si / 1000 Ang^3
#
#
#
# Elastic Constant Matrix: (Units=GPa)
#
#
# Indices 1 2 3 4 5 6 
#
# 1 132.0492 17.4898 9.2146 0.0000 0.0000 0.0000
# 2 17.4898 42.5972 -9.8233 0.0000 0.0000 0.0000
# 3 9.2146 -9.8233 86.8825 0.0000 0.0000 0.0000
# 4 0.0000 0.0000 0.0000 3.0024 0.0000 0.0000
# 5 0.0000 0.0000 0.0000 0.0000 33.0834 0.0000
# 6 0.0000 0.0000 0.0000 0.0000 0.0000 13.8161
#
#
#
# Elastic Compliance Matrix: (Units=1/GPa)
#
#
# Indices 1 2 3 4 5 6 
#
# 1 0.008144 -0.003638 -0.001275 0.000000 0.000000 0.000000
# 2 -0.003638 0.025729 0.003295 0.000000 0.000000 0.000000
# 3 -0.001275 0.003295 0.012018 0.000000 0.000000 0.000000
# 4 0.000000 0.000000 0.000000 0.333071 0.000000 0.000000
# 5 0.000000 0.000000 0.000000 0.000000 0.030227 0.000000
# 6 0.000000 0.000000 0.000000 0.000000 0.000000 0.072379
#
#
# Mechanical properties :
#
#
# Convention : Reuss Voigt Hill
#
# Bulk Modulus (GPa) = 23.44411 32.81013 28.12712
# Shear Modulus (GPa) = 10.01961 26.29023 18.15492
#
# Velocity S-wave (km/s) = 2.29914 3.72424 3.09483
# Velocity P-wave (km/s) = 4.40641 5.98356 5.25449
#
# Compressibility (1/GPa) = 0.04265464
#
# Stress axis : x y z
#
# Youngs Moduli (GPa) = 122.79401 38.86646 83.21167
#
# Poissons Ratio (x) = 0.14139 0.10610
# Poissons Ratio (y) = 0.44669 -0.27417
# Poissons Ratio (z) = 0.15656 -0.12806
#
# Static dielectric constant tensor:
#      x y z
#    x 1.670650 0.000000 0.000000 
#    y 0.000000 1.680690 0.000000 
#    z 0.000000 0.000000 1.656340 
# 
# From -- ./inp_files/16356.got.cif
#   From: 2010.05.17/outbox.cif.g08.bks.cpg/sg57_9_cif.got.tgz:16356.got - 2010.06.03 13:58:18.
