data_PCOD9434687
_publ_section_title
;
Structure prediction by ZEFSAII (Michael W. Deem and Ramdas Pophale) SiO2 
 PCOD9434687
Probable space group: P B C M
;
_chemical_formula_sum "Si O2"
_cell_formula_units_Z 52
_cell_length_a 9.496738
_cell_length_b 18.060080
_cell_length_c 15.430863
_cell_angle_alpha 90.000000
_cell_angle_beta 90.000000
_cell_angle_gamma 90.000000
_cell_volume 2646.575830
_symmetry_space_group_name_H-M "P B C M"
_symmetry_group_IT_number 57
_symmetry_cell_setting 'orthorhombic'
loop_
_space_group_symop_operation_xyz
x,y,z
-x,-y,1/2+z
x,1/2-y,-z
-x,1/2+y,1/2-z
-x,-y,-z
x,y,1/2-z
-x,1/2+y,z
x,1/2-y,1/2+z
loop_
_atom_site_type_symbol
_atom_site_label
_atom_site_fract_x
_atom_site_fract_y
_atom_site_fract_z
Si Si1 0.440890 0.680823 0.146400
Si Si2 0.323881 0.220792 0.850028
Si Si3 0.756810 0.250000 0.000000
Si Si4 0.118253 0.096404 0.649858
Si Si5 0.170798 0.594889 0.562217
Si Si6 0.338437 0.519834 0.090804
Si Si7 0.544612 0.088238 0.846624
O O1 0.426522 0.696838 0.250000
O O2 0.600977 0.703972 0.117990
O O3 0.339091 0.726211 0.081959
O O4 0.398313 0.595750 0.130831
O O5 0.284512 0.234878 0.750000
O O6 0.195806 0.171177 0.886430
O O7 0.455827 0.163730 0.850826
O O8 0.843177 0.177267 0.976422
O O9 0.080495 0.110471 0.750000
O O10 0.232646 0.030790 0.647216
O O11 0.979925 0.073154 0.598282
O O12 0.242653 0.542492 0.490789
O O13 0.292167 0.599645 0.634855
O O14 0.472482 0.465553 0.083893
O O15 0.525742 0.056980 0.750000
#
# Coordination Sequence:
#
# PCOD9434687 Si02
#       7
#     8   8   4   8   8   8   8
#     4  10  18  34  58  82 114 150 191 248 299 340
#     4   8  16  31  55  80 105 142 192 236 278 337
#     4  10  22  34  54  88 116 144 202 242 288 356
#     4  10  20  36  58  84 114 154 199 237 287 358
#     4  11  21  35  56  82 120 153 192 241 297 345
#     4  10  21  35  57  85 116 153 196 242 294 356
#     4  10  18  33  57  84 110 147 198 240 281 341
#
# _framework density 19.648028
#
# number of rings (size 3 to 8) (size 9 to 14) (size 15 to 20)
#    0.000    2.154    1.538    3.692    0.000    0.615 
#    0.000    0.769    6.769    0.000    0.000    0.000 
#    0.000    0.000    0.000    0.000    0.000    0.000 
#
# Total GULP energy -289485.387683 kJ/mol
# GULP energy per Si atom -5567.026686 kJ/mol
# Density = 1.960331 g / cm^3
# Si number density = 19.648028 Si / 1000 Ang^3
#
#
#
# Elastic Constant Matrix: (Units=GPa)
#
#
# Indices 1 2 3 4 5 6 
#
# 1 114.2448 34.5657 26.2695 0.0000 0.0000 0.0000
# 2 34.5657 61.5819 9.5365 0.0000 0.0000 0.0000
# 3 26.2695 9.5365 46.9770 0.0000 0.0000 0.0000
# 4 0.0000 0.0000 0.0000 20.1005 0.0000 0.0000
# 5 0.0000 0.0000 0.0000 0.0000 23.8512 0.0000
# 6 0.0000 0.0000 0.0000 0.0000 0.0000 27.7626
#
#
#
# Elastic Compliance Matrix: (Units=1/GPa)
#
#
# Indices 1 2 3 4 5 6 
#
# 1 0.011733 -0.005751 -0.005394 0.000000 0.000000 0.000000
# 2 -0.005751 0.019584 -0.000760 0.000000 0.000000 0.000000
# 3 -0.005394 -0.000760 0.024457 0.000000 0.000000 0.000000
# 4 0.000000 0.000000 0.000000 0.049750 0.000000 0.000000
# 5 0.000000 0.000000 0.000000 0.000000 0.041927 0.000000
# 6 0.000000 0.000000 0.000000 0.000000 0.000000 0.036020
#
#
# Mechanical properties :
#
#
# Convention : Reuss Voigt Hill
#
# Bulk Modulus (GPa) = 31.28312 40.39411 35.83861
# Shear Modulus (GPa) = 22.94260 24.50498 23.72379
#
# Velocity S-wave (km/s) = 3.42084 3.53540 3.47859
# Velocity P-wave (km/s) = 5.61776 6.10483 5.86635
#
# Compressibility (1/GPa) = 0.03196613
#
# Stress axis : x y z
#
# Youngs Moduli (GPa) = 85.22772 51.06211 40.88727
#
# Poissons Ratio (x) = 0.29364 0.22054
# Poissons Ratio (y) = 0.49011 0.03107
# Poissons Ratio (z) = 0.45971 0.03880
#
# Static dielectric constant tensor:
#      x y z
#    x 1.673960 0.000000 0.000000 
#    y 0.000000 1.725420 0.000000 
#    z 0.000000 0.000000 1.740590 
# 
# From -- ./inp_files/21195.got.cif
#   From: 2010.05.17/outbox.cif.g08.bks.cpg/sg57_11_cif.got.tgz:21195.got - 2010.06.03 13:58:18.
