data_PCOD9434818
_publ_section_title
;
Structure prediction by ZEFSAII (Michael W. Deem and Ramdas Pophale) SiO2 
 PCOD9434818
Probable space group: P B C M
;
_chemical_formula_sum "Si O2"
_cell_formula_units_Z 64
_cell_length_a 12.120799
_cell_length_b 16.872565
_cell_length_c 14.692280
_cell_angle_alpha 90.000000
_cell_angle_beta 90.000000
_cell_angle_gamma 90.000000
_cell_volume 3004.703035
_symmetry_space_group_name_H-M "P B C M"
_symmetry_group_IT_number 57
_symmetry_cell_setting 'orthorhombic'
loop_
_space_group_symop_operation_xyz
x,y,z
-x,-y,1/2+z
x,1/2-y,-z
-x,1/2+y,1/2-z
-x,-y,-z
x,y,1/2-z
-x,1/2+y,z
x,1/2-y,1/2+z
loop_
_atom_site_type_symbol
_atom_site_label
_atom_site_fract_x
_atom_site_fract_y
_atom_site_fract_z
Si Si1 0.669506 0.377171 0.972761
Si Si2 0.704922 0.806377 0.087730
Si Si3 0.129236 0.794860 0.596591
Si Si4 0.467807 0.847964 0.352821
Si Si5 0.033007 0.084830 0.033653
Si Si6 0.265148 0.453585 0.537026
Si Si7 0.484074 0.461478 0.646014
Si Si8 0.057480 0.319321 0.346520
O O1 0.744344 0.324985 0.904270
O O2 0.571422 0.418059 0.917361
O O3 0.615795 0.334756 0.062076
O O4 0.738505 0.453280 0.010826
O O5 0.584848 0.803488 0.134542
O O6 0.817043 0.785523 0.142635
O O7 0.702900 0.750000 0.000000
O O8 0.716216 0.897110 0.050546
O O9 0.127295 0.750000 0.500000
O O10 0.057845 0.874565 0.594390
O O11 0.049875 0.737826 0.654851
O O12 0.424180 0.832434 0.250000
O O13 0.492631 0.942756 0.358104
O O14 0.151538 0.076552 0.079275
O O15 0.044706 0.134603 0.940778
O O16 0.000000 0.000000 0.000000
O O17 0.365108 0.441937 0.605372
O O18 0.496692 0.437007 0.750000
O O19 0.056689 0.364250 0.250000
#
# Coordination Sequence:
#
# PCOD9434818 Si02
#       8
#     8   8   8   8   8   8   8   8
#     4  11  19  37  63  89 127 172 215 261 320 389
#     4  11  20  36  63  88 124 169 211 261 326 381
#     4  10  22  40  62  86 121 170 207 255 325 389
#     4  10  20  36  61  94 126 163 216 271 323 383
#     4  10  19  37  65  92 114 162 220 256 311 382
#     4  10  18  36  61  89 119 159 213 265 316 377
#     4  10  20  36  59  93 132 166 205 264 326 377
#     4  10  22  40  60  91 130 164 208 266 325 382
#
# _framework density 21.299939999999999
#
# number of rings (size 3 to 8) (size 9 to 14) (size 15 to 20)
#    0.000    1.750    3.750    3.000    0.000    1.000 
#    0.000    6.875    0.000    0.000    0.000    0.000 
#    0.000    0.000    0.000    0.000    0.000    0.000 
#
# Total GULP energy -356505.026426 kJ/mol
# GULP energy per Si atom -5570.391038 kJ/mol
# Density = 2.125146 g / cm^3
# Si number density = 21.299940 Si / 1000 Ang^3
#
#
#
# Elastic Constant Matrix: (Units=GPa)
#
#
# Indices 1 2 3 4 5 6 
#
# 1 118.0374 25.7728 33.8980 0.0000 0.0000 0.0000
# 2 25.7728 42.8991 -0.1977 0.0000 0.0000 0.0000
# 3 33.8980 -0.1977 75.9560 0.0000 0.0000 0.0000
# 4 0.0000 0.0000 0.0000 7.7569 0.0000 0.0000
# 5 0.0000 0.0000 0.0000 0.0000 1.4839 0.0000
# 6 0.0000 0.0000 0.0000 0.0000 0.0000 32.5263
#
#
#
# Elastic Compliance Matrix: (Units=1/GPa)
#
#
# Indices 1 2 3 4 5 6 
#
# 1 0.011452 -0.006904 -0.005129 0.000000 0.000000 0.000000
# 2 -0.006904 0.027473 0.003153 0.000000 0.000000 0.000000
# 3 -0.005129 0.003153 0.015463 0.000000 0.000000 0.000000
# 4 0.000000 0.000000 0.000000 0.128917 0.000000 0.000000
# 5 0.000000 0.000000 0.000000 0.000000 0.673895 0.000000
# 6 0.000000 0.000000 0.000000 0.000000 0.000000 0.030744
#
#
# Mechanical properties :
#
#
# Convention : Reuss Voigt Hill
#
# Bulk Modulus (GPa) = 27.30209 39.53764 33.41986
# Shear Modulus (GPa) = 5.44714 20.18139 12.81426
#
# Velocity S-wave (km/s) = 1.60091 3.08147 2.45544
# Velocity P-wave (km/s) = 4.03273 5.59135 4.87474
#
# Compressibility (1/GPa) = 0.03662723
#
# Stress axis : x y z
#
# Youngs Moduli (GPa) = 87.31915 36.39975 64.67180
#
# Poissons Ratio (x) = 0.25130 0.33170
# Poissons Ratio (y) = 0.60284 -0.20388
# Poissons Ratio (z) = 0.44785 -0.11475
#
# Static dielectric constant tensor:
#      x y z
#    x 1.824740 0.000000 0.000000 
#    y 0.000000 1.929960 0.000000 
#    z 0.000000 0.000000 1.759470 
# 
# From -- ./inp_files/18012.got.cif
#   From: 2010.05.17/outbox.cif.g08.bks.cpg/sg57_10_cif.got.tgz:18012.got - 2010.06.03 13:58:18.
