data_PCOD9434879
_publ_section_title
;
Structure prediction by ZEFSAII (Michael W. Deem and Ramdas Pophale) SiO2 
 PCOD9434879
Probable space group: P B C M
;
_chemical_formula_sum "Si O2"
_cell_formula_units_Z 64
_cell_length_a 22.509597
_cell_length_b 18.844910
_cell_length_c 9.296914
_cell_angle_alpha 90.000000
_cell_angle_beta 90.000000
_cell_angle_gamma 90.000000
_cell_volume 3943.670311
_symmetry_space_group_name_H-M "P B C M"
_symmetry_group_IT_number 57
_symmetry_cell_setting 'orthorhombic'
loop_
_space_group_symop_operation_xyz
x,y,z
-x,-y,1/2+z
x,1/2-y,-z
-x,1/2+y,1/2-z
-x,-y,-z
x,y,1/2-z
-x,1/2+y,z
x,1/2-y,1/2+z
loop_
_atom_site_type_symbol
_atom_site_label
_atom_site_fract_x
_atom_site_fract_y
_atom_site_fract_z
Si Si1 0.229478 0.675157 0.920114
Si Si2 0.898107 0.394141 0.081287
Si Si3 0.587765 0.190088 0.408876
Si Si4 0.975782 0.676434 0.921831
Si Si5 0.061094 0.476474 0.422620
Si Si6 0.595470 0.520551 0.415906
Si Si7 0.502473 0.607420 0.585481
Si Si8 0.314724 0.568222 0.413959
O O1 0.245163 0.680296 0.750000
O O2 0.160278 0.653479 0.931566
O O3 0.238980 0.750000 0.000000
O O4 0.265860 0.612128 0.997608
O O5 0.905671 0.413559 0.250000
O O6 0.957212 0.349949 0.039188
O O7 0.893585 0.466291 0.988472
O O8 0.619904 0.250000 0.500000
O O9 0.574549 0.216106 0.250000
O O10 0.529111 0.167931 0.493610
O O11 0.630587 0.123244 0.399829
O O12 0.974822 0.687585 0.750000
O O13 0.934102 0.607822 0.953722
O O14 0.961633 0.750000 0.000000
O O15 0.057024 0.484192 0.250000
O O16 0.000000 0.500000 0.500000
O O17 0.606124 0.540126 0.250000
O O18 0.561207 0.579768 0.507108
O O19 0.546943 0.456033 0.412845
O O20 0.655303 0.494955 0.495044
O O21 0.513806 0.626888 0.750000
O O22 0.296342 0.549591 0.250000
#
# Coordination Sequence:
#
# PCOD9434879 Si02
#       8
#     8   8   8   8   8   8   8   8
#     4  11  22  34  47  64  88 118 155 195 229 264
#     4   9  19  33  46  63  88 119 156 192 226 266
#     4  10  19  29  41  58  82 112 144 177 214 258
#     4   9  17  28  43  66  92 117 147 182 221 267
#     4   9  17  29  45  65  89 117 150 185 223 268
#     4   9  16  27  43  61  81 105 135 172 214 256
#     4   9  16  26  41  60  81 105 134 169 210 257
#     4  10  20  32  45  61  83 113 149 185 221 260
#
# _framework density 16.228536999999999
#
# number of rings (size 3 to 8) (size 9 to 14) (size 15 to 20)
#    0.000    2.500    0.000    3.750    0.000    9.000 
#    0.000    0.000    0.000    0.000    0.000    0.000 
#    0.000    1.000    0.000    7.000    0.000    6.375 
#
# Total GULP energy -356395.413497 kJ/mol
# GULP energy per Si atom -5568.678336 kJ/mol
# Density = 1.619160 g / cm^3
# Si number density = 16.228537 Si / 1000 Ang^3
#
#
#
# Elastic Constant Matrix: (Units=GPa)
#
#
# Indices 1 2 3 4 5 6 
#
# 1 30.8193 5.9409 18.1666 0.0000 0.0000 0.0000
# 2 5.9409 61.2819 29.4098 0.0000 0.0000 0.0000
# 3 18.1666 29.4098 109.3953 0.0000 0.0000 0.0000
# 4 0.0000 0.0000 0.0000 27.1236 0.0000 0.0000
# 5 0.0000 0.0000 0.0000 0.0000 -72.1205 0.0000
# 6 0.0000 0.0000 0.0000 0.0000 0.0000 20.4956
#
#
#
# Elastic Compliance Matrix: (Units=1/GPa)
#
#
# Indices 1 2 3 4 5 6 
#
# 1 0.035995 -0.000713 -0.005786 0.000000 0.000000 0.000000
# 2 -0.000713 0.018749 -0.004922 0.000000 0.000000 0.000000
# 3 -0.005786 -0.004922 0.011425 0.000000 0.000000 0.000000
# 4 0.000000 0.000000 0.000000 0.036868 0.000000 0.000000
# 5 0.000000 0.000000 0.000000 0.000000 -0.013866 0.000000
# 6 0.000000 0.000000 0.000000 0.000000 0.000000 0.048791
#
#
# Mechanical properties :
#
#
# Convention : Reuss Voigt Hill
#
# Bulk Modulus (GPa) = 23.07978 34.28126 28.68052
# Shear Modulus (GPa) = 28.53104 4.96501 16.74803
#
# Velocity S-wave (km/s) = 4.19749 1.75102 3.21598
# Velocity P-wave (km/s) = 6.14366 5.02574 5.61260
#
# Compressibility (1/GPa) = 0.04332797
#
# Stress axis : x y z
#
# Youngs Moduli (GPa) = 27.78152 53.33522 87.52530
#
# Poissons Ratio (x) = 0.03802 0.50641
# Poissons Ratio (y) = 0.01980 0.43082
# Poissons Ratio (z) = 0.16074 0.26253
#
# Static dielectric constant tensor:
#      x y z
#    x 1.544390 0.000000 0.000000 
#    y 0.000000 1.596080 0.000000 
#    z 0.000000 0.000000 1.562050 
# 
# From -- ./inp_files/8753.got.cif
#   From: 2010.05.17/outbox.cif.g08.bks.cpg/sg57_5_cif.got.tgz:8753.got - 2010.06.03 13:58:18.
