data_PCOD9434016
_publ_section_title
;
Structure prediction by ZEFSAII (Michael W. Deem and Ramdas Pophale) SiO2 
 PCOD9434016
Probable space group: P B C M
;
_chemical_formula_sum "Si O2"
_cell_formula_units_Z 40
_cell_length_a 6.555159
_cell_length_b 13.839402
_cell_length_c 18.950881
_cell_angle_alpha 90.000000
_cell_angle_beta 90.000000
_cell_angle_gamma 90.000000
_cell_volume 1719.214081
_symmetry_space_group_name_H-M "P B C M"
_symmetry_group_IT_number 57
_symmetry_cell_setting 'orthorhombic'
loop_
_space_group_symop_operation_xyz
x,y,z
-x,-y,1/2+z
x,1/2-y,-z
-x,1/2+y,1/2-z
-x,-y,-z
x,y,1/2-z
-x,1/2+y,z
x,1/2-y,1/2+z
loop_
_atom_site_type_symbol
_atom_site_label
_atom_site_fract_x
_atom_site_fract_y
_atom_site_fract_z
Si Si1 0.934904 0.638348 0.514578
Si Si2 0.000918 0.405695 0.640048
Si Si3 0.749811 0.522885 0.750000
Si Si4 0.775786 0.207475 0.620189
Si Si5 0.459910 0.250000 0.000000
Si Si6 0.487174 0.815615 0.250000
Si Si7 0.643804 0.600869 0.250000
O O1 0.000830 0.750000 0.500000
O O2 0.990064 0.579962 0.444401
O O3 0.075245 0.628492 0.583368
O O4 0.690969 0.657991 0.514828
O O5 0.861392 0.480651 0.681828
O O6 0.907716 0.297514 0.648939
O O7 0.215385 0.404706 0.680511
O O8 0.710524 0.636338 0.750000
O O9 0.522390 0.481792 0.750000
O O10 0.606389 0.253488 0.567335
O O11 0.645872 0.159962 0.681886
O O12 0.523290 0.701181 0.250000
#
# Coordination Sequence:
#
# PCOD9434016 Si02
#       7
#     8   8   4   8   4   4   4
#     4   8  18  29  58  91 115 152 207 249 309 372
#     4  10  19  40  60  91 124 162 206 260 309 370
#     4  11  25  41  59  95 131 165 219 257 305 374
#     4  11  19  38  61  93 126 152 210 261 308 374
#     4  10  16  32  64  98 112 158 208 254 310 392
#     4  12  25  40  65  95 125 173 208 259 315 373
#     4  11  22  39  68  86 124 174 203 254 318 373
#
# _framework density 23.266445000000001
#
# number of rings (size 3 to 8) (size 9 to 14) (size 15 to 20)
#    0.600    1.200    5.000    1.800    0.000    0.000 
#    7.200    1.000    0.000    2.400    0.000    0.000 
#    0.000    0.000    0.000    0.000    0.000    0.000 
#
# Total GULP energy -223230.164331 kJ/mol
# GULP energy per Si atom -5580.754108 kJ/mol
# Density = 2.321349 g / cm^3
# Si number density = 23.266445 Si / 1000 Ang^3
#
#
#
# Elastic Constant Matrix: (Units=GPa)
#
#
# Indices 1 2 3 4 5 6 
#
# 1 125.1996 5.6890 54.6659 0.0000 0.0000 0.0000
# 2 5.6890 51.7924 14.9378 0.0000 0.0000 0.0000
# 3 54.6659 14.9378 134.6694 0.0000 0.0000 0.0000
# 4 0.0000 0.0000 0.0000 2.1670 0.0000 0.0000
# 5 0.0000 0.0000 0.0000 0.0000 14.4847 0.0000
# 6 0.0000 0.0000 0.0000 0.0000 0.0000 31.1310
#
#
#
# Elastic Compliance Matrix: (Units=1/GPa)
#
#
# Indices 1 2 3 4 5 6 
#
# 1 0.009708 0.000073 -0.003949 0.000000 0.000000 0.000000
# 2 0.000073 0.019946 -0.002242 0.000000 0.000000 0.000000
# 3 -0.003949 -0.002242 0.009277 0.000000 0.000000 0.000000
# 4 0.000000 0.000000 0.000000 0.461465 0.000000 0.000000
# 5 0.000000 0.000000 0.000000 0.000000 0.069038 0.000000
# 6 0.000000 0.000000 0.000000 0.000000 0.000000 0.032122
#
#
# Mechanical properties :
#
#
# Convention : Reuss Voigt Hill
#
# Bulk Modulus (GPa) = 37.45971 51.36076 44.41024
# Shear Modulus (GPa) = 8.02965 25.31446 16.67206
#
# Velocity S-wave (km/s) = 1.85975 3.30210 2.67979
# Velocity P-wave (km/s) = 4.55487 6.05487 5.35762
#
# Compressibility (1/GPa) = 0.02669535
#
# Stress axis : x y z
#
# Youngs Moduli (GPa) = 103.00648 50.13413 107.79106
#
# Poissons Ratio (x) = -0.00364 0.42565
# Poissons Ratio (y) = -0.00747 0.24166
# Poissons Ratio (z) = 0.40676 0.11240
#
# Static dielectric constant tensor:
#      x y z
#    x 1.862270 0.000000 0.000000 
#    y 0.000000 1.891720 0.000000 
#    z 0.000000 0.000000 1.956020 
# 
# From -- ./inp_files/23604.got.cif
#   From: 2010.05.17/outbox.cif.g08.bks.cpg/sg57_12_cif.got.tgz:23604.got - 2010.06.03 13:58:18.
