data_PCOD9434271
_publ_section_title
;
Structure prediction by ZEFSAII (Michael W. Deem and Ramdas Pophale) SiO2 
 PCOD9434271
Probable space group: P B C M
;
_chemical_formula_sum "Si O2"
_cell_formula_units_Z 64
_cell_length_a 6.708010
_cell_length_b 22.521120
_cell_length_c 14.860266
_cell_angle_alpha 90.000000
_cell_angle_beta 90.000000
_cell_angle_gamma 90.000000
_cell_volume 2244.968592
_symmetry_space_group_name_H-M "P B C M"
_symmetry_group_IT_number 57
_symmetry_cell_setting 'orthorhombic'
loop_
_space_group_symop_operation_xyz
x,y,z
-x,-y,1/2+z
x,1/2-y,-z
-x,1/2+y,1/2-z
-x,-y,-z
x,y,1/2-z
-x,1/2+y,z
x,1/2-y,1/2+z
loop_
_atom_site_type_symbol
_atom_site_label
_atom_site_fract_x
_atom_site_fract_y
_atom_site_fract_z
Si Si1 0.541501 0.868638 0.099446
Si Si2 0.133686 0.957436 0.145137
Si Si3 0.997849 0.162864 0.859486
Si Si4 0.548805 0.244069 0.393820
Si Si5 0.414471 0.620259 0.104410
Si Si6 0.676277 0.506560 0.850973
Si Si7 0.158575 0.414827 0.648576
Si Si8 0.916262 0.710197 0.141320
O O1 0.775481 0.852368 0.112522
O O2 0.437028 0.810931 0.145799
O O3 0.527936 0.938970 0.124768
O O4 0.491428 0.867724 0.995365
O O5 0.200533 0.956669 0.250000
O O6 0.893986 0.965641 0.148243
O O7 0.184304 0.021180 0.100988
O O8 0.144857 0.890644 0.106768
O O9 0.993182 0.161520 0.750000
O O10 0.964114 0.230979 0.889589
O O11 0.585662 0.250000 0.500000
O O12 0.660596 0.184281 0.359757
O O13 0.314195 0.227082 0.380511
O O14 0.304853 0.556916 0.100697
O O15 0.615215 0.605501 0.157730
O O16 0.624292 0.490029 0.750000
O O17 0.072956 0.424414 0.750000
O O18 0.052749 0.357246 0.605277
O O19 0.929808 0.706451 0.250000
#
# Coordination Sequence:
#
# PCOD9434271 Si02
#       8
#     8   8   8   8   8   8   8   8
#     4   9  16  28  45  65  87 114 145 178 215 260
#     4   8  15  27  43  59  81 113 144 170 205 252
#     4   8  13  24  41  61  82 109 143 176 206 249
#     4   8  15  26  41  63  87 110 136 172 216 257
#     4  10  18  28  45  69  90 110 139 182 226 260
#     4  10  19  31  45  63  87 118 150 179 210 255
#     4   9  16  27  42  63  87 110 136 175 221 257
#     4   8  13  21  38  61  82 102 133 174 211 244
#
# _framework density 28.508196000000002
#
# number of rings (size 3 to 8) (size 9 to 14) (size 15 to 20)
#    0.000    3.250    0.000    1.875    0.000    1.000 
#    0.000    2.500    0.000    1.500    0.000   28.000 
#    0.000    0.000    0.000    0.000    0.000    0.000 
#
# Total GULP energy -357349.124330 kJ/mol
# GULP energy per Si atom -5583.580068 kJ/mol
# Density = 2.844331 g / cm^3
# Si number density = 28.508196 Si / 1000 Ang^3
#
#
#
# Elastic Constant Matrix: (Units=GPa)
#
#
# Indices 1 2 3 4 5 6 
#
# 1 51.4238 52.1246 12.7656 0.0000 0.0000 0.0000
# 2 52.1246 371.7304 19.6756 0.0000 0.0000 0.0000
# 3 12.7656 19.6756 97.3210 0.0000 0.0000 0.0000
# 4 0.0000 0.0000 0.0000 24.1313 0.0000 0.0000
# 5 0.0000 0.0000 0.0000 0.0000 7.3843 0.0000
# 6 0.0000 0.0000 0.0000 0.0000 0.0000 74.6218
#
#
#
# Elastic Compliance Matrix: (Units=1/GPa)
#
#
# Indices 1 2 3 4 5 6 
#
# 1 0.023215 -0.003128 -0.002413 0.000000 0.000000 0.000000
# 2 -0.003128 0.003141 -0.000225 0.000000 0.000000 0.000000
# 3 -0.002413 -0.000225 0.010637 0.000000 0.000000 0.000000
# 4 0.000000 0.000000 0.000000 0.041440 0.000000 0.000000
# 5 0.000000 0.000000 0.000000 0.000000 0.135422 0.000000
# 6 0.000000 0.000000 0.000000 0.000000 0.000000 0.013401
#
#
# Mechanical properties :
#
#
# Convention : Reuss Voigt Hill
#
# Bulk Modulus (GPa) = 39.27277 76.62299 57.94788
# Shear Modulus (GPa) = 20.22048 50.28811 35.25429
#
# Velocity S-wave (km/s) = 2.66613 4.20454 3.52040
# Velocity P-wave (km/s) = 4.82530 7.10681 6.07414
#
# Compressibility (1/GPa) = 0.02546293
#
# Stress axis : x y z
#
# Youngs Moduli (GPa) = 43.07476 318.41350 94.00971
#
# Poissons Ratio (x) = 0.99587 0.22683
# Poissons Ratio (y) = 0.13472 0.02112
# Poissons Ratio (z) = 0.10393 0.07154
#
# Static dielectric constant tensor:
#      x y z
#    x 2.342460 0.000000 0.000000 
#    y 0.000000 2.457340 0.000000 
#    z 0.000000 0.000000 2.032830 
# 
# From -- ./inp_files/24708.got.cif
#   From: 2010.05.17/outbox.cif.g08.bks.cpg/sg57_13_cif.got.tgz:24708.got - 2010.06.03 13:58:18.
