data_PCOD9434487
_publ_section_title
;
Structure prediction by ZEFSAII (Michael W. Deem and Ramdas Pophale) SiO2 
 PCOD9434487
Probable space group: P B C M
;
_chemical_formula_sum "Si O2"
_cell_formula_units_Z 64
_cell_length_a 20.317402
_cell_length_b 20.588586
_cell_length_c 8.570749
_cell_angle_alpha 90.000000
_cell_angle_beta 90.000000
_cell_angle_gamma 90.000000
_cell_volume 3585.200688
_symmetry_space_group_name_H-M "P B C M"
_symmetry_group_IT_number 57
_symmetry_cell_setting 'orthorhombic'
loop_
_space_group_symop_operation_xyz
x,y,z
-x,-y,1/2+z
x,1/2-y,-z
-x,1/2+y,1/2-z
-x,-y,-z
x,y,1/2-z
-x,1/2+y,z
x,1/2-y,1/2+z
loop_
_atom_site_type_symbol
_atom_site_label
_atom_site_fract_x
_atom_site_fract_y
_atom_site_fract_z
Si Si1 0.149795 0.415391 0.937056
Si Si2 0.475518 0.930018 0.062436
Si Si3 0.387421 0.110104 0.939268
Si Si4 0.341982 0.965007 0.936775
Si Si5 0.196475 0.943511 0.061352
Si Si6 0.040535 0.320720 0.436989
Si Si7 0.112165 0.679848 0.561855
Si Si8 0.260147 0.180194 0.937208
O O1 0.148936 0.413216 0.750000
O O2 0.159360 0.490133 0.986829
O O3 0.085924 0.378287 0.000309
O O4 0.211976 0.374936 0.999337
O O5 0.472067 0.931614 0.250000
O O6 0.536266 0.883644 0.013484
O O7 0.402733 0.920966 0.995337
O O8 0.500000 0.000000 0.000000
O O9 0.387238 0.109883 0.750000
O O10 0.334431 0.162966 0.990262
O O11 0.359691 0.039104 0.987509
O O12 0.340757 0.964340 0.750000
O O13 0.271080 0.945815 0.001161
O O14 0.198156 0.943000 0.250000
O O15 0.157283 0.879698 0.008202
O O16 0.062308 0.250000 0.500000
O O17 0.044329 0.319466 0.250000
O O18 0.964260 0.329616 0.485081
O O19 0.133856 0.750000 0.500000
O O20 0.113490 0.681266 0.750000
O O21 0.257305 0.179924 0.750000
O O22 0.239817 0.250000 0.000000
#
# Coordination Sequence:
#
# PCOD9434487 Si02
#       8
#     8   8   8   8   8   8   8   8
#     4  11  22  35  52  78 108 140 178 220 266 317
#     4   9  16  28  47  73 100 133 171 215 265 311
#     4   8  16  30  48  69  99 133 171 216 259 305
#     4  10  18  31  50  77 106 137 173 214 264 317
#     4  10  21  36  55  80 111 141 172 220 272 318
#     4  10  20  36  57  78 105 142 180 220 263 313
#     4   9  20  39  60  82 106 135 174 217 267 325
#     4  11  21  35  51  72 104 144 184 223 265 316
#
# _framework density 17.851163
#
# number of rings (size 3 to 8) (size 9 to 14) (size 15 to 20)
#    0.000    2.250    1.250    3.000    0.000    2.000 
#    0.000    1.875    0.000    0.750    0.000    1.750 
#    0.000    0.000    0.000    0.000    0.000    0.000 
#
# Total GULP energy -356919.744212 kJ/mol
# GULP energy per Si atom -5576.871003 kJ/mol
# Density = 1.781053 g / cm^3
# Si number density = 17.851163 Si / 1000 Ang^3
#
#
#
# Elastic Constant Matrix: (Units=GPa)
#
#
# Indices 1 2 3 4 5 6 
#
# 1 122.9654 77.1500 26.9975 0.0000 0.0000 0.0000
# 2 77.1500 118.0940 27.9703 0.0000 0.0000 0.0000
# 3 26.9975 27.9703 35.0867 0.0000 0.0000 0.0000
# 4 0.0000 0.0000 0.0000 18.1097 0.0000 0.0000
# 5 0.0000 0.0000 0.0000 0.0000 23.7127 0.0000
# 6 0.0000 0.0000 0.0000 0.0000 0.0000 18.9484
#
#
#
# Elastic Compliance Matrix: (Units=1/GPa)
#
#
# Indices 1 2 3 4 5 6 
#
# 1 0.014308 -0.008309 -0.004386 0.000000 0.000000 0.000000
# 2 -0.008309 0.015264 -0.005775 0.000000 0.000000 0.000000
# 3 -0.004386 -0.005775 0.036479 0.000000 0.000000 0.000000
# 4 0.000000 0.000000 0.000000 0.055219 0.000000 0.000000
# 5 0.000000 0.000000 0.000000 0.000000 0.042172 0.000000
# 6 0.000000 0.000000 0.000000 0.000000 0.000000 0.052775
#
#
# Mechanical properties :
#
#
# Convention : Reuss Voigt Hill
#
# Bulk Modulus (GPa) = 34.34983 60.04239 47.19611
# Shear Modulus (GPa) = 19.02158 21.75604 20.38881
#
# Velocity S-wave (km/s) = 3.26784 3.49484 3.38325
# Velocity P-wave (km/s) = 5.78986 7.07059 6.46203
#
# Compressibility (1/GPa) = 0.02911223
#
# Stress axis : x y z
#
# Youngs Moduli (GPa) = 69.88943 65.51554 27.41297
#
# Poissons Ratio (x) = 0.54435 0.12023
# Poissons Ratio (y) = 0.58069 0.15830
# Poissons Ratio (z) = 0.30654 0.37833
#
# Static dielectric constant tensor:
#      x y z
#    x 1.634790 0.000000 0.000000 
#    y 0.000000 1.592690 0.000000 
#    z 0.000000 0.000000 1.604550 
# 
# From -- ./inp_files/8504.got.cif
#   From: 2010.05.17/outbox.cif.g08.bks.cpg/sg57_5_cif.got.tgz:8504.got - 2010.06.03 13:58:18.
