data_PCOD9434665
_publ_section_title
;
Structure prediction by ZEFSAII (Michael W. Deem and Ramdas Pophale) SiO2 
 PCOD9434665
Probable space group: P B C M
;
_chemical_formula_sum "Si O2"
_cell_formula_units_Z 48
_cell_length_a 8.107703
_cell_length_b 29.018224
_cell_length_c 10.394934
_cell_angle_alpha 90.000000
_cell_angle_beta 90.000000
_cell_angle_gamma 90.000000
_cell_volume 2445.627991
_symmetry_space_group_name_H-M "P B C M"
_symmetry_group_IT_number 57
_symmetry_cell_setting 'orthorhombic'
loop_
_space_group_symop_operation_xyz
x,y,z
-x,-y,1/2+z
x,1/2-y,-z
-x,1/2+y,1/2-z
-x,-y,-z
x,y,1/2-z
-x,1/2+y,z
x,1/2-y,1/2+z
loop_
_atom_site_type_symbol
_atom_site_label
_atom_site_fract_x
_atom_site_fract_y
_atom_site_fract_z
Si Si1 0.991254 0.139904 0.403104
Si Si2 0.490815 0.068603 0.108073
Si Si3 0.262278 0.493062 0.461408
Si Si4 0.292745 0.290607 0.904095
Si Si5 0.361949 0.665913 0.403957
Si Si6 0.052397 0.559114 0.609605
O O1 0.974958 0.127734 0.250000
O O2 0.162365 0.167419 0.418611
O O3 0.977503 0.095536 0.495177
O O4 0.830290 0.171350 0.439707
O O5 0.422551 0.078992 0.250000
O O6 0.590522 0.113185 0.064160
O O7 0.350628 0.052475 0.012452
O O8 0.611975 0.024928 0.114756
O O9 0.100102 0.476391 0.390694
O O10 0.207192 0.526583 0.577590
O O11 0.292608 0.278953 0.750000
O O12 0.479627 0.304584 0.945866
O O13 0.239989 0.250000 0.000000
O O14 0.364178 0.670326 0.250000
O O15 0.067571 0.581250 0.750000
#
# Coordination Sequence:
#
# PCOD9434665 Si02
#       6
#     8   8   8   8   8   8
#     4  10  21  39  62  84 113 155 195 234 284 348
#     4  10  18  33  54  77 106 149 199 239 278 331
#     4  10  21  32  50  77 114 156 196 239 287 335
#     4  10  22  40  63  89 114 142 183 232 290 357
#     4   9  18  35  59  83 109 145 190 231 277 340
#     4  11  22  35  52  82 119 154 195 244 290 335
#
# _framework density 19.626861999999999
#
# number of rings (size 3 to 8) (size 9 to 14) (size 15 to 20)
#    0.000    2.000    1.667    2.000    0.000    6.000 
#    0.000    0.833    0.000    0.000    0.000    0.000 
#    0.000    0.000    0.000    0.000    0.000    0.000 
#
# Total GULP energy -267402.129078 kJ/mol
# GULP energy per Si atom -5570.877689 kJ/mol
# Density = 1.958219 g / cm^3
# Si number density = 19.626862 Si / 1000 Ang^3
#
#
#
# Elastic Constant Matrix: (Units=GPa)
#
#
# Indices 1 2 3 4 5 6 
#
# 1 76.2879 3.4657 11.9588 0.0000 0.0000 0.0000
# 2 3.4657 42.5542 19.6001 0.0000 0.0000 0.0000
# 3 11.9588 19.6001 72.0352 0.0000 0.0000 0.0000
# 4 0.0000 0.0000 0.0000 27.0967 0.0000 0.0000
# 5 0.0000 0.0000 0.0000 0.0000 -6.2899 0.0000
# 6 0.0000 0.0000 0.0000 0.0000 0.0000 25.2385
#
#
#
# Elastic Compliance Matrix: (Units=1/GPa)
#
#
# Indices 1 2 3 4 5 6 
#
# 1 0.013459 -0.000077 -0.002213 0.000000 0.000000 0.000000
# 2 -0.000077 0.026867 -0.007297 0.000000 0.000000 0.000000
# 3 -0.002213 -0.007297 0.016235 0.000000 0.000000 0.000000
# 4 0.000000 0.000000 0.000000 0.036905 0.000000 0.000000
# 5 0.000000 0.000000 0.000000 0.000000 -0.158985 0.000000
# 6 0.000000 0.000000 0.000000 0.000000 0.000000 0.039622
#
#
# Mechanical properties :
#
#
# Convention : Reuss Voigt Hill
#
# Bulk Modulus (GPa) = 26.74830 28.99184 27.87007
# Shear Modulus (GPa) = 871.15991 19.59924 445.37958
#
# Velocity S-wave (km/s) = 21.09087 3.16348 15.08032
# Velocity P-wave (km/s) = 24.63245 5.30538 17.81719
#
# Compressibility (1/GPa) = 0.03738555
#
# Stress axis : x y z
#
# Youngs Moduli (GPa) = 74.30134 37.22061 61.59479
#
# Poissons Ratio (x) = 0.00285 0.13634
# Poissons Ratio (y) = 0.00569 0.44949
# Poissons Ratio (z) = 0.16447 0.27162
#
# Static dielectric constant tensor:
#      x y z
#    x 1.737660 0.000000 0.000000 
#    y 0.000000 1.679520 0.000000 
#    z 0.000000 0.000000 1.697240 
# 
# From -- ./inp_files/12071.got.cif
#   From: 2010.05.17/outbox.cif.g08.bks.cpg/sg57_7_cif.got.tgz:12071.got - 2010.06.03 13:58:18.
