data_PCOD9434123
_publ_section_title
;
Structure prediction by ZEFSAII (Michael W. Deem and Ramdas Pophale) SiO2 
 PCOD9434123
Probable space group: P B C M
;
_chemical_formula_sum "Si O2"
_cell_formula_units_Z 64
_cell_length_a 21.215302
_cell_length_b 6.926301
_cell_length_c 18.516130
_cell_angle_alpha 90.000000
_cell_angle_beta 90.000000
_cell_angle_gamma 90.000000
_cell_volume 2720.826198
_symmetry_space_group_name_H-M "P B C M"
_symmetry_group_IT_number 57
_symmetry_cell_setting 'orthorhombic'
loop_
_space_group_symop_operation_xyz
x,y,z
-x,-y,1/2+z
x,1/2-y,-z
-x,1/2+y,1/2-z
-x,-y,-z
x,y,1/2-z
-x,1/2+y,z
x,1/2-y,1/2+z
loop_
_atom_site_type_symbol
_atom_site_label
_atom_site_fract_x
_atom_site_fract_y
_atom_site_fract_z
Si Si1 0.700646 0.575802 0.665835
Si Si2 0.324042 0.083027 0.436965
Si Si3 0.049543 0.319074 0.168747
Si Si4 0.170149 0.058085 0.593764
Si Si5 0.811718 0.019343 0.936336
Si Si6 0.912890 0.371860 0.167909
Si Si7 0.435012 0.099108 0.664574
Si Si8 0.541920 0.541041 0.071598
O O1 0.715145 0.581164 0.750000
O O2 0.686449 0.793065 0.636620
O O3 0.762685 0.496612 0.627174
O O4 0.630856 0.482356 0.656603
O O5 0.322000 0.250000 0.500000
O O6 0.262733 0.950410 0.442494
O O7 0.388225 0.958440 0.439355
O O8 0.036507 0.387629 0.250000
O O9 0.104884 0.450696 0.137212
O O10 0.979978 0.306192 0.134653
O O11 0.076177 0.103657 0.171468
O O12 0.160357 0.967624 0.515846
O O13 0.181280 0.290658 0.583138
O O14 0.850430 0.145212 0.879738
O O15 0.903292 0.302450 0.250000
O O16 0.436099 0.159489 0.750000
O O17 0.435473 0.245822 0.595818
O O18 0.500374 0.999025 0.643091
O O19 0.500000 0.500000 0.000000
#
# Coordination Sequence:
#
# PCOD9434123 Si02
#       8
#     8   8   8   8   8   8   8   8
#     4   9  16  27  47  71  98 129 167 209 255 300
#     4  10  17  31  48  74 104 130 167 218 262 302
#     4   9  17  29  46  69  97 126 162 201 239 293
#     4   9  15  26  45  69  97 124 160 204 254 286
#     4   9  16  27  46  69  99 125 155 210 256 289
#     4   9  18  31  47  71  98 129 163 199 246 298
#     4  10  21  36  52  78 111 143 176 224 275 323
#     4  11  21  33  56  80 107 140 184 220 268 325
#
# _framework density 23.522268
#
# number of rings (size 3 to 8) (size 9 to 14) (size 15 to 20)
#    0.000    2.500    2.500    2.625    0.000    4.000 
#    0.000    0.000    0.000    1.500    0.000    3.500 
#    0.000    0.000    0.000    0.000    0.000    0.000 
#
# Total GULP energy -356403.976568 kJ/mol
# GULP energy per Si atom -5568.812134 kJ/mol
# Density = 2.346873 g / cm^3
# Si number density = 23.522268 Si / 1000 Ang^3
#
#
#
# Elastic Constant Matrix: (Units=GPa)
#
#
# Indices 1 2 3 4 5 6 
#
# 1 209.2813 16.2548 77.1913 0.0000 0.0000 0.0000
# 2 16.2548 38.1229 12.2424 0.0000 0.0000 0.0000
# 3 77.1913 12.2424 110.1690 0.0000 0.0000 0.0000
# 4 0.0000 0.0000 0.0000 26.9627 0.0000 0.0000
# 5 0.0000 0.0000 0.0000 0.0000 36.5220 0.0000
# 6 0.0000 0.0000 0.0000 0.0000 0.0000 21.4679
#
#
#
# Elastic Compliance Matrix: (Units=1/GPa)
#
#
# Indices 1 2 3 4 5 6 
#
# 1 0.006511 -0.001360 -0.004411 0.000000 0.000000 0.000000
# 2 -0.001360 0.027486 -0.002102 0.000000 0.000000 0.000000
# 3 -0.004411 -0.002102 0.012401 0.000000 0.000000 0.000000
# 4 0.000000 0.000000 0.000000 0.037088 0.000000 0.000000
# 5 0.000000 0.000000 0.000000 0.000000 0.027381 0.000000
# 6 0.000000 0.000000 0.000000 0.000000 0.000000 0.046581
#
#
# Mechanical properties :
#
#
# Convention : Reuss Voigt Hill
#
# Bulk Modulus (GPa) = 32.62303 63.21670 47.91987
# Shear Modulus (GPa) = 27.26147 33.78285 30.52216
#
# Velocity S-wave (km/s) = 3.40805 3.79384 3.60611
# Velocity P-wave (km/s) = 5.42084 6.79151 6.14451
#
# Compressibility (1/GPa) = 0.03065319
#
# Stress axis : x y z
#
# Youngs Moduli (GPa) = 153.59304 36.38271 80.63901
#
# Poissons Ratio (x) = 0.04947 0.35568
# Poissons Ratio (y) = 0.20883 0.16948
# Poissons Ratio (z) = 0.67746 0.07647
#
# Static dielectric constant tensor:
#      x y z
#    x 2.329320 0.000000 0.000000 
#    y 0.000000 2.021430 0.000000 
#    z 0.000000 0.000000 1.853840 
# 
# From -- ./inp_files/25646.got.cif
#   From: 2010.05.17/outbox.cif.g08.bks.cpg/sg57_13_cif.got.tgz:25646.got - 2010.06.03 13:58:18.
