data_PCOD9434985
_publ_section_title
;
Structure prediction by ZEFSAII (Michael W. Deem and Ramdas Pophale) SiO2 
 PCOD9434985
Probable space group: P B C M
;
_chemical_formula_sum "Si O2"
_cell_formula_units_Z 48
_cell_length_a 24.502375
_cell_length_b 14.018234
_cell_length_c 8.817398
_cell_angle_alpha 90.000000
_cell_angle_beta 90.000000
_cell_angle_gamma 90.000000
_cell_volume 3028.600097
_symmetry_space_group_name_H-M "P B C M"
_symmetry_group_IT_number 57
_symmetry_cell_setting 'orthorhombic'
loop_
_space_group_symop_operation_xyz
x,y,z
-x,-y,1/2+z
x,1/2-y,-z
-x,1/2+y,1/2-z
-x,-y,-z
x,y,1/2-z
-x,1/2+y,z
x,1/2-y,1/2+z
loop_
_atom_site_type_symbol
_atom_site_label
_atom_site_fract_x
_atom_site_fract_y
_atom_site_fract_z
Si Si1 0.979170 0.851878 0.068704
Si Si2 0.478587 0.351884 0.931348
Si Si3 0.309634 0.645650 0.567550
Si Si4 0.814669 0.355325 0.067865
Si Si5 0.581699 0.456544 0.067103
Si Si6 0.916778 0.455796 0.568692
O O1 0.984452 0.844948 0.250000
O O2 0.936318 0.936470 0.033691
O O3 0.964015 0.750000 0.000000
O O4 0.036629 0.886750 0.999128
O O5 0.481048 0.345583 0.750000
O O6 0.436412 0.436246 0.973713
O O7 0.464193 0.250000 0.000000
O O8 0.537169 0.386339 0.994071
O O9 0.320825 0.750000 0.500000
O O10 0.310891 0.652905 0.750000
O O11 0.247705 0.618340 0.525257
O O12 0.357551 0.573857 0.520871
O O13 0.818790 0.351196 0.250000
O O14 0.825120 0.250000 0.000000
O O15 0.859269 0.426902 0.002051
O O16 0.577534 0.448302 0.250000
O O17 0.915404 0.444587 0.750000
#
# Coordination Sequence:
#
# PCOD9434985 Si02
#       6
#     8   8   8   8   8   8
#     4  10  20  33  50  71  95 123 154 189 228 271
#     4  10  19  30  46  68  94 122 152 188 229 274
#     4   9  18  31  47  68  92 120 152 187 228 271
#     4  10  19  31  48  69  94 123 154 189 229 272
#     4   9  18  32  48  67  92 121 154 190 228 271
#     4  10  20  33  49  70  96 124 154 188 227 271
#
# _framework density 15.848907000000001
#
# number of rings (size 3 to 8) (size 9 to 14) (size 15 to 20)
#    0.000    2.333    0.000    3.000    0.000    5.333 
#    0.000    0.000    0.000    1.000    0.000    4.667 
#    0.000    0.000    0.000    0.000    0.000    0.000 
#
# Total GULP energy -267761.601759 kJ/mol
# GULP energy per Si atom -5578.366703 kJ/mol
# Density = 1.581283 g / cm^3
# Si number density = 15.848907 Si / 1000 Ang^3
#
#
#
# Elastic Constant Matrix: (Units=GPa)
#
#
# Indices 1 2 3 4 5 6 
#
# 1 132.6912 78.1460 42.2503 0.0000 0.0000 0.0000
# 2 78.1460 108.6652 42.2221 0.0000 0.0000 0.0000
# 3 42.2503 42.2221 40.3091 0.0000 0.0000 0.0000
# 4 0.0000 0.0000 0.0000 28.4121 0.0000 0.0000
# 5 0.0000 0.0000 0.0000 0.0000 19.9303 0.0000
# 6 0.0000 0.0000 0.0000 0.0000 0.0000 19.6941
#
#
#
# Elastic Compliance Matrix: (Units=1/GPa)
#
#
# Indices 1 2 3 4 5 6 
#
# 1 0.014168 -0.007451 -0.007045 0.000000 0.000000 0.000000
# 2 -0.007451 0.019437 -0.012550 0.000000 0.000000 0.000000
# 3 -0.007045 -0.012550 0.045338 0.000000 0.000000 0.000000
# 4 0.000000 0.000000 0.000000 0.035196 0.000000 0.000000
# 5 0.000000 0.000000 0.000000 0.000000 0.050175 0.000000
# 6 0.000000 0.000000 0.000000 0.000000 0.000000 0.050777
#
#
# Mechanical properties :
#
#
# Convention : Reuss Voigt Hill
#
# Bulk Modulus (GPa) = 40.24007 67.43359 53.83683
# Shear Modulus (GPa) = 18.02016 21.54376 19.78196
#
# Velocity S-wave (km/s) = 3.37560 3.69090 3.53676
# Velocity P-wave (km/s) = 6.37478 7.79768 7.12185
#
# Compressibility (1/GPa) = 0.02485085
#
# Stress axis : x y z
#
# Youngs Moduli (GPa) = 70.58215 51.44735 22.05657
#
# Poissons Ratio (x) = 0.38335 0.15539
# Poissons Ratio (y) = 0.52593 0.27680
# Poissons Ratio (z) = 0.49727 0.64565
#
# Static dielectric constant tensor:
#      x y z
#    x 1.525610 0.000000 0.000000 
#    y 0.000000 1.514030 0.000000 
#    z 0.000000 0.000000 1.529010 
# 
# From -- ./inp_files/9114.got.cif
#   From: 2010.05.17/outbox.cif.g08.bks.cpg/sg57_5_cif.got.tgz:9114.got - 2010.06.03 13:58:18.
