data_PCOD9434267
_publ_section_title
;
Structure prediction by ZEFSAII (Michael W. Deem and Ramdas Pophale) SiO2 
 PCOD9434267
Probable space group: P B C M
;
_chemical_formula_sum "Si O2"
_cell_formula_units_Z 48
_cell_length_a 13.784781
_cell_length_b 23.474025
_cell_length_c 8.612861
_cell_angle_alpha 90.000000
_cell_angle_beta 90.000000
_cell_angle_gamma 90.000000
_cell_volume 2786.986544
_symmetry_space_group_name_H-M "P B C M"
_symmetry_group_IT_number 57
_symmetry_cell_setting 'orthorhombic'
loop_
_space_group_symop_operation_xyz
x,y,z
-x,-y,1/2+z
x,1/2-y,-z
-x,1/2+y,1/2-z
-x,-y,-z
x,y,1/2-z
-x,1/2+y,z
x,1/2-y,1/2+z
loop_
_atom_site_type_symbol
_atom_site_label
_atom_site_fract_x
_atom_site_fract_y
_atom_site_fract_z
Si Si1 0.752310 0.591765 0.926076
Si Si2 0.901317 0.685480 0.562217
Si Si3 0.391736 0.499454 0.564062
Si Si4 0.753545 0.403400 0.430542
Si Si5 0.898266 0.012750 0.426427
Si Si6 0.890533 0.186425 0.434123
O O1 0.718922 0.604469 0.750000
O O2 0.809163 0.647129 0.989663
O O3 0.837283 0.544975 0.917258
O O4 0.666884 0.557322 0.012098
O O5 0.892119 0.750000 0.500000
O O6 0.903088 0.685049 0.750000
O O7 0.006760 0.663312 0.503395
O O8 0.500000 0.500000 0.500000
O O9 0.391509 0.501045 0.750000
O O10 0.335540 0.557343 0.509998
O O11 0.738143 0.389957 0.250000
O O12 0.842484 0.446370 0.456527
O O13 0.794420 0.348461 0.518550
O O14 0.903252 0.036666 0.250000
O O15 0.000000 0.000000 0.500000
O O16 0.881890 0.250000 0.500000
O O17 0.900419 0.187800 0.250000
#
# Coordination Sequence:
#
# PCOD9434267 Si02
#       6
#     8   8   8   8   8   8
#     4   9  19  33  49  70  99 132 168 208 251 297
#     4  10  19  32  50  74 106 143 177 212 248 292
#     4  10  21  36  57  79 101 128 162 208 261 312
#     4  10  20  34  50  72 100 131 167 208 252 303
#     4  10  18  28  44  68  98 132 165 203 249 300
#     4  11  21  33  51  75 105 142 177 211 247 294
#
# _framework density 17.222904
#
# number of rings (size 3 to 8) (size 9 to 14) (size 15 to 20)
#    0.000    2.000    0.000    5.500    0.000    5.333 
#    0.000    0.000    0.000    1.000    0.000    4.667 
#    0.000    0.000    0.000    0.000    0.000    0.000 
#
# Total GULP energy -267433.753461 kJ/mol
# GULP energy per Si atom -5571.536530 kJ/mol
# Density = 1.718370 g / cm^3
# Si number density = 17.222904 Si / 1000 Ang^3
#
#
#
# Elastic Constant Matrix: (Units=GPa)
#
#
# Indices 1 2 3 4 5 6 
#
# 1 129.3380 46.5622 34.5406 0.0000 0.0000 0.0000
# 2 46.5622 77.1479 22.4509 0.0000 0.0000 0.0000
# 3 34.5406 22.4509 66.1590 0.0000 0.0000 0.0000
# 4 0.0000 0.0000 0.0000 25.1330 0.0000 0.0000
# 5 0.0000 0.0000 0.0000 0.0000 20.2879 0.0000
# 6 0.0000 0.0000 0.0000 0.0000 0.0000 23.3830
#
#
#
# Elastic Compliance Matrix: (Units=1/GPa)
#
#
# Indices 1 2 3 4 5 6 
#
# 1 0.010656 -0.005340 -0.003751 0.000000 0.000000 0.000000
# 2 -0.005340 0.017058 -0.003001 0.000000 0.000000 0.000000
# 3 -0.003751 -0.003001 0.018092 0.000000 0.000000 0.000000
# 4 0.000000 0.000000 0.000000 0.039788 0.000000 0.000000
# 5 0.000000 0.000000 0.000000 0.000000 0.049290 0.000000
# 6 0.000000 0.000000 0.000000 0.000000 0.000000 0.042766
#
#
# Mechanical properties :
#
#
# Convention : Reuss Voigt Hill
#
# Bulk Modulus (GPa) = 46.24852 53.30583 49.77718
# Shear Modulus (GPa) = 23.91868 25.03351 24.47610
#
# Velocity S-wave (km/s) = 3.73067 3.81662 3.77389
# Velocity P-wave (km/s) = 6.74302 7.10210 6.92489
#
# Compressibility (1/GPa) = 0.02162231
#
# Stress axis : x y z
#
# Youngs Moduli (GPa) = 93.84616 58.62321 55.27325
#
# Poissons Ratio (x) = 0.31302 0.20734
# Poissons Ratio (y) = 0.50110 0.16587
# Poissons Ratio (z) = 0.35204 0.17592
#
# Static dielectric constant tensor:
#      x y z
#    x 1.562550 0.000000 0.000000 
#    y 0.000000 1.615080 0.000000 
#    z 0.000000 0.000000 1.601000 
# 
# From -- ./inp_files/3161.got.cif
#   From: 2010.05.17/outbox.cif.g08.bks.cpg/sg57_2_cif.got.tgz:3161.got - 2010.06.03 13:58:18.
