data_PCOD9434365
_publ_section_title
;
Structure prediction by ZEFSAII (Michael W. Deem and Ramdas Pophale) SiO2 
 PCOD9434365
Probable space group: P B C M
;
_chemical_formula_sum "Si O2"
_cell_formula_units_Z 48
_cell_length_a 12.938012
_cell_length_b 15.211485
_cell_length_c 10.871664
_cell_angle_alpha 90.000000
_cell_angle_beta 90.000000
_cell_angle_gamma 90.000000
_cell_volume 2139.612787
_symmetry_space_group_name_H-M "P B C M"
_symmetry_group_IT_number 57
_symmetry_cell_setting 'orthorhombic'
loop_
_space_group_symop_operation_xyz
x,y,z
-x,-y,1/2+z
x,1/2-y,-z
-x,1/2+y,1/2-z
-x,-y,-z
x,y,1/2-z
-x,1/2+y,z
x,1/2-y,1/2+z
loop_
_atom_site_type_symbol
_atom_site_label
_atom_site_fract_x
_atom_site_fract_y
_atom_site_fract_z
Si Si1 0.269377 0.368295 0.750000
Si Si2 0.927123 0.366036 0.750000
Si Si3 0.606665 0.097363 0.603134
Si Si4 0.833024 0.410950 0.489107
Si Si5 0.092545 0.274609 0.250000
Si Si6 0.402085 0.107720 0.477536
Si Si7 0.899184 0.479984 0.250000
Si Si8 0.795639 0.914263 0.116889
O O1 0.174617 0.303394 0.750000
O O2 0.341422 0.348179 0.633754
O O3 0.211703 0.465258 0.750000
O O4 0.869176 0.370500 0.618002
O O5 0.985201 0.273048 0.750000
O O6 0.009850 0.447749 0.750000
O O7 0.599038 0.111962 0.750000
O O8 0.719659 0.121585 0.551772
O O9 0.512791 0.138629 0.524959
O O10 0.592008 0.992947 0.573701
O O11 0.903468 0.416114 0.368169
O O12 0.826363 0.515633 0.517275
O O13 0.125680 0.334705 0.366134
O O14 0.321068 0.112611 0.589140
O O15 0.796343 0.960211 0.250000
#
# Coordination Sequence:
#
# PCOD9434365 Si02
#       8
#     4   4   8   8   4   8   4   8
#     4  11  18  34  48  81 124 164 201 263 319 380
#     4  11  23  36  57  84 121 176 216 276 324 384
#     4  10  18  31  53  88 125 165 193 255 314 390
#     4  11  19  37  62  85 127 163 218 264 334 377
#     4   9  23  37  53  84 133 160 220 272 328 376
#     4  10  18  29  54  82 129 162 196 239 322 391
#     4  11  20  37  52  83 124 166 203 273 325 384
#     4   9  18  36  55  86 121 164 205 260 314 401
#
# _framework density 22.433966999999999
#
# number of rings (size 3 to 8) (size 9 to 14) (size 15 to 20)
#    0.500    1.333    5.833    1.000    0.000    1.333 
#    0.000    0.000    0.000    1.000    0.000    0.000 
#   50.000    0.000    0.000    0.000    0.000    0.000 
#
# Total GULP energy -267694.484119 kJ/mol
# GULP energy per Si atom -5576.968419 kJ/mol
# Density = 2.238291 g / cm^3
# Si number density = 22.433967 Si / 1000 Ang^3
#
#
#
# Elastic Constant Matrix: (Units=GPa)
#
#
# Indices 1 2 3 4 5 6 
#
# 1 115.6211 21.3112 58.8359 0.0000 0.0000 0.0000
# 2 21.3112 38.2550 11.1901 0.0000 0.0000 0.0000
# 3 58.8359 11.1901 161.6348 0.0000 0.0000 0.0000
# 4 0.0000 0.0000 0.0000 5.9450 0.0000 0.0000
# 5 0.0000 0.0000 0.0000 0.0000 0.1986 0.0000
# 6 0.0000 0.0000 0.0000 0.0000 0.0000 10.1760
#
#
#
# Elastic Compliance Matrix: (Units=1/GPa)
#
#
# Indices 1 2 3 4 5 6 
#
# 1 0.011591 -0.005331 -0.003850 0.000000 0.000000 0.000000
# 2 -0.005331 0.029132 -0.000076 0.000000 0.000000 0.000000
# 3 -0.003850 -0.000076 0.007593 0.000000 0.000000 0.000000
# 4 0.000000 0.000000 0.000000 0.168210 0.000000 0.000000
# 5 0.000000 0.000000 0.000000 0.000000 5.034297 0.000000
# 6 0.000000 0.000000 0.000000 0.000000 0.000000 0.098270
#
#
# Mechanical properties :
#
#
# Convention : Reuss Voigt Hill
#
# Bulk Modulus (GPa) = 33.55464 55.35394 44.45429
# Shear Modulus (GPa) = 0.92979 18.20883 9.56931
#
# Velocity S-wave (km/s) = 0.64448 2.85206 2.06756
# Velocity P-wave (km/s) = 3.94251 5.96434 5.05553
#
# Compressibility (1/GPa) = 0.02980214
#
# Stress axis : x y z
#
# Youngs Moduli (GPa) = 86.27641 34.32600 131.69159
#
# Poissons Ratio (x) = 0.18298 0.50701
# Poissons Ratio (y) = 0.45992 0.01007
# Poissons Ratio (z) = 0.33216 0.00262
#
# Static dielectric constant tensor:
#      x y z
#    x 1.850060 0.000000 0.000000 
#    y 0.000000 1.865250 0.000000 
#    z 0.000000 0.000000 1.791080 
# 
# From -- ./inp_files/12972.got.cif
#   From: 2010.05.17/outbox.cif.g08.bks.cpg/sg57_7_cif.got.tgz:12972.got - 2010.06.03 13:58:18.
