data_PCOD9434377
_publ_section_title
;
Structure prediction by ZEFSAII (Michael W. Deem and Ramdas Pophale) SiO2 
 PCOD9434377
Probable space group: P B C M
;
_chemical_formula_sum "Si O2"
_cell_formula_units_Z 56
_cell_length_a 23.684265
_cell_length_b 5.366543
_cell_length_c 27.268908
_cell_angle_alpha 90.000000
_cell_angle_beta 90.000000
_cell_angle_gamma 90.000000
_cell_volume 3465.949830
_symmetry_space_group_name_H-M "P B C M"
_symmetry_group_IT_number 57
_symmetry_cell_setting 'orthorhombic'
loop_
_space_group_symop_operation_xyz
x,y,z
-x,-y,1/2+z
x,1/2-y,-z
-x,1/2+y,1/2-z
-x,-y,-z
x,y,1/2-z
-x,1/2+y,z
x,1/2-y,1/2+z
loop_
_atom_site_type_symbol
_atom_site_label
_atom_site_fract_x
_atom_site_fract_y
_atom_site_fract_z
Si Si1 0.575482 0.844760 0.306692
Si Si2 0.570622 0.312869 0.555691
Si Si3 0.836992 0.793423 0.190311
Si Si4 0.967463 0.689689 0.809764
Si Si5 0.644565 0.160919 0.808128
Si Si6 0.771689 0.206637 0.810059
Si Si7 0.445923 0.187992 0.094075
O O1 0.554549 0.844558 0.250000
O O2 0.621125 0.620656 0.311790
O O3 0.534812 0.765009 0.351090
O O4 0.601923 0.112236 0.319622
O O5 0.584628 0.250000 0.500000
O O6 0.590542 0.583081 0.573325
O O7 0.502532 0.340162 0.562065
O O8 0.585655 0.074286 0.588836
O O9 0.837150 0.793466 0.250000
O O10 0.902205 0.803736 0.174638
O O11 0.806172 0.539208 0.174981
O O12 0.802684 0.039127 0.175020
O O13 0.967459 0.689430 0.750000
O O14 0.999054 0.437382 0.825239
O O15 0.651402 0.199670 0.750000
O O16 0.707315 0.193323 0.828840
O O17 0.770999 0.205448 0.750000
#
# Coordination Sequence:
#
# PCOD9434377 Si02
#       7
#     8   8   8   8   8   8   8
#     4  10  19  30  42  59  83 108 132 156 186 232
#     4  10  19  33  50  68  86 104 129 163 196 226
#     4   9  15  21  30  43  56  72 102 142 177 218
#     4   9  15  21  27  36  53  75  95 122 171 230
#     4   9  17  28  40  52  71  99 126 155 190 223
#     4   9  15  23  34  46  58  77 110 148 181 211
#     4  10  18  30  47  66  84 107 132 156 189 230
#
# _framework density 16.157187
#
# number of rings (size 3 to 8) (size 9 to 14) (size 15 to 20)
#    0.000    2.571    0.000    4.714    0.000    6.857 
#    0.000    2.857    0.000    0.000    0.000    0.000 
#    0.000    0.000    0.000    0.000    0.000    0.000 
#
# Total GULP energy -311763.922940 kJ/mol
# GULP energy per Si atom -5567.212910 kJ/mol
# Density = 1.612041 g / cm^3
# Si number density = 16.157187 Si / 1000 Ang^3
#
#
#
# Elastic Constant Matrix: (Units=GPa)
#
#
# Indices 1 2 3 4 5 6 
#
# 1 39.5114 18.1346 -4.0770 0.0000 0.0000 0.0000
# 2 18.1346 139.3857 10.4986 0.0000 0.0000 0.0000
# 3 -4.0770 10.4986 43.3628 0.0000 0.0000 0.0000
# 4 0.0000 0.0000 0.0000 14.7789 0.0000 0.0000
# 5 0.0000 0.0000 0.0000 0.0000 0.6194 0.0000
# 6 0.0000 0.0000 0.0000 0.0000 0.0000 95.6411
#
#
#
# Elastic Compliance Matrix: (Units=1/GPa)
#
#
# Indices 1 2 3 4 5 6 
#
# 1 0.027430 -0.003833 0.003507 0.000000 0.000000 0.000000
# 2 -0.003833 0.007843 -0.002259 0.000000 0.000000 0.000000
# 3 0.003507 -0.002259 0.023938 0.000000 0.000000 0.000000
# 4 0.000000 0.000000 0.000000 0.067664 0.000000 0.000000
# 5 0.000000 0.000000 0.000000 0.000000 1.614366 0.000000
# 6 0.000000 0.000000 0.000000 0.000000 0.000000 0.010456
#
#
# Mechanical properties :
#
#
# Convention : Reuss Voigt Hill
#
# Bulk Modulus (GPa) = 18.50451 30.15249 24.32850
# Shear Modulus (GPa) = 2.81709 35.38814 19.10262
#
# Velocity S-wave (km/s) = 1.32187 4.68508 3.44219
# Velocity P-wave (km/s) = 3.71584 6.92597 5.55772
#
# Compressibility (1/GPa) = 0.05404089
#
# Stress axis : x y z
#
# Youngs Moduli (GPa) = 36.45616 127.49929 41.77464
#
# Poissons Ratio (x) = 0.48869 -0.14650
# Poissons Ratio (y) = 0.13973 0.09438
# Poissons Ratio (z) = -0.12785 0.28806
#
# Static dielectric constant tensor:
#      x y z
#    x 1.557530 0.000000 0.000000 
#    y 0.000000 1.622870 0.000000 
#    z 0.000000 0.000000 1.556670 
# 
# From -- ./inp_files/25825.got.cif
#   From: 2010.05.17/outbox.cif.g08.bks.cpg/sg57_13_cif.got.tgz:25825.got - 2010.06.03 13:58:18.
