data_PCOD9434096
_publ_section_title
;
Structure prediction by ZEFSAII (Michael W. Deem and Ramdas Pophale) SiO2 
 PCOD9434096
Probable space group: P B C M
;
_chemical_formula_sum "Si O2"
_cell_formula_units_Z 56
_cell_length_a 8.696339
_cell_length_b 20.114150
_cell_length_c 14.550633
_cell_angle_alpha 90.000000
_cell_angle_beta 90.000000
_cell_angle_gamma 90.000000
_cell_volume 2545.188970
_symmetry_space_group_name_H-M "P B C M"
_symmetry_group_IT_number 57
_symmetry_cell_setting 'orthorhombic'
loop_
_space_group_symop_operation_xyz
x,y,z
-x,-y,1/2+z
x,1/2-y,-z
-x,1/2+y,1/2-z
-x,-y,-z
x,y,1/2-z
-x,1/2+y,z
x,1/2-y,1/2+z
loop_
_atom_site_type_symbol
_atom_site_label
_atom_site_fract_x
_atom_site_fract_y
_atom_site_fract_z
Si Si1 0.554972 0.250597 0.856971
Si Si2 0.407516 0.114655 0.356863
Si Si3 0.852783 0.185492 0.457431
Si Si4 0.562227 0.891442 0.142364
Si Si5 0.926628 0.919845 0.641845
Si Si6 0.171438 0.480090 0.358343
Si Si7 0.660122 0.070461 0.502375
O O1 0.594974 0.241429 0.750000
O O2 0.421155 0.305608 0.860586
O O3 0.707995 0.280309 0.904177
O O4 0.486011 0.181351 0.892980
O O5 0.432131 0.094834 0.250000
O O6 0.245622 0.088299 0.392656
O O7 0.542786 0.092174 0.422368
O O8 0.934777 0.250000 0.500000
O O9 0.773606 0.132046 0.525752
O O10 0.961543 0.136937 0.398712
O O11 0.527627 0.895296 0.250000
O O12 0.742979 0.909377 0.133597
O O13 0.450061 0.942351 0.088685
O O14 0.917830 0.906420 0.750000
O O15 0.996401 0.994331 0.631772
O O16 0.208572 0.500807 0.250000
O O17 0.243689 0.517064 0.446225
#
# Coordination Sequence:
#
# PCOD9434096 Si02
#       7
#     8   8   8   8   8   8   8
#     4   9  17  30  49  71  97 126 160 201 246 296
#     4   9  18  32  52  75  97 125 164 207 249 289
#     4  10  17  29  46  73  97 123 162 200 246 290
#     4  10  19  31  48  73 101 132 164 200 248 301
#     4   9  18  33  50  71  98 129 162 203 246 288
#     4   9  18  32  53  75  98 128 166 206 246 291
#     4  10  18  31  52  74  98 125 165 209 244 284
#
# _framework density 22.002295
#
# number of rings (size 3 to 8) (size 9 to 14) (size 15 to 20)
#    0.000    2.571    1.429    1.286    0.000    3.429 
#    2.571    0.714    0.000    1.714    0.000   12.000 
#    0.000    0.000    0.000    0.000    0.000    0.000 
#
# Total GULP energy -311747.729994 kJ/mol
# GULP energy per Si atom -5566.923750 kJ/mol
# Density = 2.195222 g / cm^3
# Si number density = 22.002295 Si / 1000 Ang^3
#
#
#
# Elastic Constant Matrix: (Units=GPa)
#
#
# Indices 1 2 3 4 5 6 
#
# 1 34.8829 -10.7996 2.2971 0.0000 0.0000 0.0000
# 2 -10.7996 39.7271 9.2186 0.0000 0.0000 0.0000
# 3 2.2971 9.2186 59.4527 0.0000 0.0000 0.0000
# 4 0.0000 0.0000 0.0000 7.4827 0.0000 0.0000
# 5 0.0000 0.0000 0.0000 0.0000 26.9730 0.0000
# 6 0.0000 0.0000 0.0000 0.0000 0.0000 16.4583
#
#
#
# Elastic Compliance Matrix: (Units=1/GPa)
#
#
# Indices 1 2 3 4 5 6 
#
# 1 0.031701 0.009234 -0.002657 0.000000 0.000000 0.000000
# 2 0.009234 0.028801 -0.004823 0.000000 0.000000 0.000000
# 3 -0.002657 -0.004823 0.017671 0.000000 0.000000 0.000000
# 4 0.000000 0.000000 0.000000 0.133642 0.000000 0.000000
# 5 0.000000 0.000000 0.000000 0.000000 0.037074 0.000000
# 6 0.000000 0.000000 0.000000 0.000000 0.000000 0.060760
#
#
# Mechanical properties :
#
#
# Convention : Reuss Voigt Hill
#
# Bulk Modulus (GPa) = 12.24246 15.05496 13.64871
# Shear Modulus (GPa) = 14.99850 19.07257 17.03554
#
# Velocity S-wave (km/s) = 2.61373 2.94742 2.78557
# Velocity P-wave (km/s) = 3.83211 4.29422 4.06973
#
# Compressibility (1/GPa) = 0.08168294
#
# Stress axis : x y z
#
# Youngs Moduli (GPa) = 31.54452 34.72083 56.59141
#
# Poissons Ratio (x) = -0.32062 0.15035
# Poissons Ratio (y) = -0.29129 0.27292
# Poissons Ratio (z) = 0.08380 0.16745
#
# Static dielectric constant tensor:
#      x y z
#    x 1.817190 0.000000 0.000000 
#    y 0.000000 1.888890 0.000000 
#    z 0.000000 0.000000 1.830940 
# 
# From -- ./inp_files/16704.got.cif
#   From: 2010.05.17/outbox.cif.g08.bks.cpg/sg57_9_cif.got.tgz:16704.got - 2010.06.03 13:58:18.
