data_PCOD9434200
_publ_section_title
;
Structure prediction by ZEFSAII (Michael W. Deem and Ramdas Pophale) SiO2 
 PCOD9434200
Probable space group: P B C M
;
_chemical_formula_sum "Si O2"
_cell_formula_units_Z 64
_cell_length_a 18.892872
_cell_length_b 25.397216
_cell_length_c 9.236053
_cell_angle_alpha 90.000000
_cell_angle_beta 90.000000
_cell_angle_gamma 90.000000
_cell_volume 4431.701609
_symmetry_space_group_name_H-M "P B C M"
_symmetry_group_IT_number 57
_symmetry_cell_setting 'orthorhombic'
loop_
_space_group_symop_operation_xyz
x,y,z
-x,-y,1/2+z
x,1/2-y,-z
-x,1/2+y,1/2-z
-x,-y,-z
x,y,1/2-z
-x,1/2+y,z
x,1/2-y,1/2+z
loop_
_atom_site_type_symbol
_atom_site_label
_atom_site_fract_x
_atom_site_fract_y
_atom_site_fract_z
Si Si1 0.821450 0.108148 0.079728
Si Si2 0.041527 0.923478 0.416943
Si Si3 0.729001 0.195484 0.922067
Si Si4 0.771344 0.512940 0.579779
Si Si5 0.610176 0.994120 0.423688
Si Si6 0.906608 0.954241 0.583545
Si Si7 0.479974 0.581321 0.923924
Si Si8 0.560270 0.196224 0.921492
O O1 0.824650 0.120884 0.250000
O O2 0.790209 0.049046 0.066383
O O3 0.899213 0.106773 0.008729
O O4 0.771716 0.148285 0.994712
O O5 0.039328 0.906305 0.250000
O O6 0.964905 0.922868 0.491558
O O7 0.066661 0.984791 0.417255
O O8 0.741850 0.197940 0.750000
O O9 0.644619 0.188432 0.944230
O O10 0.748914 0.250000 0.000000
O O11 0.777869 0.526460 0.750000
O O12 0.690110 0.519640 0.533177
O O13 0.829549 0.544449 0.488891
O O14 0.610261 0.002704 0.250000
O O15 0.554041 0.947818 0.456018
O O16 0.580562 0.046287 0.500936
O O17 0.904711 0.936951 0.750000
O O18 0.469286 0.579890 0.750000
O O19 0.476647 0.642105 0.970106
O O20 0.548683 0.202541 0.750000
O O21 0.538802 0.250000 0.000000
#
# Coordination Sequence:
#
# PCOD9434200 Si02
#       8
#     8   8   8   8   8   8   8   8
#     4  10  18  27  40  58  80 106 137 169 199 237
#     4   9  16  26  39  55  77 105 134 162 194 232
#     4  10  19  30  42  57  78 104 135 170 208 244
#     4   9  17  27  39  57  81 109 138 166 200 244
#     4   9  17  28  42  60  83 112 142 171 207 253
#     4   9  16  25  38  56  78 104 133 165 197 229
#     4   9  17  29  43  60  83 109 139 175 212 250
#     4   9  18  30  44  61  81 107 139 176 214 251
#
# _framework density 14.441404
#
# number of rings (size 3 to 8) (size 9 to 14) (size 15 to 20)
#    0.000    2.750    0.000    2.250    0.000    5.000 
#    0.000    0.000    0.000    0.000    0.000    0.000 
#    0.000    1.000    0.000    7.000    0.000    3.625 
#
# Total GULP energy -356598.064923 kJ/mol
# GULP energy per Si atom -5571.844764 kJ/mol
# Density = 1.440854 g / cm^3
# Si number density = 14.441404 Si / 1000 Ang^3
#
#
#
# Elastic Constant Matrix: (Units=GPa)
#
#
# Indices 1 2 3 4 5 6 
#
# 1 91.0305 24.3277 41.9434 0.0000 0.0000 0.0000
# 2 24.3277 64.1705 29.4396 0.0000 0.0000 0.0000
# 3 41.9434 29.4396 67.1124 0.0000 0.0000 0.0000
# 4 0.0000 0.0000 0.0000 20.4242 0.0000 0.0000
# 5 0.0000 0.0000 0.0000 0.0000 21.3894 0.0000
# 6 0.0000 0.0000 0.0000 0.0000 0.0000 16.6534
#
#
#
# Elastic Compliance Matrix: (Units=1/GPa)
#
#
# Indices 1 2 3 4 5 6 
#
# 1 0.015593 -0.001804 -0.008954 0.000000 0.000000 0.000000
# 2 -0.001804 0.019718 -0.007522 0.000000 0.000000 0.000000
# 3 -0.008954 -0.007522 0.023796 0.000000 0.000000 0.000000
# 4 0.000000 0.000000 0.000000 0.048962 0.000000 0.000000
# 5 0.000000 0.000000 0.000000 0.000000 0.046752 0.000000
# 6 0.000000 0.000000 0.000000 0.000000 0.000000 0.060048
#
#
# Mechanical properties :
#
#
# Convention : Reuss Voigt Hill
#
# Bulk Modulus (GPa) = 44.35111 45.97055 45.16083
# Shear Modulus (GPa) = 19.30914 20.13360 19.72137
#
# Velocity S-wave (km/s) = 3.66056 3.73789 3.69943
# Velocity P-wave (km/s) = 6.97453 7.10849 7.04183
#
# Compressibility (1/GPa) = 0.02254735
#
# Stress axis : x y z
#
# Youngs Moduli (GPa) = 64.13130 50.71420 42.02352
#
# Poissons Ratio (x) = 0.09147 0.37628
# Poissons Ratio (y) = 0.11567 0.31612
# Poissons Ratio (z) = 0.57423 0.38150
#
# Static dielectric constant tensor:
#      x y z
#    x 1.471540 0.000000 0.000000 
#    y 0.000000 1.454740 0.000000 
#    z 0.000000 0.000000 1.482440 
# 
# From -- ./inp_files/7407.got.cif
#   From: 2010.05.17/outbox.cif.g08.bks.cpg/sg57_4_cif.got.tgz:7407.got - 2010.06.03 13:58:18.
