data_PCOD9434699
_publ_section_title
;
Structure prediction by ZEFSAII (Michael W. Deem and Ramdas Pophale) SiO2 
 PCOD9434699
Probable space group: P B C M
;
_chemical_formula_sum "Si O2"
_cell_formula_units_Z 60
_cell_length_a 19.171223
_cell_length_b 9.276905
_cell_length_c 17.127715
_cell_angle_alpha 90.000000
_cell_angle_beta 90.000000
_cell_angle_gamma 90.000000
_cell_volume 3046.157510
_symmetry_space_group_name_H-M "P B C M"
_symmetry_group_IT_number 57
_symmetry_cell_setting 'orthorhombic'
loop_
_space_group_symop_operation_xyz
x,y,z
-x,-y,1/2+z
x,1/2-y,-z
-x,1/2+y,1/2-z
-x,-y,-z
x,y,1/2-z
-x,1/2+y,z
x,1/2-y,1/2+z
loop_
_atom_site_type_symbol
_atom_site_label
_atom_site_fract_x
_atom_site_fract_y
_atom_site_fract_z
Si Si1 0.162395 0.060644 0.250000
Si Si2 0.030689 0.314288 0.834140
Si Si3 0.416031 0.326806 0.845150
Si Si4 0.687860 0.323839 0.842420
Si Si5 0.551083 0.998656 0.155068
Si Si6 0.201637 0.589143 0.468402
Si Si7 0.947197 0.968811 0.070478
Si Si8 0.718547 0.502162 0.119285
O O1 0.101561 0.098437 0.183331
O O2 0.220962 0.031949 0.318202
O O3 0.011331 0.246054 0.750000
O O4 0.970605 0.420580 0.862049
O O5 0.043325 0.191259 0.897173
O O6 0.412520 0.329618 0.750000
O O7 0.477897 0.433919 0.870605
O O8 0.341739 0.379496 0.875599
O O9 0.435422 0.164940 0.869672
O O10 0.697808 0.346243 0.750000
O O11 0.616257 0.400858 0.867070
O O12 0.752172 0.388416 0.891036
O O13 0.685485 0.153638 0.859329
O O14 0.549163 0.998258 0.250000
O O15 0.183733 0.750000 0.500000
O O16 0.131410 0.502541 0.453113
O O17 0.248058 0.513520 0.534202
O O18 0.000000 0.000000 0.000000
#
# Coordination Sequence:
#
# PCOD9434699 Si02
#       8
#     4   8   8   8   8   8   8   8
#     4  10  22  38  62  94 128 162 218 262 330 384
#     4  10  25  42  66  97 126 164 215 275 319 391
#     4  10  18  33  58  89 125 169 215 271 324 383
#     4  10  20  39  61  91 125 167 216 265 325 385
#     4   9  19  33  57  93 127 166 221 270 319 385
#     4  10  24  40  63  97 130 169 216 267 328 399
#     4  12  23  45  67  93 129 172 214 267 335 395
#     4  11  20  39  62  91 127 172 213 267 326 390
#
# _framework density 19.696946000000001
#
# number of rings (size 3 to 8) (size 9 to 14) (size 15 to 20)
#    0.400    1.333    1.333    3.200    0.000    5.333 
#    2.400    2.667    0.000    0.000    0.000    0.000 
#    0.000    0.000    0.000    0.000    0.000    0.000 
#
# Total GULP energy -334090.248221 kJ/mol
# GULP energy per Si atom -5568.170804 kJ/mol
# Density = 1.965212 g / cm^3
# Si number density = 19.696946 Si / 1000 Ang^3
#
#
#
# Elastic Constant Matrix: (Units=GPa)
#
#
# Indices 1 2 3 4 5 6 
#
# 1 74.6948 49.7696 32.9928 0.0000 0.0000 0.0000
# 2 49.7696 74.4020 25.6720 0.0000 0.0000 0.0000
# 3 32.9928 25.6720 53.6190 0.0000 0.0000 0.0000
# 4 0.0000 0.0000 0.0000 18.0619 0.0000 0.0000
# 5 0.0000 0.0000 0.0000 0.0000 16.6140 0.0000
# 6 0.0000 0.0000 0.0000 0.0000 0.0000 31.6151
#
#
#
# Elastic Compliance Matrix: (Units=1/GPa)
#
#
# Indices 1 2 3 4 5 6 
#
# 1 0.027924 -0.015274 -0.009869 0.000000 0.000000 0.000000
# 2 -0.015274 0.024455 -0.002310 0.000000 0.000000 0.000000
# 3 -0.009869 -0.002310 0.025829 0.000000 0.000000 0.000000
# 4 0.000000 0.000000 0.000000 0.055365 0.000000 0.000000
# 5 0.000000 0.000000 0.000000 0.000000 0.060190 0.000000
# 6 0.000000 0.000000 0.000000 0.000000 0.000000 0.031630
#
#
# Mechanical properties :
#
#
# Convention : Reuss Voigt Hill
#
# Bulk Modulus (GPa) = 42.91671 46.62049 44.76860
# Shear Modulus (GPa) = 17.35701 19.54363 18.45032
#
# Velocity S-wave (km/s) = 2.97173 3.15336 3.06389
# Velocity P-wave (km/s) = 5.79747 6.08100 5.94093
#
# Compressibility (1/GPa) = 0.02330094
#
# Stress axis : x y z
#
# Youngs Moduli (GPa) = 35.81118 40.89173 38.71608
#
# Poissons Ratio (x) = 0.62458 0.38210
# Poissons Ratio (y) = 0.54698 0.08945
# Poissons Ratio (z) = 0.35343 0.09447
#
# Static dielectric constant tensor:
#      x y z
#    x 1.643920 0.000000 0.000000 
#    y 0.000000 1.715740 0.000000 
#    z 0.000000 0.000000 1.697580 
# 
# From -- ./inp_files/22921.got.cif
#   From: 2010.05.17/outbox.cif.g08.bks.cpg/sg57_12_cif.got.tgz:22921.got - 2010.06.03 13:58:18.
