data_PCOD9434392
_publ_section_title
;
Structure prediction by ZEFSAII (Michael W. Deem and Ramdas Pophale) SiO2 
 PCOD9434392
Probable space group: P B C M
;
_chemical_formula_sum "Si O2"
_cell_formula_units_Z 48
_cell_length_a 15.524877
_cell_length_b 20.320209
_cell_length_c 9.178087
_cell_angle_alpha 90.000000
_cell_angle_beta 90.000000
_cell_angle_gamma 90.000000
_cell_volume 2895.399591
_symmetry_space_group_name_H-M "P B C M"
_symmetry_group_IT_number 57
_symmetry_cell_setting 'orthorhombic'
loop_
_space_group_symop_operation_xyz
x,y,z
-x,-y,1/2+z
x,1/2-y,-z
-x,1/2+y,1/2-z
-x,-y,-z
x,y,1/2-z
-x,1/2+y,z
x,1/2-y,1/2+z
loop_
_atom_site_type_symbol
_atom_site_label
_atom_site_fract_x
_atom_site_fract_y
_atom_site_fract_z
Si Si1 0.740539 0.891046 0.922347
Si Si2 0.397701 0.931753 0.581934
Si Si3 0.044676 0.562746 0.075081
Si Si4 0.775990 0.047084 0.577644
Si Si5 0.914430 0.681263 0.075517
Si Si6 0.432045 0.089935 0.917505
O O1 0.725087 0.881310 0.750000
O O2 0.820834 0.846705 0.969829
O O3 0.767741 0.967682 0.940075
O O4 0.652797 0.879660 0.009690
O O5 0.387373 0.912005 0.750000
O O6 0.310746 0.922604 0.490185
O O7 0.480901 0.899034 0.508026
O O8 0.415873 0.010704 0.580870
O O9 0.047989 0.553590 0.250000
O O10 0.985783 0.626083 0.043335
O O11 0.139554 0.569550 0.008179
O O12 0.000000 0.500000 0.000000
O O13 0.782689 0.060314 0.750000
O O14 0.912165 0.689352 0.250000
O O15 0.932864 0.750000 0.000000
O O16 0.441987 0.109990 0.750000
#
# Coordination Sequence:
#
# PCOD9434392 Si02
#       6
#     8   8   8   8   8   8
#     4   9  17  31  47  67  98 132 165 206 253 302
#     4   9  16  26  40  64  97 132 164 200 248 297
#     4  11  21  35  53  76 103 134 174 218 264 315
#     4  10  18  30  48  72 101 132 168 212 258 305
#     4  10  22  38  53  74 103 136 174 217 262 311
#     4   9  16  25  40  65  94 128 166 201 242 294
#
# _framework density 16.578023000000002
#
# number of rings (size 3 to 8) (size 9 to 14) (size 15 to 20)
#    0.000    2.333    1.667    2.000    0.000    6.667 
#    0.000    0.000    0.000    0.000    0.000    1.167 
#    0.000    0.000    0.000    0.000    0.000    0.000 
#
# Total GULP energy -267703.653262 kJ/mol
# GULP energy per Si atom -5577.159443 kJ/mol
# Density = 1.654029 g / cm^3
# Si number density = 16.578023 Si / 1000 Ang^3
#
#
#
# Elastic Constant Matrix: (Units=GPa)
#
#
# Indices 1 2 3 4 5 6 
#
# 1 163.3359 51.5043 84.2274 0.0000 0.0000 0.0000
# 2 51.5043 57.8885 47.3397 0.0000 0.0000 0.0000
# 3 84.2274 47.3397 104.5682 0.0000 0.0000 0.0000
# 4 0.0000 0.0000 0.0000 18.2704 0.0000 0.0000
# 5 0.0000 0.0000 0.0000 0.0000 35.9676 0.0000
# 6 0.0000 0.0000 0.0000 0.0000 0.0000 12.8610
#
#
#
# Elastic Compliance Matrix: (Units=1/GPa)
#
#
# Indices 1 2 3 4 5 6 
#
# 1 0.011039 -0.004049 -0.007059 0.000000 0.000000 0.000000
# 2 -0.004049 0.028915 -0.009829 0.000000 0.000000 0.000000
# 3 -0.007059 -0.009829 0.019698 0.000000 0.000000 0.000000
# 4 0.000000 0.000000 0.000000 0.054733 0.000000 0.000000
# 5 0.000000 0.000000 0.000000 0.000000 0.027803 0.000000
# 6 0.000000 0.000000 0.000000 0.000000 0.000000 0.077755
#
#
# Mechanical properties :
#
#
# Convention : Reuss Voigt Hill
#
# Bulk Modulus (GPa) = 56.24532 76.88170 66.56351
# Shear Modulus (GPa) = 18.67467 22.93455 20.80461
#
# Velocity S-wave (km/s) = 3.35994 3.72349 3.54637
# Velocity P-wave (km/s) = 7.00382 8.05991 7.55035
#
# Compressibility (1/GPa) = 0.01777926
#
# Stress axis : x y z
#
# Youngs Moduli (GPa) = 90.58706 34.58418 50.76609
#
# Poissons Ratio (x) = 0.14004 0.35833
# Poissons Ratio (y) = 0.36682 0.49896
# Poissons Ratio (z) = 0.63941 0.33991
#
# Static dielectric constant tensor:
#      x y z
#    x 1.558740 0.000000 0.000000 
#    y 0.000000 1.529950 0.000000 
#    z 0.000000 0.000000 1.554170 
# 
# From -- ./inp_files/4894.got.cif
#   From: 2010.05.17/outbox.cif.g08.bks.cpg/sg57_3_cif.got.tgz:4894.got - 2010.06.03 13:58:18.
