data_PCOD9434062
_publ_section_title
;
Structure prediction by ZEFSAII (Michael W. Deem and Ramdas Pophale) SiO2 
 PCOD9434062
Probable space group: P B C M
;
_chemical_formula_sum "Si O2"
_cell_formula_units_Z 56
_cell_length_a 18.422714
_cell_length_b 22.780988
_cell_length_c 8.641135
_cell_angle_alpha 90.000000
_cell_angle_beta 90.000000
_cell_angle_gamma 90.000000
_cell_volume 3626.577439
_symmetry_space_group_name_H-M "P B C M"
_symmetry_group_IT_number 57
_symmetry_cell_setting 'orthorhombic'
loop_
_space_group_symop_operation_xyz
x,y,z
-x,-y,1/2+z
x,1/2-y,-z
-x,1/2+y,1/2-z
-x,-y,-z
x,y,1/2-z
-x,1/2+y,z
x,1/2-y,1/2+z
loop_
_atom_site_type_symbol
_atom_site_label
_atom_site_fract_x
_atom_site_fract_y
_atom_site_fract_z
Si Si1 0.623069 0.904396 0.935590
Si Si2 0.750717 0.815341 0.935321
Si Si3 0.869381 0.597610 0.936240
Si Si4 0.022713 0.936540 0.435970
Si Si5 0.667999 0.032055 0.434393
Si Si6 0.477665 0.935866 0.065266
Si Si7 0.823531 0.030501 0.936204
O O1 0.619193 0.910128 0.750000
O O2 0.679073 0.853096 0.976335
O O3 0.542346 0.895268 0.002507
O O4 0.653663 0.965869 0.002565
O O5 0.756022 0.814134 0.750000
O O6 0.746975 0.750000 0.000000
O O7 0.819238 0.850584 0.002553
O O8 0.863979 0.593831 0.750000
O O9 0.954721 0.604275 0.980305
O O10 0.841113 0.535866 0.006756
O O11 0.023004 0.938977 0.250000
O O12 0.106731 0.929764 0.482610
O O13 0.000000 0.000000 0.500000
O O14 0.663210 0.030961 0.250000
O O15 0.603555 0.072281 0.502538
O O16 0.747825 0.049608 0.490184
O O17 0.477959 0.937011 0.250000
O O18 0.500000 0.000000 0.000000
O O19 0.817016 0.029598 0.750000
#
# Coordination Sequence:
#
# PCOD9434062 Si02
#       7
#     8   8   8   8   8   8   8
#     4  10  19  32  46  61  85 115 148 186 228 267
#     4  11  23  35  49  66  88 118 155 195 230 265
#     4  10  18  30  46  63  86 116 151 187 227 268
#     4   8  16  27  41  61  85 115 147 181 218 264
#     4  11  19  27  42  64  90 120 151 182 219 264
#     4  10  18  28  43  62  85 114 147 181 219 266
#     4  10  17  27  42  63  91 120 151 182 219 264
#
# _framework density 15.441556
#
# number of rings (size 3 to 8) (size 9 to 14) (size 15 to 20)
#    0.000    2.000    1.429    6.000    0.000    2.857 
#    0.000    0.000    0.000    0.000    0.000    0.000 
#    0.000    1.143    0.000    8.286    0.000    4.000 
#
# Total GULP energy -312060.865468 kJ/mol
# GULP energy per Si atom -5572.515455 kJ/mol
# Density = 1.540641 g / cm^3
# Si number density = 15.441556 Si / 1000 Ang^3
#
#
#
# Elastic Constant Matrix: (Units=GPa)
#
#
# Indices 1 2 3 4 5 6 
#
# 1 185.7653 47.0902 57.5668 0.0000 0.0000 0.0000
# 2 47.0902 47.8121 24.9142 0.0000 0.0000 0.0000
# 3 57.5668 24.9142 80.1766 0.0000 0.0000 0.0000
# 4 0.0000 0.0000 0.0000 14.3351 0.0000 0.0000
# 5 0.0000 0.0000 0.0000 0.0000 26.7240 0.0000
# 6 0.0000 0.0000 0.0000 0.0000 0.0000 12.9531
#
#
#
# Elastic Compliance Matrix: (Units=1/GPa)
#
#
# Indices 1 2 3 4 5 6 
#
# 1 0.008120 -0.005918 -0.003991 0.000000 0.000000 0.000000
# 2 -0.005918 0.029269 -0.004846 0.000000 0.000000 0.000000
# 3 -0.003991 -0.004846 0.016844 0.000000 0.000000 0.000000
# 4 0.000000 0.000000 0.000000 0.069759 0.000000 0.000000
# 5 0.000000 0.000000 0.000000 0.000000 0.037420 0.000000
# 6 0.000000 0.000000 0.000000 0.000000 0.000000 0.077201
#
#
# Mechanical properties :
#
#
# Convention : Reuss Voigt Hill
#
# Bulk Modulus (GPa) = 40.44867 63.65515 52.05191
# Shear Modulus (GPa) = 18.09206 23.08130 20.58668
#
# Velocity S-wave (km/s) = 3.42665 3.87040 3.65526
# Velocity P-wave (km/s) = 6.47360 7.82854 7.18309
#
# Compressibility (1/GPa) = 0.02472269
#
# Stress axis : x y z
#
# Youngs Moduli (GPa) = 123.15118 34.16609 59.36764
#
# Poissons Ratio (x) = 0.20218 0.23696
# Poissons Ratio (y) = 0.72876 0.28771
# Poissons Ratio (z) = 0.49154 0.16558
#
# Static dielectric constant tensor:
#      x y z
#    x 1.585750 0.000000 0.000000 
#    y 0.000000 1.466580 0.000000 
#    z 0.000000 0.000000 1.516880 
# 
# From -- ./inp_files/7325.got.cif
#   From: 2010.05.17/outbox.cif.g08.bks.cpg/sg57_4_cif.got.tgz:7325.got - 2010.06.03 13:58:18.
