data_PCOD9434752
_publ_section_title
;
Structure prediction by ZEFSAII (Michael W. Deem and Ramdas Pophale) SiO2 
 PCOD9434752
Probable space group: P B C M
;
_chemical_formula_sum "Si O2"
_cell_formula_units_Z 32
_cell_length_a 9.288556
_cell_length_b 15.365016
_cell_length_c 10.389214
_cell_angle_alpha 90.000000
_cell_angle_beta 90.000000
_cell_angle_gamma 90.000000
_cell_volume 1482.736275
_symmetry_space_group_name_H-M "P B C M"
_symmetry_group_IT_number 57
_symmetry_cell_setting 'orthorhombic'
loop_
_space_group_symop_operation_xyz
x,y,z
-x,-y,1/2+z
x,1/2-y,-z
-x,1/2+y,1/2-z
-x,-y,-z
x,y,1/2-z
-x,1/2+y,z
x,1/2-y,1/2+z
loop_
_atom_site_type_symbol
_atom_site_label
_atom_site_fract_x
_atom_site_fract_y
_atom_site_fract_z
Si Si1 0.575512 0.070710 0.406662
Si Si2 0.653970 0.250000 0.500000
Si Si3 0.914912 0.926939 0.750000
Si Si4 0.140172 0.765891 0.750000
Si Si5 0.836981 0.534094 0.986337
Si Si6 0.083630 0.112170 0.750000
O O1 0.551651 0.067320 0.250000
O O2 0.557690 0.165193 0.470653
O O3 0.500000 0.000000 0.500000
O O4 0.741702 0.044784 0.435350
O O5 0.758730 0.248299 0.374846
O O6 0.811371 0.926547 0.626141
O O7 0.039170 0.852880 0.750000
O O8 0.994630 0.021029 0.750000
O O9 0.026022 0.689078 0.750000
O O10 0.825414 0.607905 0.879023
O O11 0.000000 0.500000 0.000000
#
# Coordination Sequence:
#
# PCOD9434752 Si02
#       6
#     8   4   4   4   8   4
#     4  12  28  49  75 106 146 201 250 304 372 439
#     4  12  24  44  72 104 142 188 254 308 350 448
#     4  10  20  34  58 101 140 173 227 281 359 419
#     4  12  22  38  70 110 146 186 238 302 368 432
#     4  10  20  39  68  99 141 182 225 291 355 426
#     4  10  18  34  58  93 136 179 219 285 355 415
#
# _framework density 21.581720000000001
#
# number of rings (size 3 to 8) (size 9 to 14) (size 15 to 20)
#    0.000    1.000    2.500    7.500    3.500    0.000 
#    0.000    2.500    0.000    0.000    0.000    0.000 
#    0.000    0.000    0.000    0.000    0.000    0.000 
#
# Total GULP energy -178266.647228 kJ/mol
# GULP energy per Si atom -5570.832726 kJ/mol
# Density = 2.153260 g / cm^3
# Si number density = 21.581720 Si / 1000 Ang^3
#
#
#
# Elastic Constant Matrix: (Units=GPa)
#
#
# Indices 1 2 3 4 5 6 
#
# 1 23.5458 31.1502 -0.4557 0.0000 0.0000 0.0000
# 2 31.1502 168.6431 61.5378 0.0000 0.0000 0.0000
# 3 -0.4557 61.5378 208.6883 0.0000 0.0000 0.0000
# 4 0.0000 0.0000 0.0000 30.5192 0.0000 0.0000
# 5 0.0000 0.0000 0.0000 0.0000 30.4504 0.0000
# 6 0.0000 0.0000 0.0000 0.0000 0.0000 47.2932
#
#
#
# Elastic Compliance Matrix: (Units=1/GPa)
#
#
# Indices 1 2 3 4 5 6 
#
# 1 0.058680 -0.012198 0.003725 0.000000 0.000000 0.000000
# 2 -0.012198 0.009180 -0.002734 0.000000 0.000000 0.000000
# 3 0.003725 -0.002734 0.005606 0.000000 0.000000 0.000000
# 4 0.000000 0.000000 0.000000 0.032766 0.000000 0.000000
# 5 0.000000 0.000000 0.000000 0.000000 0.032840 0.000000
# 6 0.000000 0.000000 0.000000 0.000000 0.000000 0.021145
#
#
# Mechanical properties :
#
#
# Convention : Reuss Voigt Hill
#
# Bulk Modulus (GPa) = 19.58739 65.03797 42.31268
# Shear Modulus (GPa) = 25.04389 42.22889 33.63639
#
# Velocity S-wave (km/s) = 3.41019 4.42826 3.95214
# Velocity P-wave (km/s) = 4.95999 7.50647 6.36194
#
# Compressibility (1/GPa) = 0.05105325
#
# Stress axis : x y z
#
# Youngs Moduli (GPa) = 17.04146 108.92808 178.37736
#
# Poissons Ratio (x) = 1.32873 -0.66448
# Poissons Ratio (y) = 0.20788 0.48764
# Poissons Ratio (z) = -0.06348 0.29778
#
# Static dielectric constant tensor:
#      x y z
#    x 1.820870 0.000000 0.000000 
#    y 0.000000 1.811970 0.000000 
#    z 0.000000 0.000000 2.000540 
# 
# From -- ./inp_files/11363.got.cif
#   From: 2010.05.17/outbox.cif.g08.bks.cpg/sg57_6_cif.got.tgz:11363.got - 2010.06.03 13:58:18.
