data_PCOD9434518
_publ_section_title
;
Structure prediction by ZEFSAII (Michael W. Deem and Ramdas Pophale) SiO2 
 PCOD9434518
Probable space group: P B C M
;
_chemical_formula_sum "Si O2"
_cell_formula_units_Z 52
_cell_length_a 14.974258
_cell_length_b 21.215924
_cell_length_c 7.612819
_cell_angle_alpha 90.000000
_cell_angle_beta 90.000000
_cell_angle_gamma 90.000000
_cell_volume 2418.537173
_symmetry_space_group_name_H-M "P B C M"
_symmetry_group_IT_number 57
_symmetry_cell_setting 'orthorhombic'
loop_
_space_group_symop_operation_xyz
x,y,z
-x,-y,1/2+z
x,1/2-y,-z
-x,1/2+y,1/2-z
-x,-y,-z
x,y,1/2-z
-x,1/2+y,z
x,1/2-y,1/2+z
loop_
_atom_site_type_symbol
_atom_site_label
_atom_site_fract_x
_atom_site_fract_y
_atom_site_fract_z
Si Si1 0.875707 0.033953 0.457197
Si Si2 0.991748 0.642409 0.033317
Si Si3 0.380631 0.057122 0.463009
Si Si4 0.808556 0.599850 0.050206
Si Si5 0.875320 0.250000 0.000000
Si Si6 0.425149 0.912055 0.542194
Si Si7 0.750258 0.352466 0.047426
O O1 0.881400 0.020725 0.250000
O O2 0.794240 0.081486 0.493704
O O3 0.961616 0.075341 0.510324
O O4 0.853206 0.969596 0.553126
O O5 0.997466 0.649230 0.250000
O O6 0.888754 0.642190 0.975953
O O7 0.051704 0.696692 0.947689
O O8 0.377863 0.059426 0.250000
O O9 0.289227 0.088670 0.530281
O O10 0.472914 0.089062 0.524036
O O11 0.389888 0.983279 0.508846
O O12 0.794851 0.621711 0.250000
O O13 0.800896 0.300278 0.933422
O O14 0.427020 0.902643 0.750000
O O15 0.355060 0.862157 0.467985
O O16 0.773011 0.337863 0.250000
#
# Coordination Sequence:
#
# PCOD9434518 Si02
#       7
#     8   8   8   8   4   8   8
#     4  10  19  31  48  75 108 138 171 210 258 313
#     4   9  19  34  51  72 100 134 173 219 263 311
#     4   9  18  31  49  77 109 140 173 205 252 318
#     4  10  18  31  52  76 105 138 171 209 259 318
#     4  10  22  38  54  74 100 136 182 226 268 316
#     4  10  19  31  50  76 108 141 171 213 260 310
#     4  11  21  34  54  77 104 139 179 223 269 319
#
# _framework density 21.500599999999999
#
# number of rings (size 3 to 8) (size 9 to 14) (size 15 to 20)
#    0.000    2.154    1.538    2.308    0.000    2.462 
#    0.000    3.846    0.000    0.923    0.000    2.154 
#    0.000    0.000    0.000    0.000    0.000    0.000 
#
# Total GULP energy -289549.248080 kJ/mol
# GULP energy per Si atom -5568.254771 kJ/mol
# Density = 2.145166 g / cm^3
# Si number density = 21.500600 Si / 1000 Ang^3
#
#
#
# Elastic Constant Matrix: (Units=GPa)
#
#
# Indices 1 2 3 4 5 6 
#
# 1 229.1669 47.0347 15.8340 0.0000 0.0000 0.0000
# 2 47.0347 57.5051 0.5257 0.0000 0.0000 0.0000
# 3 15.8340 0.5257 79.1727 0.0000 0.0000 0.0000
# 4 0.0000 0.0000 0.0000 -101.4163 0.0000 0.0000
# 5 0.0000 0.0000 0.0000 0.0000 18.1796 0.0000
# 6 0.0000 0.0000 0.0000 0.0000 0.0000 25.6519
#
#
#
# Elastic Compliance Matrix: (Units=1/GPa)
#
#
# Indices 1 2 3 4 5 6 
#
# 1 0.005328 -0.004348 -0.001037 0.000000 0.000000 0.000000
# 2 -0.004348 0.020940 0.000731 0.000000 0.000000 0.000000
# 3 -0.001037 0.000731 0.012833 0.000000 0.000000 0.000000
# 4 0.000000 0.000000 0.000000 -0.009860 0.000000 0.000000
# 5 0.000000 0.000000 0.000000 0.000000 0.055007 0.000000
# 6 0.000000 0.000000 0.000000 0.000000 0.000000 0.038983
#
#
# Mechanical properties :
#
#
# Convention : Reuss Voigt Hill
#
# Bulk Modulus (GPa) = 33.56620 54.73704 44.15162
# Shear Modulus (GPa) = 35.09529 8.64639 21.87084
#
# Velocity S-wave (km/s) = 4.04455 2.00753 3.19285
# Velocity P-wave (km/s) = 6.12020 5.55763 5.84568
#
# Compressibility (1/GPa) = 0.02979187
#
# Stress axis : x y z
#
# Youngs Moduli (GPa) = 187.69896 47.75653 77.92357
#
# Poissons Ratio (x) = 0.20765 0.08078
# Poissons Ratio (y) = 0.81614 -0.05693
# Poissons Ratio (z) = 0.19457 -0.03489
#
# Static dielectric constant tensor:
#      x y z
#    x 1.848120 0.000000 0.000000 
#    y 0.000000 1.734650 0.000000 
#    z 0.000000 0.000000 1.875800 
# 
# From -- ./inp_files/5433.got.cif
#   From: 2010.05.17/outbox.cif.g08.bks.cpg/sg57_3_cif.got.tgz:5433.got - 2010.06.03 13:58:18.
