data_PCOD9434404
_publ_section_title
;
Structure prediction by ZEFSAII (Michael W. Deem and Ramdas Pophale) SiO2 
 PCOD9434404
Probable space group: P B C M
;
_chemical_formula_sum "Si O2"
_cell_formula_units_Z 48
_cell_length_a 10.233375
_cell_length_b 30.580572
_cell_length_c 9.156016
_cell_angle_alpha 90.000000
_cell_angle_beta 90.000000
_cell_angle_gamma 90.000000
_cell_volume 2865.306180
_symmetry_space_group_name_H-M "P B C M"
_symmetry_group_IT_number 57
_symmetry_cell_setting 'orthorhombic'
loop_
_space_group_symop_operation_xyz
x,y,z
-x,-y,1/2+z
x,1/2-y,-z
-x,1/2+y,1/2-z
-x,-y,-z
x,y,1/2-z
-x,1/2+y,z
x,1/2-y,1/2+z
loop_
_atom_site_type_symbol
_atom_site_label
_atom_site_fract_x
_atom_site_fract_y
_atom_site_fract_z
Si Si1 0.382858 0.526386 0.925454
Si Si2 0.116428 0.025628 0.075933
Si Si3 0.022678 0.381630 0.576456
Si Si4 0.023781 0.206743 0.583221
Si Si5 0.711016 0.114386 0.425018
Si Si6 0.705620 0.205482 0.919558
O O1 0.399977 0.530187 0.750000
O O2 0.252146 0.498109 0.954033
O O3 0.500000 0.500000 0.000000
O O4 0.360647 0.573904 0.997718
O O5 0.094824 0.024679 0.250000
O O6 0.105389 0.076194 0.030775
O O7 0.000000 0.000000 0.000000
O O8 0.035314 0.374880 0.750000
O O9 0.063304 0.337861 0.494720
O O10 0.868015 0.390460 0.548455
O O11 0.068324 0.250000 0.500000
O O12 0.066132 0.207634 0.750000
O O13 0.864677 0.206964 0.580646
O O14 0.690903 0.114078 0.250000
O O15 0.670921 0.161092 0.494194
O O16 0.664111 0.204134 0.750000
O O17 0.661638 0.250000 0.000000
#
# Coordination Sequence:
#
# PCOD9434404 Si02
#       6
#     8   8   8   8   8   8
#     4  11  23  37  53  74 103 138 176 215 260 311
#     4  10  20  34  53  76 101 132 170 212 255 302
#     4   9  17  29  46  70  98 128 163 206 253 300
#     4   9  16  25  39  62  94 130 163 199 245 297
#     4  10  18  30  49  71  99 133 168 208 258 305
#     4   9  16  26  41  65  97 130 166 205 250 301
#
# _framework density 16.752136
#
# number of rings (size 3 to 8) (size 9 to 14) (size 15 to 20)
#    0.000    2.333    1.667    2.000    0.000    6.000 
#    0.000    0.000    0.000    0.000    0.000    1.167 
#    0.000    2.667    0.000    0.000    0.000    0.000 
#
# Total GULP energy -267638.798478 kJ/mol
# GULP energy per Si atom -5575.808302 kJ/mol
# Density = 1.671401 g / cm^3
# Si number density = 16.752136 Si / 1000 Ang^3
#
#
#
# Elastic Constant Matrix: (Units=GPa)
#
#
# Indices 1 2 3 4 5 6 
#
# 1 45.2235 48.0265 44.6630 0.0000 0.0000 0.0000
# 2 48.0265 202.0366 95.9565 0.0000 0.0000 0.0000
# 3 44.6630 95.9565 98.7798 0.0000 0.0000 0.0000
# 4 0.0000 0.0000 0.0000 37.1054 0.0000 0.0000
# 5 0.0000 0.0000 0.0000 0.0000 13.4564 0.0000
# 6 0.0000 0.0000 0.0000 0.0000 0.0000 14.9793
#
#
#
# Elastic Compliance Matrix: (Units=1/GPa)
#
#
# Indices 1 2 3 4 5 6 
#
# 1 0.040272 -0.001717 -0.016541 0.000000 0.000000 0.000000
# 2 -0.001717 0.009262 -0.008221 0.000000 0.000000 0.000000
# 3 -0.016541 -0.008221 0.025589 0.000000 0.000000 0.000000
# 4 0.000000 0.000000 0.000000 0.026950 0.000000 0.000000
# 5 0.000000 0.000000 0.000000 0.000000 0.074314 0.000000
# 6 0.000000 0.000000 0.000000 0.000000 0.000000 0.066759
#
#
# Mechanical properties :
#
#
# Convention : Reuss Voigt Hill
#
# Bulk Modulus (GPa) = 45.11708 80.37022 62.74365
# Shear Modulus (GPa) = 16.47486 23.60114 20.03800
#
# Velocity S-wave (km/s) = 3.13940 3.75753 3.46229
# Velocity P-wave (km/s) = 6.33496 8.17959 7.31565
#
# Compressibility (1/GPa) = 0.02216455
#
# Stress axis : x y z
#
# Youngs Moduli (GPa) = 24.83135 107.96246 39.07966
#
# Poissons Ratio (x) = 0.18538 0.64641
# Poissons Ratio (y) = 0.04264 0.32129
# Poissons Ratio (z) = 0.41073 0.88760
#
# Static dielectric constant tensor:
#      x y z
#    x 1.538110 0.000000 0.000000 
#    y 0.000000 1.569150 0.000000 
#    z 0.000000 0.000000 1.562260 
# 
# From -- ./inp_files/2035.got.cif
#   From: 2010.05.17/outbox.cif.g08.bks.cpg/sg57_2_cif.got.tgz:2035.got - 2010.06.03 13:58:18.
