data_PCOD9434836
_publ_section_title
;
Structure prediction by ZEFSAII (Michael W. Deem and Ramdas Pophale) SiO2 
 PCOD9434836
Probable space group: P B C M
;
_chemical_formula_sum "Si O2"
_cell_formula_units_Z 48
_cell_length_a 16.426936
_cell_length_b 8.208632
_cell_length_c 15.363871
_cell_angle_alpha 90.000000
_cell_angle_beta 90.000000
_cell_angle_gamma 90.000000
_cell_volume 2071.705426
_symmetry_space_group_name_H-M "P B C M"
_symmetry_group_IT_number 57
_symmetry_cell_setting 'orthorhombic'
loop_
_space_group_symop_operation_xyz
x,y,z
-x,-y,1/2+z
x,1/2-y,-z
-x,1/2+y,1/2-z
-x,-y,-z
x,y,1/2-z
-x,1/2+y,z
x,1/2-y,1/2+z
loop_
_atom_site_type_symbol
_atom_site_label
_atom_site_fract_x
_atom_site_fract_y
_atom_site_fract_z
Si Si1 0.304183 0.215017 0.655735
Si Si2 0.377068 0.697923 0.902560
Si Si3 0.101867 0.046284 0.750000
Si Si4 0.082372 0.838536 0.250000
Si Si5 0.788606 0.056481 0.885261
Si Si6 0.822342 0.590750 0.555457
Si Si7 0.464141 0.156266 0.406064
O O1 0.283479 0.147683 0.750000
O O2 0.252548 0.381709 0.639707
O O3 0.273858 0.106065 0.577207
O O4 0.398464 0.249569 0.650670
O O5 0.287596 0.674401 0.862571
O O6 0.444500 0.826105 0.869700
O O7 0.426976 0.525727 0.907328
O O8 0.358653 0.750000 0.000000
O O9 0.138362 0.085384 0.847992
O O10 0.012221 0.122980 0.750000
O O11 0.095495 0.852931 0.750000
O O12 0.131536 0.912462 0.330424
O O13 0.820417 0.051865 0.984789
O O14 0.850630 0.750000 0.500000
O O15 0.463022 0.250000 0.500000
#
# Coordination Sequence:
#
# PCOD9434836 Si02
#       7
#     8   8   4   4   8   8   8
#     4  10  18  37  67  95 138 181 237 293 349 408
#     4  10  20  35  62  91 135 180 239 288 344 406
#     4  12  30  50  76 111 145 176 236 299 357 438
#     4  12  30  50  74 107 151 180 234 297 365 432
#     4  10  23  44  71  98 143 192 229 292 359 422
#     4  10  23  44  77 108 140 187 241 287 363 431
#     4  10  19  34  54  94 126 182 233 288 339 402
#
# _framework density 23.169316999999999
#
# number of rings (size 3 to 8) (size 9 to 14) (size 15 to 20)
#    0.000    1.667    1.667    4.500    7.000    0.667 
#    1.500    0.000    0.000    0.000    0.000    0.000 
#    0.000    0.000    0.000    0.000    0.000    0.000 
#
# Total GULP energy -267613.012003 kJ/mol
# GULP energy per Si atom -5575.271083 kJ/mol
# Density = 2.311658 g / cm^3
# Si number density = 23.169317 Si / 1000 Ang^3
#
#
#
# Elastic Constant Matrix: (Units=GPa)
#
#
# Indices 1 2 3 4 5 6 
#
# 1 113.8029 7.3669 57.2575 0.0000 0.0000 0.0000
# 2 7.3669 39.9097 20.1143 0.0000 0.0000 0.0000
# 3 57.2575 20.1143 152.8280 0.0000 0.0000 0.0000
# 4 0.0000 0.0000 0.0000 18.0404 0.0000 0.0000
# 5 0.0000 0.0000 0.0000 0.0000 -760.3588 0.0000
# 6 0.0000 0.0000 0.0000 0.0000 0.0000 37.9304
#
#
#
# Elastic Compliance Matrix: (Units=1/GPa)
#
#
# Indices 1 2 3 4 5 6 
#
# 1 0.010828 0.000049 -0.004063 0.000000 0.000000 0.000000
# 2 0.000049 0.026837 -0.003551 0.000000 0.000000 0.000000
# 3 -0.004063 -0.003551 0.008533 0.000000 0.000000 0.000000
# 4 0.000000 0.000000 0.000000 0.055431 0.000000 0.000000
# 5 0.000000 0.000000 0.000000 0.000000 -0.001315 0.000000
# 6 0.000000 0.000000 0.000000 0.000000 0.000000 0.026364
#
#
# Mechanical properties :
#
#
# Convention : Reuss Voigt Hill
#
# Bulk Modulus (GPa) = 32.18673 52.89091 42.53882
# Shear Modulus (GPa) = 32.85930 -126.09081 -46.61576
#
# Velocity S-wave (km/s) = 3.77002 -7.38509 -4.49035
# Velocity P-wave (km/s) = 5.73348 7.05988 2.91282
#
# Compressibility (1/GPa) = 0.03106871
#
# Stress axis : x y z
#
# Youngs Moduli (GPa) = 92.35042 37.26208 117.19286
#
# Poissons Ratio (x) = -0.00183 0.47619
# Poissons Ratio (y) = -0.00453 0.41610
# Poissons Ratio (z) = 0.37525 0.13230
#
# Static dielectric constant tensor:
#      x y z
#    x 0.527160 0.000000 0.000000 
#    y 0.000000 1.962060 0.000000 
#    z 0.000000 0.000000 1.917220 
# 
# From -- ./inp_files/19001.got.cif
#   From: 2010.05.17/outbox.cif.g08.bks.cpg/sg57_10_cif.got.tgz:19001.got - 2010.06.03 13:58:18.
