data_PCOD9434864
_publ_section_title
;
Structure prediction by ZEFSAII (Michael W. Deem and Ramdas Pophale) SiO2 
 PCOD9434864
Probable space group: P B C M
;
_chemical_formula_sum "Si O2"
_cell_formula_units_Z 48
_cell_length_a 19.568344
_cell_length_b 12.892971
_cell_length_c 8.253766
_cell_angle_alpha 90.000000
_cell_angle_beta 90.000000
_cell_angle_gamma 90.000000
_cell_volume 2082.376396
_symmetry_space_group_name_H-M "P B C M"
_symmetry_group_IT_number 57
_symmetry_cell_setting 'orthorhombic'
loop_
_space_group_symop_operation_xyz
x,y,z
-x,-y,1/2+z
x,1/2-y,-z
-x,1/2+y,1/2-z
-x,-y,-z
x,y,1/2-z
-x,1/2+y,z
x,1/2-y,1/2+z
loop_
_atom_site_type_symbol
_atom_site_label
_atom_site_fract_x
_atom_site_fract_y
_atom_site_fract_z
Si Si1 0.187249 0.617257 0.250000
Si Si2 0.033996 0.873424 0.750000
Si Si3 0.729251 0.408677 0.435217
Si Si4 0.583427 0.116648 0.072006
Si Si5 0.288290 0.141425 0.948326
Si Si6 0.056918 0.250000 0.500000
Si Si7 0.103980 0.413793 0.250000
Si Si8 0.437817 0.371319 0.070307
O O1 0.112103 0.666842 0.250000
O O2 0.228335 0.638945 0.414456
O O3 0.166978 0.493405 0.250000
O O4 0.992564 0.824957 0.897691
O O5 0.042475 0.999397 0.750000
O O6 0.750701 0.387410 0.250000
O O7 0.650194 0.374132 0.460528
O O8 0.735170 0.533243 0.471591
O O9 0.599348 0.159465 0.250000
O O10 0.570686 0.994310 0.087345
O O11 0.509437 0.150126 0.012116
O O12 0.290965 0.132749 0.750000
O O13 0.366299 0.151495 0.014476
O O14 0.253761 0.250000 0.000000
O O15 0.099961 0.333529 0.397833
O O16 0.439515 0.324872 0.250000
#
# Coordination Sequence:
#
# PCOD9434864 Si02
#       8
#     4   4   8   8   8   4   4   8
#     4  10  22  42  52  94 130 162 212 268 298 380
#     4   9  21  38  69 101 138 167 216 273 311 390
#     4  11  20  36  53  74 110 158 201 244 312 367
#     4   9  15  26  46  66  96 126 172 242 299 361
#     4  10  19  32  47  67 102 144 195 256 311 385
#     4  10  18  42  68 100 132 182 212 256 344 364
#     4   9  21  38  65  99 142 173 218 269 307 386
#     4   8  15  25  40  67  89 120 173 238 301 358
#
# _framework density 23.050588000000001
#
# number of rings (size 3 to 8) (size 9 to 14) (size 15 to 20)
#    0.500    2.000    1.667    2.500    0.000    4.667 
#    7.500    0.000    0.000    0.000    2.167    0.000 
#    0.000    0.000    0.000    0.000    0.000    0.000 
#
# Total GULP energy -267437.989547 kJ/mol
# GULP energy per Si atom -5571.624782 kJ/mol
# Density = 2.299812 g / cm^3
# Si number density = 23.050588 Si / 1000 Ang^3
#
#
#
# Elastic Constant Matrix: (Units=GPa)
#
#
# Indices 1 2 3 4 5 6 
#
# 1 83.9167 0.3033 42.5162 0.0000 0.0000 0.0000
# 2 0.3033 106.9200 19.7809 0.0000 0.0000 0.0000
# 3 42.5162 19.7809 139.1487 0.0000 0.0000 0.0000
# 4 0.0000 0.0000 0.0000 4.9431 0.0000 0.0000
# 5 0.0000 0.0000 0.0000 0.0000 12.3760 0.0000
# 6 0.0000 0.0000 0.0000 0.0000 0.0000 -83.4139
#
#
#
# Elastic Compliance Matrix: (Units=1/GPa)
#
#
# Indices 1 2 3 4 5 6 
#
# 1 0.014162 0.000781 -0.004438 0.000000 0.000000 0.000000
# 2 0.000781 0.009648 -0.001610 0.000000 0.000000 0.000000
# 3 -0.004438 -0.001610 0.008772 0.000000 0.000000 0.000000
# 4 0.000000 0.000000 0.000000 0.202301 0.000000 0.000000
# 5 0.000000 0.000000 0.000000 0.000000 0.080801 0.000000
# 6 0.000000 0.000000 0.000000 0.000000 0.000000 -0.011988
#
#
# Mechanical properties :
#
#
# Convention : Reuss Voigt Hill
#
# Bulk Modulus (GPa) = 45.35694 50.57625 47.96660
# Shear Modulus (GPa) = 15.54819 4.60673 10.07746
#
# Velocity S-wave (km/s) = 2.59998 1.41523 2.09317
# Velocity P-wave (km/s) = 5.36032 4.96584 5.16684
#
# Compressibility (1/GPa) = 0.02204734
#
# Stress axis : x y z
#
# Youngs Moduli (GPa) = 70.60958 103.64337 114.00495
#
# Poissons Ratio (x) = -0.08094 0.50598
# Poissons Ratio (y) = -0.05514 0.18357
# Poissons Ratio (z) = 0.31338 0.16689
#
# Static dielectric constant tensor:
#      x y z
#    x 1.852490 0.000000 0.000000 
#    y 0.000000 1.941150 0.000000 
#    z 0.000000 0.000000 1.866260 
# 
# From -- ./inp_files/7895.got.cif
#   From: 2010.05.17/outbox.cif.g08.bks.cpg/sg57_4_cif.got.tgz:7895.got - 2010.06.03 13:58:18.
