data_PCOD9434045
_publ_section_title
;
Structure prediction by ZEFSAII (Michael W. Deem and Ramdas Pophale) SiO2 
 PCOD9434045
Probable space group: P B C M
;
_chemical_formula_sum "Si O2"
_cell_formula_units_Z 56
_cell_length_a 18.141652
_cell_length_b 21.949546
_cell_length_c 9.201494
_cell_angle_alpha 90.000000
_cell_angle_beta 90.000000
_cell_angle_gamma 90.000000
_cell_volume 3664.044343
_symmetry_space_group_name_H-M "P B C M"
_symmetry_group_IT_number 57
_symmetry_cell_setting 'orthorhombic'
loop_
_space_group_symop_operation_xyz
x,y,z
-x,-y,1/2+z
x,1/2-y,-z
-x,1/2+y,1/2-z
-x,-y,-z
x,y,1/2-z
-x,1/2+y,z
x,1/2-y,1/2+z
loop_
_atom_site_type_symbol
_atom_site_label
_atom_site_fract_x
_atom_site_fract_y
_atom_site_fract_z
Si Si1 0.949790 0.084984 0.917229
Si Si2 0.091843 0.059481 0.082839
Si Si3 0.235815 0.471263 0.076175
Si Si4 0.598255 0.547119 0.921314
Si Si5 0.788857 0.100462 0.575949
Si Si6 0.457613 0.591241 0.421507
Si Si7 0.650435 0.184933 0.923551
O O1 0.966464 0.100347 0.750000
O O2 0.873330 0.116582 0.963341
O O3 0.929255 0.012732 0.921308
O O4 0.021680 0.093429 0.014556
O O5 0.103525 0.076059 0.250000
O O6 0.166778 0.064454 0.991619
O O7 0.228328 0.475453 0.250000
O O8 0.316024 0.443603 0.042793
O O9 0.233034 0.539123 0.008457
O O10 0.586551 0.560074 0.750000
O O11 0.580058 0.475271 0.942178
O O12 0.540125 0.583994 0.017036
O O13 0.788924 0.087270 0.750000
O O14 0.729106 0.152315 0.548024
O O15 0.457186 0.604687 0.250000
O O16 0.411491 0.640767 0.509685
O O17 0.641333 0.190307 0.750000
O O18 0.647413 0.250000 0.000000
#
# Coordination Sequence:
#
# PCOD9434045 Si02
#       7
#     8   8   8   8   8   8   8
#     4   8  14  25  38  54  78 110 146 179 213 254
#     4   9  16  24  35  56  84 114 146 176 212 255
#     4  10  17  26  42  63  89 118 149 184 221 267
#     4   9  18  30  45  67  92 119 151 188 229 279
#     4   9  18  30  44  61  83 114 151 188 225 265
#     4  10  19  32  48  67  89 117 153 190 232 278
#     4  11  22  35  50  67  91 120 154 195 235 276
#
# _framework density 15.283658000000001
#
# number of rings (size 3 to 8) (size 9 to 14) (size 15 to 20)
#    0.000    2.571    1.429    2.571    0.000    5.714 
#    0.000    0.000    0.000    0.000    0.000    0.000 
#    0.000    1.143    0.000    7.714    0.000    5.714 
#
# Total GULP energy -312018.751555 kJ/mol
# GULP energy per Si atom -5571.763421 kJ/mol
# Density = 1.524887 g / cm^3
# Si number density = 15.283658 Si / 1000 Ang^3
#
#
#
# Elastic Constant Matrix: (Units=GPa)
#
#
# Indices 1 2 3 4 5 6 
#
# 1 151.5046 41.0852 77.7362 0.0000 0.0000 0.0000
# 2 41.0852 45.1015 37.4866 0.0000 0.0000 0.0000
# 3 77.7362 37.4866 80.7454 0.0000 0.0000 0.0000
# 4 0.0000 0.0000 0.0000 16.3464 0.0000 0.0000
# 5 0.0000 0.0000 0.0000 0.0000 28.1102 0.0000
# 6 0.0000 0.0000 0.0000 0.0000 0.0000 7.9706
#
#
#
# Elastic Compliance Matrix: (Units=1/GPa)
#
#
# Indices 1 2 3 4 5 6 
#
# 1 0.013199 -0.002381 -0.011602 0.000000 0.000000 0.000000
# 2 -0.002381 0.036533 -0.014669 0.000000 0.000000 0.000000
# 3 -0.011602 -0.014669 0.030364 0.000000 0.000000 0.000000
# 4 0.000000 0.000000 0.000000 0.061176 0.000000 0.000000
# 5 0.000000 0.000000 0.000000 0.000000 0.035574 0.000000
# 6 0.000000 0.000000 0.000000 0.000000 0.000000 0.125460
#
#
# Mechanical properties :
#
#
# Convention : Reuss Voigt Hill
#
# Bulk Modulus (GPa) = 43.87195 65.55193 54.71194
# Shear Modulus (GPa) = 13.61632 18.55500 16.08566
#
# Velocity S-wave (km/s) = 2.98805 3.48809 3.24771
# Velocity P-wave (km/s) = 6.37746 7.69452 7.06674
#
# Compressibility (1/GPa) = 0.02279361
#
# Stress axis : x y z
#
# Youngs Moduli (GPa) = 75.76442 27.37252 32.93366
#
# Poissons Ratio (x) = 0.06516 0.38209
# Poissons Ratio (y) = 0.18036 0.48310
# Poissons Ratio (z) = 0.87900 0.40152
#
# Static dielectric constant tensor:
#      x y z
#    x 1.531030 0.000000 0.000000 
#    y 0.000000 1.468010 0.000000 
#    z 0.000000 0.000000 1.509040 
# 
# From -- ./inp_files/6979.got.cif
#   From: 2010.05.17/outbox.cif.g08.bks.cpg/sg57_4_cif.got.tgz:6979.got - 2010.06.03 13:58:18.
