data_PCOD9434206
_publ_section_title
;
Structure prediction by ZEFSAII (Michael W. Deem and Ramdas Pophale) SiO2 
 PCOD9434206
Probable space group: P B C M
;
_chemical_formula_sum "Si O2"
_cell_formula_units_Z 64
_cell_length_a 19.365725
_cell_length_b 25.666791
_cell_length_c 8.633571
_cell_angle_alpha 90.000000
_cell_angle_beta 90.000000
_cell_angle_gamma 90.000000
_cell_volume 4291.368406
_symmetry_space_group_name_H-M "P B C M"
_symmetry_group_IT_number 57
_symmetry_cell_setting 'orthorhombic'
loop_
_space_group_symop_operation_xyz
x,y,z
-x,-y,1/2+z
x,1/2-y,-z
-x,1/2+y,1/2-z
-x,-y,-z
x,y,1/2-z
-x,1/2+y,z
x,1/2-y,1/2+z
loop_
_atom_site_type_symbol
_atom_site_label
_atom_site_fract_x
_atom_site_fract_y
_atom_site_fract_z
Si Si1 0.486905 0.584128 0.564532
Si Si2 0.606911 0.988635 0.935560
Si Si3 0.758872 0.990606 0.435826
Si Si4 0.556100 0.193826 0.435179
Si Si5 0.097024 0.457443 0.064023
Si Si6 0.191695 0.898449 0.064852
Si Si7 0.046814 0.568922 0.936816
Si Si8 0.282425 0.694336 0.064633
O O1 0.487750 0.587107 0.750000
O O2 0.422778 0.545996 0.518443
O O3 0.554452 0.553582 0.505917
O O4 0.480687 0.642000 0.497156
O O5 0.603949 0.985819 0.750000
O O6 0.684493 0.979725 0.992142
O O7 0.753578 0.987920 0.250000
O O8 0.823468 0.954194 0.489706
O O9 0.780648 0.048878 0.485786
O O10 0.532286 0.250000 0.500000
O O11 0.551504 0.195264 0.250000
O O12 0.637001 0.188009 0.480027
O O13 0.100268 0.455221 0.250000
O O14 0.032584 0.420935 0.014330
O O15 0.071169 0.514662 0.012742
O O16 0.198547 0.904265 0.250000
O O17 0.109949 0.892538 0.027409
O O18 0.236632 0.850898 0.006348
O O19 0.046390 0.562135 0.750000
O O20 0.278315 0.693453 0.250000
O O21 0.259510 0.750000 0.000000
#
# Coordination Sequence:
#
# PCOD9434206 Si02
#       8
#     8   8   8   8   8   8   8   8
#     4  10  20  33  48  65  87 115 147 182 219 262
#     4  10  20  32  46  64  88 118 149 182 221 265
#     4  10  18  27  41  61  85 113 145 178 212 253
#     4  10  20  33  49  67  87 113 145 181 220 260
#     4   8  14  24  37  54  78 107 137 169 202 237
#     4  10  18  27  41  60  83 112 145 178 212 252
#     4   8  14  24  37  54  77 106 138 169 201 237
#     4  10  20  32  45  61  83 110 141 177 214 251
#
# _framework density 14.913659000000001
#
# number of rings (size 3 to 8) (size 9 to 14) (size 15 to 20)
#    0.000    2.500    0.000    3.000    0.000    6.000 
#    0.000    0.000    0.000    0.000    0.000    0.000 
#    0.000    1.000    0.000    5.000    0.000    4.125 
#
# Total GULP energy -356335.125586 kJ/mol
# GULP energy per Si atom -5567.736337 kJ/mol
# Density = 1.487971 g / cm^3
# Si number density = 14.913659 Si / 1000 Ang^3
#
#
#
# Elastic Constant Matrix: (Units=GPa)
#
#
# Indices 1 2 3 4 5 6 
#
# 1 103.0388 34.2659 19.0170 0.0000 0.0000 0.0000
# 2 34.2659 73.4953 20.8873 0.0000 0.0000 0.0000
# 3 19.0170 20.8873 26.3514 0.0000 0.0000 0.0000
# 4 0.0000 0.0000 0.0000 20.9538 0.0000 0.0000
# 5 0.0000 0.0000 0.0000 0.0000 17.5079 0.0000
# 6 0.0000 0.0000 0.0000 0.0000 0.0000 18.3990
#
#
#
# Elastic Compliance Matrix: (Units=1/GPa)
#
#
# Indices 1 2 3 4 5 6 
#
# 1 0.012071 -0.004069 -0.005486 0.000000 0.000000 0.000000
# 2 -0.004069 0.018934 -0.012072 0.000000 0.000000 0.000000
# 3 -0.005486 -0.012072 0.051476 0.000000 0.000000 0.000000
# 4 0.000000 0.000000 0.000000 0.047724 0.000000 0.000000
# 5 0.000000 0.000000 0.000000 0.000000 0.057117 0.000000
# 6 0.000000 0.000000 0.000000 0.000000 0.000000 0.054351
#
#
# Mechanical properties :
#
#
# Convention : Reuss Voigt Hill
#
# Bulk Modulus (GPa) = 25.49186 39.02510 32.25848
# Shear Modulus (GPa) = 16.77841 19.95314 18.36578
#
# Velocity S-wave (km/s) = 3.35779 3.66171 3.51304
# Velocity P-wave (km/s) = 5.67125 6.64091 6.17514
#
# Compressibility (1/GPa) = 0.03922821
#
# Stress axis : x y z
#
# Youngs Moduli (GPa) = 82.84575 52.81502 19.42636
#
# Poissons Ratio (x) = 0.21488 0.10657
# Poissons Ratio (y) = 0.33706 0.23451
# Poissons Ratio (z) = 0.45450 0.63757
#
# Static dielectric constant tensor:
#      x y z
#    x 1.537060 0.000000 0.000000 
#    y 0.000000 1.464170 0.000000 
#    z 0.000000 0.000000 1.502410 
# 
# From -- ./inp_files/7266.got.cif
#   From: 2010.05.17/outbox.cif.g08.bks.cpg/sg57_4_cif.got.tgz:7266.got - 2010.06.03 13:58:18.
