data_PCOD9434194
_publ_section_title
;
Structure prediction by ZEFSAII (Michael W. Deem and Ramdas Pophale) SiO2 
 PCOD9434194
Probable space group: P B C M
;
_chemical_formula_sum "Si O2"
_cell_formula_units_Z 56
_cell_length_a 18.259528
_cell_length_b 22.621743
_cell_length_c 9.037139
_cell_angle_alpha 90.000000
_cell_angle_beta 90.000000
_cell_angle_gamma 90.000000
_cell_volume 3732.901870
_symmetry_space_group_name_H-M "P B C M"
_symmetry_group_IT_number 57
_symmetry_cell_setting 'orthorhombic'
loop_
_space_group_symop_operation_xyz
x,y,z
-x,-y,1/2+z
x,1/2-y,-z
-x,1/2+y,1/2-z
-x,-y,-z
x,y,1/2-z
-x,1/2+y,z
x,1/2-y,1/2+z
loop_
_atom_site_type_symbol
_atom_site_label
_atom_site_fract_x
_atom_site_fract_y
_atom_site_fract_z
Si Si1 0.170044 0.464424 0.926131
Si Si2 0.870387 0.398320 0.426036
Si Si3 0.974240 0.938516 0.426974
Si Si4 0.322844 0.032926 0.926658
Si Si5 0.621078 0.099851 0.072969
Si Si6 0.481219 0.063099 0.926830
Si Si7 0.753548 0.314046 0.572987
O O1 0.165423 0.457637 0.750000
O O2 0.155339 0.534286 0.959760
O O3 0.105253 0.427595 0.004090
O O4 0.250110 0.449784 0.987087
O O5 0.859853 0.389520 0.250000
O O6 0.821666 0.352622 0.515392
O O7 0.957476 0.395165 0.457570
O O8 0.969058 0.945350 0.250000
O O9 0.000000 0.000000 0.500000
O O10 0.309527 0.034867 0.750000
O O11 0.395200 0.071809 0.959794
O O12 0.344254 0.964674 0.963590
O O13 0.609505 0.100107 0.250000
O O14 0.679962 0.149534 0.033378
O O15 0.543111 0.105688 0.992349
O O16 0.488483 0.058896 0.750000
O O17 0.500000 0.000000 0.000000
O O18 0.753596 0.250000 0.500000
O O19 0.756477 0.309319 0.750000
#
# Coordination Sequence:
#
# PCOD9434194 Si02
#       7
#     8   8   8   8   8   8   8
#     4  10  18  26  41  65  89 117 149 178 214 260
#     4   9  18  31  44  61  84 113 149 184 221 261
#     4   9  17  28  42  61  85 113 145 179 216 261
#     4   9  16  27  41  61  88 116 147 178 215 260
#     4   9  18  31  44  60  83 114 148 183 225 263
#     4   9  17  27  41  61  84 113 146 179 217 262
#     4  11  22  34  48  65  86 115 152 192 228 263
#
# _framework density 15.001734000000001
#
# number of rings (size 3 to 8) (size 9 to 14) (size 15 to 20)
#    0.000    2.571    1.429    3.429    0.000    6.857 
#    0.000    0.000    0.000    0.000    0.000    0.000 
#    0.000    1.143    0.000    8.000    0.000    5.857 
#
# Total GULP energy -311867.090000 kJ/mol
# GULP energy per Si atom -5569.055179 kJ/mol
# Density = 1.496759 g / cm^3
# Si number density = 15.001734 Si / 1000 Ang^3
#
#
#
# Elastic Constant Matrix: (Units=GPa)
#
#
# Indices 1 2 3 4 5 6 
#
# 1 166.4454 43.0890 70.2623 0.0000 0.0000 0.0000
# 2 43.0890 45.2077 29.9613 0.0000 0.0000 0.0000
# 3 70.2623 29.9613 52.2129 0.0000 0.0000 0.0000
# 4 0.0000 0.0000 0.0000 15.2975 0.0000 0.0000
# 5 0.0000 0.0000 0.0000 0.0000 32.1753 0.0000
# 6 0.0000 0.0000 0.0000 0.0000 0.0000 10.5370
#
#
#
# Elastic Compliance Matrix: (Units=1/GPa)
#
#
# Indices 1 2 3 4 5 6 
#
# 1 0.013963 -0.001381 -0.017997 0.000000 0.000000 0.000000
# 2 -0.001381 0.035832 -0.018703 0.000000 0.000000 0.000000
# 3 -0.017997 -0.018703 0.054103 0.000000 0.000000 0.000000
# 4 0.000000 0.000000 0.000000 0.065370 0.000000 0.000000
# 5 0.000000 0.000000 0.000000 0.000000 0.031080 0.000000
# 6 0.000000 0.000000 0.000000 0.000000 0.000000 0.094904
#
#
# Mechanical properties :
#
#
# Convention : Reuss Voigt Hill
#
# Bulk Modulus (GPa) = 36.05486 61.16571 48.61028
# Shear Modulus (GPa) = 13.13513 19.63883 16.38698
#
# Velocity S-wave (km/s) = 2.96222 3.62208 3.30864
# Velocity P-wave (km/s) = 5.98211 7.63895 6.86073
#
# Compressibility (1/GPa) = 0.02773552
#
# Stress axis : x y z
#
# Youngs Moduli (GPa) = 71.62019 27.90825 18.48321
#
# Poissons Ratio (x) = 0.03853 0.33264
# Poissons Ratio (y) = 0.09889 0.34570
# Poissons Ratio (z) = 1.28894 0.52198
#
# Static dielectric constant tensor:
#      x y z
#    x 1.540930 0.000000 0.000000 
#    y 0.000000 1.462590 0.000000 
#    z 0.000000 0.000000 1.495220 
# 
# From -- ./inp_files/7061.got.cif
#   From: 2010.05.17/outbox.cif.g08.bks.cpg/sg57_4_cif.got.tgz:7061.got - 2010.06.03 13:58:18.
