data_PCOD9434809
_publ_section_title
;
Structure prediction by ZEFSAII (Michael W. Deem and Ramdas Pophale) SiO2 
 PCOD9434809
Probable space group: P B C M
;
_chemical_formula_sum "Si O2"
_cell_formula_units_Z 36
_cell_length_a 20.152371
_cell_length_b 8.590377
_cell_length_c 9.975271
_cell_angle_alpha 90.000000
_cell_angle_beta 90.000000
_cell_angle_gamma 90.000000
_cell_volume 1726.883646
_symmetry_space_group_name_H-M "P B C M"
_symmetry_group_IT_number 57
_symmetry_cell_setting 'orthorhombic'
loop_
_space_group_symop_operation_xyz
x,y,z
-x,-y,1/2+z
x,1/2-y,-z
-x,1/2+y,1/2-z
-x,-y,-z
x,y,1/2-z
-x,1/2+y,z
x,1/2-y,1/2+z
loop_
_atom_site_type_symbol
_atom_site_label
_atom_site_fract_x
_atom_site_fract_y
_atom_site_fract_z
Si Si1 0.097181 0.984898 0.396029
Si Si2 0.553526 0.619583 0.750000
Si Si3 0.651714 0.563380 0.977414
Si Si4 0.992552 0.750000 0.000000
Si Si5 0.409009 0.011563 0.250000
Si Si6 0.798058 0.592862 0.592319
O O1 0.129925 0.976878 0.250000
O O2 0.041383 0.854346 0.411998
O O3 0.055371 0.143329 0.411893
O O4 0.148426 0.983359 0.519379
O O5 0.590528 0.543527 0.876824
O O6 0.568976 0.804959 0.750000
O O7 0.475931 0.587410 0.750000
O O8 0.723799 0.523929 0.919835
O O9 0.654884 0.750000 0.000000
O O10 0.634414 0.485797 0.117922
O O11 0.799609 0.750000 0.500000
O O12 0.811946 0.622775 0.750000
#
# Coordination Sequence:
#
# PCOD9434809 Si02
#       6
#     8   4   8   4   4   8
#     4  11  23  40  67  93 125 164 205 250 306 363
#     4  10  18  36  54  86 110 151 183 242 288 349
#     4   9  19  33  54  82 116 149 193 242 288 347
#     4  10  24  42  62  96 130 156 202 254 304 362
#     4  10  20  32  60  82 114 145 195 236 296 345
#     4  11  22  36  59  89 120 159 206 253 301 358
#
# _framework density 20.846800999999999
#
# number of rings (size 3 to 8) (size 9 to 14) (size 15 to 20)
#    0.000    1.778    2.222    2.000    6.222    4.444 
#    0.000    0.000    4.889    0.000    0.000    0.000 
#    0.000    0.000    0.000    0.000    0.000    0.000 
#
# Total GULP energy -200960.429848 kJ/mol
# GULP energy per Si atom -5582.234162 kJ/mol
# Density = 2.079935 g / cm^3
# Si number density = 20.846801 Si / 1000 Ang^3
#
#
#
# Elastic Constant Matrix: (Units=GPa)
#
#
# Indices 1 2 3 4 5 6 
#
# 1 103.1114 6.0213 41.4532 0.0000 0.0000 0.0000
# 2 6.0213 18.8307 7.1478 0.0000 0.0000 0.0000
# 3 41.4532 7.1478 169.0818 0.0000 0.0000 0.0000
# 4 0.0000 0.0000 0.0000 -4.7396 0.0000 0.0000
# 5 0.0000 0.0000 0.0000 0.0000 34.2783 0.0000
# 6 0.0000 0.0000 0.0000 0.0000 0.0000 17.3356
#
#
#
# Elastic Compliance Matrix: (Units=1/GPa)
#
#
# Indices 1 2 3 4 5 6 
#
# 1 0.010874 -0.002505 -0.002560 0.000000 0.000000 0.000000
# 2 -0.002505 0.054548 -0.001692 0.000000 0.000000 0.000000
# 3 -0.002560 -0.001692 0.006613 0.000000 0.000000 0.000000
# 4 0.000000 0.000000 0.000000 -0.210990 0.000000 0.000000
# 5 0.000000 0.000000 0.000000 0.000000 0.029173 0.000000
# 6 0.000000 0.000000 0.000000 0.000000 0.000000 0.057685
#
#
# Mechanical properties :
#
#
# Convention : Reuss Voigt Hill
#
# Bulk Modulus (GPa) = 17.08787 44.47428 30.78107
# Shear Modulus (GPa) = -262.10708 25.13498 -118.48605
#
# Velocity S-wave (km/s) = -11.22511 3.47609 -7.54718
# Velocity P-wave (km/s) = 12.64078 6.12300 7.81979
#
# Compressibility (1/GPa) = 0.05852105
#
# Stress axis : x y z
#
# Youngs Moduli (GPa) = 91.96490 18.33252 151.20736
#
# Poissons Ratio (x) = 0.04593 0.38709
# Poissons Ratio (y) = 0.23040 0.25580
# Poissons Ratio (z) = 0.23543 0.03101
#
# Static dielectric constant tensor:
#      x y z
#    x 1.723590 0.000000 0.000000 
#    y 0.000000 1.772320 0.000000 
#    z 0.000000 0.000000 1.766130 
# 
# From -- ./inp_files/7695.got.cif
#   From: 2010.05.17/outbox.cif.g08.bks.cpg/sg57_4_cif.got.tgz:7695.got - 2010.06.03 13:58:18.
