data_PCOD9434957
_publ_section_title
;
Structure prediction by ZEFSAII (Michael W. Deem and Ramdas Pophale) SiO2 
 PCOD9434957
Probable space group: P B C M
;
_chemical_formula_sum "Si O2"
_cell_formula_units_Z 64
_cell_length_a 29.899153
_cell_length_b 14.359054
_cell_length_c 8.683112
_cell_angle_alpha 90.000000
_cell_angle_beta 90.000000
_cell_angle_gamma 90.000000
_cell_volume 3727.864490
_symmetry_space_group_name_H-M "P B C M"
_symmetry_group_IT_number 57
_symmetry_cell_setting 'orthorhombic'
loop_
_space_group_symop_operation_xyz
x,y,z
-x,-y,1/2+z
x,1/2-y,-z
-x,1/2+y,1/2-z
-x,-y,-z
x,y,1/2-z
-x,1/2+y,z
x,1/2-y,1/2+z
loop_
_atom_site_type_symbol
_atom_site_label
_atom_site_fract_x
_atom_site_fract_y
_atom_site_fract_z
Si Si1 0.846840 0.647747 0.064261
Si Si2 0.575769 0.854585 0.434473
Si Si3 0.982337 0.352456 0.434545
Si Si4 0.664441 0.968869 0.064124
Si Si5 0.484075 0.644296 0.065218
Si Si6 0.615331 0.146957 0.064701
Si Si7 0.744789 0.647734 0.065672
Si Si8 0.066827 0.461845 0.563922
O O1 0.847429 0.652640 0.250000
O O2 0.795878 0.625573 0.016845
O O3 0.884303 0.573642 0.015999
O O4 0.858086 0.750000 0.000000
O O5 0.578967 0.750000 0.500000
O O6 0.573280 0.851552 0.250000
O O7 0.620617 0.908735 0.479015
O O8 0.529165 0.897992 0.494977
O O9 0.973570 0.250000 0.500000
O O10 0.983687 0.347366 0.250000
O O11 0.946561 0.432696 0.480081
O O12 0.029524 0.392760 0.495270
O O13 0.667827 0.966292 0.250000
O O14 0.652724 0.073796 0.014917
O O15 0.708683 0.925202 0.993854
O O16 0.488061 0.645088 0.250000
O O17 0.434464 0.609394 0.023551
O O18 0.483690 0.750000 0.000000
O O19 0.615933 0.152108 0.250000
O O20 0.621083 0.250000 0.000000
O O21 0.743395 0.651846 0.250000
O O22 0.733791 0.750000 0.000000
O O23 0.063997 0.456487 0.750000
#
# Coordination Sequence:
#
# PCOD9434957 Si02
#       8
#     8   8   8   8   8   8   8   8
#     4   9  18  32  50  73  99 127 160 199 241 284
#     4  10  19  30  45  66  94 125 152 182 222 272
#     4  10  19  30  46  70 102 137 171 208 247 288
#     4  10  21  35  50  70  97 125 154 192 237 283
#     4   9  16  28  46  66  90 119 150 185 224 268
#     4   9  19  35  52  70  92 119 153 194 236 277
#     4  10  20  34  53  76 100 126 157 194 239 289
#     4   9  18  32  49  70  98 133 171 209 247 287
#
# _framework density 17.168006999999999
#
# number of rings (size 3 to 8) (size 9 to 14) (size 15 to 20)
#    0.000    2.500    0.000    3.000    0.000    6.000 
#    0.000    0.000    0.000    0.750    0.000    3.500 
#    0.000    0.000    0.000    0.000    0.000    0.000 
#
# Total GULP energy -356932.332919 kJ/mol
# GULP energy per Si atom -5577.067702 kJ/mol
# Density = 1.712893 g / cm^3
# Si number density = 17.168007 Si / 1000 Ang^3
#
#
#
# Elastic Constant Matrix: (Units=GPa)
#
#
# Indices 1 2 3 4 5 6 
#
# 1 124.4275 86.2814 30.6664 0.0000 0.0000 0.0000
# 2 86.2814 126.1117 28.6801 0.0000 0.0000 0.0000
# 3 30.6664 28.6801 25.1448 0.0000 0.0000 0.0000
# 4 0.0000 0.0000 0.0000 18.4676 0.0000 0.0000
# 5 0.0000 0.0000 0.0000 0.0000 25.3053 0.0000
# 6 0.0000 0.0000 0.0000 0.0000 0.0000 30.6512
#
#
#
# Elastic Compliance Matrix: (Units=1/GPa)
#
#
# Indices 1 2 3 4 5 6 
#
# 1 0.016993 -0.009334 -0.010078 0.000000 0.000000 0.000000
# 2 -0.009334 0.015834 -0.006676 0.000000 0.000000 0.000000
# 3 -0.010078 -0.006676 0.059676 0.000000 0.000000 0.000000
# 4 0.000000 0.000000 0.000000 0.054149 0.000000 0.000000
# 5 0.000000 0.000000 0.000000 0.000000 0.039517 0.000000
# 6 0.000000 0.000000 0.000000 0.000000 0.000000 0.032625
#
#
# Mechanical properties :
#
#
# Convention : Reuss Voigt Hill
#
# Bulk Modulus (GPa) = 24.79813 62.99332 43.89572
# Shear Modulus (GPa) = 17.58003 23.55524 20.56763
#
# Velocity S-wave (km/s) = 3.20347 3.70813 3.46500
# Velocity P-wave (km/s) = 5.30648 7.42331 6.45230
#
# Compressibility (1/GPa) = 0.04032562
#
# Stress axis : x y z
#
# Youngs Moduli (GPa) = 58.84664 63.15545 16.75725
#
# Poissons Ratio (x) = 0.58951 0.16888
# Poissons Ratio (y) = 0.54929 0.11187
# Poissons Ratio (z) = 0.59307 0.42163
#
# Static dielectric constant tensor:
#      x y z
#    x 1.590990 0.000000 0.000000 
#    y 0.000000 1.569730 0.000000 
#    z 0.000000 0.000000 1.574710 
# 
# From -- ./inp_files/10349.got.cif
#   From: 2010.05.17/outbox.cif.g08.bks.cpg/sg57_6_cif.got.tgz:10349.got - 2010.06.03 13:58:18.
