data_PCOD9434642
_publ_section_title
;
Structure prediction by ZEFSAII (Michael W. Deem and Ramdas Pophale) SiO2 
 PCOD9434642
Probable space group: P B C M
;
_chemical_formula_sum "Si O2"
_cell_formula_units_Z 64
_cell_length_a 12.184884
_cell_length_b 32.236081
_cell_length_c 7.740120
_cell_angle_alpha 90.000000
_cell_angle_beta 90.000000
_cell_angle_gamma 90.000000
_cell_volume 3040.264240
_symmetry_space_group_name_H-M "P B C M"
_symmetry_group_IT_number 57
_symmetry_cell_setting 'orthorhombic'
loop_
_space_group_symop_operation_xyz
x,y,z
-x,-y,1/2+z
x,1/2-y,-z
-x,1/2+y,1/2-z
-x,-y,-z
x,y,1/2-z
-x,1/2+y,z
x,1/2-y,1/2+z
loop_
_atom_site_type_symbol
_atom_site_label
_atom_site_fract_x
_atom_site_fract_y
_atom_site_fract_z
Si Si1 0.266133 0.203308 0.957710
Si Si2 0.501835 0.326637 0.456807
Si Si3 0.866902 0.375955 0.957109
Si Si4 0.731700 0.548461 0.961657
Si Si5 0.738574 0.204169 0.454411
Si Si6 0.877885 0.626081 0.541194
Si Si7 0.490428 0.577965 0.959458
Si Si8 0.256505 0.543149 0.453747
O O1 0.269013 0.200100 0.750000
O O2 0.389514 0.193750 0.023325
O O3 0.184178 0.167538 0.020789
O O4 0.232947 0.250000 0.000000
O O5 0.491430 0.329119 0.250000
O O6 0.611661 0.301564 0.495179
O O7 0.514486 0.374078 0.518907
O O8 0.849609 0.376277 0.750000
O O9 0.807501 0.334591 0.027499
O O10 0.811140 0.417989 0.027558
O O11 0.995834 0.374949 0.989876
O O12 0.732358 0.548266 0.750000
O O13 0.811514 0.585415 0.018096
O O14 0.606718 0.558745 0.012850
O O15 0.765246 0.502813 0.024134
O O16 0.778892 0.250000 0.500000
O O17 0.743790 0.201178 0.250000
O O18 0.872976 0.626148 0.750000
O O19 0.486253 0.577557 0.750000
O O20 0.384974 0.553557 0.025750
O O21 0.231154 0.541190 0.250000
#
# Coordination Sequence:
#
# PCOD9434642 Si02
#       8
#     8   8   8   8   8   8   8   8
#     4  10  21  37  57  83 113 143 179 224 275 328
#     4  10  19  34  58  85 115 146 179 222 273 330
#     4  10  23  40  55  78 112 146 182 232 281 319
#     4   9  18  35  59  84 112 147 182 223 276 330
#     4  11  23  39  58  82 114 147 184 226 276 331
#     4  10  21  39  60  80 105 145 192 230 270 326
#     4  10  18  32  57  86 115 145 181 223 270 328
#     4  10  20  36  57  82 115 149 181 222 278 332
#
# _framework density 21.050802999999998
#
# number of rings (size 3 to 8) (size 9 to 14) (size 15 to 20)
#    0.000    2.000    2.500    1.125    0.000    4.500 
#    0.000    3.750    0.000    0.000    0.000    0.000 
#    0.000    0.000    0.000    0.000    0.000    0.000 
#
# Total GULP energy -357558.632965 kJ/mol
# GULP energy per Si atom -5586.853640 kJ/mol
# Density = 2.100289 g / cm^3
# Si number density = 21.050803 Si / 1000 Ang^3
#
#
#
# Elastic Constant Matrix: (Units=GPa)
#
#
# Indices 1 2 3 4 5 6 
#
# 1 136.1791 87.8227 -9.9422 0.0000 0.0000 0.0000
# 2 87.8227 216.2147 4.8937 0.0000 0.0000 0.0000
# 3 -9.9422 4.8937 27.9101 0.0000 0.0000 0.0000
# 4 0.0000 0.0000 0.0000 11.3795 0.0000 0.0000
# 5 0.0000 0.0000 0.0000 0.0000 27.1626 0.0000
# 6 0.0000 0.0000 0.0000 0.0000 0.0000 5.0715
#
#
#
# Elastic Compliance Matrix: (Units=1/GPa)
#
#
# Indices 1 2 3 4 5 6 
#
# 1 0.010484 -0.004360 0.004499 0.000000 0.000000 0.000000
# 2 -0.004360 0.006457 -0.002685 0.000000 0.000000 0.000000
# 3 0.004499 -0.002685 0.037903 0.000000 0.000000 0.000000
# 4 0.000000 0.000000 0.000000 0.087877 0.000000 0.000000
# 5 0.000000 0.000000 0.000000 0.000000 0.036815 0.000000
# 6 0.000000 0.000000 0.000000 0.000000 0.000000 0.197179
#
#
# Mechanical properties :
#
#
# Convention : Reuss Voigt Hill
#
# Bulk Modulus (GPa) = 20.10033 60.65026 40.37529
# Shear Modulus (GPa) = 12.55050 28.55805 20.55427
#
# Velocity S-wave (km/s) = 2.44437 3.68723 3.12815
# Velocity P-wave (km/s) = 4.18758 6.85577 5.68055
#
# Compressibility (1/GPa) = 0.04975042
#
# Stress axis : x y z
#
# Youngs Moduli (GPa) = 95.38740 154.87563 26.38326
#
# Poissons Ratio (x) = 0.67527 -0.11870
# Poissons Ratio (y) = 0.41590 0.07085
# Poissons Ratio (z) = -0.42914 0.41588
#
# Static dielectric constant tensor:
#      x y z
#    x 1.709780 0.000000 0.000000 
#    y 0.000000 1.772480 0.000000 
#    z 0.000000 0.000000 1.787960 
# 
# From -- ./inp_files/3916.got.cif
#   From: 2010.05.17/outbox.cif.g08.bks.cpg/sg57_2_cif.got.tgz:3916.got - 2010.06.03 13:58:18.
