data_PCOD9434104
_publ_section_title
;
Structure prediction by ZEFSAII (Michael W. Deem and Ramdas Pophale) SiO2 
 PCOD9434104
Probable space group: P B C M
;
_chemical_formula_sum "Si O2"
_cell_formula_units_Z 60
_cell_length_a 10.667528
_cell_length_b 14.687648
_cell_length_c 14.314990
_cell_angle_alpha 90.000000
_cell_angle_beta 90.000000
_cell_angle_gamma 90.000000
_cell_volume 2242.885464
_symmetry_space_group_name_H-M "P B C M"
_symmetry_group_IT_number 57
_symmetry_cell_setting 'orthorhombic'
loop_
_space_group_symop_operation_xyz
x,y,z
-x,-y,1/2+z
x,1/2-y,-z
-x,1/2+y,1/2-z
-x,-y,-z
x,y,1/2-z
-x,1/2+y,z
x,1/2-y,1/2+z
loop_
_atom_site_type_symbol
_atom_site_label
_atom_site_fract_x
_atom_site_fract_y
_atom_site_fract_z
Si Si1 0.721326 0.750000 0.500000
Si Si2 0.373985 0.679560 0.365701
Si Si3 0.453230 0.033320 0.357615
Si Si4 0.698985 0.595691 0.642148
Si Si5 0.680624 0.128091 0.855986
Si Si6 0.058726 0.827754 0.080981
Si Si7 0.105628 0.178129 0.350063
Si Si8 0.875723 0.436037 0.584023
O O1 0.670354 0.683080 0.579241
O O2 0.804393 0.822583 0.561276
O O3 0.368581 0.676754 0.250000
O O4 0.497217 0.626402 0.399607
O O5 0.381117 0.783028 0.398144
O O6 0.247031 0.630006 0.400435
O O7 0.420610 0.054353 0.250000
O O8 0.577680 0.970401 0.360922
O O9 0.347127 0.969373 0.401519
O O10 0.715393 0.621636 0.750000
O O11 0.818648 0.533692 0.611004
O O12 0.633395 0.119667 0.750000
O O13 0.823330 0.157974 0.853759
O O14 0.950007 0.781111 0.140039
O O15 0.075074 0.750000 0.000000
O O16 0.069510 0.919092 0.019850
O O17 0.167622 0.165509 0.250000
O O18 0.989972 0.107117 0.356195
#
# Coordination Sequence:
#
# PCOD9434104 Si02
#       8
#     4   8   8   8   8   8   8   8
#     4  12  24  40  58  88 112 146 194 250 294 350
#     4   9  15  27  51  78 106 147 194 233 278 335
#     4   8  17  33  52  79 110 150 205 243 276 347
#     4  10  22  42  63  81 113 158 201 243 290 346
#     4  10  17  29  53  80 112 155 195 239 294 342
#     4  10  18  31  51  86 120 143 182 238 288 345
#     4  11  20  36  59  87 121 151 182 233 299 349
#     4  10  18  35  58  85 113 149 192 239 282 351
#
# _framework density 26.751256000000001
#
# number of rings (size 3 to 8) (size 9 to 14) (size 15 to 20)
#    0.000    2.133    4.667    2.800    0.000    0.533 
#    1.200    4.000    0.000    4.000    0.000    0.000 
#    0.000    0.000    0.000    0.000    0.000    0.000 
#
# Total GULP energy -335191.719411 kJ/mol
# GULP energy per Si atom -5586.528657 kJ/mol
# Density = 2.669037 g / cm^3
# Si number density = 26.751256 Si / 1000 Ang^3
#
#
#
# Elastic Constant Matrix: (Units=GPa)
#
#
# Indices 1 2 3 4 5 6 
#
# 1 58.4608 9.4534 16.5197 0.0000 0.0000 0.0000
# 2 9.4534 117.7458 25.4975 0.0000 0.0000 0.0000
# 3 16.5197 25.4975 132.6563 0.0000 0.0000 0.0000
# 4 0.0000 0.0000 0.0000 21.8106 0.0000 0.0000
# 5 0.0000 0.0000 0.0000 0.0000 16.5786 0.0000
# 6 0.0000 0.0000 0.0000 0.0000 0.0000 45.0214
#
#
#
# Elastic Compliance Matrix: (Units=1/GPa)
#
#
# Indices 1 2 3 4 5 6 
#
# 1 0.017840 -0.000993 -0.002031 0.000000 0.000000 0.000000
# 2 -0.000993 0.008917 -0.001590 0.000000 0.000000 0.000000
# 3 -0.002031 -0.001590 0.008097 0.000000 0.000000 0.000000
# 4 0.000000 0.000000 0.000000 0.045849 0.000000 0.000000
# 5 0.000000 0.000000 0.000000 0.000000 0.060319 0.000000
# 6 0.000000 0.000000 0.000000 0.000000 0.000000 0.022212
#
#
# Mechanical properties :
#
#
# Convention : Reuss Voigt Hill
#
# Bulk Modulus (GPa) = 39.02240 45.75601 42.38921
# Shear Modulus (GPa) = 27.62392 33.84162 30.73277
#
# Velocity S-wave (km/s) = 3.21693 3.56061 3.39312
# Velocity P-wave (km/s) = 5.33076 5.83484 5.58848
#
# Compressibility (1/GPa) = 0.02562631
#
# Stress axis : x y z
#
# Youngs Moduli (GPa) = 56.05430 112.14618 123.50494
#
# Poissons Ratio (x) = 0.11131 0.25082
# Poissons Ratio (y) = 0.05564 0.19641
# Poissons Ratio (z) = 0.11384 0.17835
#
# Static dielectric constant tensor:
#      x y z
#    x 2.143340 0.000000 0.000000 
#    y 0.000000 2.134710 0.000000 
#    z 0.000000 0.000000 2.059180 
# 
# From -- ./inp_files/18656.got.cif
#   From: 2010.05.17/outbox.cif.g08.bks.cpg/sg57_10_cif.got.tgz:18656.got - 2010.06.03 13:58:18.
