data_PCOD9434838
_publ_section_title
;
Structure prediction by ZEFSAII (Michael W. Deem and Ramdas Pophale) SiO2 
 PCOD9434838
Probable space group: P B C M
;
_chemical_formula_sum "Si O2"
_cell_formula_units_Z 28
_cell_length_a 15.384015
_cell_length_b 9.503449
_cell_length_c 8.622364
_cell_angle_alpha 90.000000
_cell_angle_beta 90.000000
_cell_angle_gamma 90.000000
_cell_volume 1260.599981
_symmetry_space_group_name_H-M "P B C M"
_symmetry_group_IT_number 57
_symmetry_cell_setting 'orthorhombic'
loop_
_space_group_symop_operation_xyz
x,y,z
-x,-y,1/2+z
x,1/2-y,-z
-x,1/2+y,1/2-z
-x,-y,-z
x,y,1/2-z
-x,1/2+y,z
x,1/2-y,1/2+z
loop_
_atom_site_type_symbol
_atom_site_label
_atom_site_fract_x
_atom_site_fract_y
_atom_site_fract_z
Si Si1 0.494856 0.409678 0.250000
Si Si2 0.613517 0.175592 0.250000
Si Si3 0.921844 0.093209 0.435950
Si Si4 0.267895 0.486469 0.069690
Si Si5 0.619843 0.750000 0.000000
O O1 0.588622 0.337993 0.250000
O O2 0.473622 0.575220 0.250000
O O3 0.444115 0.339353 0.392562
O O4 0.670231 0.120140 0.394887
O O5 0.929009 0.250000 0.500000
O O6 0.924811 0.096208 0.250000
O O7 0.827573 0.030524 0.479679
O O8 0.000000 0.000000 0.500000
O O9 0.263281 0.424850 0.250000
O O10 0.313448 0.375316 0.956974
#
# Coordination Sequence:
#
# PCOD9434838 Si02
#       5
#     4   4   8   8   4
#     4  10  20  34  58  83 119 156 214 247 315 366
#     4   8  18  40  54  87 121 162 198 271 303 378
#     4  11  24  46  68  98 131 168 217 267 330 394
#     4   8  19  39  58  83 128 158 200 265 313 371
#     4  10  18  38  56  88 116 164 212 248 312 388
#
# _framework density 22.211645999999998
#
# number of rings (size 3 to 8) (size 9 to 14) (size 15 to 20)
#    0.857    1.714    1.429    0.857    2.000    4.571 
#   12.857    0.000    0.000    0.000    0.000    0.000 
#    0.000    0.000    0.000    0.000    0.000    0.000 
#
# Total GULP energy -156065.542229 kJ/mol
# GULP energy per Si atom -5573.769365 kJ/mol
# Density = 2.216109 g / cm^3
# Si number density = 22.211646 Si / 1000 Ang^3
#
#
#
# Elastic Constant Matrix: (Units=GPa)
#
#
# Indices 1 2 3 4 5 6 
#
# 1 114.3254 36.4846 -6.7984 0.0000 0.0000 0.0000
# 2 36.4846 68.3356 5.5593 0.0000 0.0000 0.0000
# 3 -6.7984 5.5593 30.1116 0.0000 0.0000 0.0000
# 4 0.0000 0.0000 0.0000 30.3269 0.0000 0.0000
# 5 0.0000 0.0000 0.0000 0.0000 8.3588 0.0000
# 6 0.0000 0.0000 0.0000 0.0000 0.0000 38.0172
#
#
#
# Elastic Compliance Matrix: (Units=1/GPa)
#
#
# Indices 1 2 3 4 5 6 
#
# 1 0.010913 -0.006119 0.003594 0.000000 0.000000 0.000000
# 2 -0.006119 0.018288 -0.004758 0.000000 0.000000 0.000000
# 3 0.003594 -0.004758 0.034900 0.000000 0.000000 0.000000
# 4 0.000000 0.000000 0.000000 0.032974 0.000000 0.000000
# 5 0.000000 0.000000 0.000000 0.000000 0.119635 0.000000
# 6 0.000000 0.000000 0.000000 0.000000 0.000000 0.026304
#
#
# Mechanical properties :
#
#
# Convention : Reuss Voigt Hill
#
# Bulk Modulus (GPa) = 20.18808 31.47375 25.83091
# Shear Modulus (GPa) = 18.24210 27.17573 22.70891
#
# Velocity S-wave (km/s) = 2.86892 3.50164 3.20095
# Velocity P-wave (km/s) = 4.48140 5.52714 5.03151
#
# Compressibility (1/GPa) = 0.04953418
#
# Stress axis : x y z
#
# Youngs Moduli (GPa) = 91.63015 54.68153 28.65368
#
# Poissons Ratio (x) = 0.33460 -0.10297
# Poissons Ratio (y) = 0.56069 0.13633
# Poissons Ratio (z) = -0.32929 0.26017
#
# Static dielectric constant tensor:
#      x y z
#    x 1.829520 0.000000 0.000000 
#    y 0.000000 1.797970 0.000000 
#    z 0.000000 0.000000 1.910690 
# 
# From -- ./inp_files/6176.got.cif
#   From: 2010.05.17/outbox.cif.g08.bks.cpg/sg57_4_cif.got.tgz:6176.got - 2010.06.03 13:58:18.
