data_PCOD9434950
_publ_section_title
;
Structure prediction by ZEFSAII (Michael W. Deem and Ramdas Pophale) SiO2 
 PCOD9434950
Probable space group: P B C M
;
_chemical_formula_sum "Si O2"
_cell_formula_units_Z 64
_cell_length_a 32.525004
_cell_length_b 14.351318
_cell_length_c 8.624927
_cell_angle_alpha 90.000000
_cell_angle_beta 90.000000
_cell_angle_gamma 90.000000
_cell_volume 4025.914750
_symmetry_space_group_name_H-M "P B C M"
_symmetry_group_IT_number 57
_symmetry_cell_setting 'orthorhombic'
loop_
_space_group_symop_operation_xyz
x,y,z
-x,-y,1/2+z
x,1/2-y,-z
-x,1/2+y,1/2-z
-x,-y,-z
x,y,1/2-z
-x,1/2+y,z
x,1/2-y,1/2+z
loop_
_atom_site_type_symbol
_atom_site_label
_atom_site_fract_x
_atom_site_fract_y
_atom_site_fract_z
Si Si1 0.480526 0.645935 0.064442
Si Si2 0.562159 0.967930 0.562712
Si Si3 0.641927 0.855220 0.562940
Si Si4 0.105017 0.469383 0.936018
Si Si5 0.932710 0.353666 0.936150
Si Si6 0.181701 0.355455 0.065354
Si Si7 0.025498 0.353631 0.563176
Si Si8 0.732835 0.644591 0.435960
O O1 0.479140 0.649504 0.250000
O O2 0.524798 0.601629 0.017777
O O3 0.475456 0.750000 0.000000
O O4 0.447849 0.569649 0.004434
O O5 0.562144 0.974512 0.750000
O O6 0.604933 0.921737 0.511463
O O7 0.636977 0.750000 0.500000
O O8 0.640412 0.849138 0.750000
O O9 0.687549 0.892712 0.521682
O O10 0.106994 0.466304 0.750000
O O11 0.063235 0.416987 0.988871
O O12 0.099513 0.574231 0.994364
O O13 0.144133 0.416888 0.004819
O O14 0.930906 0.353792 0.750000
O O15 0.979404 0.382561 0.985179
O O16 0.926512 0.250000 0.000000
O O17 0.181568 0.350398 0.250000
O O18 0.177529 0.250000 0.000000
O O19 0.225525 0.395865 0.007492
O O20 0.032066 0.250000 0.500000
O O21 0.025851 0.351429 0.750000
O O22 0.731911 0.750000 0.500000
O O23 0.736655 0.645500 0.250000
#
# Coordination Sequence:
#
# PCOD9434950 Si02
#       8
#     8   8   8   8   8   8   8   8
#     4  10  19  30  45  64  90 125 160 196 236 275
#     4   9  18  31  45  65  92 122 158 196 233 275
#     4   9  17  28  45  68  94 123 154 190 230 272
#     4  11  21  33  49  71  95 123 157 192 228 270
#     4  10  20  35  51  69  92 121 155 193 232 270
#     4  11  21  33  48  69  97 127 155 187 227 275
#     4   9  19  32  48  69  95 124 154 187 225 267
#     4   9  16  28  45  66  92 122 152 183 225 275
#
# _framework density 15.897008
#
# number of rings (size 3 to 8) (size 9 to 14) (size 15 to 20)
#    0.000    2.250    0.000    4.500    0.000    4.000 
#    0.000    0.000    0.000    0.000    0.000    0.875 
#    0.000    2.000    0.000    0.000    0.000    0.000 
#
# Total GULP energy -356891.100519 kJ/mol
# GULP energy per Si atom -5576.423446 kJ/mol
# Density = 1.586083 g / cm^3
# Si number density = 15.897008 Si / 1000 Ang^3
#
#
#
# Elastic Constant Matrix: (Units=GPa)
#
#
# Indices 1 2 3 4 5 6 
#
# 1 135.6364 78.1390 43.5439 0.0000 0.0000 0.0000
# 2 78.1390 97.9513 30.0765 0.0000 0.0000 0.0000
# 3 43.5439 30.0765 52.8592 0.0000 0.0000 0.0000
# 4 0.0000 0.0000 0.0000 24.4183 0.0000 0.0000
# 5 0.0000 0.0000 0.0000 0.0000 19.4020 0.0000
# 6 0.0000 0.0000 0.0000 0.0000 0.0000 23.7659
#
#
#
# Elastic Compliance Matrix: (Units=1/GPa)
#
#
# Indices 1 2 3 4 5 6 
#
# 1 0.015494 -0.010228 -0.006944 0.000000 0.000000 0.000000
# 2 -0.010228 0.019122 -0.002455 0.000000 0.000000 0.000000
# 3 -0.006944 -0.002455 0.026035 0.000000 0.000000 0.000000
# 4 0.000000 0.000000 0.000000 0.040953 0.000000 0.000000
# 5 0.000000 0.000000 0.000000 0.000000 0.051541 0.000000
# 6 0.000000 0.000000 0.000000 0.000000 0.000000 0.042077
#
#
# Mechanical properties :
#
#
# Convention : Reuss Voigt Hill
#
# Bulk Modulus (GPa) = 46.73357 65.55177 56.14267
# Shear Modulus (GPa) = 20.69458 22.49639 21.59549
#
# Velocity S-wave (km/s) = 3.61195 3.76591 3.68973
# Velocity P-wave (km/s) = 6.84518 7.76107 7.31747
#
# Compressibility (1/GPa) = 0.02139790
#
# Stress axis : x y z
#
# Youngs Moduli (GPa) = 64.54021 52.29528 38.40945
#
# Poissons Ratio (x) = 0.53488 0.26672
# Poissons Ratio (y) = 0.66012 0.09429
# Poissons Ratio (z) = 0.44817 0.12838
#
# Static dielectric constant tensor:
#      x y z
#    x 1.560170 0.000000 0.000000 
#    y 0.000000 1.498930 0.000000 
#    z 0.000000 0.000000 1.529900 
# 
# From -- ./inp_files/10346.got.cif
#   From: 2010.05.17/outbox.cif.g08.bks.cpg/sg57_6_cif.got.tgz:10346.got - 2010.06.03 13:58:18.
