data_PCOD9434595
_publ_section_title
;
Structure prediction by ZEFSAII (Michael W. Deem and Ramdas Pophale) SiO2 
 PCOD9434595
Probable space group: P B C M
;
_chemical_formula_sum "Si O2"
_cell_formula_units_Z 36
_cell_length_a 9.560959
_cell_length_b 23.698106
_cell_length_c 8.992209
_cell_angle_alpha 90.000000
_cell_angle_beta 90.000000
_cell_angle_gamma 90.000000
_cell_volume 2037.424320
_symmetry_space_group_name_H-M "P B C M"
_symmetry_group_IT_number 57
_symmetry_cell_setting 'orthorhombic'
loop_
_space_group_symop_operation_xyz
x,y,z
-x,-y,1/2+z
x,1/2-y,-z
-x,1/2+y,1/2-z
-x,-y,-z
x,y,1/2-z
-x,1/2+y,z
x,1/2-y,1/2+z
loop_
_atom_site_type_symbol
_atom_site_label
_atom_site_fract_x
_atom_site_fract_y
_atom_site_fract_z
Si Si1 0.976127 0.750000 0.500000
Si Si2 0.995344 0.938341 0.430301
Si Si3 0.493600 0.310920 0.430176
Si Si4 0.799890 0.344321 0.078719
Si Si5 0.779617 0.854510 0.577686
O O1 0.870443 0.795761 0.573155
O O2 0.087335 0.706883 0.576039
O O3 0.993155 0.940404 0.250000
O O4 0.865462 0.902354 0.491313
O O5 0.126650 0.899998 0.483809
O O6 0.000000 0.000000 0.500000
O O7 0.468788 0.250000 0.500000
O O8 0.488639 0.308752 0.250000
O O9 0.648757 0.328816 0.484297
O O10 0.367344 0.347395 0.494676
O O11 0.772067 0.356942 0.250000
O O12 0.760518 0.869157 0.750000
#
# Coordination Sequence:
#
# PCOD9434595 Si02
#       5
#     4   8   8   8   8
#     4  10  18  32  52  82 114 148 184 230 276 336
#     4  10  21  40  62  84 111 145 192 241 287 334
#     4  11  21  35  54  81 117 152 184 223 277 335
#     4   9  19  34  54  80 112 148 183 229 279 333
#     4  11  22  35  56  84 116 151 189 230 281 336
#
# _framework density 17.669370000000001
#
# number of rings (size 3 to 8) (size 9 to 14) (size 15 to 20)
#    0.000    1.778    2.222    2.667    0.000    1.778 
#    0.000    4.444    0.000    0.000    0.000    0.000 
#    0.000    0.000    0.000    0.000    0.000    0.000 
#
# Total GULP energy -200417.801785 kJ/mol
# GULP energy per Si atom -5567.161161 kJ/mol
# Density = 1.762915 g / cm^3
# Si number density = 17.669370 Si / 1000 Ang^3
#
#
#
# Elastic Constant Matrix: (Units=GPa)
#
#
# Indices 1 2 3 4 5 6 
#
# 1 98.6492 14.8774 24.4404 0.0000 0.0000 0.0000
# 2 14.8774 99.1777 23.4806 0.0000 0.0000 0.0000
# 3 24.4404 23.4806 82.4191 0.0000 0.0000 0.0000
# 4 0.0000 0.0000 0.0000 22.1790 0.0000 0.0000
# 5 0.0000 0.0000 0.0000 0.0000 19.6692 0.0000
# 6 0.0000 0.0000 0.0000 0.0000 0.0000 18.3371
#
#
#
# Elastic Compliance Matrix: (Units=1/GPa)
#
#
# Indices 1 2 3 4 5 6 
#
# 1 0.011022 -0.000943 -0.003000 0.000000 0.000000 0.000000
# 2 -0.000943 0.010893 -0.002824 0.000000 0.000000 0.000000
# 3 -0.003000 -0.002824 0.013827 0.000000 0.000000 0.000000
# 4 0.000000 0.000000 0.000000 0.045088 0.000000 0.000000
# 5 0.000000 0.000000 0.000000 0.000000 0.050841 0.000000
# 6 0.000000 0.000000 0.000000 0.000000 0.000000 0.054534
#
#
# Mechanical properties :
#
#
# Convention : Reuss Voigt Hill
#
# Bulk Modulus (GPa) = 45.02668 45.09365 45.06017
# Shear Modulus (GPa) = 24.13807 26.53356 25.33582
#
# Velocity S-wave (km/s) = 3.70008 3.87934 3.79077
# Velocity P-wave (km/s) = 6.61758 6.75588 6.68709
#
# Compressibility (1/GPa) = 0.02220905
#
# Stress axis : x y z
#
# Youngs Moduli (GPa) = 90.72436 91.80292 72.32172
#
# Poissons Ratio (x) = 0.08659 0.21695
# Poissons Ratio (y) = 0.08557 0.20421
# Poissons Ratio (z) = 0.27216 0.25922
#
# Static dielectric constant tensor:
#      x y z
#    x 1.653040 0.000000 0.000000 
#    y 0.000000 1.638770 0.000000 
#    z 0.000000 0.000000 1.613340 
# 
# From -- ./inp_files/1341.got.cif
#   From: 2010.05.17/outbox.cif.g08.bks.cpg/sg57_1_cif.got.tgz:1341.got - 2010.06.03 13:58:18.
