data_PCOD9434334
_publ_section_title
;
Structure prediction by ZEFSAII (Michael W. Deem and Ramdas Pophale) SiO2 
 PCOD9434334
Probable space group: P B C M
;
_chemical_formula_sum "Si O2"
_cell_formula_units_Z 64
_cell_length_a 19.883571
_cell_length_b 24.045237
_cell_length_c 8.283980
_cell_angle_alpha 90.000000
_cell_angle_beta 90.000000
_cell_angle_gamma 90.000000
_cell_volume 3960.613725
_symmetry_space_group_name_H-M "P B C M"
_symmetry_group_IT_number 57
_symmetry_cell_setting 'orthorhombic'
loop_
_space_group_symop_operation_xyz
x,y,z
-x,-y,1/2+z
x,1/2-y,-z
-x,1/2+y,1/2-z
-x,-y,-z
x,y,1/2-z
-x,1/2+y,z
x,1/2-y,1/2+z
loop_
_atom_site_type_symbol
_atom_site_label
_atom_site_fract_x
_atom_site_fract_y
_atom_site_fract_z
Si Si1 0.749318 0.996947 0.555045
Si Si2 0.895651 0.022094 0.945117
Si Si3 0.112197 0.312724 0.444740
Si Si4 0.397643 0.977390 0.445050
Si Si5 0.023472 0.086259 0.554711
Si Si6 0.251796 0.130941 0.945646
Si Si7 0.478152 0.087487 0.057518
Si Si8 0.609622 0.812701 0.442197
O O1 0.749180 0.999117 0.750000
O O2 0.749294 0.932303 0.505598
O O3 0.818826 0.024556 0.497208
O O4 0.679415 0.024116 0.498951
O O5 0.894915 0.022974 0.750000
O O6 0.948536 0.069156 0.999994
O O7 0.927561 0.963444 0.999091
O O8 0.102573 0.250000 0.500000
O O9 0.112539 0.313508 0.250000
O O10 0.054510 0.355516 0.500898
O O11 0.184544 0.336876 0.498755
O O12 0.398611 0.977182 0.250000
O O13 0.446969 0.929110 0.504328
O O14 0.430608 0.036164 0.499823
O O15 0.023566 0.086358 0.750000
O O16 0.252105 0.129885 0.750000
O O17 0.319220 0.162072 0.003130
O O18 0.475093 0.088419 0.250000
O O19 0.448739 0.144928 0.993448
O O20 0.599851 0.750000 0.500000
O O21 0.613159 0.812144 0.250000
#
# Coordination Sequence:
#
# PCOD9434334 Si02
#       8
#     8   8   8   8   8   8   8   8
#     4  10  18  29  47  71  96 123 155 191 231 281
#     4   9  17  28  46  69  91 119 153 190 232 279
#     4  10  20  32  45  63  90 125 161 195 227 266
#     4   9  18  31  47  68  95 123 153 192 237 283
#     4   9  17  30  45  64  92 121 152 192 235 276
#     4  10  20  32  45  65  94 127 161 192 226 269
#     4  10  19  32  49  69  93 122 157 197 236 278
#     4  11  22  34  49  68  94 128 164 198 231 275
#
# _framework density 16.159113000000001
#
# number of rings (size 3 to 8) (size 9 to 14) (size 15 to 20)
#    0.000    2.250    2.500    1.125    0.000    2.500 
#    0.000    0.000    0.000    0.000    0.000    0.875 
#    0.000    2.000    0.000    0.000    0.000    0.000 
#
# Total GULP energy -356911.247276 kJ/mol
# GULP energy per Si atom -5576.738239 kJ/mol
# Density = 1.612233 g / cm^3
# Si number density = 16.159113 Si / 1000 Ang^3
#
#
#
# Elastic Constant Matrix: (Units=GPa)
#
#
# Indices 1 2 3 4 5 6 
#
# 1 166.5136 87.1190 19.9280 0.0000 0.0000 0.0000
# 2 87.1190 106.4848 11.8850 0.0000 0.0000 0.0000
# 3 19.9280 11.8850 7.0207 0.0000 0.0000 0.0000
# 4 0.0000 0.0000 0.0000 23.4614 0.0000 0.0000
# 5 0.0000 0.0000 0.0000 0.0000 10.3419 0.0000
# 6 0.0000 0.0000 0.0000 0.0000 0.0000 9.0802
#
#
#
# Elastic Compliance Matrix: (Units=1/GPa)
#
#
# Indices 1 2 3 4 5 6 
#
# 1 0.012995 -0.008033 -0.023288 0.000000 0.000000 0.000000
# 2 -0.008033 0.016544 -0.005206 0.000000 0.000000 0.000000
# 3 -0.023288 -0.005206 0.217351 0.000000 0.000000 0.000000
# 4 0.000000 0.000000 0.000000 0.042623 0.000000 0.000000
# 5 0.000000 0.000000 0.000000 0.000000 0.096694 0.000000
# 6 0.000000 0.000000 0.000000 0.000000 0.000000 0.110129
#
#
# Mechanical properties :
#
#
# Convention : Reuss Voigt Hill
#
# Bulk Modulus (GPa) = 5.75255 57.54257 31.64756
# Shear Modulus (GPa) = 7.97021 19.31584 13.64302
#
# Velocity S-wave (km/s) = 2.22329 3.46114 2.90882
# Velocity P-wave (km/s) = 3.18722 7.18748 5.55960
#
# Compressibility (1/GPa) = 0.17383604
#
# Stress axis : x y z
#
# Youngs Moduli (GPa) = 76.95148 60.44550 4.60085
#
# Poissons Ratio (x) = 0.48553 0.10715
# Poissons Ratio (y) = 0.61812 0.02395
# Poissons Ratio (z) = 1.79206 0.31469
#
# Static dielectric constant tensor:
#      x y z
#    x 1.572480 0.000000 0.000000 
#    y 0.000000 1.509290 0.000000 
#    z 0.000000 0.000000 1.553130 
# 
# From -- ./inp_files/7344.got.cif
#   From: 2010.05.17/outbox.cif.g08.bks.cpg/sg57_4_cif.got.tgz:7344.got - 2010.06.03 13:58:18.
