data_PCOD9434900
_publ_section_title
;
Structure prediction by ZEFSAII (Michael W. Deem and Ramdas Pophale) SiO2 
 PCOD9434900
Probable space group: P B C M
;
_chemical_formula_sum "Si O2"
_cell_formula_units_Z 64
_cell_length_a 22.381719
_cell_length_b 18.747184
_cell_length_c 8.829904
_cell_angle_alpha 90.000000
_cell_angle_beta 90.000000
_cell_angle_gamma 90.000000
_cell_volume 3704.976543
_symmetry_space_group_name_H-M "P B C M"
_symmetry_group_IT_number 57
_symmetry_cell_setting 'orthorhombic'
loop_
_space_group_symop_operation_xyz
x,y,z
-x,-y,1/2+z
x,1/2-y,-z
-x,1/2+y,1/2-z
-x,-y,-z
x,y,1/2-z
-x,1/2+y,z
x,1/2-y,1/2+z
loop_
_atom_site_type_symbol
_atom_site_label
_atom_site_fract_x
_atom_site_fract_y
_atom_site_fract_z
Si Si1 0.610141 0.170065 0.568864
Si Si2 0.940256 0.533103 0.068535
Si Si3 0.118400 0.172687 0.568289
Si Si4 0.184366 0.537947 0.567852
Si Si5 0.243393 0.400434 0.430637
Si Si6 0.742596 0.328453 0.068345
Si Si7 0.508992 0.830019 0.568953
Si Si8 0.640948 0.670597 0.431131
O O1 0.611903 0.250000 0.500000
O O2 0.603920 0.173618 0.750000
O O3 0.676135 0.141077 0.531554
O O4 0.550632 0.134964 0.499867
O O5 0.944971 0.539137 0.250000
O O6 0.883994 0.481498 0.032618
O O7 0.922890 0.609989 0.999274
O O8 0.000000 0.500000 0.000000
O O9 0.104976 0.250000 0.500000
O O10 0.112877 0.173678 0.750000
O O11 0.187010 0.150741 0.529904
O O12 0.191490 0.532566 0.750000
O O13 0.224626 0.477720 0.490707
O O14 0.207194 0.615553 0.520020
O O15 0.249180 0.400643 0.250000
O O16 0.304318 0.374019 0.504636
O O17 0.744605 0.321269 0.250000
O O18 0.749414 0.250000 0.000000
O O19 0.510737 0.750000 0.500000
O O20 0.502784 0.825617 0.750000
O O21 0.574738 0.860254 0.532895
O O22 0.644603 0.750000 0.500000
O O23 0.645378 0.675811 0.250000
#
# Coordination Sequence:
#
# PCOD9434900 Si02
#       8
#     8   8   8   8   8   8   8   8
#     4   9  15  24  41  64  90 119 153 196 244 292
#     4  10  20  36  58  80 106 141 175 208 248 296
#     4  10  20  34  53  79 108 136 172 214 253 296
#     4   9  19  36  55  74 100 133 165 199 245 298
#     4  10  20  32  49  73 100 131 167 208 252 299
#     4   9  18  32  51  76 101 126 159 201 249 298
#     4   9  16  25  38  59  88 122 160 200 243 291
#     4  10  19  29  43  65  95 130 166 206 249 294
#
# _framework density 17.274063999999999
#
# number of rings (size 3 to 8) (size 9 to 14) (size 15 to 20)
#    0.000    2.500    0.000    3.375    0.000    5.500 
#    0.000    0.625    0.000    2.250    0.000    0.000 
#    0.000    0.000    0.000    0.000    0.000    0.000 
#
# Total GULP energy -356685.883793 kJ/mol
# GULP energy per Si atom -5573.216934 kJ/mol
# Density = 1.723475 g / cm^3
# Si number density = 17.274064 Si / 1000 Ang^3
#
#
#
# Elastic Constant Matrix: (Units=GPa)
#
#
# Indices 1 2 3 4 5 6 
#
# 1 140.0672 82.6272 57.4719 0.0000 0.0000 0.0000
# 2 82.6272 90.1803 39.0226 0.0000 0.0000 0.0000
# 3 57.4719 39.0226 54.4481 0.0000 0.0000 0.0000
# 4 0.0000 0.0000 0.0000 22.0634 0.0000 0.0000
# 5 0.0000 0.0000 0.0000 0.0000 27.6287 0.0000
# 6 0.0000 0.0000 0.0000 0.0000 0.0000 19.1833
#
#
#
# Elastic Compliance Matrix: (Units=1/GPa)
#
#
# Indices 1 2 3 4 5 6 
#
# 1 0.019304 -0.012857 -0.011161 0.000000 0.000000 0.000000
# 2 -0.012857 0.024637 -0.004086 0.000000 0.000000 0.000000
# 3 -0.011161 -0.004086 0.033075 0.000000 0.000000 0.000000
# 4 0.000000 0.000000 0.000000 0.045324 0.000000 0.000000
# 5 0.000000 0.000000 0.000000 0.000000 0.036194 0.000000
# 6 0.000000 0.000000 0.000000 0.000000 0.000000 0.052129
#
#
# Mechanical properties :
#
#
# Convention : Reuss Voigt Hill
#
# Bulk Modulus (GPa) = 48.05911 71.43767 59.74839
# Shear Modulus (GPa) = 18.26097 20.81334 19.53715
#
# Velocity S-wave (km/s) = 3.25488 3.47492 3.36670
# Velocity P-wave (km/s) = 6.48133 7.58586 7.05524
#
# Compressibility (1/GPa) = 0.02080771
#
# Stress axis : x y z
#
# Youngs Moduli (GPa) = 51.80382 40.58863 30.23394
#
# Poissons Ratio (x) = 0.52186 0.33744
# Poissons Ratio (y) = 0.66606 0.12354
# Poissons Ratio (z) = 0.57818 0.16585
#
# Static dielectric constant tensor:
#      x y z
#    x 1.621730 0.000000 0.000000 
#    y 0.000000 1.558390 0.000000 
#    z 0.000000 0.000000 1.575880 
# 
# From -- ./inp_files/8608.got.cif
#   From: 2010.05.17/outbox.cif.g08.bks.cpg/sg57_5_cif.got.tgz:8608.got - 2010.06.03 13:58:18.
