data_PCOD9434196
_publ_section_title
;
Structure prediction by ZEFSAII (Michael W. Deem and Ramdas Pophale) SiO2 
 PCOD9434196
Probable space group: P B C M
;
_chemical_formula_sum "Si O2"
_cell_formula_units_Z 36
_cell_length_a 16.975799
_cell_length_b 5.331437
_cell_length_c 18.057464
_cell_angle_alpha 90.000000
_cell_angle_beta 90.000000
_cell_angle_gamma 90.000000
_cell_volume 1634.298055
_symmetry_space_group_name_H-M "P B C M"
_symmetry_group_IT_number 57
_symmetry_cell_setting 'orthorhombic'
loop_
_space_group_symop_operation_xyz
x,y,z
-x,-y,1/2+z
x,1/2-y,-z
-x,1/2+y,1/2-z
-x,-y,-z
x,y,1/2-z
-x,1/2+y,z
x,1/2-y,1/2+z
loop_
_atom_site_type_symbol
_atom_site_label
_atom_site_fract_x
_atom_site_fract_y
_atom_site_fract_z
Si Si1 0.538865 0.281872 0.410561
Si Si2 0.045829 0.500051 0.250000
Si Si3 0.712525 0.479452 0.409481
Si Si4 0.776899 0.986421 0.426496
Si Si5 0.948275 0.917239 0.085763
O O1 0.533353 0.250000 0.500000
O O2 0.477966 0.498059 0.384274
O O3 0.623884 0.398842 0.392939
O O4 0.973129 0.297082 0.250000
O O5 0.081611 0.432557 0.328826
O O6 0.766867 0.248502 0.385292
O O7 0.723619 0.497672 0.499068
O O8 0.744635 0.746138 0.383093
O O9 0.866160 0.960992 0.454729
O O10 0.008263 0.150511 0.074847
#
# Coordination Sequence:
#
# PCOD9434196 Si02
#       5
#     8   4   8   8   8
#     4  10  18  26  43  61  80 114 151 177 203 240
#     4   8  16  30  50  66  82  98 130 184 232 258
#     4  10  19  32  40  61  91 122 143 170 211 251
#     4  10  19  30  44  58  86 119 144 172 215 253
#     4  10  19  33  48  66  82 108 146 183 218 258
#
# _framework density 22.027808
#
# number of rings (size 3 to 8) (size 9 to 14) (size 15 to 20)
#    0.000    2.222    2.222    2.667    6.222    0.000 
#    0.000   13.333    0.000    0.000    0.000    0.000 
#    0.000    0.000    0.000   34.000    0.000    0.000 
#
# Total GULP energy -200531.822329 kJ/mol
# GULP energy per Si atom -5570.328398 kJ/mol
# Density = 2.197767 g / cm^3
# Si number density = 22.027808 Si / 1000 Ang^3
#
#
#
# Elastic Constant Matrix: (Units=GPa)
#
#
# Indices 1 2 3 4 5 6 
#
# 1 125.3349 61.7955 -8.9546 0.0000 0.0000 0.0000
# 2 61.7955 225.1429 -7.4592 0.0000 0.0000 0.0000
# 3 -8.9546 -7.4592 19.5084 0.0000 0.0000 0.0000
# 4 0.0000 0.0000 0.0000 10.4787 0.0000 0.0000
# 5 0.0000 0.0000 0.0000 0.0000 -0.5706 0.0000
# 6 0.0000 0.0000 0.0000 0.0000 0.0000 39.5180
#
#
#
# Elastic Compliance Matrix: (Units=1/GPa)
#
#
# Indices 1 2 3 4 5 6 
#
# 1 0.009443 -0.002480 0.003386 0.000000 0.000000 0.000000
# 2 -0.002480 0.005150 0.000831 0.000000 0.000000 0.000000
# 3 0.003386 0.000831 0.053132 0.000000 0.000000 0.000000
# 4 0.000000 0.000000 0.000000 0.095432 0.000000 0.000000
# 5 0.000000 0.000000 0.000000 0.000000 -1.752471 0.000000
# 6 0.000000 0.000000 0.000000 0.000000 0.000000 0.025305
#
#
# Mechanical properties :
#
#
# Convention : Reuss Voigt Hill
#
# Bulk Modulus (GPa) = 14.04493 51.19439 32.61966
# Shear Modulus (GPa) = -3.23886 31.52551 14.14332
#
# Velocity S-wave (km/s) = -1.21390 3.78718 2.53665
# Velocity P-wave (km/s) = 2.10360 6.51267 4.83942
#
# Compressibility (1/GPa) = 0.07120007
#
# Stress axis : x y z
#
# Youngs Moduli (GPa) = 105.89679 194.18390 18.82103
#
# Poissons Ratio (x) = 0.48152 -0.06374
# Poissons Ratio (y) = 0.26259 -0.01564
# Poissons Ratio (z) = -0.35861 -0.16134
#
# Static dielectric constant tensor:
#      x y z
#    x 1.807730 0.000000 0.000000 
#    y 0.000000 1.941590 0.000000 
#    z 0.000000 0.000000 1.581360 
# 
# From -- ./inp_files/25197.got.cif
#   From: 2010.05.17/outbox.cif.g08.bks.cpg/sg57_13_cif.got.tgz:25197.got - 2010.06.03 13:58:18.
