data_PCOD9434637
_publ_section_title
;
Structure prediction by ZEFSAII (Michael W. Deem and Ramdas Pophale) SiO2 
 PCOD9434637
Probable space group: P B C M
;
_chemical_formula_sum "Si O2"
_cell_formula_units_Z 44
_cell_length_a 8.190411
_cell_length_b 13.892939
_cell_length_c 16.730532
_cell_angle_alpha 90.000000
_cell_angle_beta 90.000000
_cell_angle_gamma 90.000000
_cell_volume 1903.748505
_symmetry_space_group_name_H-M "P B C M"
_symmetry_group_IT_number 57
_symmetry_cell_setting 'orthorhombic'
loop_
_space_group_symop_operation_xyz
x,y,z
-x,-y,1/2+z
x,1/2-y,-z
-x,1/2+y,1/2-z
-x,-y,-z
x,y,1/2-z
-x,1/2+y,z
x,1/2-y,1/2+z
loop_
_atom_site_type_symbol
_atom_site_label
_atom_site_fract_x
_atom_site_fract_y
_atom_site_fract_z
Si Si1 0.195498 0.422717 0.750000
Si Si2 0.810481 0.250000 0.000000
Si Si3 0.109623 0.157680 0.581785
Si Si4 0.558028 0.990661 0.250000
Si Si5 0.601403 0.124740 0.385848
Si Si6 0.373214 0.784802 0.250000
Si Si7 0.016407 0.878502 0.250000
Si Si8 0.758784 0.858611 0.921404
O O1 0.388084 0.447328 0.750000
O O2 0.099655 0.519698 0.750000
O O3 0.158322 0.375757 0.664772
O O4 0.710936 0.164376 0.041947
O O5 0.932745 0.295364 0.064624
O O6 0.148970 0.101046 0.499704
O O7 0.242025 0.242831 0.577895
O O8 0.094869 0.125630 0.671763
O O9 0.646729 0.033269 0.329541
O O10 0.489122 0.880865 0.250000
O O11 0.591935 0.217169 0.326308
O O12 0.422983 0.102083 0.420272
O O13 0.178101 0.809643 0.250000
#
# Coordination Sequence:
#
# PCOD9434637 Si02
#       8
#     4   4   8   4   8   4   4   8
#     4   9  18  34  58  79 118 155 186 236 296 343
#     4  10  18  32  56  88 106 152 188 242 284 350
#     4  10  21  35  59  82 117 145 197 239 286 348
#     4   8  19  34  55  89 116 150 191 246 294 343
#     4  10  18  35  64  81 114 155 197 233 299 345
#     4  10  19  35  60  88 117 145 198 247 291 352
#     4  11  20  35  57  86 115 152 187 243 299 346
#     4   9  19  36  57  85 111 154 193 235 280 353
#
# _framework density 23.112296000000001
#
# number of rings (size 3 to 8) (size 9 to 14) (size 15 to 20)
#    0.000    2.545    1.818    2.182    0.000    0.727 
#    0.000    0.909   24.000    0.000    0.000    0.000 
#    0.000    0.000    0.000    0.000    0.000    0.000 
#
# Total GULP energy -245178.739165 kJ/mol
# GULP energy per Si atom -5572.244072 kJ/mol
# Density = 2.305969 g / cm^3
# Si number density = 23.112296 Si / 1000 Ang^3
#
#
#
# Elastic Constant Matrix: (Units=GPa)
#
#
# Indices 1 2 3 4 5 6 
#
# 1 59.6387 11.8226 41.6201 0.0000 0.0000 0.0000
# 2 11.8226 58.4436 20.3281 0.0000 0.0000 0.0000
# 3 41.6201 20.3281 181.7762 0.0000 0.0000 0.0000
# 4 0.0000 0.0000 0.0000 46.8415 0.0000 0.0000
# 5 0.0000 0.0000 0.0000 0.0000 19.9824 0.0000
# 6 0.0000 0.0000 0.0000 0.0000 0.0000 3.1817
#
#
#
# Elastic Compliance Matrix: (Units=1/GPa)
#
#
# Indices 1 2 3 4 5 6 
#
# 1 0.020328 -0.002594 -0.004364 0.000000 0.000000 0.000000
# 2 -0.002594 0.018134 -0.001434 0.000000 0.000000 0.000000
# 3 -0.004364 -0.001434 0.006661 0.000000 0.000000 0.000000
# 4 0.000000 0.000000 0.000000 0.021349 0.000000 0.000000
# 5 0.000000 0.000000 0.000000 0.000000 0.050044 0.000000
# 6 0.000000 0.000000 0.000000 0.000000 0.000000 0.314301
#
#
# Mechanical properties :
#
#
# Convention : Reuss Voigt Hill
#
# Bulk Modulus (GPa) = 35.28841 49.71112 42.49977
# Shear Modulus (GPa) = 10.93981 29.07361 20.00671
#
# Velocity S-wave (km/s) = 2.17798 3.55058 2.94535
# Velocity P-wave (km/s) = 4.65040 6.19387 5.47678
#
# Compressibility (1/GPa) = 0.02833791
#
# Stress axis : x y z
#
# Youngs Moduli (GPa) = 49.19444 55.14485 150.13065
#
# Poissons Ratio (x) = 0.14305 0.65519
# Poissons Ratio (y) = 0.12762 0.21528
# Poissons Ratio (z) = 0.21469 0.07908
#
# Static dielectric constant tensor:
#      x y z
#    x 1.960330 0.000000 0.000000 
#    y 0.000000 1.910980 0.000000 
#    z 0.000000 0.000000 1.816900 
# 
# From -- ./inp_files/20889.got.cif
#   From: 2010.05.17/outbox.cif.g08.bks.cpg/sg57_11_cif.got.tgz:20889.got - 2010.06.03 13:58:18.
