data_PCOD9434479
_publ_section_title
;
Structure prediction by ZEFSAII (Michael W. Deem and Ramdas Pophale) SiO2 
 PCOD9434479
Probable space group: P B C M
;
_chemical_formula_sum "Si O2"
_cell_formula_units_Z 64
_cell_length_a 8.826202
_cell_length_b 26.293250
_cell_length_c 16.743744
_cell_angle_alpha 90.000000
_cell_angle_beta 90.000000
_cell_angle_gamma 90.000000
_cell_volume 3885.712897
_symmetry_space_group_name_H-M "P B C M"
_symmetry_group_IT_number 57
_symmetry_cell_setting 'orthorhombic'
loop_
_space_group_symop_operation_xyz
x,y,z
-x,-y,1/2+z
x,1/2-y,-z
-x,1/2+y,1/2-z
-x,-y,-z
x,y,1/2-z
-x,1/2+y,z
x,1/2-y,1/2+z
loop_
_atom_site_type_symbol
_atom_site_label
_atom_site_fract_x
_atom_site_fract_y
_atom_site_fract_z
Si Si1 0.597552 0.237290 0.340941
Si Si2 0.348722 0.966867 0.511730
Si Si3 0.368538 0.935873 0.338800
Si Si4 0.344400 0.294677 0.445335
Si Si5 0.118245 0.139280 0.657712
Si Si6 0.391478 0.849506 0.537289
Si Si7 0.723515 0.967485 0.341487
Si Si8 0.775879 0.332564 0.119435
O O1 0.556756 0.229375 0.250000
O O2 0.462311 0.265987 0.387213
O O3 0.628263 0.184039 0.384192
O O4 0.736132 0.277041 0.347901
O O5 0.292404 0.959365 0.419339
O O6 0.385645 0.910084 0.542441
O O7 0.500000 0.000000 0.500000
O O8 0.258229 0.994632 0.583212
O O9 0.316774 0.953017 0.250000
O O10 0.548409 0.947295 0.343872
O O11 0.337056 0.875567 0.345011
O O12 0.276700 0.250000 0.500000
O O13 0.221691 0.326228 0.398129
O O14 0.449385 0.332002 0.498152
O O15 0.148049 0.152274 0.750000
O O16 0.167244 0.080721 0.647602
O O17 0.943355 0.149247 0.638945
O O18 0.262196 0.832798 0.474419
O O19 0.745295 0.987602 0.250000
#
# Coordination Sequence:
#
# PCOD9434479 Si02
#       8
#     8   8   8   8   8   8   8   8
#     4  10  18  31  50  71  95 125 157 193 233 283
#     4   9  16  29  49  69  92 120 153 195 237 278
#     4   9  16  29  48  69  91 121 158 199 243 288
#     4   9  18  31  47  68  96 126 155 189 237 286
#     4  11  20  30  47  73  97 122 159 202 238 276
#     4   9  19  33  49  70  95 126 160 194 235 289
#     4   9  18  30  47  69  94 122 156 197 242 286
#     4  10  19  31  47  69  97 124 157 197 239 282
#
# _framework density 16.470594999999999
#
# number of rings (size 3 to 8) (size 9 to 14) (size 15 to 20)
#    0.000    2.500    0.000    5.625    0.000    2.500 
#    0.000    2.500    0.000    0.000    0.000    0.875 
#    0.000    4.000    0.000    0.000    0.000    0.000 
#
# Total GULP energy -356373.601003 kJ/mol
# GULP energy per Si atom -5568.337516 kJ/mol
# Density = 1.643311 g / cm^3
# Si number density = 16.470595 Si / 1000 Ang^3
#
#
#
# Elastic Constant Matrix: (Units=GPa)
#
#
# Indices 1 2 3 4 5 6 
#
# 1 20.4857 18.7618 13.7911 0.0000 0.0000 0.0000
# 2 18.7618 89.5820 51.5757 0.0000 0.0000 0.0000
# 3 13.7911 51.5757 77.8876 0.0000 0.0000 0.0000
# 4 0.0000 0.0000 0.0000 26.9928 0.0000 0.0000
# 5 0.0000 0.0000 0.0000 0.0000 6.6816 0.0000
# 6 0.0000 0.0000 0.0000 0.0000 0.0000 8.9231
#
#
#
# Elastic Compliance Matrix: (Units=1/GPa)
#
#
# Indices 1 2 3 4 5 6 
#
# 1 0.061084 -0.010612 -0.003789 0.000000 0.000000 0.000000
# 2 -0.010612 0.019885 -0.011288 0.000000 0.000000 0.000000
# 3 -0.003789 -0.011288 0.020985 0.000000 0.000000 0.000000
# 4 0.000000 0.000000 0.000000 0.037047 0.000000 0.000000
# 5 0.000000 0.000000 0.000000 0.000000 0.149665 0.000000
# 6 0.000000 0.000000 0.000000 0.000000 0.000000 0.112068
#
#
# Mechanical properties :
#
#
# Convention : Reuss Voigt Hill
#
# Bulk Modulus (GPa) = 19.77242 39.57915 29.67578
# Shear Modulus (GPa) = 10.66166 15.44128 13.05147
#
# Velocity S-wave (km/s) = 2.54700 3.06519 2.81803
# Velocity P-wave (km/s) = 4.54756 6.05058 5.35210
#
# Compressibility (1/GPa) = 0.05057551
#
# Stress axis : x y z
#
# Youngs Moduli (GPa) = 16.37091 50.29039 47.65377
#
# Poissons Ratio (x) = 0.53368 0.18055
# Poissons Ratio (y) = 0.17373 0.53792
# Poissons Ratio (z) = 0.06203 0.56769
#
# Static dielectric constant tensor:
#      x y z
#    x 1.533760 0.000000 0.000000 
#    y 0.000000 1.548740 0.000000 
#    z 0.000000 0.000000 1.600110 
# 
# From -- ./inp_files/21507.got.cif
#   From: 2010.05.17/outbox.cif.g08.bks.cpg/sg57_11_cif.got.tgz:21507.got - 2010.06.03 13:58:18.
