data_PCOD9434399
_publ_section_title
;
Structure prediction by ZEFSAII (Michael W. Deem and Ramdas Pophale) SiO2 
 PCOD9434399
Probable space group: P B C M
;
_chemical_formula_sum "Si O2"
_cell_formula_units_Z 56
_cell_length_a 17.226335
_cell_length_b 22.532943
_cell_length_c 9.008612
_cell_angle_alpha 90.000000
_cell_angle_beta 90.000000
_cell_angle_gamma 90.000000
_cell_volume 3496.783056
_symmetry_space_group_name_H-M "P B C M"
_symmetry_group_IT_number 57
_symmetry_cell_setting 'orthorhombic'
loop_
_space_group_symop_operation_xyz
x,y,z
-x,-y,1/2+z
x,1/2-y,-z
-x,1/2+y,1/2-z
-x,-y,-z
x,y,1/2-z
-x,1/2+y,z
x,1/2-y,1/2+z
loop_
_atom_site_type_symbol
_atom_site_label
_atom_site_fract_x
_atom_site_fract_y
_atom_site_fract_z
Si Si1 0.595457 0.696862 0.081245
Si Si2 0.501213 0.922647 0.919820
Si Si3 0.779411 0.524937 0.920295
Si Si4 0.370693 0.520790 0.573567
Si Si5 0.057197 0.049182 0.428349
Si Si6 0.917651 0.687272 0.428410
Si Si7 0.246234 0.335837 0.419906
O O1 0.615336 0.711443 0.250000
O O2 0.540919 0.640494 0.080006
O O3 0.553151 0.750000 0.000000
O O4 0.674563 0.685395 0.992530
O O5 0.480324 0.939616 0.750000
O O6 0.570971 0.966585 0.968225
O O7 0.424793 0.925581 0.019630
O O8 0.795843 0.507122 0.750000
O O9 0.750039 0.592835 0.917972
O O10 0.710982 0.486338 0.992079
O O11 0.857709 0.528931 0.015837
O O12 0.359082 0.519655 0.750000
O O13 0.051973 0.046321 0.250000
O O14 0.047872 0.120568 0.468529
O O15 0.000000 0.000000 0.500000
O O16 0.948038 0.750000 0.500000
O O17 0.921347 0.692230 0.250000
O O18 0.828720 0.682152 0.484815
O O19 0.236587 0.315102 0.250000
#
# Coordination Sequence:
#
# PCOD9434399 Si02
#       7
#     8   8   8   8   8   8   8
#     4  11  21  32  44  61  90 126 164 203 243 289
#     4   9  19  32  45  64  92 124 159 201 245 284
#     4  10  19  31  50  73  99 130 165 202 245 296
#     4  10  18  30  49  70  93 121 158 202 244 286
#     4  10  21  36  54  77 106 137 170 210 256 303
#     4  10  20  33  50  72 100 134 170 206 245 295
#     4  10  19  30  45  66  94 129 167 202 237 284
#
# _framework density 16.014718999999999
#
# number of rings (size 3 to 8) (size 9 to 14) (size 15 to 20)
#    0.000    2.000    1.429    3.000    0.000    4.571 
#    0.000    0.000    0.000    0.000    0.000    1.000 
#    0.000    0.000    0.000    0.000    0.000    0.000 
#
# Total GULP energy -311909.490967 kJ/mol
# GULP energy per Si atom -5569.812339 kJ/mol
# Density = 1.597827 g / cm^3
# Si number density = 16.014719 Si / 1000 Ang^3
#
#
#
# Elastic Constant Matrix: (Units=GPa)
#
#
# Indices 1 2 3 4 5 6 
#
# 1 60.9990 37.2216 33.5458 0.0000 0.0000 0.0000
# 2 37.2216 74.4486 38.0835 0.0000 0.0000 0.0000
# 3 33.5458 38.0835 80.2365 0.0000 0.0000 0.0000
# 4 0.0000 0.0000 0.0000 24.8630 0.0000 0.0000
# 5 0.0000 0.0000 0.0000 0.0000 26.2198 0.0000
# 6 0.0000 0.0000 0.0000 0.0000 0.0000 10.6877
#
#
#
# Elastic Compliance Matrix: (Units=1/GPa)
#
#
# Indices 1 2 3 4 5 6 
#
# 1 0.025690 -0.009706 -0.006133 0.000000 0.000000 0.000000
# 2 -0.009706 0.021406 -0.006102 0.000000 0.000000 0.000000
# 3 -0.006133 -0.006102 0.017924 0.000000 0.000000 0.000000
# 4 0.000000 0.000000 0.000000 0.040220 0.000000 0.000000
# 5 0.000000 0.000000 0.000000 0.000000 0.038139 0.000000
# 6 0.000000 0.000000 0.000000 0.000000 0.000000 0.093565
#
#
# Mechanical properties :
#
#
# Convention : Reuss Voigt Hill
#
# Bulk Modulus (GPa) = 47.31321 48.15399 47.73360
# Shear Modulus (GPa) = 17.36873 19.47634 18.42253
#
# Velocity S-wave (km/s) = 3.29682 3.49112 3.39536
# Velocity P-wave (km/s) = 6.64076 6.81061 6.72622
#
# Compressibility (1/GPa) = 0.02113575
#
# Stress axis : x y z
#
# Youngs Moduli (GPa) = 38.92639 46.71490 55.79157
#
# Poissons Ratio (x) = 0.45343 0.34219
# Poissons Ratio (y) = 0.37783 0.34046
# Poissons Ratio (z) = 0.23875 0.28507
#
# Static dielectric constant tensor:
#      x y z
#    x 1.506680 0.000000 0.000000 
#    y 0.000000 1.808130 0.000000 
#    z 0.000000 0.000000 1.567060 
# 
# From -- ./inp_files/7064.got.cif
#   From: 2010.05.17/outbox.cif.g08.bks.cpg/sg57_4_cif.got.tgz:7064.got - 2010.06.03 13:58:18.
