data_PCOD9434896
_publ_section_title
;
Structure prediction by ZEFSAII (Michael W. Deem and Ramdas Pophale) SiO2 
 PCOD9434896
Probable space group: P B C M
;
_chemical_formula_sum "Si O2"
_cell_formula_units_Z 64
_cell_length_a 19.162367
_cell_length_b 25.495184
_cell_length_c 8.936055
_cell_angle_alpha 90.000000
_cell_angle_beta 90.000000
_cell_angle_gamma 90.000000
_cell_volume 4365.692446
_symmetry_space_group_name_H-M "P B C M"
_symmetry_group_IT_number 57
_symmetry_cell_setting 'orthorhombic'
loop_
_space_group_symop_operation_xyz
x,y,z
-x,-y,1/2+z
x,1/2-y,-z
-x,1/2+y,1/2-z
-x,-y,-z
x,y,1/2-z
-x,1/2+y,z
x,1/2-y,1/2+z
loop_
_atom_site_type_symbol
_atom_site_label
_atom_site_fract_x
_atom_site_fract_y
_atom_site_fract_z
Si Si1 0.406485 0.044286 0.428627
Si Si2 0.889498 0.993506 0.428723
Si Si3 0.259563 0.489418 0.571781
Si Si4 0.060837 0.804357 0.429996
Si Si5 0.458361 0.925334 0.071805
Si Si6 0.017977 0.580664 0.929465
Si Si7 0.785498 0.195880 0.428607
Si Si8 0.310615 0.609402 0.928486
O O1 0.406820 0.050616 0.250000
O O2 0.466040 0.080833 0.498260
O O3 0.325912 0.045531 0.479626
O O4 0.431662 0.984616 0.460470
O O5 0.887535 0.997389 0.250000
O O6 0.946479 0.949075 0.470970
O O7 0.813337 0.980734 0.490859
O O8 0.919447 0.047923 0.495276
O O9 0.250992 0.481624 0.750000
O O10 0.282112 0.550214 0.550989
O O11 0.033171 0.750000 0.500000
O O12 0.065135 0.799259 0.250000
O O13 0.019838 0.857839 0.466957
O O14 0.138221 0.811753 0.498037
O O15 0.465876 0.921299 0.250000
O O16 0.392426 0.889838 0.027092
O O17 0.026548 0.576348 0.750000
O O18 0.758179 0.250000 0.500000
O O19 0.791695 0.199999 0.250000
O O20 0.735674 0.148974 0.477807
O O21 0.305559 0.620678 0.750000
#
# Coordination Sequence:
#
# PCOD9434896 Si02
#       8
#     8   8   8   8   8   8   8   8
#     4   8  14  24  37  54  78 106 134 162 192 230
#     4  10  19  29  43  63  84 110 145 177 204 246
#     4   9  17  28  41  58  83 114 140 166 206 246
#     4  10  19  32  48  63  82 108 138 173 213 253
#     4   8  14  24  38  55  76 104 134 163 195 228
#     4   9  19  33  45  59  84 114 138 169 215 256
#     4  11  21  31  43  60  81 105 136 172 208 243
#     4   9  17  29  42  57  81 111 140 169 204 245
#
# _framework density 14.65976
#
# number of rings (size 3 to 8) (size 9 to 14) (size 15 to 20)
#    0.000    2.750    0.000    4.875    0.000    6.000 
#    0.000    2.500    0.000    0.000    0.000    0.000 
#    0.000    1.000    0.000    4.500    0.000    4.500 
#
# Total GULP energy -356378.228122 kJ/mol
# GULP energy per Si atom -5568.409814 kJ/mol
# Density = 1.462639 g / cm^3
# Si number density = 14.659760 Si / 1000 Ang^3
#
#
#
# Elastic Constant Matrix: (Units=GPa)
#
#
# Indices 1 2 3 4 5 6 
#
# 1 92.0512 23.3287 25.5831 0.0000 0.0000 0.0000
# 2 23.3287 60.2409 22.5188 0.0000 0.0000 0.0000
# 3 25.5831 22.5188 31.5248 0.0000 0.0000 0.0000
# 4 0.0000 0.0000 0.0000 19.1743 0.0000 0.0000
# 5 0.0000 0.0000 0.0000 0.0000 24.9820 0.0000
# 6 0.0000 0.0000 0.0000 0.0000 0.0000 16.4428
#
#
#
# Elastic Compliance Matrix: (Units=1/GPa)
#
#
# Indices 1 2 3 4 5 6 
#
# 1 0.014142 -0.001619 -0.010320 0.000000 0.000000 0.000000
# 2 -0.001619 0.022833 -0.014996 0.000000 0.000000 0.000000
# 3 -0.010320 -0.014996 0.050808 0.000000 0.000000 0.000000
# 4 0.000000 0.000000 0.000000 0.052153 0.000000 0.000000
# 5 0.000000 0.000000 0.000000 0.000000 0.040029 0.000000
# 6 0.000000 0.000000 0.000000 0.000000 0.000000 0.060817
#
#
# Mechanical properties :
#
#
# Convention : Reuss Voigt Hill
#
# Bulk Modulus (GPa) = 29.48762 36.29756 32.89259
# Shear Modulus (GPa) = 16.34221 19.61223 17.97722
#
# Velocity S-wave (km/s) = 3.34243 3.66160 3.50565
# Velocity P-wave (km/s) = 5.92065 6.53377 6.23475
#
# Compressibility (1/GPa) = 0.03391254
#
# Stress axis : x y z
#
# Youngs Moduli (GPa) = 70.71136 43.79696 19.68188
#
# Poissons Ratio (x) = 0.07090 0.20312
# Poissons Ratio (y) = 0.11446 0.29515
# Poissons Ratio (z) = 0.72976 0.65678
#
# Static dielectric constant tensor:
#      x y z
#    x 1.502240 0.000000 0.000000 
#    y 0.000000 1.484200 0.000000 
#    z 0.000000 0.000000 1.489080 
# 
# From -- ./inp_files/7491.got.cif
#   From: 2010.05.17/outbox.cif.g08.bks.cpg/sg57_4_cif.got.tgz:7491.got - 2010.06.03 13:58:18.
