data_PCOD9434061
_publ_section_title
;
Structure prediction by ZEFSAII (Michael W. Deem and Ramdas Pophale) SiO2 
 PCOD9434061
Probable space group: P B C M
;
_chemical_formula_sum "Si O2"
_cell_formula_units_Z 56
_cell_length_a 18.258538
_cell_length_b 22.267132
_cell_length_c 8.998506
_cell_angle_alpha 90.000000
_cell_angle_beta 90.000000
_cell_angle_gamma 90.000000
_cell_volume 3658.480073
_symmetry_space_group_name_H-M "P B C M"
_symmetry_group_IT_number 57
_symmetry_cell_setting 'orthorhombic'
loop_
_space_group_symop_operation_xyz
x,y,z
-x,-y,1/2+z
x,1/2-y,-z
-x,1/2+y,1/2-z
-x,-y,-z
x,y,1/2-z
-x,1/2+y,z
x,1/2-y,1/2+z
loop_
_atom_site_type_symbol
_atom_site_label
_atom_site_fract_x
_atom_site_fract_y
_atom_site_fract_z
Si Si1 0.399605 0.044508 0.927986
Si Si2 0.907296 0.557905 0.079565
Si Si3 0.788042 0.394852 0.070335
Si Si4 0.540990 0.087265 0.427943
Si Si5 0.337522 0.684756 0.070618
Si Si6 0.949364 0.415790 0.421161
Si Si7 0.763344 0.974376 0.071986
O O1 0.406308 0.048490 0.750000
O O2 0.314920 0.054627 0.967184
O O3 0.420200 0.975771 0.971516
O O4 0.460665 0.086317 0.001253
O O5 0.892388 0.573268 0.250000
O O6 0.929126 0.486980 0.074715
O O7 0.833935 0.562321 0.982742
O O8 0.978113 0.592317 0.017696
O O9 0.782107 0.395649 0.250000
O O10 0.873767 0.384233 0.032211
O O11 0.734169 0.347017 0.997364
O O12 0.767414 0.460389 0.005871
O O13 0.534166 0.086776 0.250000
O O14 0.593624 0.142051 0.468945
O O15 0.332111 0.687483 0.250000
O O16 0.346240 0.750000 0.000000
O O17 0.965275 0.400768 0.250000
O O18 0.765954 0.982902 0.250000
#
# Coordination Sequence:
#
# PCOD9434061 Si02
#       7
#     8   8   8   8   8   8   8
#     4   9  17  29  45  66  89 117 151 186 227 277
#     4   9  16  24  36  58  84 114 150 180 213 257
#     4  10  19  30  45  64  85 115 154 189 225 269
#     4   9  18  32  46  64  88 115 149 188 230 274
#     4  11  22  36  50  67  91 119 154 192 233 274
#     4   8  15  26  38  55  81 113 147 180 215 256
#     4  10  17  27  42  62  91 121 149 185 225 269
#
# _framework density 15.306903999999999
#
# number of rings (size 3 to 8) (size 9 to 14) (size 15 to 20)
#    0.000    2.571    1.429    2.571    0.000    6.286 
#    0.000    0.000    0.000    0.000    0.000    0.000 
#    0.000    1.143    0.000    8.000    0.000    6.000 
#
# Total GULP energy -311941.638635 kJ/mol
# GULP energy per Si atom -5570.386404 kJ/mol
# Density = 1.527206 g / cm^3
# Si number density = 15.306904 Si / 1000 Ang^3
#
#
#
# Elastic Constant Matrix: (Units=GPa)
#
#
# Indices 1 2 3 4 5 6 
#
# 1 153.1155 48.1681 60.6167 0.0000 0.0000 0.0000
# 2 48.1681 51.7545 26.7027 0.0000 0.0000 0.0000
# 3 60.6167 26.7027 57.9777 0.0000 0.0000 0.0000
# 4 0.0000 0.0000 0.0000 16.0727 0.0000 0.0000
# 5 0.0000 0.0000 0.0000 0.0000 30.3722 0.0000
# 6 0.0000 0.0000 0.0000 0.0000 0.0000 12.0070
#
#
#
# Elastic Compliance Matrix: (Units=1/GPa)
#
#
# Indices 1 2 3 4 5 6 
#
# 1 0.012603 -0.006468 -0.010197 0.000000 0.000000 0.000000
# 2 -0.006468 0.028664 -0.006439 0.000000 0.000000 0.000000
# 3 -0.010197 -0.006439 0.030875 0.000000 0.000000 0.000000
# 4 0.000000 0.000000 0.000000 0.062217 0.000000 0.000000
# 5 0.000000 0.000000 0.000000 0.000000 0.032925 0.000000
# 6 0.000000 0.000000 0.000000 0.000000 0.000000 0.083285
#
#
# Mechanical properties :
#
#
# Convention : Reuss Voigt Hill
#
# Bulk Modulus (GPa) = 38.56142 59.31363 48.93753
# Shear Modulus (GPa) = 16.37070 20.18106 18.27588
#
# Velocity S-wave (km/s) = 3.27387 3.63496 3.45913
# Velocity P-wave (km/s) = 6.28791 7.51338 6.92780
#
# Compressibility (1/GPa) = 0.02593266
#
# Stress axis : x y z
#
# Youngs Moduli (GPa) = 79.34696 34.88666 32.38825
#
# Poissons Ratio (x) = 0.22565 0.33028
# Poissons Ratio (y) = 0.51323 0.20856
# Poissons Ratio (z) = 0.80914 0.22465
#
# Static dielectric constant tensor:
#      x y z
#    x 1.533030 0.000000 0.000000 
#    y 0.000000 1.474700 0.000000 
#    z 0.000000 0.000000 1.515220 
# 
# From -- ./inp_files/7059.got.cif
#   From: 2010.05.17/outbox.cif.g08.bks.cpg/sg57_4_cif.got.tgz:7059.got - 2010.06.03 13:58:18.
