data_PCOD9434833
_publ_section_title
;
Structure prediction by ZEFSAII (Michael W. Deem and Ramdas Pophale) SiO2 
 PCOD9434833
Probable space group: P B C M
;
_chemical_formula_sum "Si O2"
_cell_formula_units_Z 40
_cell_length_a 13.663008
_cell_length_b 9.870724
_cell_length_c 14.508106
_cell_angle_alpha 90.000000
_cell_angle_beta 90.000000
_cell_angle_gamma 90.000000
_cell_volume 1956.618030
_symmetry_space_group_name_H-M "P B C M"
_symmetry_group_IT_number 57
_symmetry_cell_setting 'orthorhombic'
loop_
_space_group_symop_operation_xyz
x,y,z
-x,-y,1/2+z
x,1/2-y,-z
-x,1/2+y,1/2-z
-x,-y,-z
x,y,1/2-z
-x,1/2+y,z
x,1/2-y,1/2+z
loop_
_atom_site_type_symbol
_atom_site_label
_atom_site_fract_x
_atom_site_fract_y
_atom_site_fract_z
Si Si1 0.880759 0.299877 0.250000
Si Si2 0.203124 0.619721 0.555835
Si Si3 0.013003 0.545818 0.250000
Si Si4 0.612345 0.964320 0.986926
Si Si5 0.311635 0.268826 0.140516
Si Si6 0.895561 0.651876 0.424817
O O1 0.823549 0.352603 0.161270
O O2 0.985614 0.385048 0.250000
O O3 0.888217 0.135947 0.250000
O O4 0.173186 0.750000 0.500000
O O5 0.317009 0.587527 0.540163
O O6 0.145045 0.484187 0.527488
O O7 0.962517 0.603881 0.341951
O O8 0.655141 0.897715 0.080733
O O9 0.627068 0.854149 0.905376
O O10 0.500000 0.000000 0.000000
O O11 0.323669 0.281263 0.250000
O O12 0.199335 0.229632 0.116256
O O13 0.942500 0.750000 0.500000
#
# Coordination Sequence:
#
# PCOD9434833 Si02
#       6
#     4   8   4   8   8   8
#     4  10  24  44  62  91 121 167 205 258 324 368
#     4  10  22  40  61  84 127 163 195 258 327 365
#     4  10  22  38  64  89 121 149 211 250 294 378
#     4  10  22  38  59  90 124 161 208 261 309 375
#     4  10  19  37  62  87 116 158 216 253 303 377
#     4  10  18  37  63  88 112 162 201 247 306 369
#
# _framework density 20.443438
#
# number of rings (size 3 to 8) (size 9 to 14) (size 15 to 20)
#    0.000    2.000    5.000    0.000    7.000    3.200 
#    1.800    4.000    0.000    0.000    0.000    0.000 
#    0.000    0.000    0.000    0.000    0.000    0.000 
#
# Total GULP energy -223309.073223 kJ/mol
# GULP energy per Si atom -5582.726831 kJ/mol
# Density = 2.039691 g / cm^3
# Si number density = 20.443438 Si / 1000 Ang^3
#
#
#
# Elastic Constant Matrix: (Units=GPa)
#
#
# Indices 1 2 3 4 5 6 
#
# 1 68.8422 22.1136 14.0288 0.0000 0.0000 0.0000
# 2 22.1136 71.2533 54.6343 0.0000 0.0000 0.0000
# 3 14.0288 54.6343 132.7638 0.0000 0.0000 0.0000
# 4 0.0000 0.0000 0.0000 18.3641 0.0000 0.0000
# 5 0.0000 0.0000 0.0000 0.0000 16.6039 0.0000
# 6 0.0000 0.0000 0.0000 0.0000 0.0000 8.5019
#
#
#
# Elastic Compliance Matrix: (Units=1/GPa)
#
#
# Indices 1 2 3 4 5 6 
#
# 1 0.016159 -0.005414 0.000520 0.000000 0.000000 0.000000
# 2 -0.005414 0.022318 -0.008612 0.000000 0.000000 0.000000
# 3 0.000520 -0.008612 0.011021 0.000000 0.000000 0.000000
# 4 0.000000 0.000000 0.000000 0.054454 0.000000 0.000000
# 5 0.000000 0.000000 0.000000 0.000000 0.060227 0.000000
# 6 0.000000 0.000000 0.000000 0.000000 0.000000 0.117621
#
#
# Mechanical properties :
#
#
# Convention : Reuss Voigt Hill
#
# Bulk Modulus (GPa) = 44.47031 50.49030 47.48030
# Shear Modulus (GPa) = 15.80738 20.83280 18.32009
#
# Velocity S-wave (km/s) = 2.78371 3.19571 2.99680
# Velocity P-wave (km/s) = 5.66852 6.19419 5.93717
#
# Compressibility (1/GPa) = 0.02248691
#
# Stress axis : x y z
#
# Youngs Moduli (GPa) = 61.88491 44.80644 90.73407
#
# Poissons Ratio (x) = 0.24259 -0.04723
# Poissons Ratio (y) = 0.33505 0.78142
# Poissons Ratio (z) = -0.03221 0.38588
#
# Static dielectric constant tensor:
#      x y z
#    x 1.758020 0.000000 0.000000 
#    y 0.000000 1.776180 0.000000 
#    z 0.000000 0.000000 1.685200 
# 
# From -- ./inp_files/18272.got.cif
#   From: 2010.05.17/outbox.cif.g08.bks.cpg/sg57_10_cif.got.tgz:18272.got - 2010.06.03 13:58:18.
