data_PCOD9434295
_publ_section_title
;
Structure prediction by ZEFSAII (Michael W. Deem and Ramdas Pophale) SiO2 
 PCOD9434295
Probable space group: P B C M
;
_chemical_formula_sum "Si O2"
_cell_formula_units_Z 48
_cell_length_a 9.768855
_cell_length_b 19.931995
_cell_length_c 14.574748
_cell_angle_alpha 90.000000
_cell_angle_beta 90.000000
_cell_angle_gamma 90.000000
_cell_volume 2837.889541
_symmetry_space_group_name_H-M "P B C M"
_symmetry_group_IT_number 57
_symmetry_cell_setting 'orthorhombic'
loop_
_space_group_symop_operation_xyz
x,y,z
-x,-y,1/2+z
x,1/2-y,-z
-x,1/2+y,1/2-z
-x,-y,-z
x,y,1/2-z
-x,1/2+y,z
x,1/2-y,1/2+z
loop_
_atom_site_type_symbol
_atom_site_label
_atom_site_fract_x
_atom_site_fract_y
_atom_site_fract_z
Si Si1 0.186133 0.053176 0.443886
Si Si2 0.448497 0.433461 0.451998
Si Si3 0.127311 0.506190 0.250000
Si Si4 0.880143 0.080679 0.057709
Si Si5 0.320167 0.821633 0.043378
Si Si6 0.655356 0.349332 0.250000
Si Si7 0.387588 0.077345 0.750000
Si Si8 0.200839 0.995314 0.250000
O O1 0.303032 0.085936 0.505013
O O2 0.043076 0.091931 0.442812
O O3 0.154146 0.980794 0.489267
O O4 0.234403 0.036865 0.341293
O O5 0.500000 0.500000 0.500000
O O6 0.554737 0.373791 0.463938
O O7 0.433155 0.452750 0.346045
O O8 0.154126 0.551467 0.340850
O O9 0.224353 0.439852 0.250000
O O10 0.965785 0.486478 0.250000
O O11 0.799890 0.143594 0.016325
O O12 0.296307 0.817224 0.153738
O O13 0.351016 0.750000 0.000000
O O14 0.487046 0.355863 0.250000
O O15 0.720345 0.424603 0.250000
#
# Coordination Sequence:
#
# PCOD9434295 Si02
#       8
#     8   8   4   8   8   4   4   4
#     4  10  18  31  54  82 108 135 175 227 269 313
#     4  11  19  34  54  78 106 137 180 226 270 317
#     4  10  18  29  52  87 114 133 171 232 274 317
#     4  10  19  32  52  81 111 138 174 223 276 318
#     4  11  23  38  54  77 110 148 183 223 276 335
#     4  10  20  35  53  73 104 143 185 216 263 330
#     4  10  18  28  48  77 103 133 171 221 266 312
#     4  10  18  30  53  83 113 137 177 221 273 319
#
# _framework density 16.913979000000001
#
# number of rings (size 3 to 8) (size 9 to 14) (size 15 to 20)
#    0.000    1.667    5.000    1.000    0.000    0.667 
#    0.000    2.500    0.000    0.000    0.000    2.333 
#    0.000    0.000    0.000    0.000    0.000    0.000 
#
# Total GULP energy -267228.596113 kJ/mol
# GULP energy per Si atom -5567.262419 kJ/mol
# Density = 1.687548 g / cm^3
# Si number density = 16.913979 Si / 1000 Ang^3
#
#
#
# Elastic Constant Matrix: (Units=GPa)
#
#
# Indices 1 2 3 4 5 6 
#
# 1 80.1528 32.2174 36.0373 0.0000 0.0000 0.0000
# 2 32.2174 65.6891 34.5658 0.0000 0.0000 0.0000
# 3 36.0373 34.5658 153.2294 0.0000 0.0000 0.0000
# 4 0.0000 0.0000 0.0000 15.8187 0.0000 0.0000
# 5 0.0000 0.0000 0.0000 0.0000 18.4901 0.0000
# 6 0.0000 0.0000 0.0000 0.0000 0.0000 15.5710
#
#
#
# Elastic Compliance Matrix: (Units=1/GPa)
#
#
# Indices 1 2 3 4 5 6 
#
# 1 0.016219 -0.006749 -0.002292 0.000000 0.000000 0.000000
# 2 -0.006749 0.020082 -0.002943 0.000000 0.000000 0.000000
# 3 -0.002292 -0.002943 0.007729 0.000000 0.000000 0.000000
# 4 0.000000 0.000000 0.000000 0.063216 0.000000 0.000000
# 5 0.000000 0.000000 0.000000 0.000000 0.054083 0.000000
# 6 0.000000 0.000000 0.000000 0.000000 0.000000 0.064222
#
#
# Mechanical properties :
#
#
# Convention : Reuss Voigt Hill
#
# Bulk Modulus (GPa) = 49.84374 56.07913 52.96144
# Shear Modulus (GPa) = 19.51552 23.05936 21.28744
#
# Velocity S-wave (km/s) = 3.40046 3.69634 3.55148
# Velocity P-wave (km/s) = 6.70451 7.17250 6.94245
#
# Compressibility (1/GPa) = 0.02006270
#
# Stress axis : x y z
#
# Youngs Moduli (GPa) = 61.65463 49.79670 129.38102
#
# Poissons Ratio (x) = 0.33606 0.29657
# Poissons Ratio (y) = 0.41609 0.38075
# Poissons Ratio (z) = 0.14132 0.14655
#
# Static dielectric constant tensor:
#      x y z
#    x 1.646790 0.000000 0.000000 
#    y 0.000000 1.522420 0.000000 
#    z 0.000000 0.000000 1.604690 
# 
# From -- ./inp_files/16615.got.cif
#   From: 2010.05.17/outbox.cif.g08.bks.cpg/sg57_9_cif.got.tgz:16615.got - 2010.06.03 13:58:18.
