data_PCOD9434545
_publ_section_title
;
Structure prediction by ZEFSAII (Michael W. Deem and Ramdas Pophale) SiO2 
 PCOD9434545
Probable space group: P B C M
;
_chemical_formula_sum "Si O2"
_cell_formula_units_Z 64
_cell_length_a 9.823000
_cell_length_b 21.863770
_cell_length_c 17.236045
_cell_angle_alpha 90.000000
_cell_angle_beta 90.000000
_cell_angle_gamma 90.000000
_cell_volume 3701.747684
_symmetry_space_group_name_H-M "P B C M"
_symmetry_group_IT_number 57
_symmetry_cell_setting 'orthorhombic'
loop_
_space_group_symop_operation_xyz
x,y,z
-x,-y,1/2+z
x,1/2-y,-z
-x,1/2+y,1/2-z
-x,-y,-z
x,y,1/2-z
-x,1/2+y,z
x,1/2-y,1/2+z
loop_
_atom_site_type_symbol
_atom_site_label
_atom_site_fract_x
_atom_site_fract_y
_atom_site_fract_z
Si Si1 0.020788 0.002862 0.833829
Si Si2 0.450676 0.062152 0.615901
Si Si3 0.642974 0.905612 0.556642
Si Si4 0.886016 0.677340 0.997719
Si Si5 0.609524 0.419819 0.657158
Si Si6 0.868076 0.403844 0.945303
Si Si7 0.194016 0.375902 0.334283
Si Si8 0.750078 0.038282 0.602216
O O1 0.033141 0.971293 0.750000
O O2 0.043884 0.957351 0.904651
O O3 0.876582 0.036099 0.840649
O O4 0.131320 0.056084 0.837979
O O5 0.427917 0.075101 0.524545
O O6 0.354511 0.111311 0.657023
O O7 0.610250 0.066624 0.633065
O O8 0.404306 0.992670 0.636436
O O9 0.756928 0.854407 0.540931
O O10 0.524980 0.890369 0.618208
O O11 0.715584 0.967642 0.584210
O O12 0.866723 0.658180 0.907900
O O13 0.883493 0.750000 0.000000
O O14 0.025704 0.649316 0.032568
O O15 0.613589 0.413623 0.750000
O O16 0.744403 0.393611 0.615261
O O17 0.799342 0.428963 0.023756
O O18 0.162245 0.349046 0.250000
#
# Coordination Sequence:
#
# PCOD9434545 Si02
#       8
#     8   8   8   8   8   8   8   8
#     4  11  21  31  50  86 121 149 173 221 293 350
#     4  10  18  31  53  83 116 146 179 212 282 361
#     4  10  19  36  54  80 115 146 189 231 285 347
#     4  11  24  41  61  81 104 158 211 241 277 331
#     4  11  20  32  55  88 122 150 176 223 291 357
#     4  12  19  36  55  81 118 149 189 231 283 348
#     4  10  20  36  59  85 116 147 184 236 290 344
#     4  11  18  31  56  84 112 148 177 228 287 351
#
# _framework density 17.28913
#
# number of rings (size 3 to 8) (size 9 to 14) (size 15 to 20)
#    0.000    1.250    6.250    2.625    0.000    2.500 
#    0.000    2.500    0.000    0.000    0.000    0.000 
#    0.000    0.000    0.000    0.000    0.000    0.000 
#
# Total GULP energy -356950.076553 kJ/mol
# GULP energy per Si atom -5577.344946 kJ/mol
# Density = 1.724978 g / cm^3
# Si number density = 17.289130 Si / 1000 Ang^3
#
#
#
# Elastic Constant Matrix: (Units=GPa)
#
#
# Indices 1 2 3 4 5 6 
#
# 1 136.8105 37.5443 42.2549 0.0000 0.0000 0.0000
# 2 37.5443 61.2474 32.4914 0.0000 0.0000 0.0000
# 3 42.2549 32.4914 106.1950 0.0000 0.0000 0.0000
# 4 0.0000 0.0000 0.0000 2.0425 0.0000 0.0000
# 5 0.0000 0.0000 0.0000 0.0000 12.4521 0.0000
# 6 0.0000 0.0000 0.0000 0.0000 0.0000 5.2711
#
#
#
# Elastic Compliance Matrix: (Units=1/GPa)
#
#
# Indices 1 2 3 4 5 6 
#
# 1 0.009243 -0.004435 -0.002321 0.000000 0.000000 0.000000
# 2 -0.004435 0.021619 -0.004850 0.000000 0.000000 0.000000
# 3 -0.002321 -0.004850 0.011824 0.000000 0.000000 0.000000
# 4 0.000000 0.000000 0.000000 0.489601 0.000000 0.000000
# 5 0.000000 0.000000 0.000000 0.000000 0.080308 0.000000
# 6 0.000000 0.000000 0.000000 0.000000 0.000000 0.189713
#
#
# Mechanical properties :
#
#
# Convention : Reuss Voigt Hill
#
# Bulk Modulus (GPa) = 51.34899 58.75936 55.05417
# Shear Modulus (GPa) = 6.00954 16.75063 11.38008
#
# Velocity S-wave (km/s) = 1.86640 3.11602 2.56837
# Velocity P-wave (km/s) = 5.86594 6.85610 6.38026
#
# Compressibility (1/GPa) = 0.01947458
#
# Stress axis : x y z
#
# Youngs Moduli (GPa) = 108.18699 46.25667 84.57363
#
# Poissons Ratio (x) = 0.20514 0.19630
# Poissons Ratio (y) = 0.47978 0.41017
# Poissons Ratio (z) = 0.25110 0.22434
#
# Static dielectric constant tensor:
#      x y z
#    x 1.636640 0.000000 0.000000 
#    y 0.000000 1.540070 0.000000 
#    z 0.000000 0.000000 1.624080 
# 
# From -- ./inp_files/21424.got.cif
#   From: 2010.05.17/outbox.cif.g08.bks.cpg/sg57_11_cif.got.tgz:21424.got - 2010.06.03 13:58:18.
