data_PCOD9434418
_publ_section_title
;
Structure prediction by ZEFSAII (Michael W. Deem and Ramdas Pophale) SiO2 
 PCOD9434418
Probable space group: P B C M
;
_chemical_formula_sum "Si O2"
_cell_formula_units_Z 64
_cell_length_a 14.824449
_cell_length_b 30.801419
_cell_length_c 8.832266
_cell_angle_alpha 90.000000
_cell_angle_beta 90.000000
_cell_angle_gamma 90.000000
_cell_volume 4032.936882
_symmetry_space_group_name_H-M "P B C M"
_symmetry_group_IT_number 57
_symmetry_cell_setting 'orthorhombic'
loop_
_space_group_symop_operation_xyz
x,y,z
-x,-y,1/2+z
x,1/2-y,-z
-x,1/2+y,1/2-z
-x,-y,-z
x,y,1/2-z
-x,1/2+y,z
x,1/2-y,1/2+z
loop_
_atom_site_type_symbol
_atom_site_label
_atom_site_fract_x
_atom_site_fract_y
_atom_site_fract_z
Si Si1 0.948212 0.541899 0.933348
Si Si2 0.445791 0.459031 0.571150
Si Si3 0.745080 0.524526 0.572606
Si Si4 0.152090 0.703589 0.069580
Si Si5 0.928468 0.378363 0.427628
Si Si6 0.251563 0.935025 0.079084
Si Si7 0.648923 0.203357 0.932929
Si Si8 0.440287 0.884544 0.425940
O O1 0.953577 0.538691 0.750000
O O2 0.843053 0.541738 0.977153
O O3 0.997031 0.586688 0.977963
O O4 0.000000 0.500000 0.000000
O O5 0.500000 0.500000 0.500000
O O6 0.449203 0.464418 0.750000
O O7 0.342936 0.459383 0.514651
O O8 0.493163 0.414381 0.521214
O O9 0.733716 0.533554 0.750000
O O10 0.749214 0.473035 0.541953
O O11 0.160143 0.706665 0.250000
O O12 0.125048 0.750000 0.000000
O O13 0.084554 0.665453 0.021055
O O14 0.251278 0.693837 0.999102
O O15 0.943187 0.367909 0.250000
O O16 0.834006 0.404210 0.438125
O O17 0.247536 0.954210 0.250000
O O18 0.342955 0.907967 0.068322
O O19 0.655674 0.204895 0.750000
O O20 0.580145 0.164791 0.973863
O O21 0.622343 0.250000 0.000000
O O22 0.469628 0.884646 0.250000
#
# Coordination Sequence:
#
# PCOD9434418 Si02
#       8
#     8   8   8   8   8   8   8   8
#     4  10  21  34  52  76 103 137 174 212 252 299
#     4  12  24  36  52  73  99 134 174 215 258 303
#     4  11  22  35  50  73 103 135 175 215 253 299
#     4  11  21  32  49  73 102 135 171 210 252 302
#     4  10  19  34  51  72 103 138 172 208 252 301
#     4  10  18  30  50  71 101 139 172 206 251 297
#     4  10  19  33  51  74 104 136 167 205 253 303
#     4  10  20  34  51  73 102 136 172 208 253 301
#
# _framework density 15.869327999999999
#
# number of rings (size 3 to 8) (size 9 to 14) (size 15 to 20)
#    0.000    1.500    3.750    3.750    0.000    2.500 
#    0.000    0.000    0.000    0.000    0.000    0.875 
#    0.000    4.000    0.000    0.000    0.000    0.000 
#
# Total GULP energy -357213.402442 kJ/mol
# GULP energy per Si atom -5581.459413 kJ/mol
# Density = 1.583321 g / cm^3
# Si number density = 15.869328 Si / 1000 Ang^3
#
#
#
# Elastic Constant Matrix: (Units=GPa)
#
#
# Indices 1 2 3 4 5 6 
#
# 1 102.2845 56.4593 47.5638 0.0000 0.0000 0.0000
# 2 56.4593 119.6198 53.5121 0.0000 0.0000 0.0000
# 3 47.5638 53.5121 79.7994 0.0000 0.0000 0.0000
# 4 0.0000 0.0000 0.0000 27.3881 0.0000 0.0000
# 5 0.0000 0.0000 0.0000 0.0000 18.8689 0.0000
# 6 0.0000 0.0000 0.0000 0.0000 0.0000 19.4610
#
#
#
# Elastic Compliance Matrix: (Units=1/GPa)
#
#
# Indices 1 2 3 4 5 6 
#
# 1 0.014986 -0.004396 -0.005984 0.000000 0.000000 0.000000
# 2 -0.004396 0.013232 -0.006253 0.000000 0.000000 0.000000
# 3 -0.005984 -0.006253 0.020291 0.000000 0.000000 0.000000
# 4 0.000000 0.000000 0.000000 0.036512 0.000000 0.000000
# 5 0.000000 0.000000 0.000000 0.000000 0.052997 0.000000
# 6 0.000000 0.000000 0.000000 0.000000 0.000000 0.051385
#
#
# Mechanical properties :
#
#
# Convention : Reuss Voigt Hill
#
# Bulk Modulus (GPa) = 65.60492 68.53044 67.06768
# Shear Modulus (GPa) = 21.95377 22.75484 22.35431
#
# Velocity S-wave (km/s) = 3.72346 3.79078 3.75727
# Velocity P-wave (km/s) = 7.74054 7.90177 7.82157
#
# Compressibility (1/GPa) = 0.01524276
#
# Stress axis : x y z
#
# Youngs Moduli (GPa) = 66.72859 75.57448 49.28202
#
# Poissons Ratio (x) = 0.33224 0.29492
# Poissons Ratio (y) = 0.29335 0.30815
# Poissons Ratio (z) = 0.39933 0.47255
#
# Static dielectric constant tensor:
#      x y z
#    x 1.526100 0.000000 0.000000 
#    y 0.000000 1.530270 0.000000 
#    z 0.000000 0.000000 1.540390 
# 
# From -- ./inp_files/6044.got.cif
#   From: 2010.05.17/outbox.cif.g08.bks.cpg/sg57_4_cif.got.tgz:6044.got - 2010.06.03 13:58:18.
