data_PCOD9434503
_publ_section_title
;
Structure prediction by ZEFSAII (Michael W. Deem and Ramdas Pophale) SiO2 
 PCOD9434503
Probable space group: P B C M
;
_chemical_formula_sum "Si O2"
_cell_formula_units_Z 40
_cell_length_a 26.752656
_cell_length_b 9.798078
_cell_length_c 8.585240
_cell_angle_alpha 90.000000
_cell_angle_beta 90.000000
_cell_angle_gamma 90.000000
_cell_volume 2250.402688
_symmetry_space_group_name_H-M "P B C M"
_symmetry_group_IT_number 57
_symmetry_cell_setting 'orthorhombic'
loop_
_space_group_symop_operation_xyz
x,y,z
-x,-y,1/2+z
x,1/2-y,-z
-x,1/2+y,1/2-z
-x,-y,-z
x,y,1/2-z
-x,1/2+y,z
x,1/2-y,1/2+z
loop_
_atom_site_type_symbol
_atom_site_label
_atom_site_fract_x
_atom_site_fract_y
_atom_site_fract_z
Si Si1 0.649442 0.905323 0.063683
Si Si2 0.753974 0.904260 0.562474
Si Si3 0.155442 0.902249 0.062276
Si Si4 0.042799 0.902425 0.436679
Si Si5 0.455871 0.094715 0.436557
O O1 0.648218 0.904950 0.250000
O O2 0.650239 0.750000 0.000000
O O3 0.701787 0.964275 0.002701
O O4 0.597630 0.962017 0.996550
O O5 0.759480 0.750000 0.500000
O O6 0.751222 0.899930 0.750000
O O7 0.801202 0.994669 0.512483
O O8 0.156268 0.897473 0.250000
O O9 0.099202 0.944989 0.014755
O O10 0.164162 0.750000 0.000000
O O11 0.035194 0.750000 0.500000
O O12 0.040990 0.900762 0.250000
O O13 0.000000 0.000000 0.500000
O O14 0.461263 0.250000 0.500000
O O15 0.455972 0.098781 0.250000
O O16 0.500000 0.000000 0.500000
#
# Coordination Sequence:
#
# PCOD9434503 Si02
#       5
#     8   8   8   8   8
#     4  10  18  31  51  76 103 136 173 213 259 309
#     4  10  19  33  52  77 103 132 170 214 256 304
#     4   9  20  36  54  75 104 137 172 209 257 311
#     4  10  20  36  55  78 105 138 175 216 261 312
#     4  11  21  36  56  80 108 141 177 218 264 314
#
# _framework density 17.774598000000001
#
# number of rings (size 3 to 8) (size 9 to 14) (size 15 to 20)
#    0.000    2.000    0.000    7.200    0.000    3.200 
#    0.000    3.000    0.000    2.400    0.000    0.000 
#    0.000    0.000    0.000    0.000    0.000    0.000 
#
# Total GULP energy -223178.564076 kJ/mol
# GULP energy per Si atom -5579.464102 kJ/mol
# Density = 1.773414 g / cm^3
# Si number density = 17.774598 Si / 1000 Ang^3
#
#
#
# Elastic Constant Matrix: (Units=GPa)
#
#
# Indices 1 2 3 4 5 6 
#
# 1 219.5645 93.2154 67.8795 0.0000 0.0000 0.0000
# 2 93.2154 61.5242 33.0069 0.0000 0.0000 0.0000
# 3 67.8795 33.0069 115.4344 0.0000 0.0000 0.0000
# 4 0.0000 0.0000 0.0000 26.5777 0.0000 0.0000
# 5 0.0000 0.0000 0.0000 0.0000 28.4882 0.0000
# 6 0.0000 0.0000 0.0000 0.0000 0.0000 37.1842
#
#
#
# Elastic Compliance Matrix: (Units=1/GPa)
#
#
# Indices 1 2 3 4 5 6 
#
# 1 0.013322 -0.018877 -0.002436 0.000000 0.000000 0.000000
# 2 -0.018877 0.045947 -0.002038 0.000000 0.000000 0.000000
# 3 -0.002436 -0.002038 0.010678 0.000000 0.000000 0.000000
# 4 0.000000 0.000000 0.000000 0.037625 0.000000 0.000000
# 5 0.000000 0.000000 0.000000 0.000000 0.035102 0.000000
# 6 0.000000 0.000000 0.000000 0.000000 0.000000 0.026893
#
#
# Mechanical properties :
#
#
# Convention : Reuss Voigt Hill
#
# Bulk Modulus (GPa) = 43.01852 87.19185 65.10519
# Shear Modulus (GPa) = 22.31966 31.94477 27.13222
#
# Velocity S-wave (km/s) = 3.54744 4.24396 3.91123
# Velocity P-wave (km/s) = 6.40577 8.55427 7.55677
#
# Compressibility (1/GPa) = 0.02324580
#
# Stress axis : x y z
#
# Youngs Moduli (GPa) = 75.06570 21.76409 93.64976
#
# Poissons Ratio (x) = 0.41084 0.22814
# Poissons Ratio (y) = 1.41700 0.19084
# Poissons Ratio (z) = 0.18286 0.04435
#
# Static dielectric constant tensor:
#      x y z
#    x 1.649040 0.000000 0.000000 
#    y 0.000000 1.645030 0.000000 
#    z 0.000000 0.000000 1.597490 
# 
# From -- ./inp_files/9629.got.cif
#   From: 2010.05.17/outbox.cif.g08.bks.cpg/sg57_5_cif.got.tgz:9629.got - 2010.06.03 13:58:18.
