data_PCOD9434013
_publ_section_title
;
Structure prediction by ZEFSAII (Michael W. Deem and Ramdas Pophale) SiO2 
 PCOD9434013
Probable space group: P B C M
;
_chemical_formula_sum "Si O2"
_cell_formula_units_Z 40
_cell_length_a 7.459271
_cell_length_b 25.463505
_cell_length_c 8.313553
_cell_angle_alpha 90.000000
_cell_angle_beta 90.000000
_cell_angle_gamma 90.000000
_cell_volume 1579.069476
_symmetry_space_group_name_H-M "P B C M"
_symmetry_group_IT_number 57
_symmetry_cell_setting 'orthorhombic'
loop_
_space_group_symop_operation_xyz
x,y,z
-x,-y,1/2+z
x,1/2-y,-z
-x,1/2+y,1/2-z
-x,-y,-z
x,y,1/2-z
-x,1/2+y,z
x,1/2-y,1/2+z
loop_
_atom_site_type_symbol
_atom_site_label
_atom_site_fract_x
_atom_site_fract_y
_atom_site_fract_z
Si Si1 0.302912 0.941204 0.574509
Si Si2 0.652989 0.177083 0.750000
Si Si3 0.891197 0.980424 0.250000
Si Si4 0.507501 0.438174 0.250000
Si Si5 0.274414 0.815788 0.921209
Si Si6 0.146102 0.193967 0.064815
Si Si7 0.056724 0.366670 0.250000
O O1 0.400719 0.946503 0.750000
O O2 0.404243 0.957684 0.414925
O O3 0.262127 0.879599 0.562695
O O4 0.129931 0.977911 0.604399
O O5 0.542455 0.123782 0.750000
O O6 0.625141 0.202940 0.579301
O O7 0.868119 0.165104 0.750000
O O8 0.701170 0.949547 0.250000
O O9 0.009564 0.928182 0.250000
O O10 0.360348 0.804900 0.750000
O O11 0.068877 0.798570 0.916519
O O12 0.207257 0.180589 0.250000
O O13 0.216408 0.250000 0.000000
O O14 0.156518 0.151589 0.916425
#
# Coordination Sequence:
#
# PCOD9434013 Si02
#       7
#     8   4   4   4   8   8   4
#     4   8  17  30  48  69  99 134 166 207 249 284
#     4   8  16  28  48  63  95 130 157 197 248 283
#     4  10  20  32  49  71 106 136 171 209 235 295
#     4  10  16  32  50  72  92 136 180 208 236 284
#     4   8  14  27  45  67  97 123 157 198 246 292
#     4  10  18  31  53  73  98 130 165 207 255 303
#     4  10  20  36  45  76 109 128 162 206 257 302
#
# _framework density 25.331375000000001
#
# number of rings (size 3 to 8) (size 9 to 14) (size 15 to 20)
#    0.600    2.400    1.000    0.600    0.000    0.000 
#    1.800    9.000    0.000    0.000    0.000   12.600 
#    0.000    0.000    0.000    0.000    0.000    0.000 
#
# Total GULP energy -222885.266788 kJ/mol
# GULP energy per Si atom -5572.131670 kJ/mol
# Density = 2.527372 g / cm^3
# Si number density = 25.331375 Si / 1000 Ang^3
#
#
#
# Elastic Constant Matrix: (Units=GPa)
#
#
# Indices 1 2 3 4 5 6 
#
# 1 45.1311 -1.6032 18.8106 0.0000 0.0000 0.0000
# 2 -1.6032 141.3841 69.2246 0.0000 0.0000 0.0000
# 3 18.8106 69.2246 257.7568 0.0000 0.0000 0.0000
# 4 0.0000 0.0000 0.0000 58.2892 0.0000 0.0000
# 5 0.0000 0.0000 0.0000 0.0000 8.2881 0.0000
# 6 0.0000 0.0000 0.0000 0.0000 0.0000 4.5366
#
#
#
# Elastic Compliance Matrix: (Units=1/GPa)
#
#
# Indices 1 2 3 4 5 6 
#
# 1 0.023043 0.001249 -0.002017 0.000000 0.000000 0.000000
# 2 0.001249 0.008211 -0.002296 0.000000 0.000000 0.000000
# 3 -0.002017 -0.002296 0.004644 0.000000 0.000000 0.000000
# 4 0.000000 0.000000 0.000000 0.017156 0.000000 0.000000
# 5 0.000000 0.000000 0.000000 0.000000 0.120654 0.000000
# 6 0.000000 0.000000 0.000000 0.000000 0.000000 0.220431
#
#
# Mechanical properties :
#
#
# Convention : Reuss Voigt Hill
#
# Bulk Modulus (GPa) = 33.59248 68.57067 51.08158
# Shear Modulus (GPa) = 12.18945 38.07879 25.13412
#
# Velocity S-wave (km/s) = 2.19601 3.88135 3.15336
# Velocity P-wave (km/s) = 4.44071 6.87130 5.78510
#
# Compressibility (1/GPa) = 0.02976857
#
# Stress axis : x y z
#
# Youngs Moduli (GPa) = 43.39760 121.78066 215.35134
#
# Poissons Ratio (x) = -0.15209 0.43437
# Poissons Ratio (y) = -0.05420 0.49455
# Poissons Ratio (z) = 0.08753 0.27966
#
# Static dielectric constant tensor:
#      x y z
#    x 1.969290 0.000000 0.000000 
#    y 0.000000 2.316820 0.000000 
#    z 0.000000 0.000000 2.113930 
# 
# From -- ./inp_files/2945.got.cif
#   From: 2010.05.17/outbox.cif.g08.bks.cpg/sg57_2_cif.got.tgz:2945.got - 2010.06.03 13:58:18.
