data_PCOD9434935
_publ_section_title
;
Structure prediction by ZEFSAII (Michael W. Deem and Ramdas Pophale) SiO2 
 PCOD9434935
Probable space group: P B C M
;
_chemical_formula_sum "Si O2"
_cell_formula_units_Z 64
_cell_length_a 19.011023
_cell_length_b 27.187653
_cell_length_c 8.788512
_cell_angle_alpha 90.000000
_cell_angle_beta 90.000000
_cell_angle_gamma 90.000000
_cell_volume 4542.475103
_symmetry_space_group_name_H-M "P B C M"
_symmetry_group_IT_number 57
_symmetry_cell_setting 'orthorhombic'
loop_
_space_group_symop_operation_xyz
x,y,z
-x,-y,1/2+z
x,1/2-y,-z
-x,1/2+y,1/2-z
-x,-y,-z
x,y,1/2-z
-x,1/2+y,z
x,1/2-y,1/2+z
loop_
_atom_site_type_symbol
_atom_site_label
_atom_site_fract_x
_atom_site_fract_y
_atom_site_fract_z
Si Si1 0.537728 0.548364 0.432868
Si Si2 0.828791 0.302849 0.932965
Si Si3 0.826638 0.005061 0.067293
Si Si4 0.915376 0.102122 0.066236
Si Si5 0.961711 0.951870 0.432463
Si Si6 0.334888 0.696526 0.432837
Si Si7 0.672306 0.006103 0.932504
Si Si8 0.415231 0.896006 0.432781
O O1 0.500000 0.500000 0.500000
O O2 0.468383 0.451133 0.750000
O O3 0.619250 0.538582 0.473043
O O4 0.493067 0.592701 0.502984
O O5 0.831628 0.300244 0.750000
O O6 0.878727 0.347354 0.982549
O O7 0.747219 0.312990 0.974244
O O8 0.848418 0.250000 0.000000
O O9 0.821447 0.006131 0.250000
O O10 0.864929 0.056255 0.021158
O O11 0.880149 0.960748 0.025750
O O12 0.749426 0.001389 0.999969
O O13 0.920136 0.101199 0.250000
O O14 0.992601 0.092650 0.998340
O O15 0.966828 0.952415 0.250000
O O16 0.000000 0.000000 0.500000
O O17 0.353114 0.750000 0.500000
O O18 0.340282 0.697214 0.250000
O O19 0.382278 0.653490 0.501213
O O20 0.677066 0.007334 0.750000
O O21 0.634658 0.057567 0.979006
O O22 0.417381 0.894753 0.250000
#
# Coordination Sequence:
#
# PCOD9434935 Si02
#       8
#     8   8   8   8   8   8   8   8
#     4   9  17  29  42  59  82 108 138 172 206 243
#     4   9  18  30  43  60  83 109 140 174 209 244
#     4   9  17  27  40  58  81 107 137 169 203 242
#     4   9  17  29  42  58  80 108 140 172 204 242
#     4   9  17  28  40  57  79 105 136 169 203 242
#     4  10  19  31  45  61  83 111 140 175 211 243
#     4   9  18  28  40  60  84 108 138 171 202 240
#     4  10  19  30  43  61  83 110 143 174 205 246
#
# _framework density 14.089235
#
# number of rings (size 3 to 8) (size 9 to 14) (size 15 to 20)
#    0.000    2.750    0.000    3.750    0.000    7.500 
#    0.000    0.000    0.000    0.000    0.000    0.000 
#    0.000    1.000    0.000    9.000    0.000    6.750 
#
# Total GULP energy -356374.597536 kJ/mol
# GULP energy per Si atom -5568.353086 kJ/mol
# Density = 1.405717 g / cm^3
# Si number density = 14.089235 Si / 1000 Ang^3
#
#
#
# Elastic Constant Matrix: (Units=GPa)
#
#
# Indices 1 2 3 4 5 6 
#
# 1 119.6083 65.4464 35.3977 0.0000 0.0000 0.0000
# 2 65.4464 95.9316 30.9310 0.0000 0.0000 0.0000
# 3 35.3977 30.9310 32.8632 0.0000 0.0000 0.0000
# 4 0.0000 0.0000 0.0000 21.6870 0.0000 0.0000
# 5 0.0000 0.0000 0.0000 0.0000 25.8709 0.0000
# 6 0.0000 0.0000 0.0000 0.0000 0.0000 29.1927
#
#
#
# Elastic Compliance Matrix: (Units=1/GPa)
#
#
# Indices 1 2 3 4 5 6 
#
# 1 0.015144 -0.007282 -0.009458 0.000000 0.000000 0.000000
# 2 -0.007282 0.018467 -0.009538 0.000000 0.000000 0.000000
# 3 -0.009458 -0.009538 0.049594 0.000000 0.000000 0.000000
# 4 0.000000 0.000000 0.000000 0.046111 0.000000 0.000000
# 5 0.000000 0.000000 0.000000 0.000000 0.038654 0.000000
# 6 0.000000 0.000000 0.000000 0.000000 0.000000 0.034255
#
#
# Mechanical properties :
#
#
# Convention : Reuss Voigt Hill
#
# Bulk Modulus (GPa) = 32.62732 56.88372 44.75552
# Shear Modulus (GPa) = 18.86805 23.12531 20.99668
#
# Velocity S-wave (km/s) = 3.66345 4.05575 3.86458
# Velocity P-wave (km/s) = 6.41112 7.89897 7.19361
#
# Compressibility (1/GPa) = 0.03064916
#
# Stress axis : x y z
#
# Youngs Moduli (GPa) = 66.03100 54.14957 20.16368
#
# Poissons Ratio (x) = 0.39433 0.19072
# Poissons Ratio (y) = 0.48085 0.19232
# Poissons Ratio (z) = 0.62455 0.51647
#
# Static dielectric constant tensor:
#      x y z
#    x 1.475220 0.000000 0.000000 
#    y 0.000000 1.471410 0.000000 
#    z 0.000000 0.000000 1.471240 
# 
# From -- ./inp_files/7446.got.cif
#   From: 2010.05.17/outbox.cif.g08.bks.cpg/sg57_4_cif.got.tgz:7446.got - 2010.06.03 13:58:18.
