data_PCOD9434868
_publ_section_title
;
Structure prediction by ZEFSAII (Michael W. Deem and Ramdas Pophale) SiO2 
 PCOD9434868
Probable space group: P B C M
;
_chemical_formula_sum "Si O2"
_cell_formula_units_Z 64
_cell_length_a 12.717841
_cell_length_b 32.239781
_cell_length_c 8.672478
_cell_angle_alpha 90.000000
_cell_angle_beta 90.000000
_cell_angle_gamma 90.000000
_cell_volume 3555.892973
_symmetry_space_group_name_H-M "P B C M"
_symmetry_group_IT_number 57
_symmetry_cell_setting 'orthorhombic'
loop_
_space_group_symop_operation_xyz
x,y,z
-x,-y,1/2+z
x,1/2-y,-z
-x,1/2+y,1/2-z
-x,-y,-z
x,y,1/2-z
-x,1/2+y,z
x,1/2-y,1/2+z
loop_
_atom_site_type_symbol
_atom_site_label
_atom_site_fract_x
_atom_site_fract_y
_atom_site_fract_z
Si Si1 0.303242 0.295499 0.065436
Si Si2 0.909486 0.378495 0.430444
Si Si3 0.138526 0.367066 0.436634
Si Si4 0.070457 0.534662 0.425512
Si Si5 0.469614 0.355301 0.934200
Si Si6 0.676452 0.392029 0.065033
Si Si7 0.694636 0.571593 0.433680
Si Si8 0.683632 0.482550 0.924202
O O1 0.308225 0.294208 0.250000
O O2 0.211560 0.328056 0.020978
O O3 0.284412 0.250000 0.000000
O O4 0.410100 0.315295 0.999443
O O5 0.903807 0.367900 0.250000
O O6 0.931636 0.426820 0.459468
O O7 0.790320 0.374956 0.493735
O O8 0.018688 0.359481 0.492300
O O9 0.136287 0.370694 0.250000
O O10 0.197358 0.408366 0.499271
O O11 0.038160 0.545836 0.250000
O O12 0.189804 0.519187 0.417421
O O13 0.000000 0.500000 0.500000
O O14 0.477049 0.352874 0.750000
O O15 0.395326 0.394815 0.973275
O O16 0.582604 0.363500 0.006765
O O17 0.680434 0.393314 0.250000
O O18 0.655712 0.439121 0.006189
O O19 0.705562 0.569209 0.250000
O O20 0.661592 0.526479 0.495917
O O21 0.640676 0.482091 0.750000
#
# Coordination Sequence:
#
# PCOD9434868 Si02
#       8
#     8   8   8   8   8   8   8   8
#     4  10  20  36  60  87 111 133 159 196 246 303
#     4   9  18  32  49  70  97 131 169 207 248 295
#     4   9  18  33  53  77 105 135 165 202 253 308
#     4  10  19  28  40  61  90 127 170 214 256 296
#     4  10  21  37  55  76 104 135 170 213 259 307
#     4  10  20  34  52  73  99 136 182 223 258 301
#     4  10  20  32  48  72 100 132 173 221 267 309
#     4  10  20  32  45  64  95 135 177 220 264 308
#
# _framework density 17.998291999999999
#
# number of rings (size 3 to 8) (size 9 to 14) (size 15 to 20)
#    0.000    2.250    0.000    3.000    0.000    8.000 
#    0.000    0.000    0.000    0.750    0.000    1.750 
#    0.000    0.000    0.000    0.000    0.000    0.000 
#
# Total GULP energy -356771.762522 kJ/mol
# GULP energy per Si atom -5574.558789 kJ/mol
# Density = 1.795733 g / cm^3
# Si number density = 17.998292 Si / 1000 Ang^3
#
#
#
# Elastic Constant Matrix: (Units=GPa)
#
#
# Indices 1 2 3 4 5 6 
#
# 1 100.3880 31.2185 16.6144 0.0000 0.0000 0.0000
# 2 31.2185 53.9296 6.8674 0.0000 0.0000 0.0000
# 3 16.6144 6.8674 24.7291 0.0000 0.0000 0.0000
# 4 0.0000 0.0000 0.0000 26.6417 0.0000 0.0000
# 5 0.0000 0.0000 0.0000 0.0000 10.4024 0.0000
# 6 0.0000 0.0000 0.0000 0.0000 0.0000 14.0977
#
#
#
# Elastic Compliance Matrix: (Units=1/GPa)
#
#
# Indices 1 2 3 4 5 6 
#
# 1 0.013224 -0.006763 -0.007007 0.000000 0.000000 0.000000
# 2 -0.006763 0.022681 -0.001755 0.000000 0.000000 0.000000
# 3 -0.007007 -0.001755 0.045633 0.000000 0.000000 0.000000
# 4 0.000000 0.000000 0.000000 0.037535 0.000000 0.000000
# 5 0.000000 0.000000 0.000000 0.000000 0.096131 0.000000
# 6 0.000000 0.000000 0.000000 0.000000 0.000000 0.070933
#
#
# Mechanical properties :
#
#
# Convention : Reuss Voigt Hill
#
# Bulk Modulus (GPa) = 19.80624 32.04971 25.92798
# Shear Modulus (GPa) = 14.96932 18.51813 16.74372
#
# Velocity S-wave (km/s) = 2.88706 3.21110 3.05338
# Velocity P-wave (km/s) = 4.70552 5.62085 5.18343
#
# Compressibility (1/GPa) = 0.05048914
#
# Stress axis : x y z
#
# Youngs Moduli (GPa) = 75.61985 44.08970 21.91403
#
# Poissons Ratio (x) = 0.29817 0.15354
# Poissons Ratio (y) = 0.51141 0.03846
# Poissons Ratio (z) = 0.52983 0.07738
#
# Static dielectric constant tensor:
#      x y z
#    x 1.669850 0.000000 0.000000 
#    y 0.000000 1.572450 0.000000 
#    z 0.000000 0.000000 1.626380 
# 
# From -- ./inp_files/3770.got.cif
#   From: 2010.05.17/outbox.cif.g08.bks.cpg/sg57_2_cif.got.tgz:3770.got - 2010.06.03 13:58:18.
