data_PCOD9434750
_publ_section_title
;
Structure prediction by ZEFSAII (Michael W. Deem and Ramdas Pophale) SiO2 
 PCOD9434750
Probable space group: P B C M
;
_chemical_formula_sum "Si O2"
_cell_formula_units_Z 56
_cell_length_a 9.634100
_cell_length_b 15.608741
_cell_length_c 19.411975
_cell_angle_alpha 90.000000
_cell_angle_beta 90.000000
_cell_angle_gamma 90.000000
_cell_volume 2919.098485
_symmetry_space_group_name_H-M "P B C M"
_symmetry_group_IT_number 57
_symmetry_cell_setting 'orthorhombic'
loop_
_space_group_symop_operation_xyz
x,y,z
-x,-y,1/2+z
x,1/2-y,-z
-x,1/2+y,1/2-z
-x,-y,-z
x,y,1/2-z
-x,1/2+y,z
x,1/2-y,1/2+z
loop_
_atom_site_type_symbol
_atom_site_label
_atom_site_fract_x
_atom_site_fract_y
_atom_site_fract_z
Si Si1 0.808228 0.381970 0.067388
Si Si2 0.895282 0.655743 0.510817
Si Si3 0.277896 0.757372 0.828986
Si Si4 0.967510 0.118082 0.364149
Si Si5 0.537799 0.424336 0.670016
Si Si6 0.773724 0.970035 0.675990
Si Si7 0.253273 0.509634 0.067204
O O1 0.720511 0.311514 0.109448
O O2 0.810012 0.463729 0.116699
O O3 0.965113 0.346389 0.057802
O O4 0.752425 0.418293 0.993925
O O5 0.832952 0.750000 0.500000
O O6 0.791213 0.581470 0.535541
O O7 0.962757 0.635174 0.437525
O O8 0.289952 0.724878 0.750000
O O9 0.131036 0.807242 0.836745
O O10 0.393956 0.830801 0.838866
O O11 0.864892 0.038265 0.378168
O O12 0.099492 0.094930 0.319899
O O13 0.568725 0.450199 0.750000
O O14 0.372834 0.425338 0.661639
O O15 0.606740 0.484337 0.611639
O O16 0.759876 0.014836 0.750000
#
# Coordination Sequence:
#
# PCOD9434750 Si02
#       7
#     8   8   8   8   8   8   8
#     4  11  20  35  61  89 116 151 199 241 292 350
#     4  11  19  35  58  85 121 146 185 249 298 345
#     4  10  20  36  58  87 118 156 203 244 287 352
#     4  10  18  34  58  85 114 148 195 236 291 344
#     4   9  22  40  59  82 117 158 197 244 300 353
#     4  11  21  37  59  84 117 157 196 241 293 349
#     4  10  20  37  62  85 116 154 195 244 295 356
#
# _framework density 19.184006
#
# number of rings (size 3 to 8) (size 9 to 14) (size 15 to 20)
#    0.000    1.714    4.286    1.714    0.000    1.143 
#    0.000    1.429    0.000    1.714    0.000    0.000 
#    0.000    0.000    0.000    0.000    0.000    0.000 
#
# Total GULP energy -311989.366306 kJ/mol
# GULP energy per Si atom -5571.238684 kJ/mol
# Density = 1.914034 g / cm^3
# Si number density = 19.184006 Si / 1000 Ang^3
#
#
#
# Elastic Constant Matrix: (Units=GPa)
#
#
# Indices 1 2 3 4 5 6 
#
# 1 79.0543 25.5320 40.6095 0.0000 0.0000 0.0000
# 2 25.5320 76.5867 25.9249 0.0000 0.0000 0.0000
# 3 40.6095 25.9249 91.6805 0.0000 0.0000 0.0000
# 4 0.0000 0.0000 0.0000 22.8457 0.0000 0.0000
# 5 0.0000 0.0000 0.0000 0.0000 19.7477 0.0000
# 6 0.0000 0.0000 0.0000 0.0000 0.0000 7.9161
#
#
#
# Elastic Compliance Matrix: (Units=1/GPa)
#
#
# Indices 1 2 3 4 5 6 
#
# 1 0.017177 -0.003484 -0.006623 0.000000 0.000000 0.000000
# 2 -0.003484 0.015146 -0.002740 0.000000 0.000000 0.000000
# 3 -0.006623 -0.002740 0.014616 0.000000 0.000000 0.000000
# 4 0.000000 0.000000 0.000000 0.043772 0.000000 0.000000
# 5 0.000000 0.000000 0.000000 0.000000 0.050639 0.000000
# 6 0.000000 0.000000 0.000000 0.000000 0.000000 0.126326
#
#
# Mechanical properties :
#
#
# Convention : Reuss Voigt Hill
#
# Bulk Modulus (GPa) = 47.07053 47.93937 47.50495
# Shear Modulus (GPa) = 16.64163 20.45223 18.54693
#
# Velocity S-wave (km/s) = 2.94849 3.26867 3.11270
# Velocity P-wave (km/s) = 6.01507 6.26810 6.14289
#
# Compressibility (1/GPa) = 0.02124472
#
# Stress axis : x y z
#
# Youngs Moduli (GPa) = 58.21674 66.02387 68.41894
#
# Poissons Ratio (x) = 0.23006 0.45316
# Poissons Ratio (y) = 0.20285 0.18743
# Poissons Ratio (z) = 0.38558 0.18087
#
# Static dielectric constant tensor:
#      x y z
#    x 1.667280 0.000000 0.000000 
#    y 0.000000 1.696830 0.000000 
#    z 0.000000 0.000000 1.494110 
# 
# From -- ./inp_files/24456.got.cif
#   From: 2010.05.17/outbox.cif.g08.bks.cpg/sg57_13_cif.got.tgz:24456.got - 2010.06.03 13:58:18.
