data_PCOD9434643
_publ_section_title
;
Structure prediction by ZEFSAII (Michael W. Deem and Ramdas Pophale) SiO2 
 PCOD9434643
Probable space group: P B C M
;
_chemical_formula_sum "Si O2"
_cell_formula_units_Z 56
_cell_length_a 21.986791
_cell_length_b 14.780606
_cell_length_c 8.653908
_cell_angle_alpha 90.000000
_cell_angle_beta 90.000000
_cell_angle_gamma 90.000000
_cell_volume 2812.330536
_symmetry_space_group_name_H-M "P B C M"
_symmetry_group_IT_number 57
_symmetry_cell_setting 'orthorhombic'
loop_
_space_group_symop_operation_xyz
x,y,z
-x,-y,1/2+z
x,1/2-y,-z
-x,1/2+y,1/2-z
-x,-y,-z
x,y,1/2-z
-x,1/2+y,z
x,1/2-y,1/2+z
loop_
_atom_site_type_symbol
_atom_site_label
_atom_site_fract_x
_atom_site_fract_y
_atom_site_fract_z
Si Si1 0.894857 0.352214 0.065672
Si Si2 0.979262 0.852808 0.565288
Si Si3 0.455336 0.850235 0.063863
Si Si4 0.593359 0.649688 0.935508
Si Si5 0.214959 0.530142 0.434357
Si Si6 0.654703 0.021674 0.935206
Si Si7 0.851393 0.649651 0.565720
O O1 0.898465 0.348458 0.250000
O O2 0.889205 0.250000 0.000000
O O3 0.958310 0.392910 0.000762
O O4 0.837357 0.409565 0.010847
O O5 0.979402 0.750000 0.500000
O O6 0.980779 0.852855 0.750000
O O7 0.914605 0.887695 0.505350
O O8 0.454395 0.847319 0.250000
O O9 0.524027 0.877483 0.018074
O O10 0.401909 0.916408 0.011711
O O11 0.444904 0.750000 0.000000
O O12 0.597328 0.649956 0.750000
O O13 0.603451 0.750000 0.000000
O O14 0.639749 0.578504 0.005783
O O15 0.212382 0.542024 0.250000
O O16 0.281331 0.553539 0.496992
O O17 0.199685 0.424791 0.468445
O O18 0.657248 0.023335 0.750000
O O19 0.839373 0.750000 0.500000
O O20 0.858911 0.657326 0.750000
#
# Coordination Sequence:
#
# PCOD9434643 Si02
#       7
#     8   8   8   8   8   8   8
#     4  11  22  39  62  86 115 150 190 239 291 344
#     4  10  18  32  57  86 115 146 184 232 288 345
#     4   9  20  37  60  89 118 149 188 234 285 339
#     4  10  20  37  61  89 118 150 189 235 286 339
#     4  11  25  42  58  82 115 155 200 240 284 341
#     4  11  23  39  58  84 118 155 194 237 285 340
#     4  10  21  38  60  84 113 147 188 238 289 342
#
# _framework density 19.912312
#
# number of rings (size 3 to 8) (size 9 to 14) (size 15 to 20)
#    0.000    1.714    0.000    6.429    0.000    5.714 
#    0.000    2.857    0.000    0.000    0.000    0.000 
#    0.000    0.000    0.000    0.000    0.000    0.000 
#
# Total GULP energy -312981.887166 kJ/mol
# GULP energy per Si atom -5588.962271 kJ/mol
# Density = 1.986699 g / cm^3
# Si number density = 19.912312 Si / 1000 Ang^3
#
#
#
# Elastic Constant Matrix: (Units=GPa)
#
#
# Indices 1 2 3 4 5 6 
#
# 1 56.1530 5.6846 15.3893 0.0000 0.0000 0.0000
# 2 5.6846 38.4891 11.8948 0.0000 0.0000 0.0000
# 3 15.3893 11.8948 85.7567 0.0000 0.0000 0.0000
# 4 0.0000 0.0000 0.0000 26.9470 0.0000 0.0000
# 5 0.0000 0.0000 0.0000 0.0000 25.9507 0.0000
# 6 0.0000 0.0000 0.0000 0.0000 0.0000 22.5467
#
#
#
# Elastic Compliance Matrix: (Units=1/GPa)
#
#
# Indices 1 2 3 4 5 6 
#
# 1 0.018850 -0.001817 -0.003131 0.000000 0.000000 0.000000
# 2 -0.001817 0.027320 -0.003463 0.000000 0.000000 0.000000
# 3 -0.003131 -0.003463 0.012703 0.000000 0.000000 0.000000
# 4 0.000000 0.000000 0.000000 0.037110 0.000000 0.000000
# 5 0.000000 0.000000 0.000000 0.000000 0.038535 0.000000
# 6 0.000000 0.000000 0.000000 0.000000 0.000000 0.044352
#
#
# Mechanical properties :
#
#
# Convention : Reuss Voigt Hill
#
# Bulk Modulus (GPa) = 23.78005 27.37068 25.57537
# Shear Modulus (GPa) = 23.84252 24.91754 24.38003
#
# Velocity S-wave (km/s) = 3.46407 3.54130 3.50290
# Velocity P-wave (km/s) = 5.28848 5.52237 5.40669
#
# Compressibility (1/GPa) = 0.04205205
#
# Stress axis : x y z
#
# Youngs Moduli (GPa) = 53.04922 36.60318 78.72085
#
# Poissons Ratio (x) = 0.06649 0.24646
# Poissons Ratio (y) = 0.09637 0.27264
# Poissons Ratio (z) = 0.16609 0.12677
#
# Static dielectric constant tensor:
#      x y z
#    x 1.707550 0.000000 0.000000 
#    y 0.000000 1.508640 0.000000 
#    z 0.000000 0.000000 1.662800 
# 
# From -- ./inp_files/8202.got.cif
#   From: 2010.05.17/outbox.cif.g08.bks.cpg/sg57_5_cif.got.tgz:8202.got - 2010.06.03 13:58:18.
