data_PCOD9434763
_publ_section_title
;
Structure prediction by ZEFSAII (Michael W. Deem and Ramdas Pophale) SiO2 
 PCOD9434763
Probable space group: P B C M
;
_chemical_formula_sum "Si O2"
_cell_formula_units_Z 36
_cell_length_a 8.797146
_cell_length_b 24.752635
_cell_length_c 9.706955
_cell_angle_alpha 90.000000
_cell_angle_beta 90.000000
_cell_angle_gamma 90.000000
_cell_volume 2113.714146
_symmetry_space_group_name_H-M "P B C M"
_symmetry_group_IT_number 57
_symmetry_cell_setting 'orthorhombic'
loop_
_space_group_symop_operation_xyz
x,y,z
-x,-y,1/2+z
x,1/2-y,-z
-x,1/2+y,1/2-z
-x,-y,-z
x,y,1/2-z
-x,1/2+y,z
x,1/2-y,1/2+z
loop_
_atom_site_type_symbol
_atom_site_label
_atom_site_fract_x
_atom_site_fract_y
_atom_site_fract_z
Si Si1 0.735791 0.508704 0.750000
Si Si2 0.762018 0.322455 0.750000
Si Si3 0.000204 0.579151 0.250000
Si Si4 0.499539 0.912449 0.750000
Si Si5 0.138255 0.750000 0.500000
Si Si6 0.164846 0.297325 0.406475
Si Si7 0.248967 0.086028 0.484962
O O1 0.594614 0.467871 0.750000
O O2 0.736257 0.544821 0.888160
O O3 0.881452 0.469609 0.750000
O O4 0.616292 0.361748 0.750000
O O5 0.772836 0.283978 0.884682
O O6 0.908133 0.363579 0.750000
O O7 0.893485 0.574764 0.384102
O O8 0.605456 0.912177 0.614939
O O9 0.017765 0.709163 0.573099
O O10 0.232123 0.250000 0.500000
O O11 0.202629 0.286575 0.250000
O O12 0.220568 0.355078 0.452560
#
# Coordination Sequence:
#
# PCOD9434763 Si02
#       7
#     4   4   4   4   4   8   8
#     4  11  22  39  62  83 116 154 203 241 290 342
#     4  11  20  39  57  84 116 156 184 228 293 355
#     4  10  20  36  62  91 114 144 194 249 298 331
#     4  10  26  40  55  78 122 168 185 232 297 354
#     4  10  18  34  62  84 114 144 186 236 290 340
#     4  10  19  33  60  92 112 143 188 242 293 333
#     4  11  21  39  60  89 116 152 198 244 285 346
#
# _framework density 17.031631000000001
#
# number of rings (size 3 to 8) (size 9 to 14) (size 15 to 20)
#    0.667    0.889    4.444    1.333    3.111    0.000 
#    2.000    1.111    0.000    0.000    0.000    0.000 
#    0.000    0.000    0.000    0.000    0.000    0.000 
#
# Total GULP energy -200693.161380 kJ/mol
# GULP energy per Si atom -5574.810038 kJ/mol
# Density = 1.699287 g / cm^3
# Si number density = 17.031631 Si / 1000 Ang^3
#
#
#
# Elastic Constant Matrix: (Units=GPa)
#
#
# Indices 1 2 3 4 5 6 
#
# 1 91.1443 57.2130 64.4492 0.0000 0.0000 0.0000
# 2 57.2130 143.3759 95.2164 0.0000 0.0000 0.0000
# 3 64.4492 95.2164 186.9759 0.0000 0.0000 0.0000
# 4 0.0000 0.0000 0.0000 41.7302 0.0000 0.0000
# 5 0.0000 0.0000 0.0000 0.0000 34.5826 0.0000
# 6 0.0000 0.0000 0.0000 0.0000 0.0000 6.4818
#
#
#
# Elastic Compliance Matrix: (Units=1/GPa)
#
#
# Indices 1 2 3 4 5 6 
#
# 1 0.015960 -0.004103 -0.003412 0.000000 0.000000 0.000000
# 2 -0.004103 0.011593 -0.004490 0.000000 0.000000 0.000000
# 3 -0.003412 -0.004490 0.008811 0.000000 0.000000 0.000000
# 4 0.000000 0.000000 0.000000 0.023963 0.000000 0.000000
# 5 0.000000 0.000000 0.000000 0.000000 0.028916 0.000000
# 6 0.000000 0.000000 0.000000 0.000000 0.000000 0.154279
#
#
# Mechanical properties :
#
#
# Convention : Reuss Voigt Hill
#
# Bulk Modulus (GPa) = 80.93816 95.02813 87.98315
# Shear Modulus (GPa) = 18.40606 30.20008 24.30307
#
# Velocity S-wave (km/s) = 3.29096 4.21548 3.78158
# Velocity P-wave (km/s) = 7.87820 8.92244 8.41653
#
# Compressibility (1/GPa) = 0.01235511
#
# Stress axis : x y z
#
# Youngs Moduli (GPa) = 62.65856 86.25542 113.49841
#
# Poissons Ratio (x) = 0.35388 0.38724
# Poissons Ratio (y) = 0.25707 0.50958
# Poissons Ratio (z) = 0.21378 0.38726
#
# Static dielectric constant tensor:
#      x y z
#    x 1.577500 0.000000 0.000000 
#    y 0.000000 1.548550 0.000000 
#    z 0.000000 0.000000 1.565600 
# 
# From -- ./inp_files/1800.got.cif
#   From: 2010.05.17/outbox.cif.g08.bks.cpg/sg57_1_cif.got.tgz:1800.got - 2010.06.03 13:58:18.
