data_PCOD9434053
_publ_section_title
;
Structure prediction by ZEFSAII (Michael W. Deem and Ramdas Pophale) SiO2 
 PCOD9434053
Probable space group: P B C M
;
_chemical_formula_sum "Si O2"
_cell_formula_units_Z 40
_cell_length_a 9.263058
_cell_length_b 27.131277
_cell_length_c 8.795417
_cell_angle_alpha 90.000000
_cell_angle_beta 90.000000
_cell_angle_gamma 90.000000
_cell_volume 2210.451821
_symmetry_space_group_name_H-M "P B C M"
_symmetry_group_IT_number 57
_symmetry_cell_setting 'orthorhombic'
loop_
_space_group_symop_operation_xyz
x,y,z
-x,-y,1/2+z
x,1/2-y,-z
-x,1/2+y,1/2-z
-x,-y,-z
x,y,1/2-z
-x,1/2+y,z
x,1/2-y,1/2+z
loop_
_atom_site_type_symbol
_atom_site_label
_atom_site_fract_x
_atom_site_fract_y
_atom_site_fract_z
Si Si1 0.663465 0.200621 0.432439
Si Si2 0.331102 0.401916 0.932870
Si Si3 0.841052 0.000065 0.931663
Si Si4 0.328743 0.591447 0.068062
Si Si5 0.338442 0.200004 0.931355
O O1 0.734197 0.250000 0.500000
O O2 0.651786 0.204754 0.250000
O O3 0.727182 0.146767 0.468522
O O4 0.502306 0.199060 0.502965
O O5 0.323097 0.395345 0.750000
O O6 0.243121 0.450298 0.977921
O O7 0.500541 0.409893 0.970452
O O8 0.276008 0.351935 0.011580
O O9 0.848600 0.000142 0.750000
O O10 0.755239 0.048050 0.986808
O O11 0.000000 0.000000 0.000000
O O12 0.316800 0.585058 0.250000
O O13 0.341165 0.202724 0.750000
O O14 0.271168 0.250000 0.000000
#
# Coordination Sequence:
#
# PCOD9434053 Si02
#       5
#     8   8   8   8   8
#     4   9  16  27  45  72 105 136 165 204 250 297
#     4   9  19  35  53  76 104 134 169 212 255 297
#     4  11  23  37  54  74 101 136 172 211 257 305
#     4   9  18  33  53  77 105 133 168 212 255 298
#     4  10  17  26  45  73 104 135 165 203 249 299
#
# _framework density 18.095848
#
# number of rings (size 3 to 8) (size 9 to 14) (size 15 to 20)
#    0.000    2.400    0.000    6.000    0.000    5.600 
#    0.000    0.000    0.000    1.200    0.000    5.600 
#    0.000    0.000    0.000    0.000    0.000    0.000 
#
# Total GULP energy -223006.586647 kJ/mol
# GULP energy per Si atom -5575.164666 kJ/mol
# Density = 1.805466 g / cm^3
# Si number density = 18.095848 Si / 1000 Ang^3
#
#
#
# Elastic Constant Matrix: (Units=GPa)
#
#
# Indices 1 2 3 4 5 6 
#
# 1 47.1498 63.2957 27.4711 0.0000 0.0000 0.0000
# 2 63.2957 228.7720 80.3325 0.0000 0.0000 0.0000
# 3 27.4711 80.3325 71.0705 0.0000 0.0000 0.0000
# 4 0.0000 0.0000 0.0000 36.0451 0.0000 0.0000
# 5 0.0000 0.0000 0.0000 0.0000 18.6281 0.0000
# 6 0.0000 0.0000 0.0000 0.0000 0.0000 -5.1880
#
#
#
# Elastic Compliance Matrix: (Units=1/GPa)
#
#
# Indices 1 2 3 4 5 6 
#
# 1 0.034488 -0.008060 -0.004220 0.000000 0.000000 0.000000
# 2 -0.008060 0.009132 -0.007206 0.000000 0.000000 0.000000
# 3 -0.004220 -0.007206 0.023847 0.000000 0.000000 0.000000
# 4 0.000000 0.000000 0.000000 0.027743 0.000000 0.000000
# 5 0.000000 0.000000 0.000000 0.000000 0.053682 0.000000
# 6 0.000000 0.000000 0.000000 0.000000 0.000000 -0.192752
#
#
# Mechanical properties :
#
#
# Convention : Reuss Voigt Hill
#
# Bulk Modulus (GPa) = 35.09554 76.57677 55.83616
# Shear Modulus (GPa) = 1084.33928 21.62324 552.98126
#
# Velocity S-wave (km/s) = 24.50553 3.46052 17.49994
# Velocity P-wave (km/s) = 28.63792 7.64043 20.95837
#
# Compressibility (1/GPa) = 0.02849365
#
# Stress axis : x y z
#
# Youngs Moduli (GPa) = 28.99560 109.50970 41.93376
#
# Poissons Ratio (x) = 0.88265 0.17697
# Poissons Ratio (y) = 0.23371 0.30218
# Poissons Ratio (z) = 0.12237 0.78915
#
# Static dielectric constant tensor:
#      x y z
#    x 1.585140 0.000000 0.000000 
#    y 0.000000 1.680640 0.000000 
#    z 0.000000 0.000000 1.600410 
# 
# From -- ./inp_files/1532.got.cif
#   From: 2010.05.17/outbox.cif.g08.bks.cpg/sg57_1_cif.got.tgz:1532.got - 2010.06.03 13:58:18.
