data_PCOD9434666
_publ_section_title
;
Structure prediction by ZEFSAII (Michael W. Deem and Ramdas Pophale) SiO2 
 PCOD9434666
Probable space group: P B C M
;
_chemical_formula_sum "Si O2"
_cell_formula_units_Z 64
_cell_length_a 25.115380
_cell_length_b 15.315834
_cell_length_c 8.595677
_cell_angle_alpha 90.000000
_cell_angle_beta 90.000000
_cell_angle_gamma 90.000000
_cell_volume 3306.438824
_symmetry_space_group_name_H-M "P B C M"
_symmetry_group_IT_number 57
_symmetry_cell_setting 'orthorhombic'
loop_
_space_group_symop_operation_xyz
x,y,z
-x,-y,1/2+z
x,1/2-y,-z
-x,1/2+y,1/2-z
-x,-y,-z
x,y,1/2-z
-x,1/2+y,z
x,1/2-y,1/2+z
loop_
_atom_site_type_symbol
_atom_site_label
_atom_site_fract_x
_atom_site_fract_y
_atom_site_fract_z
Si Si1 0.002942 0.150023 0.063151
Si Si2 0.500928 0.099710 0.062865
Si Si3 0.724683 0.159929 0.064451
Si Si4 0.385848 0.398748 0.562019
Si Si5 0.611967 0.105429 0.935395
Si Si6 0.797746 0.500576 0.938021
Si Si7 0.270758 0.341420 0.936159
Si Si8 0.079293 0.001364 0.561933
O O1 0.004067 0.155528 0.250000
O O2 0.952882 0.087079 0.016986
O O3 0.002087 0.250000 0.000000
O O4 0.051906 0.088842 0.005892
O O5 0.502501 0.098311 0.250000
O O6 0.443504 0.137131 0.010373
O O7 0.555654 0.139367 0.000049
O O8 0.500000 0.000000 0.000000
O O9 0.723203 0.161023 0.250000
O O10 0.762444 0.081698 0.011378
O O11 0.746451 0.250000 0.000000
O O12 0.664707 0.147831 0.003536
O O13 0.385352 0.392316 0.750000
O O14 0.384256 0.502019 0.524623
O O15 0.331357 0.356939 0.503289
O O16 0.611807 0.113689 0.750000
O O17 0.796552 0.504084 0.750000
O O18 0.859203 0.495261 0.985675
O O19 0.767864 0.583779 0.005050
O O20 0.272328 0.341782 0.750000
O O21 0.251360 0.250000 0.000000
O O22 0.076355 0.007243 0.750000
#
# Coordination Sequence:
#
# PCOD9434666 Si02
#       8
#     8   8   8   8   8   8   8   8
#     4  10  20  36  61  92 125 161 196 236 284 334
#     4   9  16  28  48  77 106 139 182 231 289 352
#     4  11  23  38  58  84 113 148 191 237 290 351
#     4   8  16  31  52  75 105 141 181 230 284 343
#     4  10  18  33  54  78 107 143 186 234 290 350
#     4  10  22  41  62  86 116 153 196 243 288 335
#     4  11  22  38  58  83 113 150 192 239 291 347
#     4   9  20  39  61  87 121 157 198 242 283 334
#
# _framework density 19.356172999999998
#
# number of rings (size 3 to 8) (size 9 to 14) (size 15 to 20)
#    0.000    2.250    1.250    2.625    0.000    2.500 
#    0.000    2.500    0.000    1.500    0.000    0.000 
#    0.000    0.000    0.000    0.000    0.000    0.000 
#
# Total GULP energy -357066.791793 kJ/mol
# GULP energy per Si atom -5579.168622 kJ/mol
# Density = 1.931212 g / cm^3
# Si number density = 19.356173 Si / 1000 Ang^3
#
#
#
# Elastic Constant Matrix: (Units=GPa)
#
#
# Indices 1 2 3 4 5 6 
#
# 1 165.3139 82.9306 35.7736 0.0000 0.0000 0.0000
# 2 82.9306 152.5087 34.7216 0.0000 0.0000 0.0000
# 3 35.7736 34.7216 31.0770 0.0000 0.0000 0.0000
# 4 0.0000 0.0000 0.0000 21.9868 0.0000 0.0000
# 5 0.0000 0.0000 0.0000 0.0000 23.4533 0.0000
# 6 0.0000 0.0000 0.0000 0.0000 0.0000 -24.9378
#
#
#
# Elastic Compliance Matrix: (Units=1/GPa)
#
#
# Indices 1 2 3 4 5 6 
#
# 1 0.009268 -0.003501 -0.006756 0.000000 0.000000 0.000000
# 2 -0.003501 0.010117 -0.007273 0.000000 0.000000 0.000000
# 3 -0.006756 -0.007273 0.048081 0.000000 0.000000 0.000000
# 4 0.000000 0.000000 0.000000 0.045482 0.000000 0.000000
# 5 0.000000 0.000000 0.000000 0.000000 0.042638 0.000000
# 6 0.000000 0.000000 0.000000 0.000000 0.000000 -0.040100
#
#
# Mechanical properties :
#
#
# Convention : Reuss Voigt Hill
#
# Bulk Modulus (GPa) = 30.85954 72.86125 51.86039
# Shear Modulus (GPa) = 30.98897 17.13204 24.06050
#
# Velocity S-wave (km/s) = 4.00557 2.97828 3.52950
# Velocity P-wave (km/s) = 6.11314 7.03925 6.59247
#
# Compressibility (1/GPa) = 0.03240489
#
# Stress axis : x y z
#
# Youngs Moduli (GPa) = 107.90297 98.84646 20.79815
#
# Poissons Ratio (x) = 0.34609 0.14052
# Poissons Ratio (y) = 0.37780 0.15126
# Poissons Ratio (z) = 0.72902 0.71888
#
# Static dielectric constant tensor:
#      x y z
#    x 1.689760 0.000000 0.000000 
#    y 0.000000 1.669530 0.000000 
#    z 0.000000 0.000000 1.656380 
# 
# From -- ./inp_files/9498.got.cif
#   From: 2010.05.17/outbox.cif.g08.bks.cpg/sg57_5_cif.got.tgz:9498.got - 2010.06.03 13:58:18.
