data_PCOD9434438
_publ_section_title
;
Structure prediction by ZEFSAII (Michael W. Deem and Ramdas Pophale) SiO2 
 PCOD9434438
Probable space group: P B C M
;
_chemical_formula_sum "Si O2"
_cell_formula_units_Z 64
_cell_length_a 15.789957
_cell_length_b 21.947797
_cell_length_c 8.472389
_cell_angle_alpha 90.000000
_cell_angle_beta 90.000000
_cell_angle_gamma 90.000000
_cell_volume 2936.146829
_symmetry_space_group_name_H-M "P B C M"
_symmetry_group_IT_number 57
_symmetry_cell_setting 'orthorhombic'
loop_
_space_group_symop_operation_xyz
x,y,z
-x,-y,1/2+z
x,1/2-y,-z
-x,1/2+y,1/2-z
-x,-y,-z
x,y,1/2-z
-x,1/2+y,z
x,1/2-y,1/2+z
loop_
_atom_site_type_symbol
_atom_site_label
_atom_site_fract_x
_atom_site_fract_y
_atom_site_fract_z
Si Si1 0.760295 0.318175 0.436820
Si Si2 0.416944 0.864312 0.936197
Si Si3 0.600404 0.868824 0.939635
Si Si4 0.089570 0.598243 0.435780
Si Si5 0.042624 0.188512 0.936834
Si Si6 0.198389 0.492136 0.063633
Si Si7 0.376377 0.508602 0.565221
Si Si8 0.779598 0.651776 0.936104
O O1 0.772382 0.250000 0.500000
O O2 0.775696 0.320955 0.250000
O O3 0.663610 0.337659 0.473759
O O4 0.826480 0.362600 0.523043
O O5 0.406507 0.852115 0.750000
O O6 0.509893 0.842118 0.990838
O O7 0.417179 0.937281 0.965619
O O8 0.599421 0.870592 0.750000
O O9 0.605590 0.939896 0.992928
O O10 0.687305 0.837356 0.991699
O O11 0.073108 0.601843 0.250000
O O12 0.114022 0.528979 0.477885
O O13 0.011806 0.629573 0.522237
O O14 0.048968 0.192768 0.750000
O O15 0.137743 0.184133 0.005417
O O16 0.000147 0.250000 0.000000
O O17 0.216522 0.505104 0.250000
O O18 0.197666 0.419837 0.045802
O O19 0.275635 0.515806 0.958183
O O20 0.398761 0.514167 0.750000
O O21 0.772906 0.664632 0.750000
#
# Coordination Sequence:
#
# PCOD9434438 Si02
#       8
#     8   8   8   8   8   8   8   8
#     4  12  25  41  60  83 115 154 198 245 294 351
#     4  11  21  35  54  81 117 156 196 239 287 339
#     4   9  20  35  55  84 118 153 193 239 287 342
#     4  11  22  38  62  90 120 152 189 233 291 355
#     4  11  24  42  63  87 115 149 197 246 292 345
#     4   9  18  34  57  85 120 156 189 230 290 354
#     4  10  18  30  51  83 118 155 195 234 280 336
#     4   9  20  39  61  86 117 154 195 244 294 347
#
# _framework density 21.797276
#
# number of rings (size 3 to 8) (size 9 to 14) (size 15 to 20)
#    0.000    1.750    1.250    3.375    0.000    3.500 
#    0.000    0.625    0.000    1.500    0.000    0.000 
#    0.000    0.000    0.000    0.000    0.000    0.000 
#
# Total GULP energy -357572.409740 kJ/mol
# GULP energy per Si atom -5587.068902 kJ/mol
# Density = 2.174766 g / cm^3
# Si number density = 21.797276 Si / 1000 Ang^3
#
#
#
# Elastic Constant Matrix: (Units=GPa)
#
#
# Indices 1 2 3 4 5 6 
#
# 1 88.9988 -1.0171 -6.4735 0.0000 0.0000 0.0000
# 2 -1.0171 12.8006 -0.1978 0.0000 0.0000 0.0000
# 3 -6.4735 -0.1978 26.2758 0.0000 0.0000 0.0000
# 4 0.0000 0.0000 0.0000 14.4331 0.0000 0.0000
# 5 0.0000 0.0000 0.0000 0.0000 6.5589 0.0000
# 6 0.0000 0.0000 0.0000 0.0000 0.0000 11.1668
#
#
#
# Elastic Compliance Matrix: (Units=1/GPa)
#
#
# Indices 1 2 3 4 5 6 
#
# 1 0.011453 0.000954 0.002829 0.000000 0.000000 0.000000
# 2 0.000954 0.078210 0.000824 0.000000 0.000000 0.000000
# 3 0.002829 0.000824 0.038761 0.000000 0.000000 0.000000
# 4 0.000000 0.000000 0.000000 0.069285 0.000000 0.000000
# 5 0.000000 0.000000 0.000000 0.000000 0.152464 0.000000
# 6 0.000000 0.000000 0.000000 0.000000 0.000000 0.089552
#
#
# Mechanical properties :
#
#
# Convention : Reuss Voigt Hill
#
# Bulk Modulus (GPa) = 7.26556 12.52205 9.89381
# Shear Modulus (GPa) = 10.49558 15.48265 12.98912
#
# Velocity S-wave (km/s) = 2.19671 2.66804 2.44377
# Velocity P-wave (km/s) = 3.12643 3.90493 3.53716
#
# Compressibility (1/GPa) = 0.13763566
#
# Stress axis : x y z
#
# Youngs Moduli (GPa) = 87.31516 12.78612 25.79920
#
# Poissons Ratio (x) = -0.01219 -0.07298
# Poissons Ratio (y) = -0.08327 -0.02125
# Poissons Ratio (z) = -0.24699 -0.01053
#
# Static dielectric constant tensor:
#      x y z
#    x 1.829410 0.000000 0.000000 
#    y 0.000000 1.826600 0.000000 
#    z 0.000000 0.000000 1.722350 
# 
# From -- ./inp_files/5761.got.cif
#   From: 2010.05.17/outbox.cif.g08.bks.cpg/sg57_3_cif.got.tgz:5761.got - 2010.06.03 13:58:18.
