data_PCOD9434238
_publ_section_title
;
Structure prediction by ZEFSAII (Michael W. Deem and Ramdas Pophale) SiO2 
 PCOD9434238
Probable space group: P B C M
;
_chemical_formula_sum "Si O2"
_cell_formula_units_Z 56
_cell_length_a 15.179192
_cell_length_b 27.451884
_cell_length_c 7.980050
_cell_angle_alpha 90.000000
_cell_angle_beta 90.000000
_cell_angle_gamma 90.000000
_cell_volume 3325.266230
_symmetry_space_group_name_H-M "P B C M"
_symmetry_group_IT_number 57
_symmetry_cell_setting 'orthorhombic'
loop_
_space_group_symop_operation_xyz
x,y,z
-x,-y,1/2+z
x,1/2-y,-z
-x,1/2+y,1/2-z
-x,-y,-z
x,y,1/2-z
-x,1/2+y,z
x,1/2-y,1/2+z
loop_
_atom_site_type_symbol
_atom_site_label
_atom_site_fract_x
_atom_site_fract_y
_atom_site_fract_z
Si Si1 0.478205 0.113572 0.050900
Si Si2 0.687880 0.564403 0.548905
Si Si3 0.622274 0.460539 0.952495
Si Si4 0.927588 0.432639 0.452376
Si Si5 0.616319 0.305903 0.449533
Si Si6 0.118722 0.457280 0.452597
Si Si7 0.238169 0.878894 0.451935
O O1 0.478509 0.110364 0.250000
O O2 0.535653 0.067556 0.982929
O O3 0.378148 0.108022 0.992684
O O4 0.532703 0.161630 0.003598
O O5 0.692172 0.560813 0.750000
O O6 0.642439 0.514506 0.483878
O O7 0.788662 0.564779 0.487240
O O8 0.617339 0.462526 0.750000
O O9 0.702723 0.425579 0.001737
O O10 0.929649 0.430256 0.250000
O O11 0.889571 0.485862 0.499297
O O12 0.860065 0.391233 0.513591
O O13 0.028597 0.431815 0.513325
O O14 0.610565 0.250000 0.500000
O O15 0.619640 0.308288 0.250000
O O16 0.705007 0.332954 0.515591
O O17 0.118443 0.455139 0.250000
O O18 0.233908 0.875195 0.250000
#
# Coordination Sequence:
#
# PCOD9434238 Si02
#       7
#     8   8   8   8   8   8   8
#     4  10  20  31  45  65  88 118 153 189 228 271
#     4  10  18  28  41  61  91 126 158 190 223 263
#     4   9  17  28  41  60  89 122 155 187 221 263
#     4   9  16  27  42  63  89 120 156 189 222 262
#     4  10  20  35  52  70  91 114 143 184 232 280
#     4   9  17  27  41  61  90 125 158 189 221 259
#     4   9  17  28  45  67  91 118 149 186 227 272
#
# _framework density 16.840755999999999
#
# number of rings (size 3 to 8) (size 9 to 14) (size 15 to 20)
#    0.000    2.571    1.429    1.286    0.000    2.286 
#    0.000    0.000    0.000    0.000    0.000    1.000 
#    0.000    2.286    0.000    0.000    0.000    0.000 
#
# Total GULP energy -311987.812160 kJ/mol
# GULP energy per Si atom -5571.210931 kJ/mol
# Density = 1.680243 g / cm^3
# Si number density = 16.840756 Si / 1000 Ang^3
#
#
#
# Elastic Constant Matrix: (Units=GPa)
#
#
# Indices 1 2 3 4 5 6 
#
# 1 171.0672 72.0208 12.6074 0.0000 0.0000 0.0000
# 2 72.0208 75.6749 0.5405 0.0000 0.0000 0.0000
# 3 12.6074 0.5405 12.8227 0.0000 0.0000 0.0000
# 4 0.0000 0.0000 0.0000 15.3258 0.0000 0.0000
# 5 0.0000 0.0000 0.0000 0.0000 13.3150 0.0000
# 6 0.0000 0.0000 0.0000 0.0000 0.0000 11.2599
#
#
#
# Elastic Compliance Matrix: (Units=1/GPa)
#
#
# Indices 1 2 3 4 5 6 
#
# 1 0.010975 -0.010371 -0.010354 0.000000 0.000000 0.000000
# 2 -0.010371 0.023019 0.009227 0.000000 0.000000 0.000000
# 3 -0.010354 0.009227 0.087778 0.000000 0.000000 0.000000
# 4 0.000000 0.000000 0.000000 0.065249 0.000000 0.000000
# 5 0.000000 0.000000 0.000000 0.000000 0.075103 0.000000
# 6 0.000000 0.000000 0.000000 0.000000 0.000000 0.088811
#
#
# Mechanical properties :
#
#
# Convention : Reuss Voigt Hill
#
# Bulk Modulus (GPa) = 10.12397 47.76692 28.94545
# Shear Modulus (GPa) = 12.28935 19.60655 15.94795
#
# Velocity S-wave (km/s) = 2.70430 3.41579 3.08065
# Velocity P-wave (km/s) = 3.97185 6.63191 5.46616
#
# Compressibility (1/GPa) = 0.09877544
#
# Stress axis : x y z
#
# Youngs Moduli (GPa) = 91.11585 43.44264 11.39242
#
# Poissons Ratio (x) = 0.45055 0.11795
# Poissons Ratio (y) = 0.94497 -0.10511
# Poissons Ratio (z) = 0.94338 -0.40083
#
# Static dielectric constant tensor:
#      x y z
#    x 1.642060 0.000000 0.000000 
#    y 0.000000 1.528900 0.000000 
#    z 0.000000 0.000000 1.580590 
# 
# From -- ./inp_files/5894.got.cif
#   From: 2010.05.17/outbox.cif.g08.bks.cpg/sg57_3_cif.got.tgz:5894.got - 2010.06.03 13:58:18.
