data_PCOD9434428
_publ_section_title
;
Structure prediction by ZEFSAII (Michael W. Deem and Ramdas Pophale) SiO2 
 PCOD9434428
Probable space group: P B C M
;
_chemical_formula_sum "Si O2"
_cell_formula_units_Z 64
_cell_length_a 19.507247
_cell_length_b 23.474215
_cell_length_c 8.864850
_cell_angle_alpha 90.000000
_cell_angle_beta 90.000000
_cell_angle_gamma 90.000000
_cell_volume 4059.368267
_symmetry_space_group_name_H-M "P B C M"
_symmetry_group_IT_number 57
_symmetry_cell_setting 'orthorhombic'
loop_
_space_group_symop_operation_xyz
x,y,z
-x,-y,1/2+z
x,1/2-y,-z
-x,1/2+y,1/2-z
-x,-y,-z
x,y,1/2-z
-x,1/2+y,z
x,1/2-y,1/2+z
loop_
_atom_site_type_symbol
_atom_site_label
_atom_site_fract_x
_atom_site_fract_y
_atom_site_fract_z
Si Si1 0.159979 0.413081 0.931451
Si Si2 0.574039 0.491978 0.928108
Si Si3 0.943808 0.811856 0.930630
Si Si4 0.916422 0.362242 0.068522
Si Si5 0.073920 0.985128 0.569558
Si Si6 0.698391 0.956527 0.926745
Si Si7 0.228727 0.689718 0.931625
Si Si8 0.682274 0.417858 0.428036
O O1 0.155677 0.423497 0.750000
O O2 0.118163 0.355608 0.963140
O O3 0.240460 0.414922 0.971680
O O4 0.123533 0.464331 0.018417
O O5 0.569005 0.491131 0.750000
O O6 0.500000 0.500000 0.000000
O O7 0.627708 0.540996 0.981713
O O8 0.612265 0.434765 0.987689
O O9 0.951662 0.808027 0.750000
O O10 0.931103 0.750000 0.000000
O O11 0.013796 0.836949 0.000581
O O12 0.921911 0.365650 0.250000
O O13 0.850139 0.324433 0.029298
O O14 0.904972 0.424779 0.000514
O O15 0.069630 0.981227 0.750000
O O16 0.000000 0.000000 0.500000
O O17 0.682641 0.948164 0.750000
O O18 0.724536 0.022564 0.942529
O O19 0.232722 0.692040 0.750000
O O20 0.276328 0.636860 0.982143
O O21 0.249290 0.750000 0.000000
O O22 0.668141 0.410918 0.250000
#
# Coordination Sequence:
#
# PCOD9434428 Si02
#       8
#     8   8   8   8   8   8   8   8
#     4  10  20  36  54  72  98 132 169 206 256 309
#     4  10  18  30  50  79 109 137 164 195 241 299
#     4  11  23  37  53  71  95 132 175 222 266 311
#     4  11  22  37  54  72  98 134 175 222 270 315
#     4  12  23  34  51  75 100 129 167 212 265 318
#     4   8  16  32  52  73 101 132 162 201 250 301
#     4  10  21  35  51  71  99 138 180 219 261 304
#     4   8  16  32  50  71 101 137 167 204 253 300
#
# _framework density 15.765999000000001
#
# number of rings (size 3 to 8) (size 9 to 14) (size 15 to 20)
#    0.750    1.250    1.250    3.750    0.000    5.500 
#    0.000    0.000    0.000    0.000    0.000    0.875 
#    0.000    4.000    0.000    0.000    0.000    0.000 
#
# Total GULP energy -356610.216335 kJ/mol
# GULP energy per Si atom -5572.034630 kJ/mol
# Density = 1.573011 g / cm^3
# Si number density = 15.765999 Si / 1000 Ang^3
#
#
#
# Elastic Constant Matrix: (Units=GPa)
#
#
# Indices 1 2 3 4 5 6 
#
# 1 122.8742 47.9917 54.5318 0.0000 0.0000 0.0000
# 2 47.9917 89.0919 41.6379 0.0000 0.0000 0.0000
# 3 54.5318 41.6379 68.3649 0.0000 0.0000 0.0000
# 4 0.0000 0.0000 0.0000 23.0917 0.0000 0.0000
# 5 0.0000 0.0000 0.0000 0.0000 22.9663 0.0000
# 6 0.0000 0.0000 0.0000 0.0000 0.0000 13.0078
#
#
#
# Elastic Compliance Matrix: (Units=1/GPa)
#
#
# Indices 1 2 3 4 5 6 
#
# 1 0.013167 -0.003053 -0.008643 0.000000 0.000000 0.000000
# 2 -0.003053 0.016399 -0.007552 0.000000 0.000000 0.000000
# 3 -0.008643 -0.007552 0.026121 0.000000 0.000000 0.000000
# 4 0.000000 0.000000 0.000000 0.043306 0.000000 0.000000
# 5 0.000000 0.000000 0.000000 0.000000 0.043542 0.000000
# 6 0.000000 0.000000 0.000000 0.000000 0.000000 0.076877
#
#
# Mechanical properties :
#
#
# Convention : Reuss Voigt Hill
#
# Bulk Modulus (GPa) = 58.17414 63.18377 60.67896
# Shear Modulus (GPa) = 18.96540 20.89112 19.92826
#
# Velocity S-wave (km/s) = 3.47209 3.64411 3.55914
# Velocity P-wave (km/s) = 7.28371 7.60717 7.44720
#
# Compressibility (1/GPa) = 0.01718977
#
# Stress axis : x y z
#
# Youngs Moduli (GPa) = 75.94933 60.98049 38.28305
#
# Poissons Ratio (x) = 0.18619 0.33088
# Poissons Ratio (y) = 0.23189 0.28912
# Poissons Ratio (z) = 0.65642 0.46054
#
# Static dielectric constant tensor:
#      x y z
#    x 1.526440 0.000000 0.000000 
#    y 0.000000 1.490960 0.000000 
#    z 0.000000 0.000000 1.525470 
# 
# From -- ./inp_files/8781.got.cif
#   From: 2010.05.17/outbox.cif.g08.bks.cpg/sg57_5_cif.got.tgz:8781.got - 2010.06.03 13:58:18.
