data_PCOD9434178
_publ_section_title
;
Structure prediction by ZEFSAII (Michael W. Deem and Ramdas Pophale) SiO2 
 PCOD9434178
Probable space group: P B C M
;
_chemical_formula_sum "Si O2"
_cell_formula_units_Z 56
_cell_length_a 10.579317
_cell_length_b 12.838507
_cell_length_c 15.489725
_cell_angle_alpha 90.000000
_cell_angle_beta 90.000000
_cell_angle_gamma 90.000000
_cell_volume 2103.855270
_symmetry_space_group_name_H-M "P B C M"
_symmetry_group_IT_number 57
_symmetry_cell_setting 'orthorhombic'
loop_
_space_group_symop_operation_xyz
x,y,z
-x,-y,1/2+z
x,1/2-y,-z
-x,1/2+y,1/2-z
-x,-y,-z
x,y,1/2-z
-x,1/2+y,z
x,1/2-y,1/2+z
loop_
_atom_site_type_symbol
_atom_site_label
_atom_site_fract_x
_atom_site_fract_y
_atom_site_fract_z
Si Si1 0.547931 0.350326 0.648224
Si Si2 0.359346 0.328148 0.349436
Si Si3 0.156317 0.066432 0.569671
Si Si4 0.859115 0.838718 0.610615
Si Si5 0.978793 0.555565 0.750000
Si Si6 0.048224 0.791398 0.750000
Si Si7 0.768076 0.137223 0.009741
Si Si8 0.677648 0.017589 0.847013
O O1 0.581929 0.354993 0.750000
O O2 0.483070 0.237849 0.631326
O O3 0.666703 0.357210 0.586745
O O4 0.440292 0.439361 0.634008
O O5 0.362321 0.362572 0.250000
O O6 0.307654 0.418338 0.410521
O O7 0.251243 0.241240 0.362951
O O8 0.130893 0.141435 0.490171
O O9 0.086718 0.080572 0.658937
O O10 0.134139 0.951613 0.534366
O O11 0.979079 0.796214 0.658805
O O12 0.806295 0.947488 0.651406
O O13 0.082798 0.660651 0.750000
O O14 0.937514 0.425942 0.750000
O O15 0.824997 0.250000 0.000000
O O16 0.699314 0.099041 0.922614
O O17 0.657039 0.057223 0.750000
#
# Coordination Sequence:
#
# PCOD9434178 Si02
#       8
#     8   8   8   8   4   4   8   8
#     4   9  20  34  59  94 129 169 225 292 337 394
#     4  10  17  35  66  99 128 172 232 282 335 397
#     4  11  23  42  68  98 132 184 226 285 340 419
#     4  10  18  37  71  95 131 167 224 277 336 401
#     4  12  28  48  74 111 143 173 223 282 360 422
#     4  12  24  48  74 111 143 173 223 288 346 432
#     4  11  25  39  54  85 133 182 229 277 341 402
#     4   9  18  37  61  90 117 173 227 282 337 395
#
# _framework density 26.617799000000002
#
# number of rings (size 3 to 8) (size 9 to 14) (size 15 to 20)
#    0.000    1.714    3.571    1.714    1.000    5.714 
#    5.143    2.857    0.000    0.000    0.000    0.000 
#    0.000    0.000    0.000    0.000    0.000    0.000 
#
# Total GULP energy -312433.970868 kJ/mol
# GULP energy per Si atom -5579.178051 kJ/mol
# Density = 2.655722 g / cm^3
# Si number density = 26.617799 Si / 1000 Ang^3
#
#
#
# Elastic Constant Matrix: (Units=GPa)
#
#
# Indices 1 2 3 4 5 6 
#
# 1 38.2139 17.8572 21.9029 0.0000 0.0000 0.0000
# 2 17.8572 181.0625 39.5601 0.0000 0.0000 0.0000
# 3 21.9029 39.5601 130.1978 0.0000 0.0000 0.0000
# 4 0.0000 0.0000 0.0000 11.6734 0.0000 0.0000
# 5 0.0000 0.0000 0.0000 0.0000 12.1461 0.0000
# 6 0.0000 0.0000 0.0000 0.0000 0.0000 34.2501
#
#
#
# Elastic Compliance Matrix: (Units=1/GPa)
#
#
# Indices 1 2 3 4 5 6 
#
# 1 0.029597 -0.001961 -0.004383 0.000000 0.000000 0.000000
# 2 -0.001961 0.006046 -0.001507 0.000000 0.000000 0.000000
# 3 -0.004383 -0.001507 0.008876 0.000000 0.000000 0.000000
# 4 0.000000 0.000000 0.000000 0.085665 0.000000 0.000000
# 5 0.000000 0.000000 0.000000 0.000000 0.082331 0.000000
# 6 0.000000 0.000000 0.000000 0.000000 0.000000 0.029197
#
#
# Mechanical properties :
#
#
# Convention : Reuss Voigt Hill
#
# Bulk Modulus (GPa) = 34.70310 56.45719 45.58015
# Shear Modulus (GPa) = 18.72521 29.62419 24.17470
#
# Velocity S-wave (km/s) = 2.65521 3.33970 3.01693
# Velocity P-wave (km/s) = 4.73983 6.01065 5.41266
#
# Compressibility (1/GPa) = 0.02881587
#
# Stress axis : x y z
#
# Youngs Moduli (GPa) = 33.78684 165.40804 112.66485
#
# Poissons Ratio (x) = 0.32442 0.49383
# Poissons Ratio (y) = 0.06627 0.16979
# Poissons Ratio (z) = 0.14809 0.24927
#
# Static dielectric constant tensor:
#      x y z
#    x 2.131140 0.000000 0.000000 
#    y 0.000000 2.312220 0.000000 
#    z 0.000000 0.000000 1.972860 
# 
# From -- ./inp_files/18569.got.cif
#   From: 2010.05.17/outbox.cif.g08.bks.cpg/sg57_10_cif.got.tgz:18569.got - 2010.06.03 13:58:18.
