data_PCOD9434326
_publ_section_title
;
Structure prediction by ZEFSAII (Michael W. Deem and Ramdas Pophale) SiO2 
 PCOD9434326
Probable space group: P B C M
;
_chemical_formula_sum "Si O2"
_cell_formula_units_Z 56
_cell_length_a 19.542328
_cell_length_b 18.686004
_cell_length_c 8.791174
_cell_angle_alpha 90.000000
_cell_angle_beta 90.000000
_cell_angle_gamma 90.000000
_cell_volume 3210.255596
_symmetry_space_group_name_H-M "P B C M"
_symmetry_group_IT_number 57
_symmetry_cell_setting 'orthorhombic'
loop_
_space_group_symop_operation_xyz
x,y,z
-x,-y,1/2+z
x,1/2-y,-z
-x,1/2+y,1/2-z
-x,-y,-z
x,y,1/2-z
-x,1/2+y,z
x,1/2-y,1/2+z
loop_
_atom_site_type_symbol
_atom_site_label
_atom_site_fract_x
_atom_site_fract_y
_atom_site_fract_z
Si Si1 0.588791 0.830387 0.433047
Si Si2 0.931474 0.533296 0.931976
Si Si3 0.439313 0.829789 0.067311
Si Si4 0.862993 0.828004 0.932066
Si Si5 0.789696 0.042794 0.068448
Si Si6 0.289009 0.670242 0.932654
Si Si7 0.720958 0.904829 0.568045
O O1 0.593178 0.750000 0.500000
O O2 0.593472 0.826880 0.250000
O O3 0.513340 0.861200 0.476089
O O4 0.651197 0.875343 0.498657
O O5 0.936732 0.539268 0.750000
O O6 0.866885 0.481893 0.967963
O O7 0.912062 0.610592 0.000826
O O8 0.000000 0.500000 0.000000
O O9 0.439304 0.825293 0.250000
O O10 0.365013 0.860111 0.023611
O O11 0.439596 0.750000 0.000000
O O12 0.869336 0.826582 0.750000
O O13 0.785114 0.852715 0.969841
O O14 0.876325 0.750000 0.000000
O O15 0.782329 0.044211 0.250000
O O16 0.767921 0.118050 0.998712
O O17 0.741223 0.981587 0.998728
O O18 0.284914 0.673327 0.750000
O O19 0.283468 0.750000 0.000000
O O20 0.715747 0.908852 0.750000
#
# Coordination Sequence:
#
# PCOD9434326 Si02
#       7
#     8   8   8   8   8   8   8
#     4  10  18  29  46  70 101 136 175 218 261 307
#     4  10  21  38  60  83 110 141 173 209 255 310
#     4   8  16  29  46  69  97 131 171 214 261 308
#     4  10  20  34  54  80 110 142 178 216 256 303
#     4  10  21  37  56  79 105 134 168 208 255 309
#     4  10  19  34  56  79 103 133 172 218 263 309
#     4  10  20  33  50  74 104 139 176 215 259 308
#
# _framework density 17.444094
#
# number of rings (size 3 to 8) (size 9 to 14) (size 15 to 20)
#    0.000    2.286    0.000    3.000    0.000    5.714 
#    0.000    1.429    0.000    3.429    0.000    0.000 
#    0.000    0.000    0.000    0.000    0.000    0.000 
#
# Total GULP energy -312297.547277 kJ/mol
# GULP energy per Si atom -5576.741916 kJ/mol
# Density = 1.740439 g / cm^3
# Si number density = 17.444094 Si / 1000 Ang^3
#
#
#
# Elastic Constant Matrix: (Units=GPa)
#
#
# Indices 1 2 3 4 5 6 
#
# 1 114.5963 79.7046 53.6458 0.0000 0.0000 0.0000
# 2 79.7046 108.7086 48.0959 0.0000 0.0000 0.0000
# 3 53.6458 48.0959 57.6582 0.0000 0.0000 0.0000
# 4 0.0000 0.0000 0.0000 31.7738 0.0000 0.0000
# 5 0.0000 0.0000 0.0000 0.0000 23.2722 0.0000
# 6 0.0000 0.0000 0.0000 0.0000 0.0000 25.1162
#
#
#
# Elastic Compliance Matrix: (Units=1/GPa)
#
#
# Indices 1 2 3 4 5 6 
#
# 1 0.021336 -0.010874 -0.010781 0.000000 0.000000 0.000000
# 2 -0.010874 0.020121 -0.006667 0.000000 0.000000 0.000000
# 3 -0.010781 -0.006667 0.032936 0.000000 0.000000 0.000000
# 4 0.000000 0.000000 0.000000 0.031472 0.000000 0.000000
# 5 0.000000 0.000000 0.000000 0.000000 0.042970 0.000000
# 6 0.000000 0.000000 0.000000 0.000000 0.000000 0.039815
#
#
# Mechanical properties :
#
#
# Convention : Reuss Voigt Hill
#
# Bulk Modulus (GPa) = 56.34012 71.53954 63.93983
# Shear Modulus (GPa) = 19.90362 22.66690 21.28526
#
# Velocity S-wave (km/s) = 3.38153 3.60863 3.49692
# Velocity P-wave (km/s) = 6.90029 7.64609 7.28274
#
# Compressibility (1/GPa) = 0.01774934
#
# Stress axis : x y z
#
# Youngs Moduli (GPa) = 46.86887 49.69875 30.36206
#
# Poissons Ratio (x) = 0.54041 0.32733
# Poissons Ratio (y) = 0.50964 0.20243
# Poissons Ratio (z) = 0.50529 0.33135
#
# Static dielectric constant tensor:
#      x y z
#    x 1.611150 0.000000 0.000000 
#    y 0.000000 1.561350 0.000000 
#    z 0.000000 0.000000 1.578340 
# 
# From -- ./inp_files/8049.got.cif
#   From: 2010.05.17/outbox.cif.g08.bks.cpg/sg57_5_cif.got.tgz:8049.got - 2010.06.03 13:58:18.
