data_PCOD9434174
_publ_section_title
;
Structure prediction by ZEFSAII (Michael W. Deem and Ramdas Pophale) SiO2 
 PCOD9434174
Probable space group: P B C M
;
_chemical_formula_sum "Si O2"
_cell_formula_units_Z 44
_cell_length_a 9.582998
_cell_length_b 18.433326
_cell_length_c 14.091958
_cell_angle_alpha 90.000000
_cell_angle_beta 90.000000
_cell_angle_gamma 90.000000
_cell_volume 2489.295428
_symmetry_space_group_name_H-M "P B C M"
_symmetry_group_IT_number 57
_symmetry_cell_setting 'orthorhombic'
loop_
_space_group_symop_operation_xyz
x,y,z
-x,-y,1/2+z
x,1/2-y,-z
-x,1/2+y,1/2-z
-x,-y,-z
x,y,1/2-z
-x,1/2+y,z
x,1/2-y,1/2+z
loop_
_atom_site_type_symbol
_atom_site_label
_atom_site_fract_x
_atom_site_fract_y
_atom_site_fract_z
Si Si1 0.109985 0.863672 0.750000
Si Si2 0.569458 0.383167 0.750000
Si Si3 0.406148 0.109197 0.750000
Si Si4 0.097501 0.040526 0.750000
Si Si5 0.910973 0.692249 0.084063
Si Si6 0.689970 0.773283 0.750000
Si Si7 0.893791 0.945150 0.046633
Si Si8 0.584079 0.993090 0.405278
O O1 0.275462 0.848922 0.750000
O O2 0.035709 0.830450 0.843740
O O3 0.088370 0.952315 0.750000
O O4 0.437841 0.329852 0.750000
O O5 0.564399 0.436538 0.659727
O O6 0.257789 0.066771 0.750000
O O7 0.375580 0.193214 0.750000
O O8 0.470900 0.076325 0.845089
O O9 0.043086 0.072639 0.651044
O O10 0.787442 0.716899 0.156240
O O11 0.942888 0.750000 0.000000
O O12 0.869989 0.621427 0.023453
O O13 0.745948 0.982687 0.067539
O O14 0.000000 0.000000 0.000000
O O15 0.500000 0.000000 0.500000
#
# Coordination Sequence:
#
# PCOD9434174 Si02
#       8
#     4   4   4   4   8   4   8   8
#     4  11  20  41  62  84 121 165 191 247 316 359
#     4  11  20  39  57  84 117 162 195 241 306 359
#     4   9  19  38  59  80 112 158 193 234 300 355
#     4  10  17  35  59  83 114 153 189 242 293 347
#     4  11  23  38  60  92 122 154 204 252 302 363
#     4  11  24  39  61  85 124 160 196 250 305 362
#     4  11  19  34  59  85 111 151 200 236 292 352
#     4  10  19  34  58  83 111 147 194 244 288 344
#
# _framework density 17.675684
#
# number of rings (size 3 to 8) (size 9 to 14) (size 15 to 20)
#    0.000    1.455    5.455    3.273    0.000    0.727 
#    0.000    5.455    0.000    0.000    0.000    0.000 
#    0.000    0.000    0.000    0.000    0.000    0.000 
#
# Total GULP energy -245125.063896 kJ/mol
# GULP energy per Si atom -5571.024179 kJ/mol
# Density = 1.763545 g / cm^3
# Si number density = 17.675684 Si / 1000 Ang^3
#
#
#
# Elastic Constant Matrix: (Units=GPa)
#
#
# Indices 1 2 3 4 5 6 
#
# 1 65.5964 38.9585 51.4438 0.0000 0.0000 0.0000
# 2 38.9585 110.8478 61.0808 0.0000 0.0000 0.0000
# 3 51.4438 61.0808 183.4000 0.0000 0.0000 0.0000
# 4 0.0000 0.0000 0.0000 27.3371 0.0000 0.0000
# 5 0.0000 0.0000 0.0000 0.0000 28.5172 0.0000
# 6 0.0000 0.0000 0.0000 0.0000 0.0000 21.8864
#
#
#
# Elastic Compliance Matrix: (Units=1/GPa)
#
#
# Indices 1 2 3 4 5 6 
#
# 1 0.021785 -0.005253 -0.004361 0.000000 0.000000 0.000000
# 2 -0.005253 0.012316 -0.002628 0.000000 0.000000 0.000000
# 3 -0.004361 -0.002628 0.007551 0.000000 0.000000 0.000000
# 4 0.000000 0.000000 0.000000 0.036580 0.000000 0.000000
# 5 0.000000 0.000000 0.000000 0.000000 0.035066 0.000000
# 6 0.000000 0.000000 0.000000 0.000000 0.000000 0.045691
#
#
# Mechanical properties :
#
#
# Convention : Reuss Voigt Hill
#
# Bulk Modulus (GPa) = 58.25234 73.64561 65.94897
# Shear Modulus (GPa) = 26.42747 29.43889 27.93318
#
# Velocity S-wave (km/s) = 3.87089 4.08548 3.97963
# Velocity P-wave (km/s) = 7.28053 8.00064 7.64906
#
# Compressibility (1/GPa) = 0.01716669
#
# Stress axis : x y z
#
# Youngs Moduli (GPa) = 45.90323 81.19530 132.43013
#
# Poissons Ratio (x) = 0.42656 0.57753
# Poissons Ratio (y) = 0.24115 0.34805
# Poissons Ratio (z) = 0.20019 0.21340
#
# Static dielectric constant tensor:
#      x y z
#    x 1.699420 0.000000 0.000000 
#    y 0.000000 1.617530 0.000000 
#    z 0.000000 0.000000 1.541550 
# 
# From -- ./inp_files/16263.got.cif
#   From: 2010.05.17/outbox.cif.g08.bks.cpg/sg57_9_cif.got.tgz:16263.got - 2010.06.03 13:58:18.
