data_PCOD9434583
_publ_section_title
;
Structure prediction by ZEFSAII (Michael W. Deem and Ramdas Pophale) SiO2 
 PCOD9434583
Probable space group: P B C M
;
_chemical_formula_sum "Si O2"
_cell_formula_units_Z 48
_cell_length_a 18.667961
_cell_length_b 9.835040
_cell_length_c 13.736151
_cell_angle_alpha 90.000000
_cell_angle_beta 90.000000
_cell_angle_gamma 90.000000
_cell_volume 2521.959290
_symmetry_space_group_name_H-M "P B C M"
_symmetry_group_IT_number 57
_symmetry_cell_setting 'orthorhombic'
loop_
_space_group_symop_operation_xyz
x,y,z
-x,-y,1/2+z
x,1/2-y,-z
-x,1/2+y,1/2-z
-x,-y,-z
x,y,1/2-z
-x,1/2+y,z
x,1/2-y,1/2+z
loop_
_atom_site_type_symbol
_atom_site_label
_atom_site_fract_x
_atom_site_fract_y
_atom_site_fract_z
Si Si1 0.584741 0.982926 0.133878
Si Si2 0.967737 0.119686 0.932869
Si Si3 0.120081 0.156440 0.642161
Si Si4 0.836706 0.952187 0.933590
Si Si5 0.315905 0.092793 0.474942
Si Si6 0.457384 0.175125 0.366040
O O1 0.596643 0.990012 0.250000
O O2 0.548397 0.835560 0.111901
O O3 0.530077 0.100819 0.102915
O O4 0.657794 0.980350 0.073085
O O5 0.033481 0.151475 0.861663
O O6 0.892012 0.064545 0.895413
O O7 0.956062 0.250000 0.000000
O O8 0.000000 0.000000 0.000000
O O9 0.144907 0.115969 0.750000
O O10 0.148935 0.069808 0.550203
O O11 0.143257 0.310468 0.618192
O O12 0.752206 0.975082 0.924831
O O13 0.295293 0.250000 0.500000
O O14 0.386971 0.104667 0.409770
O O15 0.454385 0.161373 0.250000
#
# Coordination Sequence:
#
# PCOD9434583 Si02
#       6
#     8   8   8   8   8   8
#     4   9  18  32  52  76 103 137 178 218 256 308
#     4  10  18  37  57  74 106 139 175 222 268 313
#     4  10  19  33  55  78 101 139 177 215 269 320
#     4  10  20  36  51  80 114 136 173 232 269 315
#     4  10  18  32  51  75 108 137 174 213 263 315
#     4   9  18  32  51  76 102 136 176 217 257 304
#
# _framework density 19.032820999999998
#
# number of rings (size 3 to 8) (size 9 to 14) (size 15 to 20)
#    0.000    2.333    5.000    0.500    0.000    2.000 
#    0.000    1.667    0.000    0.000    0.000    0.000 
#    0.000    0.000    0.000    0.000    0.000    0.000 
#
# Total GULP energy -267547.746775 kJ/mol
# GULP energy per Si atom -5573.911391 kJ/mol
# Density = 1.898950 g / cm^3
# Si number density = 19.032821 Si / 1000 Ang^3
#
#
#
# Elastic Constant Matrix: (Units=GPa)
#
#
# Indices 1 2 3 4 5 6 
#
# 1 100.4455 17.1457 8.7872 0.0000 0.0000 0.0000
# 2 17.1457 35.8687 -2.4556 0.0000 0.0000 0.0000
# 3 8.7872 -2.4556 51.6042 0.0000 0.0000 0.0000
# 4 0.0000 0.0000 0.0000 8.8593 0.0000 0.0000
# 5 0.0000 0.0000 0.0000 0.0000 -2.6148 0.0000
# 6 0.0000 0.0000 0.0000 0.0000 0.0000 24.9004
#
#
#
# Elastic Compliance Matrix: (Units=1/GPa)
#
#
# Indices 1 2 3 4 5 6 
#
# 1 0.011072 -0.005439 -0.002144 0.000000 0.000000 0.000000
# 2 -0.005439 0.030643 0.002384 0.000000 0.000000 0.000000
# 3 -0.002144 0.002384 0.019857 0.000000 0.000000 0.000000
# 4 0.000000 0.000000 0.000000 0.112875 0.000000 0.000000
# 5 0.000000 0.000000 0.000000 0.000000 -0.382432 0.000000
# 6 0.000000 0.000000 0.000000 0.000000 0.000000 0.040160
#
#
# Mechanical properties :
#
#
# Convention : Reuss Voigt Hill
#
# Bulk Modulus (GPa) = 19.54148 26.09701 22.81924
# Shear Modulus (GPa) = -35.62009 17.19173 -9.21418
#
# Velocity S-wave (km/s) = -4.33079 3.00870 -2.20266
# Velocity P-wave (km/s) = 3.83642 5.08046 2.35510
#
# Compressibility (1/GPa) = 0.05117320
#
# Stress axis : x y z
#
# Youngs Moduli (GPa) = 90.32055 32.63422 50.36055
#
# Poissons Ratio (x) = 0.17750 0.10798
# Poissons Ratio (y) = 0.49127 -0.12008
# Poissons Ratio (z) = 0.19366 -0.07781
#
# Static dielectric constant tensor:
#      x y z
#    x 1.681760 0.000000 0.000000 
#    y 0.000000 1.653840 0.000000 
#    z 0.000000 0.000000 1.692840 
# 
# From -- ./inp_files/19263.got.cif
#   From: 2010.05.17/outbox.cif.g08.bks.cpg/sg57_10_cif.got.tgz:19263.got - 2010.06.03 13:58:18.
