data_PCOD9434688
_publ_section_title
;
Structure prediction by ZEFSAII (Michael W. Deem and Ramdas Pophale) SiO2 
 PCOD9434688
Probable space group: P B C M
;
_chemical_formula_sum "Si O2"
_cell_formula_units_Z 64
_cell_length_a 22.311790
_cell_length_b 18.203951
_cell_length_c 8.628593
_cell_angle_alpha 90.000000
_cell_angle_beta 90.000000
_cell_angle_gamma 90.000000
_cell_volume 3504.612905
_symmetry_space_group_name_H-M "P B C M"
_symmetry_group_IT_number 57
_symmetry_cell_setting 'orthorhombic'
loop_
_space_group_symop_operation_xyz
x,y,z
-x,-y,1/2+z
x,1/2-y,-z
-x,1/2+y,1/2-z
-x,-y,-z
x,y,1/2-z
-x,1/2+y,z
x,1/2-y,1/2+z
loop_
_atom_site_type_symbol
_atom_site_label
_atom_site_fract_x
_atom_site_fract_y
_atom_site_fract_z
Si Si1 0.391436 0.423110 0.563576
Si Si2 0.757035 0.393559 0.064561
Si Si3 0.064248 0.978519 0.936273
Si Si4 0.721255 0.667985 0.564422
Si Si5 0.188912 0.042719 0.563206
Si Si6 0.376328 0.906999 0.438440
Si Si7 0.501479 0.331114 0.063584
Si Si8 0.875509 0.172798 0.065088
O O1 0.392456 0.420932 0.750000
O O2 0.335580 0.375520 0.503501
O O3 0.384721 0.508045 0.513921
O O4 0.451769 0.387296 0.498105
O O5 0.759924 0.387018 0.250000
O O6 0.689076 0.379358 0.011190
O O7 0.774547 0.476618 0.016125
O O8 0.807806 0.342695 0.990797
O O9 0.061205 0.978440 0.750000
O O10 0.085346 0.897195 0.987196
O O11 0.119342 0.032259 0.980965
O O12 0.000000 0.000000 0.000000
O O13 0.724004 0.750000 0.500000
O O14 0.715529 0.670504 0.750000
O O15 0.779959 0.619569 0.524979
O O16 0.192889 0.032070 0.750000
O O17 0.375943 0.906796 0.250000
O O18 0.432763 0.858603 0.488173
O O19 0.499489 0.330051 0.250000
O O20 0.489040 0.250000 0.000000
O O21 0.876023 0.174336 0.250000
O O22 0.897125 0.250000 0.000000
#
# Coordination Sequence:
#
# PCOD9434688 Si02
#       8
#     8   8   8   8   8   8   8   8
#     4  11  21  38  59  81 106 138 182 232 278 332
#     4  10  18  33  57  84 111 143 178 224 279 332
#     4   9  19  36  58  84 114 148 188 229 271 322
#     4  11  22  36  56  82 111 145 182 227 280 332
#     4   9  19  36  55  79 112 145 182 227 269 323
#     4   9  20  36  57  82 109 138 180 229 275 331
#     4  11  23  40  55  75 106 143 182 226 278 333
#     4  10  21  37  56  84 118 152 190 234 276 327
#
# _framework density 18.261645999999999
#
# number of rings (size 3 to 8) (size 9 to 14) (size 15 to 20)
#    0.000    2.000    1.250    3.375    0.000    3.500 
#    0.000    6.250    0.000    3.000    0.000    0.000 
#    0.000    0.000    0.000    0.000    0.000    0.000 
#
# Total GULP energy -357336.314808 kJ/mol
# GULP energy per Si atom -5583.379919 kJ/mol
# Density = 1.822008 g / cm^3
# Si number density = 18.261646 Si / 1000 Ang^3
#
#
#
# Elastic Constant Matrix: (Units=GPa)
#
#
# Indices 1 2 3 4 5 6 
#
# 1 125.6699 14.6179 18.2309 0.0000 0.0000 0.0000
# 2 14.6179 44.3307 11.1625 0.0000 0.0000 0.0000
# 3 18.2309 11.1625 36.3078 0.0000 0.0000 0.0000
# 4 0.0000 0.0000 0.0000 20.6655 0.0000 0.0000
# 5 0.0000 0.0000 0.0000 0.0000 26.2104 0.0000
# 6 0.0000 0.0000 0.0000 0.0000 0.0000 14.9271
#
#
#
# Elastic Compliance Matrix: (Units=1/GPa)
#
#
# Indices 1 2 3 4 5 6 
#
# 1 0.008731 -0.001924 -0.003793 0.000000 0.000000 0.000000
# 2 -0.001924 0.024875 -0.006681 0.000000 0.000000 0.000000
# 3 -0.003793 -0.006681 0.031501 0.000000 0.000000 0.000000
# 4 0.000000 0.000000 0.000000 0.048390 0.000000 0.000000
# 5 0.000000 0.000000 0.000000 0.000000 0.038153 0.000000
# 6 0.000000 0.000000 0.000000 0.000000 0.000000 0.066992
#
#
# Mechanical properties :
#
#
# Convention : Reuss Voigt Hill
#
# Bulk Modulus (GPa) = 24.80740 32.70343 28.75542
# Shear Modulus (GPa) = 19.46477 23.18042 21.32259
#
# Velocity S-wave (km/s) = 3.26833 3.56666 3.42075
# Velocity P-wave (km/s) = 5.27793 5.90835 5.60201
#
# Compressibility (1/GPa) = 0.04031055
#
# Stress axis : x y z
#
# Youngs Moduli (GPa) = 114.52964 40.20168 31.74532
#
# Poissons Ratio (x) = 0.07735 0.12040
# Poissons Ratio (y) = 0.22037 0.21210
# Poissons Ratio (z) = 0.43437 0.26860
#
# Static dielectric constant tensor:
#      x y z
#    x 1.621660 0.000000 0.000000 
#    y 0.000000 1.612550 0.000000 
#    z 0.000000 0.000000 1.617640 
# 
# From -- ./inp_files/8410.got.cif
#   From: 2010.05.17/outbox.cif.g08.bks.cpg/sg57_5_cif.got.tgz:8410.got - 2010.06.03 13:58:18.
