data_PCOD9434627
_publ_section_title
;
Structure prediction by ZEFSAII (Michael W. Deem and Ramdas Pophale) SiO2 
 PCOD9434627
Probable space group: P B C M
;
_chemical_formula_sum "Si O2"
_cell_formula_units_Z 48
_cell_length_a 19.111781
_cell_length_b 13.870814
_cell_length_c 8.669699
_cell_angle_alpha 90.000000
_cell_angle_beta 90.000000
_cell_angle_gamma 90.000000
_cell_volume 2298.302175
_symmetry_space_group_name_H-M "P B C M"
_symmetry_group_IT_number 57
_symmetry_cell_setting 'orthorhombic'
loop_
_space_group_symop_operation_xyz
x,y,z
-x,-y,1/2+z
x,1/2-y,-z
-x,1/2+y,1/2-z
-x,-y,-z
x,y,1/2-z
-x,1/2+y,z
x,1/2-y,1/2+z
loop_
_atom_site_type_symbol
_atom_site_label
_atom_site_fract_x
_atom_site_fract_y
_atom_site_fract_z
Si Si1 0.247226 0.531669 0.565788
Si Si2 0.465943 0.140243 0.434645
Si Si3 0.389755 0.857951 0.065342
Si Si4 0.037461 0.147873 0.934408
Si Si5 0.898517 0.058430 0.065250
Si Si6 0.318354 0.356733 0.066581
O O1 0.244243 0.520973 0.750000
O O2 0.317365 0.590359 0.525617
O O3 0.177070 0.580444 0.504182
O O4 0.257552 0.428207 0.485924
O O5 0.466607 0.250000 0.500000
O O6 0.465768 0.139728 0.250000
O O7 0.538723 0.097739 0.496623
O O8 0.391412 0.103809 0.495564
O O9 0.397274 0.856368 0.250000
O O10 0.385094 0.750000 0.000000
O O11 0.035364 0.153221 0.750000
O O12 0.082083 0.052728 0.977421
O O13 0.062808 0.250000 0.000000
O O14 0.959994 0.124893 0.998761
O O15 0.897729 0.065838 0.250000
O O16 0.324536 0.352335 0.250000
O O17 0.307378 0.250000 0.000000
#
# Coordination Sequence:
#
# PCOD9434627 Si02
#       6
#     8   8   8   8   8   8
#     4  11  24  40  58  84 119 156 194 237 287 343
#     4  10  18  32  55  80 109 145 189 242 293 343
#     4  10  21  37  57  81 111 149 193 241 291 343
#     4  10  21  39  65  93 119 152 191 232 280 336
#     4  10  22  40  61  88 122 155 191 236 283 336
#     4  11  22  38  59  82 112 150 194 243 294 348
#
# _framework density 20.884982000000001
#
# number of rings (size 3 to 8) (size 9 to 14) (size 15 to 20)
#    0.000    1.667    0.000    7.000    0.000    6.667 
#    0.000    3.333    0.000    0.000    0.000    0.000 
#    0.000    0.000    0.000    0.000    0.000    0.000 
#
# Total GULP energy -268380.824158 kJ/mol
# GULP energy per Si atom -5591.267170 kJ/mol
# Density = 2.083745 g / cm^3
# Si number density = 20.884982 Si / 1000 Ang^3
#
#
#
# Elastic Constant Matrix: (Units=GPa)
#
#
# Indices 1 2 3 4 5 6 
#
# 1 74.8548 -13.8248 16.0641 0.0000 0.0000 0.0000
# 2 -13.8248 47.0235 1.1572 0.0000 0.0000 0.0000
# 3 16.0641 1.1572 75.6964 0.0000 0.0000 0.0000
# 4 0.0000 0.0000 0.0000 25.1838 0.0000 0.0000
# 5 0.0000 0.0000 0.0000 0.0000 32.7296 0.0000
# 6 0.0000 0.0000 0.0000 0.0000 0.0000 16.1568
#
#
#
# Elastic Compliance Matrix: (Units=1/GPa)
#
#
# Indices 1 2 3 4 5 6 
#
# 1 0.014873 0.004452 -0.003224 0.000000 0.000000 0.000000
# 2 0.004452 0.022607 -0.001290 0.000000 0.000000 0.000000
# 3 -0.003224 -0.001290 0.013915 0.000000 0.000000 0.000000
# 4 0.000000 0.000000 0.000000 0.039708 0.000000 0.000000
# 5 0.000000 0.000000 0.000000 0.000000 0.030553 0.000000
# 6 0.000000 0.000000 0.000000 0.000000 0.000000 0.061893
#
#
# Mechanical properties :
#
#
# Convention : Reuss Voigt Hill
#
# Bulk Modulus (GPa) = 19.50488 22.70751 21.10619
# Shear Modulus (GPa) = 24.90476 27.75926 26.33201
#
# Velocity S-wave (km/s) = 3.45697 3.64971 3.55464
# Velocity P-wave (km/s) = 5.02928 5.35320 5.19376
#
# Compressibility (1/GPa) = 0.05126922
#
# Stress axis : x y z
#
# Youngs Moduli (GPa) = 67.23401 44.23485 71.86652
#
# Poissons Ratio (x) = -0.19694 0.23173
# Poissons Ratio (y) = -0.29933 0.09274
# Poissons Ratio (z) = 0.21679 0.05708
#
# Static dielectric constant tensor:
#      x y z
#    x 1.746420 0.000000 0.000000 
#    y 0.000000 1.700310 0.000000 
#    z 0.000000 0.000000 1.687610 
# 
# From -- ./inp_files/6552.got.cif
#   From: 2010.05.17/outbox.cif.g08.bks.cpg/sg57_4_cif.got.tgz:6552.got - 2010.06.03 13:58:18.
