data_PCOD9434516
_publ_section_title
;
Structure prediction by ZEFSAII (Michael W. Deem and Ramdas Pophale) SiO2 
 PCOD9434516
Probable space group: P B C M
;
_chemical_formula_sum "Si O2"
_cell_formula_units_Z 64
_cell_length_a 19.764769
_cell_length_b 22.368113
_cell_length_c 8.832511
_cell_angle_alpha 90.000000
_cell_angle_beta 90.000000
_cell_angle_gamma 90.000000
_cell_volume 3904.858293
_symmetry_space_group_name_H-M "P B C M"
_symmetry_group_IT_number 57
_symmetry_cell_setting 'orthorhombic'
loop_
_space_group_symop_operation_xyz
x,y,z
-x,-y,1/2+z
x,1/2-y,-z
-x,1/2+y,1/2-z
-x,-y,-z
x,y,1/2-z
-x,1/2+y,z
x,1/2-y,1/2+z
loop_
_atom_site_type_symbol
_atom_site_label
_atom_site_fract_x
_atom_site_fract_y
_atom_site_fract_z
Si Si1 0.834480 0.877766 0.069470
Si Si2 0.036896 0.559024 0.931924
Si Si3 0.670258 0.491025 0.066733
Si Si4 0.824920 0.004097 0.567880
Si Si5 0.589002 0.612014 0.431503
Si Si6 0.534248 0.440274 0.431377
Si Si7 0.970728 0.685390 0.932406
Si Si8 0.288618 0.187059 0.430123
O O1 0.829032 0.878972 0.250000
O O2 0.892812 0.830565 0.028271
O O3 0.850955 0.943290 0.008311
O O4 0.764147 0.860055 0.994718
O O5 0.026548 0.556069 0.750000
O O6 0.117175 0.552664 0.963438
O O7 0.010093 0.624525 0.981299
O O8 0.000000 0.500000 0.000000
O O9 0.673228 0.490863 0.250000
O O10 0.747647 0.483952 0.014573
O O11 0.635301 0.554303 0.024015
O O12 0.613207 0.442242 0.022471
O O13 0.822623 0.995528 0.750000
O O14 0.580460 0.608364 0.250000
O O15 0.516029 0.610198 0.508273
O O16 0.635332 0.668130 0.470810
O O17 0.500000 0.500000 0.500000
O O18 0.531196 0.443156 0.250000
O O19 0.976350 0.689203 0.750000
O O20 0.990011 0.750000 0.000000
O O21 0.270733 0.250000 0.500000
O O22 0.283248 0.187770 0.250000
#
# Coordination Sequence:
#
# PCOD9434516 Si02
#       8
#     8   8   8   8   8   8   8   8
#     4  11  21  33  49  71 101 131 168 211 245 295
#     4  10  20  34  53  76 102 131 168 211 257 309
#     4   8  14  27  44  66  92 119 152 189 232 287
#     4  10  18  31  52  73  98 135 166 197 255 309
#     4   9  17  30  45  62  90 123 157 197 236 284
#     4   9  16  26  42  64  91 118 150 189 230 278
#     4  10  22  37  51  73 101 131 171 214 252 301
#     4  11  22  35  48  66  95 130 171 210 247 294
#
# _framework density 16.38984
#
# number of rings (size 3 to 8) (size 9 to 14) (size 15 to 20)
#    0.000    2.250    2.500    2.250    0.000    3.500 
#    0.000    0.625    0.000    0.000    0.000    0.875 
#    0.000    4.000    0.000    0.000    0.000    0.000 
#
# Total GULP energy -356367.517527 kJ/mol
# GULP energy per Si atom -5568.242461 kJ/mol
# Density = 1.635254 g / cm^3
# Si number density = 16.389840 Si / 1000 Ang^3
#
#
#
# Elastic Constant Matrix: (Units=GPa)
#
#
# Indices 1 2 3 4 5 6 
#
# 1 91.8538 37.8760 20.7988 0.0000 0.0000 0.0000
# 2 37.8760 74.8240 19.1799 0.0000 0.0000 0.0000
# 3 20.7988 19.1799 18.6476 0.0000 0.0000 0.0000
# 4 0.0000 0.0000 0.0000 21.1116 0.0000 0.0000
# 5 0.0000 0.0000 0.0000 0.0000 17.1452 0.0000
# 6 0.0000 0.0000 0.0000 0.0000 0.0000 22.0237
#
#
#
# Elastic Compliance Matrix: (Units=1/GPa)
#
#
# Indices 1 2 3 4 5 6 
#
# 1 0.015693 -0.004695 -0.012674 0.000000 0.000000 0.000000
# 2 -0.004695 0.019555 -0.014876 0.000000 0.000000 0.000000
# 3 -0.012674 -0.014876 0.083063 0.000000 0.000000 0.000000
# 4 0.000000 0.000000 0.000000 0.047367 0.000000 0.000000
# 5 0.000000 0.000000 0.000000 0.000000 0.058325 0.000000
# 6 0.000000 0.000000 0.000000 0.000000 0.000000 0.045406
#
#
# Mechanical properties :
#
#
# Convention : Reuss Voigt Hill
#
# Bulk Modulus (GPa) = 18.58047 37.89277 28.23662
# Shear Modulus (GPa) = 14.21106 19.22082 16.71594
#
# Velocity S-wave (km/s) = 2.94779 3.42823 3.19705
# Velocity P-wave (km/s) = 4.79032 6.23219 5.55821
#
# Compressibility (1/GPa) = 0.05381997
#
# Stress axis : x y z
#
# Youngs Moduli (GPa) = 63.72430 51.13904 12.03904
#
# Poissons Ratio (x) = 0.24009 0.15258
# Poissons Ratio (y) = 0.29918 0.17910
# Poissons Ratio (z) = 0.80764 0.76076
#
# Static dielectric constant tensor:
#      x y z
#    x 1.595650 0.000000 0.000000 
#    y 0.000000 1.555150 0.000000 
#    z 0.000000 0.000000 1.547360 
# 
# From -- ./inp_files/7444.got.cif
#   From: 2010.05.17/outbox.cif.g08.bks.cpg/sg57_4_cif.got.tgz:7444.got - 2010.06.03 13:58:18.
