data_PCOD9434435
_publ_section_title
;
Structure prediction by ZEFSAII (Michael W. Deem and Ramdas Pophale) SiO2 
 PCOD9434435
Probable space group: P B C M
;
_chemical_formula_sum "Si O2"
_cell_formula_units_Z 40
_cell_length_a 13.222611
_cell_length_b 20.384442
_cell_length_c 8.625767
_cell_angle_alpha 90.000000
_cell_angle_beta 90.000000
_cell_angle_gamma 90.000000
_cell_volume 2324.950827
_symmetry_space_group_name_H-M "P B C M"
_symmetry_group_IT_number 57
_symmetry_cell_setting 'orthorhombic'
loop_
_space_group_symop_operation_xyz
x,y,z
-x,-y,1/2+z
x,1/2-y,-z
-x,1/2+y,1/2-z
-x,-y,-z
x,y,1/2-z
-x,1/2+y,z
x,1/2-y,1/2+z
loop_
_atom_site_type_symbol
_atom_site_label
_atom_site_fract_x
_atom_site_fract_y
_atom_site_fract_z
Si Si1 0.235381 0.544595 0.562682
Si Si2 0.538514 0.069667 0.936048
Si Si3 0.980613 0.426992 0.436583
Si Si4 0.197347 0.398089 0.063890
Si Si5 0.613905 0.677726 0.065692
O O1 0.234042 0.535832 0.750000
O O2 0.343053 0.575408 0.521368
O O3 0.135600 0.586549 0.518242
O O4 0.225663 0.472335 0.487873
O O5 0.529903 0.069376 0.750000
O O6 0.469585 0.127069 0.003023
O O7 0.500000 0.000000 0.000000
O O8 0.983594 0.428513 0.250000
O O9 0.000000 0.500000 0.500000
O O10 0.080063 0.386663 0.485119
O O11 0.204839 0.393926 0.250000
O O12 0.277283 0.349306 0.989129
O O13 0.610569 0.678659 0.250000
O O14 0.596745 0.750000 0.000000
#
# Coordination Sequence:
#
# PCOD9434435 Si02
#       5
#     8   8   8   8   8
#     4   9  17  30  50  77 109 142 175 215 264 315
#     4  11  21  34  55  82 112 145 183 225 271 323
#     4   8  15  27  45  73 105 136 168 207 255 308
#     4  10  18  30  51  77 107 138 174 218 266 320
#     4  12  25  40  56  76 106 143 184 230 279 333
#
# _framework density 17.204664000000001
#
# number of rings (size 3 to 8) (size 9 to 14) (size 15 to 20)
#    0.000    2.000    2.000    3.000    0.000    1.600 
#    0.000    0.000    0.000    1.200    0.000    0.000 
#    0.000    0.000    0.000    0.000    0.000    0.000 
#
# Total GULP energy -222977.137082 kJ/mol
# GULP energy per Si atom -5574.428427 kJ/mol
# Density = 1.716551 g / cm^3
# Si number density = 17.204664 Si / 1000 Ang^3
#
#
#
# Elastic Constant Matrix: (Units=GPa)
#
#
# Indices 1 2 3 4 5 6 
#
# 1 197.5963 74.3737 55.6936 0.0000 0.0000 0.0000
# 2 74.3737 95.6184 35.0045 0.0000 0.0000 0.0000
# 3 55.6936 35.0045 62.1419 0.0000 0.0000 0.0000
# 4 0.0000 0.0000 0.0000 24.8657 0.0000 0.0000
# 5 0.0000 0.0000 0.0000 0.0000 21.6203 0.0000
# 6 0.0000 0.0000 0.0000 0.0000 0.0000 17.6847
#
#
#
# Elastic Compliance Matrix: (Units=1/GPa)
#
#
# Indices 1 2 3 4 5 6 
#
# 1 0.008109 -0.004594 -0.004680 0.000000 0.000000 0.000000
# 2 -0.004594 0.015778 -0.004770 0.000000 0.000000 0.000000
# 3 -0.004680 -0.004770 0.022973 0.000000 0.000000 0.000000
# 4 0.000000 0.000000 0.000000 0.040216 0.000000 0.000000
# 5 0.000000 0.000000 0.000000 0.000000 0.046253 0.000000
# 6 0.000000 0.000000 0.000000 0.000000 0.000000 0.056546
#
#
# Mechanical properties :
#
#
# Convention : Reuss Voigt Hill
#
# Bulk Modulus (GPa) = 53.27045 76.16670 64.71857
# Shear Modulus (GPa) = 22.29942 25.51979 23.90961
#
# Velocity S-wave (km/s) = 3.60408 3.85555 3.73193
# Velocity P-wave (km/s) = 6.95336 8.01171 7.50122
#
# Compressibility (1/GPa) = 0.01877213
#
# Stress axis : x y z
#
# Youngs Moduli (GPa) = 123.31923 63.37942 43.52864
#
# Poissons Ratio (x) = 0.29118 0.20370
# Poissons Ratio (y) = 0.56655 0.20764
# Poissons Ratio (z) = 0.57710 0.30234
#
# Static dielectric constant tensor:
#      x y z
#    x 1.653520 0.000000 0.000000 
#    y 0.000000 1.527120 0.000000 
#    z 0.000000 0.000000 1.573360 
# 
# From -- ./inp_files/2913.got.cif
#   From: 2010.05.17/outbox.cif.g08.bks.cpg/sg57_2_cif.got.tgz:2913.got - 2010.06.03 13:58:18.
