data_PCOD9434609
_publ_section_title
;
Structure prediction by ZEFSAII (Michael W. Deem and Ramdas Pophale) SiO2 
 PCOD9434609
Probable space group: P B C M
;
_chemical_formula_sum "Si O2"
_cell_formula_units_Z 56
_cell_length_a 5.025333
_cell_length_b 33.649747
_cell_length_c 15.899595
_cell_angle_alpha 90.000000
_cell_angle_beta 90.000000
_cell_angle_gamma 90.000000
_cell_volume 2688.640340
_symmetry_space_group_name_H-M "P B C M"
_symmetry_group_IT_number 57
_symmetry_cell_setting 'orthorhombic'
loop_
_space_group_symop_operation_xyz
x,y,z
-x,-y,1/2+z
x,1/2-y,-z
-x,1/2+y,1/2-z
-x,-y,-z
x,y,1/2-z
-x,1/2+y,z
x,1/2-y,1/2+z
loop_
_atom_site_type_symbol
_atom_site_label
_atom_site_fract_x
_atom_site_fract_y
_atom_site_fract_z
Si Si1 0.544942 0.895423 0.417200
Si Si2 0.363226 0.726528 0.351589
Si Si3 0.531953 0.362895 0.902342
Si Si4 0.056487 0.088788 0.154074
Si Si5 0.138869 0.224398 0.852136
Si Si6 0.965451 0.360274 0.155138
Si Si7 0.249571 0.028882 0.010126
O O1 0.559993 0.869928 0.502416
O O2 0.239789 0.889876 0.390077
O O3 0.670800 0.937513 0.442231
O O4 0.739275 0.877734 0.347893
O O5 0.388141 0.724305 0.250000
O O6 0.410900 0.682868 0.386286
O O7 0.574045 0.760128 0.380712
O O8 0.068414 0.740991 0.371340
O O9 0.286141 0.377915 0.846559
O O10 0.788467 0.391114 0.883532
O O11 0.004806 0.075702 0.250000
O O12 0.178189 0.053997 0.094823
O O13 0.154934 0.219324 0.750000
O O14 0.009643 0.183398 0.884314
O O15 0.866968 0.355307 0.250000
O O16 0.500000 0.000000 0.000000
O O17 0.000000 0.000000 0.000000
#
# Coordination Sequence:
#
# PCOD9434609 Si02
#       7
#     8   8   8   8   8   8   8
#     4  11  23  41  63  88 117 156 201 246 312 380
#     4  10  18  32  53  82 116 157 203 247 295 355
#     4  11  22  37  59  89 126 159 198 251 304 363
#     4  11  22  39  63  92 122 162 204 242 293 368
#     4   9  19  33  53  79 114 157 202 249 303 351
#     4  11  22  41  63  85 115 159 212 262 300 355
#     4  11  23  43  66  89 124 160 190 239 311 374
#
# _framework density 20.828372999999999
#
# number of rings (size 3 to 8) (size 9 to 14) (size 15 to 20)
#    0.000    1.429    0.000    7.714    0.000    3.429 
#    0.000    8.571    0.000    0.000    0.000    0.000 
#    0.000    0.000    0.000    0.000    0.000    0.000 
#
# Total GULP energy -312405.684763 kJ/mol
# GULP energy per Si atom -5578.672942 kJ/mol
# Density = 2.078097 g / cm^3
# Si number density = 20.828373 Si / 1000 Ang^3
#
#
#
# Elastic Constant Matrix: (Units=GPa)
#
#
# Indices 1 2 3 4 5 6 
#
# 1 101.9264 13.7493 2.4774 0.0000 0.0000 0.0000
# 2 13.7493 95.4860 13.5927 0.0000 0.0000 0.0000
# 3 2.4774 13.5927 47.9138 0.0000 0.0000 0.0000
# 4 0.0000 0.0000 0.0000 12.4147 0.0000 0.0000
# 5 0.0000 0.0000 0.0000 0.0000 19.9361 0.0000
# 6 0.0000 0.0000 0.0000 0.0000 0.0000 39.0590
#
#
#
# Elastic Compliance Matrix: (Units=1/GPa)
#
#
# Indices 1 2 3 4 5 6 
#
# 1 0.010006 -0.001425 -0.000113 0.000000 0.000000 0.000000
# 2 -0.001425 0.011116 -0.003080 0.000000 0.000000 0.000000
# 3 -0.000113 -0.003080 0.021750 0.000000 0.000000 0.000000
# 4 0.000000 0.000000 0.000000 0.080550 0.000000 0.000000
# 5 0.000000 0.000000 0.000000 0.000000 0.050160 0.000000
# 6 0.000000 0.000000 0.000000 0.000000 0.000000 0.025602
#
#
# Mechanical properties :
#
#
# Convention : Reuss Voigt Hill
#
# Bulk Modulus (GPa) = 29.72910 33.88500 31.80705
# Shear Modulus (GPa) = 22.76526 28.64908 25.70717
#
# Velocity S-wave (km/s) = 3.30963 3.71277 3.51698
# Velocity P-wave (km/s) = 5.37673 5.88928 5.63883
#
# Compressibility (1/GPa) = 0.03363708
#
# Stress axis : x y z
#
# Youngs Moduli (GPa) = 99.94076 89.95787 45.97617
#
# Poissons Ratio (x) = 0.12816 0.00520
# Poissons Ratio (y) = 0.14238 0.14160
# Poissons Ratio (z) = 0.01131 0.27706
#
# Static dielectric constant tensor:
#      x y z
#    x 1.721610 0.000000 0.000000 
#    y 0.000000 1.789730 0.000000 
#    z 0.000000 0.000000 1.486340 
# 
# From -- ./inp_files/15248.got.cif
#   From: 2010.05.17/outbox.cif.g08.bks.cpg/sg57_8_cif.got.tgz:15248.got - 2010.06.03 13:58:18.
