data_PCOD9434502
_publ_section_title
;
Structure prediction by ZEFSAII (Michael W. Deem and Ramdas Pophale) SiO2 
 PCOD9434502
Probable space group: P B C M
;
_chemical_formula_sum "Si O2"
_cell_formula_units_Z 64
_cell_length_a 15.912713
_cell_length_b 21.864304
_cell_length_c 7.728826
_cell_angle_alpha 90.000000
_cell_angle_beta 90.000000
_cell_angle_gamma 90.000000
_cell_volume 2689.016191
_symmetry_space_group_name_H-M "P B C M"
_symmetry_group_IT_number 57
_symmetry_cell_setting 'orthorhombic'
loop_
_space_group_symop_operation_xyz
x,y,z
-x,-y,1/2+z
x,1/2-y,-z
-x,1/2+y,1/2-z
-x,-y,-z
x,y,1/2-z
-x,1/2+y,z
x,1/2-y,1/2+z
loop_
_atom_site_type_symbol
_atom_site_label
_atom_site_fract_x
_atom_site_fract_y
_atom_site_fract_z
Si Si1 0.080715 0.367406 0.043551
Si Si2 0.406858 0.409048 0.038132
Si Si3 0.683828 0.475794 0.955625
Si Si4 0.258237 0.319265 0.457740
Si Si5 0.280710 0.839820 0.444955
Si Si6 0.457755 0.685082 0.541460
Si Si7 0.902012 0.365868 0.953447
Si Si8 0.873799 0.502064 0.543627
O O1 0.090346 0.371730 0.250000
O O2 0.164104 0.334054 0.976385
O O3 0.081726 0.437428 0.973057
O O4 0.990012 0.337973 0.012352
O O5 0.406760 0.410436 0.250000
O O6 0.388548 0.478436 0.982943
O O7 0.328695 0.366704 0.981073
O O8 0.490024 0.373575 0.980174
O O9 0.674512 0.462707 0.750000
O O10 0.773421 0.510249 0.973796
O O11 0.696358 0.412020 0.050485
O O12 0.280701 0.250000 0.500000
O O13 0.256930 0.325237 0.250000
O O14 0.276816 0.816846 0.250000
O O15 0.363582 0.813258 0.534340
O O16 0.186778 0.833230 0.514560
O O17 0.499917 0.750000 0.500000
O O18 0.452719 0.679922 0.750000
O O19 0.908224 0.372223 0.750000
O O20 0.894791 0.435110 0.030651
O O21 0.890694 0.499447 0.750000
#
# Coordination Sequence:
#
# PCOD9434502 Si02
#       8
#     8   8   8   8   8   8   8   8
#     4  10  18  31  51  75 105 142 178 216 264 315
#     4   9  17  34  59  84 111 144 179 219 271 328
#     4   9  16  31  56  83 112 147 182 214 263 331
#     4  10  20  34  54  77 108 147 183 221 267 321
#     4  10  21  37  54  79 114 145 179 228 281 326
#     4  10  22  39  60  83 108 142 185 230 275 324
#     4  10  20  33  53  79 105 138 180 223 268 322
#     4   8  14  27  48  75 105 137 173 208 252 313
#
# _framework density 23.800525
#
# number of rings (size 3 to 8) (size 9 to 14) (size 15 to 20)
#    0.000    2.500    1.250    2.250    0.000    2.000 
#    0.000    4.375    0.000    0.000    0.000    0.000 
#    0.000    0.000    0.000    0.000    0.000    0.000 
#
# Total GULP energy -357279.821153 kJ/mol
# GULP energy per Si atom -5582.497206 kJ/mol
# Density = 2.374635 g / cm^3
# Si number density = 23.800525 Si / 1000 Ang^3
#
#
#
# Elastic Constant Matrix: (Units=GPa)
#
#
# Indices 1 2 3 4 5 6 
#
# 1 103.8187 15.7342 5.3457 0.0000 0.0000 0.0000
# 2 15.7342 43.2835 -5.9000 0.0000 0.0000 0.0000
# 3 5.3457 -5.9000 40.3995 0.0000 0.0000 0.0000
# 4 0.0000 0.0000 0.0000 11.4262 0.0000 0.0000
# 5 0.0000 0.0000 0.0000 0.0000 17.4695 0.0000
# 6 0.0000 0.0000 0.0000 0.0000 0.0000 5.6695
#
#
#
# Elastic Compliance Matrix: (Units=1/GPa)
#
#
# Indices 1 2 3 4 5 6 
#
# 1 0.010343 -0.004027 -0.001957 0.000000 0.000000 0.000000
# 2 -0.004027 0.025140 0.004204 0.000000 0.000000 0.000000
# 3 -0.001957 0.004204 0.025626 0.000000 0.000000 0.000000
# 4 0.000000 0.000000 0.000000 0.087518 0.000000 0.000000
# 5 0.000000 0.000000 0.000000 0.000000 0.057243 0.000000
# 6 0.000000 0.000000 0.000000 0.000000 0.000000 0.176382
#
#
# Mechanical properties :
#
#
# Convention : Reuss Voigt Hill
#
# Bulk Modulus (GPa) = 17.37581 24.20685 20.79133
# Shear Modulus (GPa) = 12.34586 18.40116 15.37351
#
# Velocity S-wave (km/s) = 2.28002 2.78356 2.54428
# Velocity P-wave (km/s) = 3.77462 4.53031 4.16962
#
# Compressibility (1/GPa) = 0.05755128
#
# Stress axis : x y z
#
# Youngs Moduli (GPa) = 96.68207 39.77672 39.02334
#
# Poissons Ratio (x) = 0.16017 0.07636
# Poissons Ratio (y) = 0.38930 -0.16407
# Poissons Ratio (z) = 0.18918 -0.16723
#
# Static dielectric constant tensor:
#      x y z
#    x 1.964410 0.000000 0.000000 
#    y 0.000000 1.909590 0.000000 
#    z 0.000000 0.000000 1.857980 
# 
# From -- ./inp_files/5548.got.cif
#   From: 2010.05.17/outbox.cif.g08.bks.cpg/sg57_3_cif.got.tgz:5548.got - 2010.06.03 13:58:18.
