data_PCOD9434995
_publ_section_title
;
Structure prediction by ZEFSAII (Michael W. Deem and Ramdas Pophale) SiO2 
 PCOD9434995
Probable space group: P B C M
;
_chemical_formula_sum "Si O2"
_cell_formula_units_Z 56
_cell_length_a 16.346593
_cell_length_b 21.239152
_cell_length_c 9.138238
_cell_angle_alpha 90.000000
_cell_angle_beta 90.000000
_cell_angle_gamma 90.000000
_cell_volume 3172.684504
_symmetry_space_group_name_H-M "P B C M"
_symmetry_group_IT_number 57
_symmetry_cell_setting 'orthorhombic'
loop_
_space_group_symop_operation_xyz
x,y,z
-x,-y,1/2+z
x,1/2-y,-z
-x,1/2+y,1/2-z
-x,-y,-z
x,y,1/2-z
-x,1/2+y,z
x,1/2-y,1/2+z
loop_
_atom_site_type_symbol
_atom_site_label
_atom_site_fract_x
_atom_site_fract_y
_atom_site_fract_z
Si Si1 0.561203 0.414520 0.418251
Si Si2 0.397345 0.434986 0.580779
Si Si3 0.763521 0.542547 0.583003
Si Si4 0.062016 0.051851 0.427830
Si Si5 0.170196 0.811083 0.085324
Si Si6 0.973906 0.685616 0.919762
Si Si7 0.280217 0.896551 0.913331
O O1 0.556506 0.395076 0.250000
O O2 0.475138 0.405595 0.498988
O O3 0.582857 0.489609 0.419658
O O4 0.636171 0.382563 0.502266
O O5 0.392102 0.415813 0.750000
O O6 0.311976 0.423128 0.497466
O O7 0.778831 0.565218 0.750000
O O8 0.845887 0.540802 0.487289
O O9 0.731798 0.471124 0.595389
O O10 0.056994 0.048580 0.250000
O O11 0.043054 0.122254 0.488188
O O12 0.000000 0.000000 0.500000
O O13 0.200715 0.811689 0.250000
O O14 0.072386 0.809946 0.087230
O O15 0.200105 0.750000 0.000000
O O16 0.203327 0.870595 0.000278
O O17 0.944882 0.681404 0.750000
O O18 0.944866 0.750000 0.000000
O O19 0.282068 0.870442 0.750000
#
# Coordination Sequence:
#
# PCOD9434995 Si02
#       7
#     8   8   8   8   8   8   8
#     4   9  16  26  42  64  92 126 161 196 237 288
#     4   9  16  27  43  65  94 126 161 199 240 290
#     4  10  20  33  49  71 100 133 167 206 254 306
#     4  12  24  37  54  78 108 141 177 220 270 320
#     4  10  20  33  50  70  94 125 162 203 246 295
#     4  10  21  38  58  79 104 137 177 219 263 314
#     4  10  19  30  46  69  98 130 164 202 247 298
#
# _framework density 17.650668
#
# number of rings (size 3 to 8) (size 9 to 14) (size 15 to 20)
#    0.000    2.000    0.000    4.714    0.000    9.143 
#    0.000    0.000    0.000    0.000    0.000    1.000 
#    0.000    0.000    0.000    0.000    0.000    0.000 
#
# Total GULP energy -312109.773273 kJ/mol
# GULP energy per Si atom -5573.388808 kJ/mol
# Density = 1.761049 g / cm^3
# Si number density = 17.650668 Si / 1000 Ang^3
#
#
#
# Elastic Constant Matrix: (Units=GPa)
#
#
# Indices 1 2 3 4 5 6 
#
# 1 77.0555 12.6119 53.2679 0.0000 0.0000 0.0000
# 2 12.6119 47.2355 35.1312 0.0000 0.0000 0.0000
# 3 53.2679 35.1312 185.6638 0.0000 0.0000 0.0000
# 4 0.0000 0.0000 0.0000 19.2514 0.0000 0.0000
# 5 0.0000 0.0000 0.0000 0.0000-1315.7495 0.0000
# 6 0.0000 0.0000 0.0000 0.0000 0.0000 7.1192
#
#
#
# Elastic Compliance Matrix: (Units=1/GPa)
#
#
# Indices 1 2 3 4 5 6 
#
# 1 0.016230 -0.001013 -0.004465 0.000000 0.000000 0.000000
# 2 -0.001013 0.024701 -0.004383 0.000000 0.000000 0.000000
# 3 -0.004465 -0.004383 0.007496 0.000000 0.000000 0.000000
# 4 0.000000 0.000000 0.000000 0.051944 0.000000 0.000000
# 5 0.000000 0.000000 0.000000 0.000000 -0.000760 0.000000
# 6 0.000000 0.000000 0.000000 0.000000 0.000000 0.140465
#
#
# Mechanical properties :
#
#
# Convention : Reuss Voigt Hill
#
# Bulk Modulus (GPa) = 34.83635 56.88629 45.86132
# Shear Modulus (GPa) = 18.56202 -243.94618 -112.69208
#
# Velocity S-wave (km/s) = 3.24641 -11.76894 -7.99902
# Velocity P-wave (km/s) = 5.81650 12.34416 7.69892
#
# Compressibility (1/GPa) = 0.02870565
#
# Stress axis : x y z
#
# Youngs Moduli (GPa) = 61.61468 40.48416 133.39601
#
# Poissons Ratio (x) = 0.04100 0.59559
# Poissons Ratio (y) = 0.06240 0.58472
# Poissons Ratio (z) = 0.27510 0.17746
#
# Static dielectric constant tensor:
#      x y z
#    x 1.589100 0.000000 0.000000 
#    y 0.000000 1.674270 0.000000 
#    z 0.000000 0.000000 1.618620 
# 
# From -- ./inp_files/5213.got.cif
#   From: 2010.05.17/outbox.cif.g08.bks.cpg/sg57_3_cif.got.tgz:5213.got - 2010.06.03 13:58:18.
