data_PCOD9434386
_publ_section_title
;
Structure prediction by ZEFSAII (Michael W. Deem and Ramdas Pophale) SiO2 
 PCOD9434386
Probable space group: P B C M
;
_chemical_formula_sum "Si O2"
_cell_formula_units_Z 56
_cell_length_a 18.621122
_cell_length_b 20.328682
_cell_length_c 8.997161
_cell_angle_alpha 90.000000
_cell_angle_beta 90.000000
_cell_angle_gamma 90.000000
_cell_volume 3405.811125
_symmetry_space_group_name_H-M "P B C M"
_symmetry_group_IT_number 57
_symmetry_cell_setting 'orthorhombic'
loop_
_space_group_symop_operation_xyz
x,y,z
-x,-y,1/2+z
x,1/2-y,-z
-x,1/2+y,1/2-z
-x,-y,-z
x,y,1/2-z
-x,1/2+y,z
x,1/2-y,1/2+z
loop_
_atom_site_type_symbol
_atom_site_label
_atom_site_fract_x
_atom_site_fract_y
_atom_site_fract_z
Si Si1 0.286555 0.389004 0.571934
Si Si2 0.837992 0.063195 0.422558
Si Si3 0.533674 0.434859 0.429099
Si Si4 0.693284 0.455899 0.427124
Si Si5 0.577587 0.680195 0.928312
Si Si6 0.994419 0.427127 0.929722
Si Si7 0.138353 0.095559 0.575753
O O1 0.286976 0.381073 0.750000
O O2 0.304303 0.465854 0.537808
O O3 0.347554 0.345601 0.495832
O O4 0.207722 0.375053 0.505886
O O5 0.827250 0.078219 0.250000
O O6 0.764664 0.076909 0.507692
O O7 0.913594 0.095625 0.470244
O O8 0.850781 0.984024 0.434579
O O9 0.500000 0.500000 0.500000
O O10 0.533743 0.442597 0.250000
O O11 0.616529 0.428484 0.478385
O O12 0.483792 0.373036 0.465672
O O13 0.696863 0.450321 0.250000
O O14 0.583105 0.684956 0.750000
O O15 0.560299 0.750000 0.000000
O O16 0.998934 0.431154 0.750000
O O17 0.000000 0.500000 0.000000
O O18 0.062721 0.389268 0.996264
O O19 0.136491 0.112271 0.750000
#
# Coordination Sequence:
#
# PCOD9434386 Si02
#       7
#     8   8   8   8   8   8   8
#     4  10  18  30  48  68  93 123 159 199 242 292
#     4   8  15  24  35  55  85 119 153 190 233 280
#     4  10  20  34  52  74  97 126 163 207 252 300
#     4   9  17  28  44  67  92 119 156 198 241 292
#     4  11  23  37  53  72  99 131 165 206 253 301
#     4   9  15  23  34  52  81 118 157 192 232 281
#     4   9  16  25  38  58  85 118 157 194 232 280
#
# _framework density 16.442485999999999
#
# number of rings (size 3 to 8) (size 9 to 14) (size 15 to 20)
#    0.000    2.571    1.429    2.571    0.000    5.714 
#    0.000    0.000    0.000    0.000    0.000    0.000 
#    0.000    1.143    0.000    6.000    0.000    7.429 
#
# Total GULP energy -311918.002895 kJ/mol
# GULP energy per Si atom -5569.964337 kJ/mol
# Density = 1.640506 g / cm^3
# Si number density = 16.442486 Si / 1000 Ang^3
#
#
#
# Elastic Constant Matrix: (Units=GPa)
#
#
# Indices 1 2 3 4 5 6 
#
# 1 188.7844 52.9923 59.4832 0.0000 0.0000 0.0000
# 2 52.9923 49.9841 35.3489 0.0000 0.0000 0.0000
# 3 59.4832 35.3489 51.9677 0.0000 0.0000 0.0000
# 4 0.0000 0.0000 0.0000 13.8087 0.0000 0.0000
# 5 0.0000 0.0000 0.0000 0.0000 31.0845 0.0000
# 6 0.0000 0.0000 0.0000 0.0000 0.0000 9.8926
#
#
#
# Elastic Compliance Matrix: (Units=1/GPa)
#
#
# Indices 1 2 3 4 5 6 
#
# 1 0.008723 -0.004214 -0.007118 0.000000 0.000000 0.000000
# 2 -0.004214 0.040587 -0.022784 0.000000 0.000000 0.000000
# 3 -0.007118 -0.022784 0.042888 0.000000 0.000000 0.000000
# 4 0.000000 0.000000 0.000000 0.072418 0.000000 0.000000
# 5 0.000000 0.000000 0.000000 0.000000 0.032170 0.000000
# 6 0.000000 0.000000 0.000000 0.000000 0.000000 0.101086
#
#
# Mechanical properties :
#
#
# Convention : Reuss Voigt Hill
#
# Bulk Modulus (GPa) = 41.72648 65.15388 53.44018
# Shear Modulus (GPa) = 13.36568 20.48460 16.92514
#
# Velocity S-wave (km/s) = 2.85419 3.53347 3.21184
# Velocity P-wave (km/s) = 6.02447 7.50723 6.80635
#
# Compressibility (1/GPa) = 0.02396559
#
# Stress axis : x y z
#
# Youngs Moduli (GPa) = 114.64504 24.63850 23.31658
#
# Poissons Ratio (x) = 0.10382 0.16596
# Poissons Ratio (y) = 0.48310 0.53125
# Poissons Ratio (z) = 0.81601 0.56137
#
# Static dielectric constant tensor:
#      x y z
#    x 1.596960 0.000000 0.000000 
#    y 0.000000 1.532840 0.000000 
#    z 0.000000 0.000000 1.203700 
# 
# From -- ./inp_files/7044.got.cif
#   From: 2010.05.17/outbox.cif.g08.bks.cpg/sg57_4_cif.got.tgz:7044.got - 2010.06.03 13:58:18.
