data_PCOD9434922
_publ_section_title
;
Structure prediction by ZEFSAII (Michael W. Deem and Ramdas Pophale) SiO2 
 PCOD9434922
Probable space group: P B C M
;
_chemical_formula_sum "Si O2"
_cell_formula_units_Z 64
_cell_length_a 16.158594
_cell_length_b 29.377600
_cell_length_c 8.632789
_cell_angle_alpha 90.000000
_cell_angle_beta 90.000000
_cell_angle_gamma 90.000000
_cell_volume 4097.991077
_symmetry_space_group_name_H-M "P B C M"
_symmetry_group_IT_number 57
_symmetry_cell_setting 'orthorhombic'
loop_
_space_group_symop_operation_xyz
x,y,z
-x,-y,1/2+z
x,1/2-y,-z
-x,1/2+y,1/2-z
-x,-y,-z
x,y,1/2-z
-x,1/2+y,z
x,1/2-y,1/2+z
loop_
_atom_site_type_symbol
_atom_site_label
_atom_site_fract_x
_atom_site_fract_y
_atom_site_fract_z
Si Si1 0.317216 0.950284 0.937455
Si Si2 0.498417 0.551309 0.436581
Si Si3 0.999398 0.448955 0.063760
Si Si4 0.835515 0.606438 0.563016
Si Si5 0.157055 0.606865 0.436125
Si Si6 0.092724 0.298659 0.436395
Si Si7 0.679672 0.553203 0.435766
Si Si8 0.899265 0.200839 0.935777
O O1 0.315148 0.953390 0.750000
O O2 0.407836 0.930793 0.984146
O O3 0.240782 0.918948 0.986291
O O4 0.309390 0.001601 0.001843
O O5 0.500000 0.500000 0.500000
O O6 0.498633 0.550504 0.250000
O O7 0.587780 0.570694 0.484759
O O8 0.994563 0.449443 0.250000
O O9 0.084616 0.423783 0.019344
O O10 0.921563 0.421140 0.998861
O O11 0.000000 0.500000 0.000000
O O12 0.830827 0.606074 0.750000
O O13 0.854330 0.658022 0.511657
O O14 0.752798 0.584614 0.496999
O O15 0.154377 0.607235 0.250000
O O16 0.150388 0.658160 0.498032
O O17 0.120360 0.250000 0.500000
O O18 0.094385 0.297360 0.250000
O O19 0.996250 0.305393 0.481816
O O20 0.682539 0.551566 0.250000
O O21 0.895286 0.200811 0.750000
O O22 0.872913 0.250000 0.000000
#
# Coordination Sequence:
#
# PCOD9434922 Si02
#       8
#     8   8   8   8   8   8   8   8
#     4   9  18  32  48  66  94 130 159 188 234 284
#     4   8  15  29  46  65  91 120 153 194 235 276
#     4  11  22  35  46  62  93 131 165 195 230 274
#     4  10  20  34  47  63  93 128 156 185 232 284
#     4  11  21  32  48  71  94 125 163 195 234 282
#     4   9  18  33  50  68  88 117 152 190 234 276
#     4  10  19  29  46  72  95 120 159 200 234 270
#     4  10  19  34  52  71  94 122 156 198 241 281
#
# _framework density 15.617407999999999
#
# number of rings (size 3 to 8) (size 9 to 14) (size 15 to 20)
#    0.000    2.250    1.250    2.250    0.000    6.500 
#    0.000    0.000    0.000    0.000    0.000    0.875 
#    0.000    2.000    0.000    0.000    0.000    0.000 
#
# Total GULP energy -356777.480208 kJ/mol
# GULP energy per Si atom -5574.648128 kJ/mol
# Density = 1.558186 g / cm^3
# Si number density = 15.617408 Si / 1000 Ang^3
#
#
#
# Elastic Constant Matrix: (Units=GPa)
#
#
# Indices 1 2 3 4 5 6 
#
# 1 139.6288 67.3774 26.5796 0.0000 0.0000 0.0000
# 2 67.3774 115.7008 23.8283 0.0000 0.0000 0.0000
# 3 26.5796 23.8283 21.3839 0.0000 0.0000 0.0000
# 4 0.0000 0.0000 0.0000 26.3309 0.0000 0.0000
# 5 0.0000 0.0000 0.0000 0.0000 14.9487 0.0000
# 6 0.0000 0.0000 0.0000 0.0000 0.0000 6.4512
#
#
#
# Elastic Compliance Matrix: (Units=1/GPa)
#
#
# Indices 1 2 3 4 5 6 
#
# 1 0.011038 -0.004675 -0.008510 0.000000 0.000000 0.000000
# 2 -0.004675 0.013197 -0.008895 0.000000 0.000000 0.000000
# 3 -0.008510 -0.008895 0.067254 0.000000 0.000000 0.000000
# 4 0.000000 0.000000 0.000000 0.037978 0.000000 0.000000
# 5 0.000000 0.000000 0.000000 0.000000 0.066895 0.000000
# 6 0.000000 0.000000 0.000000 0.000000 0.000000 0.155011
#
#
# Mechanical properties :
#
#
# Convention : Reuss Voigt Hill
#
# Bulk Modulus (GPa) = 21.12896 56.92047 39.02471
# Shear Modulus (GPa) = 12.15629 20.14137 16.14883
#
# Velocity S-wave (km/s) = 2.79297 3.59510 3.21912
# Velocity P-wave (km/s) = 4.89484 7.33205 6.23371
#
# Compressibility (1/GPa) = 0.04732841
#
# Stress axis : x y z
#
# Youngs Moduli (GPa) = 90.59794 75.77250 14.86909
#
# Poissons Ratio (x) = 0.35425 0.12654
# Poissons Ratio (y) = 0.42356 0.13226
# Poissons Ratio (z) = 0.77100 0.67399
#
# Static dielectric constant tensor:
#      x y z
#    x 1.542090 0.000000 0.000000 
#    y 0.000000 1.493280 0.000000 
#    z 0.000000 0.000000 1.533340 
# 
# From -- ./inp_files/6009.got.cif
#   From: 2010.05.17/outbox.cif.g08.bks.cpg/sg57_4_cif.got.tgz:6009.got - 2010.06.03 13:58:18.
