data_PCOD9434346
_publ_section_title
;
Structure prediction by ZEFSAII (Michael W. Deem and Ramdas Pophale) SiO2 
 PCOD9434346
Probable space group: P B C M
;
_chemical_formula_sum "Si O2"
_cell_formula_units_Z 64
_cell_length_a 17.232439
_cell_length_b 24.602881
_cell_length_c 8.610022
_cell_angle_alpha 90.000000
_cell_angle_beta 90.000000
_cell_angle_gamma 90.000000
_cell_volume 3650.370760
_symmetry_space_group_name_H-M "P B C M"
_symmetry_group_IT_number 57
_symmetry_cell_setting 'orthorhombic'
loop_
_space_group_symop_operation_xyz
x,y,z
-x,-y,1/2+z
x,1/2-y,-z
-x,1/2+y,1/2-z
-x,-y,-z
x,y,1/2-z
-x,1/2+y,z
x,1/2-y,1/2+z
loop_
_atom_site_type_symbol
_atom_site_label
_atom_site_fract_x
_atom_site_fract_y
_atom_site_fract_z
Si Si1 0.570681 0.811521 0.936385
Si Si2 0.031907 0.088904 0.062617
Si Si3 0.817096 0.976559 0.936817
Si Si4 0.244931 0.688800 0.063504
Si Si5 0.879460 0.809523 0.434533
Si Si6 0.269597 0.131375 0.062656
Si Si7 0.143861 0.912560 0.562962
Si Si8 0.591227 0.311617 0.064549
O O1 0.564343 0.808223 0.750000
O O2 0.644657 0.848374 0.977586
O O3 0.582158 0.750000 0.000000
O O4 0.490251 0.834837 0.004410
O O5 0.031736 0.087567 0.250000
O O6 0.098658 0.046884 0.010367
O O7 0.944610 0.079666 0.006262
O O8 0.061310 0.147442 0.007673
O O9 0.817851 0.980086 0.750000
O O10 0.754537 0.930228 0.980299
O O11 0.806942 0.036113 0.005352
O O12 0.247702 0.692097 0.250000
O O13 0.179762 0.645325 0.015433
O O14 0.232739 0.750000 0.000000
O O15 0.327878 0.666732 0.002259
O O16 0.893600 0.750000 0.500000
O O17 0.885375 0.810051 0.250000
O O18 0.794128 0.829676 0.485730
O O19 0.260809 0.135719 0.250000
O O20 0.142824 0.913121 0.750000
O O21 0.593221 0.311351 0.250000
O O22 0.589613 0.250000 0.000000
#
# Coordination Sequence:
#
# PCOD9434346 Si02
#       8
#     8   8   8   8   8   8   8   8
#     4  10  18  29  48  74 104 134 166 202 242 289
#     4   9  19  36  52  71 100 131 167 211 253 293
#     4   9  18  33  53  74 100 132 166 205 247 293
#     4  10  20  35  53  75 102 130 161 200 248 298
#     4  11  21  32  48  70  99 136 171 205 249 299
#     4   9  19  34  50  72 102 135 169 207 247 287
#     4  10  21  35  54  77 100 127 162 207 252 297
#     4  10  18  30  49  73 101 131 163 199 242 292
#
# _framework density 17.532464999999998
#
# number of rings (size 3 to 8) (size 9 to 14) (size 15 to 20)
#    0.000    2.250    0.000    6.000    0.000    6.000 
#    0.000    1.250    0.000    0.750    0.000    0.000 
#    0.000    0.000    0.000    0.000    0.000    0.000 
#
# Total GULP energy -356934.791813 kJ/mol
# GULP energy per Si atom -5577.106122 kJ/mol
# Density = 1.749256 g / cm^3
# Si number density = 17.532465 Si / 1000 Ang^3
#
#
#
# Elastic Constant Matrix: (Units=GPa)
#
#
# Indices 1 2 3 4 5 6 
#
# 1 70.2047 32.4555 19.6834 0.0000 0.0000 0.0000
# 2 32.4555 97.2202 13.9913 0.0000 0.0000 0.0000
# 3 19.6834 13.9913 30.4373 0.0000 0.0000 0.0000
# 4 0.0000 0.0000 0.0000 25.2284 0.0000 0.0000
# 5 0.0000 0.0000 0.0000 0.0000 19.9314 0.0000
# 6 0.0000 0.0000 0.0000 0.0000 0.0000 13.7376
#
#
#
# Elastic Compliance Matrix: (Units=1/GPa)
#
#
# Indices 1 2 3 4 5 6 
#
# 1 0.019440 -0.005012 -0.010268 0.000000 0.000000 0.000000
# 2 -0.005012 0.012307 -0.002416 0.000000 0.000000 0.000000
# 3 -0.010268 -0.002416 0.040605 0.000000 0.000000 0.000000
# 4 0.000000 0.000000 0.000000 0.039638 0.000000 0.000000
# 5 0.000000 0.000000 0.000000 0.000000 0.050172 0.000000
# 6 0.000000 0.000000 0.000000 0.000000 0.000000 0.072793
#
#
# Mechanical properties :
#
#
# Convention : Reuss Voigt Hill
#
# Bulk Modulus (GPa) = 27.05595 36.68028 31.86812
# Shear Modulus (GPa) = 17.68875 20.56162 19.12518
#
# Velocity S-wave (km/s) = 3.17979 3.42829 3.30638
# Velocity P-wave (km/s) = 5.38022 6.05291 5.72645
#
# Compressibility (1/GPa) = 0.03696045
#
# Stress axis : x y z
#
# Youngs Moduli (GPa) = 51.44067 81.25577 24.62755
#
# Poissons Ratio (x) = 0.40726 0.25287
# Poissons Ratio (y) = 0.25782 0.05950
# Poissons Ratio (z) = 0.52817 0.19631
#
# Static dielectric constant tensor:
#      x y z
#    x 1.629740 0.000000 0.000000 
#    y 0.000000 1.560100 0.000000 
#    z 0.000000 0.000000 1.590910 
# 
# From -- ./inp_files/7409.got.cif
#   From: 2010.05.17/outbox.cif.g08.bks.cpg/sg57_4_cif.got.tgz:7409.got - 2010.06.03 13:58:18.
