data_PCOD9434244
_publ_section_title
;
Structure prediction by ZEFSAII (Michael W. Deem and Ramdas Pophale) SiO2 
 PCOD9434244
Probable space group: P B C M
;
_chemical_formula_sum "Si O2"
_cell_formula_units_Z 64
_cell_length_a 18.867152
_cell_length_b 25.531139
_cell_length_c 9.087382
_cell_angle_alpha 90.000000
_cell_angle_beta 90.000000
_cell_angle_gamma 90.000000
_cell_volume 4377.390821
_symmetry_space_group_name_H-M "P B C M"
_symmetry_group_IT_number 57
_symmetry_cell_setting 'orthorhombic'
loop_
_space_group_symop_operation_xyz
x,y,z
-x,-y,1/2+z
x,1/2-y,-z
-x,1/2+y,1/2-z
-x,-y,-z
x,y,1/2-z
-x,1/2+y,z
x,1/2-y,1/2+z
loop_
_atom_site_type_symbol
_atom_site_label
_atom_site_fract_x
_atom_site_fract_y
_atom_site_fract_z
Si Si1 0.060166 0.304202 0.072771
Si Si2 0.597396 0.456079 0.579748
Si Si3 0.213987 0.303108 0.573395
Si Si4 0.538790 0.923909 0.419477
Si Si5 0.112598 0.988851 0.925729
Si Si6 0.324792 0.394237 0.923295
Si Si7 0.264592 0.989560 0.424806
Si Si8 0.006503 0.419100 0.074183
O O1 0.064996 0.298176 0.250000
O O2 0.017926 0.357845 0.041409
O O3 0.032711 0.250000 0.000000
O O4 0.138069 0.312281 0.002803
O O5 0.607781 0.442767 0.750000
O O6 0.568029 0.516062 0.573184
O O7 0.534662 0.422538 0.507402
O O8 0.671604 0.455623 0.493741
O O9 0.241862 0.250000 0.500000
O O10 0.205139 0.297773 0.750000
O O11 0.268195 0.349655 0.543231
O O12 0.526570 0.911179 0.250000
O O13 0.602408 0.890580 0.487849
O O14 0.119087 0.984889 0.750000
O O15 0.076236 0.045477 0.959763
O O16 0.188641 0.982095 0.000575
O O17 0.057625 0.945869 0.987099
O O18 0.341920 0.392567 0.750000
O O19 0.288195 0.450266 0.951578
O O20 0.260177 0.981208 0.250000
O O21 0.994249 0.424421 0.250000
#
# Coordination Sequence:
#
# PCOD9434244 Si02
#       8
#     8   8   8   8   8   8   8   8
#     4  10  19  31  47  65  86 112 144 181 220 260
#     4   9  16  26  39  56  81 109 137 169 202 239
#     4  10  19  30  43  60  83 110 142 178 216 253
#     4   9  16  25  39  58  79 106 138 170 204 240
#     4  10  19  30  45  64  86 114 147 180 217 261
#     4   9  18  29  41  58  81 112 145 176 210 251
#     4  10  18  28  42  60  84 112 143 176 211 252
#     4   9  19  33  46  62  86 115 145 179 218 261
#
# _framework density 14.620581
#
# number of rings (size 3 to 8) (size 9 to 14) (size 15 to 20)
#    0.000    2.500    0.000    3.750    0.000    6.000 
#    0.000    0.000    0.000    0.000    0.000    0.000 
#    0.000    1.000    0.000   10.500    0.000    6.250 
#
# Total GULP energy -356651.281238 kJ/mol
# GULP energy per Si atom -5572.676269 kJ/mol
# Density = 1.458730 g / cm^3
# Si number density = 14.620581 Si / 1000 Ang^3
#
#
#
# Elastic Constant Matrix: (Units=GPa)
#
#
# Indices 1 2 3 4 5 6 
#
# 1 105.8442 32.2794 63.9040 0.0000 0.0000 0.0000
# 2 32.2794 65.9282 39.6202 0.0000 0.0000 0.0000
# 3 63.9040 39.6202 75.6023 0.0000 0.0000 0.0000
# 4 0.0000 0.0000 0.0000 18.0549 0.0000 0.0000
# 5 0.0000 0.0000 0.0000 0.0000 30.6890 0.0000
# 6 0.0000 0.0000 0.0000 0.0000 0.0000 14.0991
#
#
#
# Elastic Compliance Matrix: (Units=1/GPa)
#
#
# Indices 1 2 3 4 5 6 
#
# 1 0.019307 0.000517 -0.016590 0.000000 0.000000 0.000000
# 2 0.000517 0.022155 -0.012048 0.000000 0.000000 0.000000
# 3 -0.016590 -0.012048 0.033564 0.000000 0.000000 0.000000
# 4 0.000000 0.000000 0.000000 0.055387 0.000000 0.000000
# 5 0.000000 0.000000 0.000000 0.000000 0.032585 0.000000
# 6 0.000000 0.000000 0.000000 0.000000 0.000000 0.070926
#
#
# Mechanical properties :
#
#
# Convention : Reuss Voigt Hill
#
# Bulk Modulus (GPa) = 53.23660 57.66465 55.45063
# Shear Modulus (GPa) = 16.86759 20.00668 18.43713
#
# Velocity S-wave (km/s) = 3.40028 3.70319 3.55496
# Velocity P-wave (km/s) = 7.20465 7.60337 7.40669
#
# Compressibility (1/GPa) = 0.01878407
#
# Stress axis : x y z
#
# Youngs Moduli (GPa) = 51.79587 45.13652 29.79374
#
# Poissons Ratio (x) = -0.02335 0.49429
# Poissons Ratio (y) = -0.02680 0.35895
# Poissons Ratio (z) = 0.85931 0.54380
#
# Static dielectric constant tensor:
#      x y z
#    x 1.465100 0.000000 0.000000 
#    y 0.000000 1.477390 0.000000 
#    z 0.000000 0.000000 1.488910 
# 
# From -- ./inp_files/7502.got.cif
#   From: 2010.05.17/outbox.cif.g08.bks.cpg/sg57_4_cif.got.tgz:7502.got - 2010.06.03 13:58:18.
