data_PCOD9434037
_publ_section_title
;
Structure prediction by ZEFSAII (Michael W. Deem and Ramdas Pophale) SiO2 
 PCOD9434037
Probable space group: P B C M
;
_chemical_formula_sum "Si O2"
_cell_formula_units_Z 64
_cell_length_a 28.504883
_cell_length_b 5.509087
_cell_length_c 18.671025
_cell_angle_alpha 90.000000
_cell_angle_beta 90.000000
_cell_angle_gamma 90.000000
_cell_volume 2932.020848
_symmetry_space_group_name_H-M "P B C M"
_symmetry_group_IT_number 57
_symmetry_cell_setting 'orthorhombic'
loop_
_space_group_symop_operation_xyz
x,y,z
-x,-y,1/2+z
x,1/2-y,-z
-x,1/2+y,1/2-z
-x,-y,-z
x,y,1/2-z
-x,1/2+y,z
x,1/2-y,1/2+z
loop_
_atom_site_type_symbol
_atom_site_label
_atom_site_fract_x
_atom_site_fract_y
_atom_site_fract_z
Si Si1 0.255862 0.179647 0.330704
Si Si2 0.354650 0.042004 0.670404
Si Si3 0.831052 0.781577 0.413178
Si Si4 0.403449 0.381216 0.569759
Si Si5 0.529058 0.135717 0.832391
Si Si6 0.308936 0.646493 0.572466
Si Si7 0.124826 0.780512 0.416618
Si Si8 0.017414 0.545306 0.582315
O O1 0.238940 0.137400 0.250000
O O2 0.307333 0.297683 0.325334
O O3 0.219322 0.330203 0.377704
O O4 0.267539 0.944551 0.377284
O O5 0.366293 0.958998 0.750000
O O6 0.395958 0.194976 0.635215
O O7 0.338911 0.831949 0.618554
O O8 0.829265 0.750000 0.500000
O O9 0.847884 0.515084 0.386322
O O10 0.863928 0.008089 0.390038
O O11 0.424155 0.250000 0.500000
O O12 0.433373 0.597070 0.604179
O O13 0.350163 0.459822 0.550025
O O14 0.547529 0.122905 0.750000
O O15 0.496174 0.895810 0.839675
O O16 0.288329 0.750000 0.500000
O O17 0.137985 0.750000 0.500000
O O18 0.070489 0.859446 0.415229
O O19 0.000000 0.500000 0.500000
O O20 0.011945 0.273246 0.613629
#
# Coordination Sequence:
#
# PCOD9434037 Si02
#       8
#     8   8   8   8   8   8   8   8
#     4  10  24  42  60  87 119 165 220 262 316 384
#     4  10  22  40  63  90 122 161 208 267 315 380
#     4  10  23  35  56  81 121 164 198 255 311 379
#     4  11  23  40  62  96 129 164 208 266 329 385
#     4  10  24  44  66  94 130 175 221 264 319 392
#     4  11  23  38  67  94 126 160 208 269 326 388
#     4  10  19  33  48  80 119 158 200 243 314 383
#     4  10  17  25  48  74 111 162 188 246 309 378
#
# _framework density 21.827947000000002
#
# number of rings (size 3 to 8) (size 9 to 14) (size 15 to 20)
#    0.000    1.750    2.500    1.500    8.750    2.500 
#    0.000    0.000    0.000    0.000    0.000    0.000 
#    0.000   10.000    0.000    0.000    0.000    0.000 
#
# Total GULP energy -356945.388710 kJ/mol
# GULP energy per Si atom -5577.271699 kJ/mol
# Density = 2.177827 g / cm^3
# Si number density = 21.827947 Si / 1000 Ang^3
#
#
#
# Elastic Constant Matrix: (Units=GPa)
#
#
# Indices 1 2 3 4 5 6 
#
# 1 73.6669 30.8022 17.4150 0.0000 0.0000 0.0000
# 2 30.8022 129.4343 28.9865 0.0000 0.0000 0.0000
# 3 17.4150 28.9865 77.3780 0.0000 0.0000 0.0000
# 4 0.0000 0.0000 0.0000 14.4262 0.0000 0.0000
# 5 0.0000 0.0000 0.0000 0.0000 30.7728 0.0000
# 6 0.0000 0.0000 0.0000 0.0000 0.0000 41.0236
#
#
#
# Elastic Compliance Matrix: (Units=1/GPa)
#
#
# Indices 1 2 3 4 5 6 
#
# 1 0.015438 -0.003161 -0.002290 0.000000 0.000000 0.000000
# 2 -0.003161 0.009081 -0.002690 0.000000 0.000000 0.000000
# 3 -0.002290 -0.002690 0.014447 0.000000 0.000000 0.000000
# 4 0.000000 0.000000 0.000000 0.069318 0.000000 0.000000
# 5 0.000000 0.000000 0.000000 0.000000 0.032496 0.000000
# 6 0.000000 0.000000 0.000000 0.000000 0.000000 0.024376
#
#
# Mechanical properties :
#
#
# Convention : Reuss Voigt Hill
#
# Bulk Modulus (GPa) = 44.08758 48.32072 46.20415
# Shear Modulus (GPa) = 26.45508 30.79623 28.62565
#
# Velocity S-wave (km/s) = 3.48513 3.76022 3.62528
# Velocity P-wave (km/s) = 6.03626 6.40605 6.22390
#
# Compressibility (1/GPa) = 0.02268212
#
# Stress axis : x y z
#
# Youngs Moduli (GPa) = 64.77646 110.12463 69.21922
#
# Poissons Ratio (x) = 0.34809 0.15854
# Poissons Ratio (y) = 0.20475 0.18622
# Poissons Ratio (z) = 0.14836 0.29627
#
# Static dielectric constant tensor:
#      x y z
#    x 1.852180 0.000000 0.000000 
#    y 0.000000 1.926350 0.000000 
#    z 0.000000 0.000000 1.781850 
# 
# From -- ./inp_files/23190.got.cif
#   From: 2010.05.17/outbox.cif.g08.bks.cpg/sg57_12_cif.got.tgz:23190.got - 2010.06.03 13:58:18.
