data_PCOD9434095
_publ_section_title
;
Structure prediction by ZEFSAII (Michael W. Deem and Ramdas Pophale) SiO2 
 PCOD9434095
Probable space group: P B C M
;
_chemical_formula_sum "Si O2"
_cell_formula_units_Z 56
_cell_length_a 5.453949
_cell_length_b 20.317605
_cell_length_c 27.139472
_cell_angle_alpha 90.000000
_cell_angle_beta 90.000000
_cell_angle_gamma 90.000000
_cell_volume 3007.356957
_symmetry_space_group_name_H-M "P B C M"
_symmetry_group_IT_number 57
_symmetry_cell_setting 'orthorhombic'
loop_
_space_group_symop_operation_xyz
x,y,z
-x,-y,1/2+z
x,1/2-y,-z
-x,1/2+y,1/2-z
-x,-y,-z
x,y,1/2-z
-x,1/2+y,z
x,1/2-y,1/2+z
loop_
_atom_site_type_symbol
_atom_site_label
_atom_site_fract_x
_atom_site_fract_y
_atom_site_fract_z
Si Si1 0.340372 0.100186 0.662833
Si Si2 0.139650 0.441263 0.972634
Si Si3 0.161008 0.897774 0.192305
Si Si4 0.319025 0.550699 0.307170
Si Si5 0.818019 0.958667 0.857291
Si Si6 0.925240 0.178331 0.978818
Si Si7 0.581633 0.876166 0.053648
O O1 0.582646 0.136904 0.681073
O O2 0.369629 0.087255 0.604831
O O3 0.087941 0.136212 0.675197
O O4 0.325877 0.029710 0.690222
O O5 0.191005 0.456153 0.916152
O O6 0.374801 0.422815 0.006352
O O7 0.000000 0.500000 0.000000
O O8 0.971057 0.376108 0.978629
O O9 0.148140 0.913528 0.250000
O O10 0.174286 0.965209 0.160694
O O11 0.311036 0.569797 0.250000
O O12 0.572091 0.571289 0.333415
O O13 0.071926 0.570547 0.335959
O O14 0.687793 0.154708 0.948412
O O15 0.187984 0.174478 0.950794
O O16 0.881246 0.250000 0.000000
#
# Coordination Sequence:
#
# PCOD9434095 Si02
#       7
#     8   8   8   8   8   8   8
#     4  10  17  29  46  71  99 139 184 219 262 330
#     4  10  23  35  56  86 119 149 182 233 288 334
#     4  10  18  29  45  68 111 149 175 214 279 338
#     4  10  19  30  46  69 112 150 176 216 278 337
#     4  10  19  29  47  69 106 144 180 212 270 332
#     4  10  23  41  57  75 113 157 195 232 271 334
#     4  10  22  35  58  77 112 146 195 223 286 322
#
# _framework density 18.621003000000002
#
# number of rings (size 3 to 8) (size 9 to 14) (size 15 to 20)
#    0.857    1.143    0.000    7.286    6.000    0.571 
#    0.000    0.000    0.000    0.000    0.000    0.000 
#    0.000   38.857    0.000    0.000    0.000    0.000 
#
# Total GULP energy -311835.135942 kJ/mol
# GULP energy per Si atom -5568.484570 kJ/mol
# Density = 1.857862 g / cm^3
# Si number density = 18.621003 Si / 1000 Ang^3
#
#
#
# Elastic Constant Matrix: (Units=GPa)
#
#
# Indices 1 2 3 4 5 6 
#
# 1 161.5640 -3.4247 38.6495 0.0000 0.0000 0.0000
# 2 -3.4247 33.5521 8.5134 0.0000 0.0000 0.0000
# 3 38.6495 8.5134 161.1471 0.0000 0.0000 0.0000
# 4 0.0000 0.0000 0.0000 3.3649 0.0000 0.0000
# 5 0.0000 0.0000 0.0000 0.0000 28.7251 0.0000
# 6 0.0000 0.0000 0.0000 0.0000 0.0000 9.6264
#
#
#
# Elastic Compliance Matrix: (Units=1/GPa)
#
#
# Indices 1 2 3 4 5 6 
#
# 1 0.006605 0.001091 -0.001642 0.000000 0.000000 0.000000
# 2 0.001091 0.030389 -0.001867 0.000000 0.000000 0.000000
# 3 -0.001642 -0.001867 0.006698 0.000000 0.000000 0.000000
# 4 0.000000 0.000000 0.000000 0.297185 0.000000 0.000000
# 5 0.000000 0.000000 0.000000 0.000000 0.034813 0.000000
# 6 0.000000 0.000000 0.000000 0.000000 0.000000 0.103881
#
#
# Mechanical properties :
#
#
# Convention : Reuss Voigt Hill
#
# Bulk Modulus (GPa) = 25.73571 49.30439 37.52005
# Shear Modulus (GPa) = 10.05308 29.17829 19.61568
#
# Velocity S-wave (km/s) = 2.32605 3.96277 3.24916
# Velocity P-wave (km/s) = 4.58964 6.89010 5.85398
#
# Compressibility (1/GPa) = 0.03885651
#
# Stress axis : x y z
#
# Youngs Moduli (GPa) = 151.39158 32.90612 149.29979
#
# Poissons Ratio (x) = -0.03589 0.24513
# Poissons Ratio (y) = -0.16514 0.27876
# Poissons Ratio (z) = 0.24856 0.06144
#
# Static dielectric constant tensor:
#      x y z
#    x 1.789350 0.000000 0.000000 
#    y 0.000000 1.608940 0.000000 
#    z 0.000000 0.000000 1.645500 
# 
# From -- ./inp_files/26365.got.cif
#   From: 2010.05.17/outbox.cif.g08.bks.cpg/sg57_14_cif.got.tgz:26365.got - 2010.06.03 13:58:18.
