data_PCOD9434944
_publ_section_title
;
Structure prediction by ZEFSAII (Michael W. Deem and Ramdas Pophale) SiO2 
 PCOD9434944
Probable space group: P B C M
;
_chemical_formula_sum "Si O2"
_cell_formula_units_Z 48
_cell_length_a 17.968108
_cell_length_b 13.281955
_cell_length_c 9.014237
_cell_angle_alpha 90.000000
_cell_angle_beta 90.000000
_cell_angle_gamma 90.000000
_cell_volume 2151.262100
_symmetry_space_group_name_H-M "P B C M"
_symmetry_group_IT_number 57
_symmetry_cell_setting 'orthorhombic'
loop_
_space_group_symop_operation_xyz
x,y,z
-x,-y,1/2+z
x,1/2-y,-z
-x,1/2+y,1/2-z
-x,-y,-z
x,y,1/2-z
-x,1/2+y,z
x,1/2-y,1/2+z
loop_
_atom_site_type_symbol
_atom_site_label
_atom_site_fract_x
_atom_site_fract_y
_atom_site_fract_z
Si Si1 0.551020 0.851880 0.926041
Si Si2 0.789769 0.650842 0.076910
Si Si3 0.938232 0.877956 0.415043
Si Si4 0.599098 0.076925 0.572500
Si Si5 0.085015 0.881299 0.582792
Si Si6 0.764652 0.079709 0.571379
O O1 0.551331 0.839389 0.750000
O O2 0.593137 0.956728 0.960300
O O3 0.580180 0.750000 0.000000
O O4 0.467223 0.870234 0.985182
O O5 0.775722 0.658387 0.250000
O O6 0.764749 0.539452 0.029192
O O7 0.757605 0.750000 0.000000
O O8 0.877468 0.650636 0.037353
O O9 0.921363 0.838093 0.250000
O O10 0.020359 0.851059 0.469103
O O11 0.929970 0.998619 0.404870
O O12 0.587007 0.087778 0.750000
O O13 0.681519 0.116285 0.537245
O O14 0.079541 0.839792 0.750000
O O15 0.167069 0.869772 0.514284
O O16 0.776772 0.085304 0.750000
#
# Coordination Sequence:
#
# PCOD9434944 Si02
#       6
#     8   8   8   8   8   8
#     4  10  20  35  57  83 110 142 179 220 266 317
#     4  10  19  30  44  65  95 131 170 211 258 310
#     4   9  16  27  43  62  86 119 159 200 241 289
#     4   9  19  36  56  80 110 143 181 222 264 316
#     4   9  16  26  43  67  91 117 154 199 245 293
#     4   9  18  32  49  70  99 133 167 207 255 307
#
# _framework density 22.312484000000001
#
# number of rings (size 3 to 8) (size 9 to 14) (size 15 to 20)
#    0.000    2.667    0.000    2.000    0.000    6.667 
#    0.000    0.000    0.000    1.000    0.000    2.333 
#    0.000    0.000    0.000    0.000    0.000    0.000 
#
# Total GULP energy -268084.121089 kJ/mol
# GULP energy per Si atom -5585.085856 kJ/mol
# Density = 2.226170 g / cm^3
# Si number density = 22.312484 Si / 1000 Ang^3
#
#
#
# Elastic Constant Matrix: (Units=GPa)
#
#
# Indices 1 2 3 4 5 6 
#
# 1 129.8163 -9.4011 20.4523 0.0000 0.0000 0.0000
# 2 -9.4011 76.3515 16.6947 0.0000 0.0000 0.0000
# 3 20.4523 16.6947 45.8577 0.0000 0.0000 0.0000
# 4 0.0000 0.0000 0.0000 30.2946 0.0000 0.0000
# 5 0.0000 0.0000 0.0000 0.0000 16.7764 0.0000
# 6 0.0000 0.0000 0.0000 0.0000 0.0000 -10.6352
#
#
#
# Elastic Compliance Matrix: (Units=1/GPa)
#
#
# Indices 1 2 3 4 5 6 
#
# 1 0.008572 0.002055 -0.004571 0.000000 0.000000 0.000000
# 2 0.002055 0.014723 -0.006276 0.000000 0.000000 0.000000
# 3 -0.004571 -0.006276 0.026130 0.000000 0.000000 0.000000
# 4 0.000000 0.000000 0.000000 0.033009 0.000000 0.000000
# 5 0.000000 0.000000 0.000000 0.000000 0.059607 0.000000
# 6 0.000000 0.000000 0.000000 0.000000 0.000000 -0.094027
#
#
# Mechanical properties :
#
#
# Convention : Reuss Voigt Hill
#
# Bulk Modulus (GPa) = 31.40715 34.16860 32.78788
# Shear Modulus (GPa) = 65.60525 22.23912 43.92219
#
# Velocity S-wave (km/s) = 5.42833 3.16050 4.44159
# Velocity P-wave (km/s) = 7.30723 5.35399 6.40550
#
# Compressibility (1/GPa) = 0.03183989
#
# Stress axis : x y z
#
# Youngs Moduli (GPa) = 116.65587 67.92220 38.26968
#
# Poissons Ratio (x) = -0.13958 0.17494
# Poissons Ratio (y) = -0.23973 0.24020
# Poissons Ratio (z) = 0.53327 0.42631
#
# Static dielectric constant tensor:
#      x y z
#    x 1.806590 0.000000 0.000000 
#    y 0.000000 1.883510 0.000000 
#    z 0.000000 0.000000 1.764470 
# 
# From -- ./inp_files/6561.got.cif
#   From: 2010.05.17/outbox.cif.g08.bks.cpg/sg57_4_cif.got.tgz:6561.got - 2010.06.03 13:58:18.
