data_PCOD9434946
_publ_section_title
;
Structure prediction by ZEFSAII (Michael W. Deem and Ramdas Pophale) SiO2 
 PCOD9434946
Probable space group: P B C M
;
_chemical_formula_sum "Si O2"
_cell_formula_units_Z 64
_cell_length_a 24.287896
_cell_length_b 17.865186
_cell_length_c 7.825986
_cell_angle_alpha 90.000000
_cell_angle_beta 90.000000
_cell_angle_gamma 90.000000
_cell_volume 3395.756208
_symmetry_space_group_name_H-M "P B C M"
_symmetry_group_IT_number 57
_symmetry_cell_setting 'orthorhombic'
loop_
_space_group_symop_operation_xyz
x,y,z
-x,-y,1/2+z
x,1/2-y,-z
-x,1/2+y,1/2-z
-x,-y,-z
x,y,1/2-z
-x,1/2+y,z
x,1/2-y,1/2+z
loop_
_atom_site_type_symbol
_atom_site_label
_atom_site_fract_x
_atom_site_fract_y
_atom_site_fract_z
Si Si1 0.566457 0.835284 0.046287
Si Si2 0.634792 0.516294 0.044478
Si Si3 0.177443 0.167246 0.454149
Si Si4 0.759080 0.979746 0.540476
Si Si5 0.868244 0.055050 0.953719
Si Si6 0.067462 0.090923 0.040879
Si Si7 0.956803 0.164237 0.452512
Si Si8 0.534415 0.074350 0.955340
O O1 0.565105 0.839188 0.250000
O O2 0.504952 0.858661 0.980762
O O3 0.580931 0.750000 0.000000
O O4 0.607850 0.901914 0.990542
O O5 0.636343 0.509898 0.250000
O O6 0.697006 0.509775 0.979376
O O7 0.594780 0.449503 0.979945
O O8 0.195229 0.250000 0.500000
O O9 0.176389 0.161449 0.250000
O O10 0.217280 0.101111 0.514318
O O11 0.115082 0.149473 0.512127
O O12 0.757330 0.980570 0.750000
O O13 0.806314 0.038466 0.485041
O O14 0.865926 0.046165 0.750000
O O15 0.909152 0.989164 0.017625
O O16 0.898122 0.132193 0.991292
O O17 0.065594 0.089823 0.250000
O O18 0.007762 0.115132 0.976517
O O19 0.964798 0.250000 0.500000
O O20 0.958815 0.157968 0.250000
O O21 0.538301 0.082286 0.750000
O O22 0.500000 0.000000 0.000000
#
# Coordination Sequence:
#
# PCOD9434946 Si02
#       8
#     8   8   8   8   8   8   8   8
#     4  10  19  30  44  68  98 126 151 183 226 271
#     4   9  16  30  50  70  90 119 156 192 225 266
#     4   9  16  28  43  62  89 121 151 182 220 268
#     4   8  16  30  49  68  89 120 156 186 223 270
#     4   9  17  33  52  69  91 122 154 189 230 275
#     4   8  16  30  48  67  90 118 151 187 228 277
#     4  11  21  32  47  70  94 118 149 190 236 283
#     4   8  15  27  45  66  89 116 150 185 219 258
#
# _framework density 18.847054
#
# number of rings (size 3 to 8) (size 9 to 14) (size 15 to 20)
#    0.000    3.000    0.000    3.000    0.000    1.000 
#    0.000    6.250    0.000    0.750    0.000    1.750 
#    0.000    0.000    0.000    0.000    0.000    0.000 
#
# Total GULP energy -356403.925668 kJ/mol
# GULP energy per Si atom -5568.811339 kJ/mol
# Density = 1.880416 g / cm^3
# Si number density = 18.847054 Si / 1000 Ang^3
#
#
#
# Elastic Constant Matrix: (Units=GPa)
#
#
# Indices 1 2 3 4 5 6 
#
# 1 155.7045 34.2271 9.9179 0.0000 0.0000 0.0000
# 2 34.2271 29.7017 -1.4476 0.0000 0.0000 0.0000
# 3 9.9179 -1.4476 19.6113 0.0000 0.0000 0.0000
# 4 0.0000 0.0000 0.0000 11.7616 0.0000 0.0000
# 5 0.0000 0.0000 0.0000 0.0000 10.4174 0.0000
# 6 0.0000 0.0000 0.0000 0.0000 0.0000 14.2375
#
#
#
# Elastic Compliance Matrix: (Units=1/GPa)
#
#
# Indices 1 2 3 4 5 6 
#
# 1 0.009141 -0.010798 -0.005420 0.000000 0.000000 0.000000
# 2 -0.010798 0.046545 0.008897 0.000000 0.000000 0.000000
# 3 -0.005420 0.008897 0.054389 0.000000 0.000000 0.000000
# 4 0.000000 0.000000 0.000000 0.085022 0.000000 0.000000
# 5 0.000000 0.000000 0.000000 0.000000 0.095994 0.000000
# 6 0.000000 0.000000 0.000000 0.000000 0.000000 0.070237
#
#
# Mechanical properties :
#
#
# Convention : Reuss Voigt Hill
#
# Bulk Modulus (GPa) = 10.47870 32.26803 21.37337
# Shear Modulus (GPa) = 12.26145 18.10464 15.18304
#
# Velocity S-wave (km/s) = 2.55341 3.10273 2.84137
# Velocity P-wave (km/s) = 3.77692 5.47669 4.70421
#
# Compressibility (1/GPa) = 0.09543166
#
# Stress axis : x y z
#
# Youngs Moduli (GPa) = 109.39302 21.48450 18.38620
#
# Poissons Ratio (x) = 0.23200 0.09965
# Poissons Ratio (y) = 1.18126 -0.16357
# Poissons Ratio (z) = 0.59291 -0.19114
#
# Static dielectric constant tensor:
#      x y z
#    x 1.698350 0.000000 0.000000 
#    y 0.000000 1.642980 0.000000 
#    z 0.000000 0.000000 1.681070 
# 
# From -- ./inp_files/9566.got.cif
#   From: 2010.05.17/outbox.cif.g08.bks.cpg/sg57_5_cif.got.tgz:9566.got - 2010.06.03 13:58:18.
