data_PCOD9434484
_publ_section_title
;
Structure prediction by ZEFSAII (Michael W. Deem and Ramdas Pophale) SiO2 
 PCOD9434484
Probable space group: P B C M
;
_chemical_formula_sum "Si O2"
_cell_formula_units_Z 40
_cell_length_a 15.069048
_cell_length_b 9.143192
_cell_length_c 15.919756
_cell_angle_alpha 90.000000
_cell_angle_beta 90.000000
_cell_angle_gamma 90.000000
_cell_volume 2193.411232
_symmetry_space_group_name_H-M "P B C M"
_symmetry_group_IT_number 57
_symmetry_cell_setting 'orthorhombic'
loop_
_space_group_symop_operation_xyz
x,y,z
-x,-y,1/2+z
x,1/2-y,-z
-x,1/2+y,1/2-z
-x,-y,-z
x,y,1/2-z
-x,1/2+y,z
x,1/2-y,1/2+z
loop_
_atom_site_type_symbol
_atom_site_label
_atom_site_fract_x
_atom_site_fract_y
_atom_site_fract_z
Si Si1 0.079402 0.553798 0.852421
Si Si2 0.277571 0.053671 0.845106
Si Si3 0.900094 0.391363 0.852116
Si Si4 0.593847 0.576816 0.994524
Si Si5 0.763640 0.648482 0.417225
O O1 0.085428 0.545988 0.750000
O O2 0.088840 0.723096 0.877647
O O3 0.156477 0.455422 0.892113
O O4 0.984152 0.488412 0.878184
O O5 0.296333 0.008916 0.750000
O O6 0.192716 0.963175 0.878198
O O7 0.359899 0.035458 0.906804
O O8 0.252898 0.225784 0.848459
O O9 0.899729 0.394038 0.750000
O O10 0.673437 0.942042 0.937223
O O11 0.577393 0.750000 0.000000
O O12 0.500000 0.500000 0.000000
O O13 0.780760 0.750000 0.500000
#
# Coordination Sequence:
#
# PCOD9434484 Si02
#       5
#     8   8   8   8   8
#     4  10  18  31  50  74 103 136 169 206 248 297
#     4   9  17  34  55  75  99 132 170 208 246 297
#     4   9  18  30  50  77 103 132 169 207 247 291
#     4   9  20  37  54  73 100 131 163 206 261 307
#     4   9  19  34  51  73 100 131 169 207 253 302
#
# _framework density 18.236433999999999
#
# number of rings (size 3 to 8) (size 9 to 14) (size 15 to 20)
#    0.000    3.200    0.000    1.800    0.000    4.800 
#    0.000   17.000    0.000    0.000    0.000    0.000 
#    0.000    0.000    0.000    0.000    0.000    0.000 
#
# Total GULP energy -222917.060386 kJ/mol
# GULP energy per Si atom -5572.926510 kJ/mol
# Density = 1.819493 g / cm^3
# Si number density = 18.236434 Si / 1000 Ang^3
#
#
#
# Elastic Constant Matrix: (Units=GPa)
#
#
# Indices 1 2 3 4 5 6 
#
# 1 197.3702 94.5722 54.0554 0.0000 0.0000 0.0000
# 2 94.5722 89.8814 32.2297 0.0000 0.0000 0.0000
# 3 54.0554 32.2297 43.8323 0.0000 0.0000 0.0000
# 4 0.0000 0.0000 0.0000 14.7444 0.0000 0.0000
# 5 0.0000 0.0000 0.0000 0.0000 15.7486 0.0000
# 6 0.0000 0.0000 0.0000 0.0000 0.0000 45.7389
#
#
#
# Elastic Compliance Matrix: (Units=1/GPa)
#
#
# Indices 1 2 3 4 5 6 
#
# 1 0.011725 -0.009713 -0.007318 0.000000 0.000000 0.000000
# 2 -0.009713 0.023155 -0.005048 0.000000 0.000000 0.000000
# 3 -0.007318 -0.005048 0.035550 0.000000 0.000000 0.000000
# 4 0.000000 0.000000 0.000000 0.067823 0.000000 0.000000
# 5 0.000000 0.000000 0.000000 0.000000 0.063498 0.000000
# 6 0.000000 0.000000 0.000000 0.000000 0.000000 0.021863
#
#
# Mechanical properties :
#
#
# Convention : Reuss Voigt Hill
#
# Bulk Modulus (GPa) = 38.06086 76.97762 57.51924
# Shear Modulus (GPa) = 18.08130 25.26148 21.67139
#
# Velocity S-wave (km/s) = 3.15221 3.72589 3.45099
# Velocity P-wave (km/s) = 5.84506 7.79822 6.89119
#
# Compressibility (1/GPa) = 0.02627371
#
# Stress axis : x y z
#
# Youngs Moduli (GPa) = 85.29050 43.18635 28.12907
#
# Poissons Ratio (x) = 0.41945 0.20584
# Poissons Ratio (y) = 0.82839 0.14200
# Poissons Ratio (z) = 0.62412 0.21802
#
# Static dielectric constant tensor:
#      x y z
#    x 1.609300 0.000000 0.000000 
#    y 0.000000 1.622950 0.000000 
#    z 0.000000 0.000000 1.678380 
# 
# From -- ./inp_files/18211.got.cif
#   From: 2010.05.17/outbox.cif.g08.bks.cpg/sg57_10_cif.got.tgz:18211.got - 2010.06.03 13:58:18.
