data_PCOD9434849
_publ_section_title
;
Structure prediction by ZEFSAII (Michael W. Deem and Ramdas Pophale) SiO2 
 PCOD9434849
Probable space group: P B C M
;
_chemical_formula_sum "Si O2"
_cell_formula_units_Z 36
_cell_length_a 7.245195
_cell_length_b 15.100223
_cell_length_c 14.862772
_cell_angle_alpha 90.000000
_cell_angle_beta 90.000000
_cell_angle_gamma 90.000000
_cell_volume 1626.047602
_symmetry_space_group_name_H-M "P B C M"
_symmetry_group_IT_number 57
_symmetry_cell_setting 'orthorhombic'
loop_
_space_group_symop_operation_xyz
x,y,z
-x,-y,1/2+z
x,1/2-y,-z
-x,1/2+y,1/2-z
-x,-y,-z
x,y,1/2-z
-x,1/2+y,z
x,1/2-y,1/2+z
loop_
_atom_site_type_symbol
_atom_site_label
_atom_site_fract_x
_atom_site_fract_y
_atom_site_fract_z
Si Si1 0.264347 0.800104 0.250000
Si Si2 0.916534 0.900882 0.250000
Si Si3 0.278049 0.333908 0.939734
Si Si4 0.811842 0.989116 0.441542
Si Si5 0.833458 0.314698 0.578893
Si Si6 0.650985 0.761078 0.750000
O O1 0.213083 0.739339 0.166482
O O2 0.483559 0.809267 0.250000
O O3 0.137844 0.887056 0.250000
O O4 0.856182 0.947811 0.343059
O O5 0.830526 0.801873 0.250000
O O6 0.355563 0.320588 0.839639
O O7 0.054978 0.327171 0.927378
O O8 0.334015 0.250000 0.000000
O O9 0.308949 0.422027 0.998539
O O10 0.743259 0.088897 0.427506
O O11 0.000000 0.000000 0.500000
O O12 0.775100 0.250000 0.500000
#
# Coordination Sequence:
#
# PCOD9434849 Si02
#       6
#     4   4   8   8   8   4
#     4  12  23  39  65  97 129 170 223 263 333 394
#     4  12  21  44  69  93 138 169 216 276 329 400
#     4  10  18  38  63  93 128 169 220 262 329 393
#     4  10  21  36  73 100 123 182 222 263 338 392
#     4  10  20  40  67  94 128 172 221 271 324 387
#     4  12  24  37  68  94 129 183 209 269 336 390
#
# _framework density 22.139572999999999
#
# number of rings (size 3 to 8) (size 9 to 14) (size 15 to 20)
#    0.000    1.333    4.444    3.333    0.000    3.556 
#    0.000    2.222   24.444    0.000    0.000    0.000 
#    0.000    0.000    0.000    0.000    0.000    0.000 
#
# Total GULP energy -201166.915145 kJ/mol
# GULP energy per Si atom -5587.969865 kJ/mol
# Density = 2.208918 g / cm^3
# Si number density = 22.139573 Si / 1000 Ang^3
#
#
#
# Elastic Constant Matrix: (Units=GPa)
#
#
# Indices 1 2 3 4 5 6 
#
# 1 72.2293 1.6126 10.3993 0.0000 0.0000 0.0000
# 2 1.6126 118.7778 77.5459 0.0000 0.0000 0.0000
# 3 10.3993 77.5459 230.5612 0.0000 0.0000 0.0000
# 4 0.0000 0.0000 0.0000 28.4035 0.0000 0.0000
# 5 0.0000 0.0000 0.0000 0.0000 -3.2207 0.0000
# 6 0.0000 0.0000 0.0000 0.0000 0.0000 -36.2868
#
#
#
# Elastic Compliance Matrix: (Units=1/GPa)
#
#
# Indices 1 2 3 4 5 6 
#
# 1 0.013943 0.000284 -0.000724 0.000000 0.000000 0.000000
# 2 0.000284 0.010794 -0.003643 0.000000 0.000000 0.000000
# 3 -0.000724 -0.003643 0.005595 0.000000 0.000000 0.000000
# 4 0.000000 0.000000 0.000000 0.035207 0.000000 0.000000
# 5 0.000000 0.000000 0.000000 0.000000 -0.310489 0.000000
# 6 0.000000 0.000000 0.000000 0.000000 0.000000 -0.027558
#
#
# Mechanical properties :
#
#
# Convention : Reuss Voigt Hill
#
# Bulk Modulus (GPa) = 45.11811 66.74264 55.93038
# Shear Modulus (GPa) = -19.45877 19.91324 0.22723
#
# Velocity S-wave (km/s) = -2.96786 3.00232 0.32072
# Velocity P-wave (km/s) = 2.94600 6.49849 5.04526
#
# Compressibility (1/GPa) = 0.02216405
#
# Stress axis : x y z
#
# Youngs Moduli (GPa) = 71.72193 92.64683 178.72444
#
# Poissons Ratio (x) = -0.02627 0.12944
# Poissons Ratio (y) = -0.02034 0.65111
# Poissons Ratio (z) = 0.05194 0.33752
#
# Static dielectric constant tensor:
#      x y z
#    x 1.874990 0.000000 0.000000 
#    y 0.000000 1.799140 0.000000 
#    z 0.000000 0.000000 1.752840 
# 
# From -- ./inp_files/15835.got.cif
#   From: 2010.05.17/outbox.cif.g08.bks.cpg/sg57_8_cif.got.tgz:15835.got - 2010.06.03 13:58:18.
