data_PCOD9434070
_publ_section_title
;
Structure prediction by ZEFSAII (Michael W. Deem and Ramdas Pophale) SiO2 
 PCOD9434070
Probable space group: P B C M
;
_chemical_formula_sum "Si O2"
_cell_formula_units_Z 32
_cell_length_a 7.515507
_cell_length_b 22.216101
_cell_length_c 8.825837
_cell_angle_alpha 90.000000
_cell_angle_beta 90.000000
_cell_angle_gamma 90.000000
_cell_volume 1473.608192
_symmetry_space_group_name_H-M "P B C M"
_symmetry_group_IT_number 57
_symmetry_cell_setting 'orthorhombic'
loop_
_space_group_symop_operation_xyz
x,y,z
-x,-y,1/2+z
x,1/2-y,-z
-x,1/2+y,1/2-z
-x,-y,-z
x,y,1/2-z
-x,1/2+y,z
x,1/2-y,1/2+z
loop_
_atom_site_type_symbol
_atom_site_label
_atom_site_fract_x
_atom_site_fract_y
_atom_site_fract_z
Si Si1 0.534565 0.435926 0.077788
Si Si2 0.059122 0.810240 0.434438
Si Si3 0.962064 0.061953 0.580411
Si Si4 0.538839 0.311862 0.931393
O O1 0.467218 0.435729 0.250000
O O2 0.748786 0.431603 0.084724
O O3 0.500000 0.500000 0.000000
O O4 0.467869 0.376235 0.991056
O O5 0.972120 0.750000 0.500000
O O6 0.071775 0.808433 0.250000
O O7 0.971974 0.873783 0.481200
O O8 0.256359 0.811174 0.508327
O O9 0.031405 0.056385 0.750000
O O10 0.000000 0.000000 0.500000
O O11 0.535131 0.309546 0.750000
O O12 0.459499 0.250000 0.000000
#
# Coordination Sequence:
#
# PCOD9434070 Si02
#       4
#     8   8   8   8
#     4  10  20  34  50  73 100 128 162 202 243 290
#     4   9  16  27  43  67  94 121 156 199 238 280
#     4   9  19  32  48  71  99 126 159 197 237 285
#     4  10  17  27  45  69  95 125 158 198 241 283
#
# _framework density 21.715406000000002
#
# number of rings (size 3 to 8) (size 9 to 14) (size 15 to 20)
#    0.000    2.500    0.000    6.750    0.000    6.000 
#    0.000    0.000    0.000    1.500    0.000    3.500 
#    0.000    0.000    0.000    0.000    0.000    0.000 
#
# Total GULP energy -178396.393008 kJ/mol
# GULP energy per Si atom -5574.887281 kJ/mol
# Density = 2.166598 g / cm^3
# Si number density = 21.715406 Si / 1000 Ang^3
#
#
#
# Elastic Constant Matrix: (Units=GPa)
#
#
# Indices 1 2 3 4 5 6 
#
# 1 50.9713 11.0484 8.6520 0.0000 0.0000 0.0000
# 2 11.0484 309.5369 117.7267 0.0000 0.0000 0.0000
# 3 8.6520 117.7267 152.1565 0.0000 0.0000 0.0000
# 4 0.0000 0.0000 0.0000 47.4111 0.0000 0.0000
# 5 0.0000 0.0000 0.0000 0.0000 8.7415 0.0000
# 6 0.0000 0.0000 0.0000 0.0000 0.0000 22.0686
#
#
#
# Elastic Compliance Matrix: (Units=1/GPa)
#
#
# Indices 1 2 3 4 5 6 
#
# 1 0.019844 -0.000396 -0.000822 0.000000 0.000000 0.000000
# 2 -0.000396 0.004586 -0.003525 0.000000 0.000000 0.000000
# 3 -0.000822 -0.003525 0.009347 0.000000 0.000000 0.000000
# 4 0.000000 0.000000 0.000000 0.021092 0.000000 0.000000
# 5 0.000000 0.000000 0.000000 0.000000 0.114396 0.000000
# 6 0.000000 0.000000 0.000000 0.000000 0.000000 0.045313
#
#
# Mechanical properties :
#
#
# Convention : Reuss Voigt Hill
#
# Bulk Modulus (GPa) = 41.16968 87.50211 64.33590
# Shear Modulus (GPa) = 21.53674 40.66011 31.09843
#
# Velocity S-wave (km/s) = 3.15266 4.33183 3.78840
# Velocity P-wave (km/s) = 5.67911 8.08715 6.98764
#
# Compressibility (1/GPa) = 0.02428972
#
# Stress axis : x y z
#
# Youngs Moduli (GPa) = 50.39258 218.07380 106.98986
#
# Poissons Ratio (x) = 0.08626 0.08798
# Poissons Ratio (y) = 0.01993 0.37719
# Poissons Ratio (z) = 0.04144 0.76882
#
# Static dielectric constant tensor:
#      x y z
#    x 1.879280 0.000000 0.000000 
#    y 0.000000 1.890500 0.000000 
#    z 0.000000 0.000000 1.753740 
# 
# From -- ./inp_files/1221.got.cif
#   From: 2010.05.17/outbox.cif.g08.bks.cpg/sg57_1_cif.got.tgz:1221.got - 2010.06.03 13:58:18.
