data_PCOD9434582
_publ_section_title
;
Structure prediction by ZEFSAII (Michael W. Deem and Ramdas Pophale) SiO2 
 PCOD9434582
Probable space group: P B C M
;
_chemical_formula_sum "Si O2"
_cell_formula_units_Z 64
_cell_length_a 20.351064
_cell_length_b 20.628325
_cell_length_c 8.515495
_cell_angle_alpha 90.000000
_cell_angle_beta 90.000000
_cell_angle_gamma 90.000000
_cell_volume 3574.876010
_symmetry_space_group_name_H-M "P B C M"
_symmetry_group_IT_number 57
_symmetry_cell_setting 'orthorhombic'
loop_
_space_group_symop_operation_xyz
x,y,z
-x,-y,1/2+z
x,1/2-y,-z
-x,1/2+y,1/2-z
-x,-y,-z
x,y,1/2-z
-x,1/2+y,z
x,1/2-y,1/2+z
loop_
_atom_site_type_symbol
_atom_site_label
_atom_site_fract_x
_atom_site_fract_y
_atom_site_fract_z
Si Si1 0.149474 0.420161 0.060145
Si Si2 0.475332 0.930015 0.061392
Si Si3 0.388114 0.110840 0.940921
Si Si4 0.341977 0.966089 0.937784
Si Si5 0.196302 0.944040 0.062064
Si Si6 0.038384 0.320651 0.439489
Si Si7 0.113265 0.679604 0.560400
Si Si8 0.261679 0.180607 0.939049
O O1 0.149136 0.424828 0.250000
O O2 0.085745 0.379024 0.009809
O O3 0.212332 0.376585 0.013765
O O4 0.158103 0.491608 0.992842
O O5 0.472179 0.931244 0.250000
O O6 0.535663 0.883451 0.011590
O O7 0.402404 0.921523 0.995039
O O8 0.500000 0.000000 0.000000
O O9 0.387606 0.111402 0.750000
O O10 0.335179 0.163150 0.995347
O O11 0.360435 0.039851 0.988002
O O12 0.340291 0.965842 0.750000
O O13 0.270856 0.947537 0.001097
O O14 0.197612 0.943264 0.250000
O O15 0.158803 0.879415 0.006504
O O16 0.060353 0.250000 0.500000
O O17 0.040319 0.318770 0.250000
O O18 0.962755 0.330217 0.489847
O O19 0.134644 0.750000 0.500000
O O20 0.113762 0.680589 0.750000
O O21 0.261485 0.182208 0.750000
O O22 0.239914 0.250000 0.000000
#
# Coordination Sequence:
#
# PCOD9434582 Si02
#       8
#     8   8   8   8   8   8   8   8
#     4  10  20  34  52  74 106 142 176 214 262 316
#     4   9  16  27  46  72  98 131 170 213 260 304
#     4   8  15  29  47  66  97 132 166 209 253 299
#     4  10  18  32  51  73 102 135 168 211 265 318
#     4  11  22  34  52  79 109 136 170 221 268 313
#     4   9  18  34  55  77 104 141 180 218 260 309
#     4   9  20  38  57  79 105 133 171 217 265 321
#     4  10  19  32  47  69 101 140 179 215 255 304
#
# _framework density 17.902718
#
# number of rings (size 3 to 8) (size 9 to 14) (size 15 to 20)
#    0.000    2.500    1.250    2.250    0.000    2.500 
#    0.000    1.250    0.000    0.750    0.000    1.750 
#    0.000    0.000    0.000    0.000    0.000    0.000 
#
# Total GULP energy -356757.735122 kJ/mol
# GULP energy per Si atom -5574.339611 kJ/mol
# Density = 1.786197 g / cm^3
# Si number density = 17.902718 Si / 1000 Ang^3
#
#
#
# Elastic Constant Matrix: (Units=GPa)
#
#
# Indices 1 2 3 4 5 6 
#
# 1 119.5222 73.7332 24.5006 0.0000 0.0000 0.0000
# 2 73.7332 113.4544 21.7358 0.0000 0.0000 0.0000
# 3 24.5006 21.7358 20.3759 0.0000 0.0000 0.0000
# 4 0.0000 0.0000 0.0000 22.9443 0.0000 0.0000
# 5 0.0000 0.0000 0.0000 0.0000 22.1056 0.0000
# 6 0.0000 0.0000 0.0000 0.0000 0.0000 21.5192
#
#
#
# Elastic Compliance Matrix: (Units=1/GPa)
#
#
# Indices 1 2 3 4 5 6 
#
# 1 0.015393 -0.008117 -0.009851 0.000000 0.000000 0.000000
# 2 -0.008117 0.015358 -0.006623 0.000000 0.000000 0.000000
# 3 -0.009851 -0.006623 0.067988 0.000000 0.000000 0.000000
# 4 0.000000 0.000000 0.000000 0.043584 0.000000 0.000000
# 5 0.000000 0.000000 0.000000 0.000000 0.045237 0.000000
# 6 0.000000 0.000000 0.000000 0.000000 0.000000 0.046470
#
#
# Mechanical properties :
#
#
# Convention : Reuss Voigt Hill
#
# Bulk Modulus (GPa) = 20.17857 54.81020 37.49439
# Shear Modulus (GPa) = 16.68164 22.20602 19.44383
#
# Velocity S-wave (km/s) = 3.05584 3.52571 3.29915
# Velocity P-wave (km/s) = 4.87305 6.87432 5.95831
#
# Compressibility (1/GPa) = 0.04955752
#
# Stress axis : x y z
#
# Youngs Moduli (GPa) = 64.96427 65.11278 14.70850
#
# Poissons Ratio (x) = 0.52850 0.14489
# Poissons Ratio (y) = 0.52729 0.09742
# Poissons Ratio (z) = 0.63995 0.43126
#
# Static dielectric constant tensor:
#      x y z
#    x 1.649050 0.000000 0.000000 
#    y 0.000000 1.589760 0.000000 
#    z 0.000000 0.000000 1.610310 
# 
# From -- ./inp_files/7195.got.cif
#   From: 2010.05.17/outbox.cif.g08.bks.cpg/sg57_4_cif.got.tgz:7195.got - 2010.06.03 13:58:18.
