data_PCOD9434344
_publ_section_title
;
Structure prediction by ZEFSAII (Michael W. Deem and Ramdas Pophale) SiO2 
 PCOD9434344
Probable space group: P B C M
;
_chemical_formula_sum "Si O2"
_cell_formula_units_Z 48
_cell_length_a 12.090934
_cell_length_b 26.520171
_cell_length_c 8.950244
_cell_angle_alpha 90.000000
_cell_angle_beta 90.000000
_cell_angle_gamma 90.000000
_cell_volume 2869.928293
_symmetry_space_group_name_H-M "P B C M"
_symmetry_group_IT_number 57
_symmetry_cell_setting 'orthorhombic'
loop_
_space_group_symop_operation_xyz
x,y,z
-x,-y,1/2+z
x,1/2-y,-z
-x,1/2+y,1/2-z
-x,-y,-z
x,y,1/2-z
-x,1/2+y,z
x,1/2-y,1/2+z
loop_
_atom_site_type_symbol
_atom_site_label
_atom_site_fract_x
_atom_site_fract_y
_atom_site_fract_z
Si Si1 0.668944 0.897002 0.073269
Si Si2 0.005558 0.872638 0.927985
Si Si3 0.156155 0.466292 0.574761
Si Si4 0.210666 0.567869 0.428558
Si Si5 0.175615 0.195787 0.572241
Si Si6 0.448160 0.949495 0.427087
O O1 0.692246 0.906929 0.250000
O O2 0.724750 0.843438 0.036560
O O3 0.539010 0.905293 0.051539
O O4 0.731301 0.938508 0.974469
O O5 0.002377 0.862557 0.750000
O O6 0.936727 0.924282 0.953642
O O7 0.131153 0.885564 0.972643
O O8 0.937365 0.829661 0.012048
O O9 0.156584 0.478706 0.750000
O O10 0.149324 0.516603 0.478803
O O11 0.221256 0.568132 0.250000
O O12 0.330964 0.565115 0.502398
O O13 0.193004 0.250000 0.500000
O O14 0.169636 0.200494 0.750000
O O15 0.435061 0.958144 0.250000
O O16 0.500000 0.000000 0.500000
#
# Coordination Sequence:
#
# PCOD9434344 Si02
#       6
#     8   8   8   8   8   8
#     4   9  19  34  51  73 103 136 172 214 259 305
#     4   9  20  35  50  73 103 135 173 216 258 307
#     4  10  18  29  48  72 100 136 176 214 253 301
#     4  11  21  32  47  70 106 144 176 210 253 303
#     4  10  20  36  59  82 102 128 163 213 270 319
#     4  11  21  33  50  73 104 142 182 217 254 302
#
# _framework density 16.725156999999999
#
# number of rings (size 3 to 8) (size 9 to 14) (size 15 to 20)
#    0.000    2.000    1.667    2.500    0.000    3.333 
#    0.000    0.000    0.000    1.000    0.000    4.667 
#    0.000    0.000    0.000    0.000    0.000    0.000 
#
# Total GULP energy -267739.343632 kJ/mol
# GULP energy per Si atom -5577.902992 kJ/mol
# Density = 1.668709 g / cm^3
# Si number density = 16.725157 Si / 1000 Ang^3
#
#
#
# Elastic Constant Matrix: (Units=GPa)
#
#
# Indices 1 2 3 4 5 6 
#
# 1 81.8158 32.1483 39.0618 0.0000 0.0000 0.0000
# 2 32.1483 83.4432 33.2296 0.0000 0.0000 0.0000
# 3 39.0618 33.2296 49.4474 0.0000 0.0000 0.0000
# 4 0.0000 0.0000 0.0000 23.9607 0.0000 0.0000
# 5 0.0000 0.0000 0.0000 0.0000 24.1759 0.0000
# 6 0.0000 0.0000 0.0000 0.0000 0.0000 13.3481
#
#
#
# Elastic Compliance Matrix: (Units=1/GPa)
#
#
# Indices 1 2 3 4 5 6 
#
# 1 0.019846 -0.001915 -0.014390 0.000000 0.000000 0.000000
# 2 -0.001915 0.016548 -0.009608 0.000000 0.000000 0.000000
# 3 -0.014390 -0.009608 0.038048 0.000000 0.000000 0.000000
# 4 0.000000 0.000000 0.000000 0.041735 0.000000 0.000000
# 5 0.000000 0.000000 0.000000 0.000000 0.041364 0.000000
# 6 0.000000 0.000000 0.000000 0.000000 0.000000 0.074917
#
#
# Mechanical properties :
#
#
# Convention : Reuss Voigt Hill
#
# Bulk Modulus (GPa) = 44.21805 47.06509 45.64157
# Shear Modulus (GPa) = 17.13376 19.64807 18.39092
#
# Velocity S-wave (km/s) = 3.20414 3.43120 3.31961
# Velocity P-wave (km/s) = 6.33910 6.62562 6.48394
#
# Compressibility (1/GPa) = 0.02261520
#
# Stress axis : x y z
#
# Youngs Moduli (GPa) = 50.38906 60.42966 26.28271
#
# Poissons Ratio (x) = 0.11574 0.37821
# Poissons Ratio (y) = 0.09651 0.25252
# Poissons Ratio (z) = 0.72511 0.58059
#
# Static dielectric constant tensor:
#      x y z
#    x 1.594640 0.000000 0.000000 
#    y 0.000000 1.548570 0.000000 
#    z 0.000000 0.000000 1.555720 
# 
# From -- ./inp_files/3113.got.cif
#   From: 2010.05.17/outbox.cif.g08.bks.cpg/sg57_2_cif.got.tgz:3113.got - 2010.06.03 13:58:18.
