data_PCOD9434122
_publ_section_title
;
Structure prediction by ZEFSAII (Michael W. Deem and Ramdas Pophale) SiO2 
 PCOD9434122
Probable space group: P B C M
;
_chemical_formula_sum "Si O2"
_cell_formula_units_Z 56
_cell_length_a 12.456007
_cell_length_b 8.550131
_cell_length_c 26.879490
_cell_angle_alpha 90.000000
_cell_angle_beta 90.000000
_cell_angle_gamma 90.000000
_cell_volume 2862.678899
_symmetry_space_group_name_H-M "P B C M"
_symmetry_group_IT_number 57
_symmetry_cell_setting 'orthorhombic'
loop_
_space_group_symop_operation_xyz
x,y,z
-x,-y,1/2+z
x,1/2-y,-z
-x,1/2+y,1/2-z
-x,-y,-z
x,y,1/2-z
-x,1/2+y,z
x,1/2-y,1/2+z
loop_
_atom_site_type_symbol
_atom_site_label
_atom_site_fract_x
_atom_site_fract_y
_atom_site_fract_z
Si Si1 0.157017 0.710014 0.446951
Si Si2 0.655284 0.748904 0.809878
Si Si3 0.247006 0.729493 0.659399
Si Si4 0.542245 0.427630 0.309790
Si Si5 0.867698 0.606232 0.339500
Si Si6 0.917367 0.014692 0.195283
Si Si7 0.009347 0.459334 0.411612
O O1 0.206128 0.750000 0.500000
O O2 0.231310 0.739867 0.399284
O O3 0.055508 0.825679 0.438759
O O4 0.103678 0.539305 0.442349
O O5 0.666246 0.744928 0.750000
O O6 0.588592 0.904501 0.823873
O O7 0.578619 0.608572 0.826752
O O8 0.773005 0.771344 0.831577
O O9 0.369788 0.700302 0.673670
O O10 0.186079 0.565371 0.672039
O O11 0.183591 0.870742 0.685947
O O12 0.539924 0.422000 0.250000
O O13 0.917025 0.584558 0.394648
O O14 0.973000 0.618394 0.305348
O O15 0.906803 0.942566 0.250000
O O16 0.942787 0.921071 0.143706
#
# Coordination Sequence:
#
# PCOD9434122 Si02
#       7
#     8   8   8   8   8   8   8
#     4  10  17  31  48  65  89 119 152 196 232 270
#     4   9  16  28  44  63  84 120 157 182 216 262
#     4   9  17  30  42  66  91 120 158 184 229 280
#     4   9  17  29  46  64  90 119 152 190 222 262
#     4   8  16  28  43  61  92 120 153 181 216 269
#     4   9  16  25  41  64  94 122 146 177 216 270
#     4   8  18  29  42  69  89 115 153 180 221 278
#
# _framework density 19.562096
#
# number of rings (size 3 to 8) (size 9 to 14) (size 15 to 20)
#    0.857    2.286    0.000    1.286    0.000    1.714 
#    0.000    4.286    0.000    5.143    0.000   10.000 
#    0.000    0.000    0.000    0.000    0.000    0.000 
#
# Total GULP energy -311864.533452 kJ/mol
# GULP energy per Si atom -5569.009526 kJ/mol
# Density = 1.951757 g / cm^3
# Si number density = 19.562096 Si / 1000 Ang^3
#
#
#
# Elastic Constant Matrix: (Units=GPa)
#
#
# Indices 1 2 3 4 5 6 
#
# 1 83.4489 13.9394 -5.5744 0.0000 0.0000 0.0000
# 2 13.9394 22.5759 11.4371 0.0000 0.0000 0.0000
# 3 -5.5744 11.4371 50.6363 0.0000 0.0000 0.0000
# 4 0.0000 0.0000 0.0000 12.4340 0.0000 0.0000
# 5 0.0000 0.0000 0.0000 0.0000 8.6109 0.0000
# 6 0.0000 0.0000 0.0000 0.0000 0.0000 35.9919
#
#
#
# Elastic Compliance Matrix: (Units=1/GPa)
#
#
# Indices 1 2 3 4 5 6 
#
# 1 0.014029 -0.010665 0.003953 0.000000 0.000000 0.000000
# 2 -0.010665 0.058126 -0.014303 0.000000 0.000000 0.000000
# 3 0.003953 -0.014303 0.023414 0.000000 0.000000 0.000000
# 4 0.000000 0.000000 0.000000 0.080424 0.000000 0.000000
# 5 0.000000 0.000000 0.000000 0.000000 0.116133 0.000000
# 6 0.000000 0.000000 0.000000 0.000000 0.000000 0.027784
#
#
# Mechanical properties :
#
#
# Convention : Reuss Voigt Hill
#
# Bulk Modulus (GPa) = 18.67750 21.80726 20.24238
# Shear Modulus (GPa) = 13.16532 20.53130 16.84831
#
# Velocity S-wave (km/s) = 2.59704 3.24318 2.93793
# Velocity P-wave (km/s) = 4.30829 5.01958 4.67748
#
# Compressibility (1/GPa) = 0.05354035
#
# Stress axis : x y z
#
# Youngs Moduli (GPa) = 71.28129 17.20405 42.70873
#
# Poissons Ratio (x) = 0.18348 -0.16884
# Poissons Ratio (y) = 0.76020 0.61086
# Poissons Ratio (z) = -0.28179 0.24607
#
# Static dielectric constant tensor:
#      x y z
#    x 1.698170 0.000000 0.000000 
#    y 0.000000 1.817940 0.000000 
#    z 0.000000 0.000000 1.668980 
# 
# From -- ./inp_files/28644.got.cif
#   From: 2010.05.17/outbox.cif.g08.bks.cpg/sg57_15_cif.got.tgz:28644.got - 2010.06.03 13:58:18.
