data_PCOD9434434
_publ_section_title
;
Structure prediction by ZEFSAII (Michael W. Deem and Ramdas Pophale) SiO2 
 PCOD9434434
Probable space group: P B C M
;
_chemical_formula_sum "Si O2"
_cell_formula_units_Z 40
_cell_length_a 12.841676
_cell_length_b 21.184535
_cell_length_c 8.931851
_cell_angle_alpha 90.000000
_cell_angle_beta 90.000000
_cell_angle_gamma 90.000000
_cell_volume 2429.864822
_symmetry_space_group_name_H-M "P B C M"
_symmetry_group_IT_number 57
_symmetry_cell_setting 'orthorhombic'
loop_
_space_group_symop_operation_xyz
x,y,z
-x,-y,1/2+z
x,1/2-y,-z
-x,1/2+y,1/2-z
-x,-y,-z
x,y,1/2-z
-x,1/2+y,z
x,1/2-y,1/2+z
loop_
_atom_site_type_symbol
_atom_site_label
_atom_site_fract_x
_atom_site_fract_y
_atom_site_fract_z
Si Si1 0.637919 0.445291 0.071936
Si Si2 0.425753 0.409479 0.571680
Si Si3 0.255064 0.180888 0.929765
Si Si4 0.142614 0.553969 0.428323
Si Si5 0.932148 0.911794 0.071004
O O1 0.633914 0.436045 0.250000
O O2 0.619189 0.520075 0.041704
O O3 0.542346 0.409678 0.993396
O O4 0.750026 0.427563 0.006851
O O5 0.426857 0.399984 0.750000
O O6 0.351856 0.358974 0.493058
O O7 0.261644 0.184054 0.750000
O O8 0.150219 0.142093 0.969139
O O9 0.253262 0.250000 0.000000
O O10 0.152286 0.559563 0.250000
O O11 0.118393 0.480200 0.464469
O O12 0.042159 0.591402 0.487600
O O13 0.949689 0.910395 0.250000
#
# Coordination Sequence:
#
# PCOD9434434 Si02
#       5
#     8   8   8   8   8
#     4  10  19  31  51  77 108 139 169 213 266 317
#     4  10  20  33  51  76 105 138 177 215 260 313
#     4  11  22  37  55  76 106 141 179 218 257 306
#     4  10  18  30  51  77 106 136 170 214 263 315
#     4   9  19  33  49  73 105 138 173 213 260 311
#
# _framework density 16.461821
#
# number of rings (size 3 to 8) (size 9 to 14) (size 15 to 20)
#    0.000    2.000    2.000    2.400    0.000    4.000 
#    0.000    0.000    0.000    1.200    0.000    5.600 
#    0.000    0.000    0.000    0.000    0.000    0.000 
#
# Total GULP energy -223275.662294 kJ/mol
# GULP energy per Si atom -5581.891557 kJ/mol
# Density = 1.642435 g / cm^3
# Si number density = 16.461821 Si / 1000 Ang^3
#
#
#
# Elastic Constant Matrix: (Units=GPa)
#
#
# Indices 1 2 3 4 5 6 
#
# 1 173.8773 66.0935 72.5452 0.0000 0.0000 0.0000
# 2 66.0935 88.0745 49.6699 0.0000 0.0000 0.0000
# 3 72.5452 49.6699 58.6551 0.0000 0.0000 0.0000
# 4 0.0000 0.0000 0.0000 22.5417 0.0000 0.0000
# 5 0.0000 0.0000 0.0000 0.0000 34.9709 0.0000
# 6 0.0000 0.0000 0.0000 0.0000 0.0000 16.4009
#
#
#
# Elastic Compliance Matrix: (Units=1/GPa)
#
#
# Indices 1 2 3 4 5 6 
#
# 1 0.011950 -0.001211 -0.013755 0.000000 0.000000 0.000000
# 2 -0.001211 0.021855 -0.017010 0.000000 0.000000 0.000000
# 3 -0.013755 -0.017010 0.048466 0.000000 0.000000 0.000000
# 4 0.000000 0.000000 0.000000 0.044362 0.000000 0.000000
# 5 0.000000 0.000000 0.000000 0.000000 0.028595 0.000000
# 6 0.000000 0.000000 0.000000 0.000000 0.000000 0.060972
#
#
# Mechanical properties :
#
#
# Convention : Reuss Voigt Hill
#
# Bulk Modulus (GPa) = 54.58616 77.46935 66.02776
# Shear Modulus (GPa) = 17.46671 23.60258 20.53464
#
# Velocity S-wave (km/s) = 3.26090 3.79063 3.53570
# Velocity P-wave (km/s) = 6.88543 8.14375 7.54089
#
# Compressibility (1/GPa) = 0.01831966
#
# Stress axis : x y z
#
# Youngs Moduli (GPa) = 83.68041 45.75524 20.63323
#
# Poissons Ratio (x) = 0.05539 0.28381
# Poissons Ratio (y) = 0.10130 0.35097
# Poissons Ratio (z) = 1.15102 0.77830
#
# Static dielectric constant tensor:
#      x y z
#    x 1.540490 0.000000 0.000000 
#    y 0.000000 1.527690 0.000000 
#    z 0.000000 0.000000 1.542210 
# 
# From -- ./inp_files/2630.got.cif
#   From: 2010.05.17/outbox.cif.g08.bks.cpg/sg57_2_cif.got.tgz:2630.got - 2010.06.03 13:58:18.
