data_PCOD9434431
_publ_section_title
;
Structure prediction by ZEFSAII (Michael W. Deem and Ramdas Pophale) SiO2 
 PCOD9434431
Probable space group: P B C M
;
_chemical_formula_sum "Si O2"
_cell_formula_units_Z 48
_cell_length_a 9.120683
_cell_length_b 18.311038
_cell_length_c 15.941028
_cell_angle_alpha 90.000000
_cell_angle_beta 90.000000
_cell_angle_gamma 90.000000
_cell_volume 2662.297903
_symmetry_space_group_name_H-M "P B C M"
_symmetry_group_IT_number 57
_symmetry_cell_setting 'orthorhombic'
loop_
_space_group_symop_operation_xyz
x,y,z
-x,-y,1/2+z
x,1/2-y,-z
-x,1/2+y,1/2-z
-x,-y,-z
x,y,1/2-z
-x,1/2+y,z
x,1/2-y,1/2+z
loop_
_atom_site_type_symbol
_atom_site_label
_atom_site_fract_x
_atom_site_fract_y
_atom_site_fract_z
Si Si1 0.802881 0.423324 0.494893
Si Si2 0.848917 0.584333 0.516738
Si Si3 0.346579 0.653937 0.846639
Si Si4 0.652496 0.788349 0.088709
Si Si5 0.842160 0.839982 0.657305
Si Si6 0.144570 0.784305 0.589841
O O1 0.785388 0.503933 0.531986
O O2 0.707193 0.406380 0.413202
O O3 0.775009 0.359067 0.562294
O O4 0.975659 0.416763 0.469935
O O5 0.770212 0.648399 0.567720
O O6 0.825378 0.603155 0.418473
O O7 0.331008 0.632361 0.750000
O O8 0.511708 0.677064 0.868145
O O9 0.246453 0.725251 0.865959
O O10 0.727176 0.725173 0.143268
O O11 0.611044 0.750000 0.000000
O O12 0.829698 0.871393 0.750000
O O13 0.002795 0.804975 0.642998
O O14 0.095292 0.750000 0.500000
#
# Coordination Sequence:
#
# PCOD9434431 Si02
#       6
#     8   8   8   8   8   8
#     4   9  18  35  54  74  98 129 169 204 241 296
#     4   9  19  34  54  74  98 132 168 201 242 296
#     4  11  21  32  50  75 102 129 162 207 251 289
#     4  10  19  33  51  72  98 133 169 200 240 295
#     4  10  18  30  51  76 100 124 160 210 253 290
#     4   9  17  32  52  72  94 128 168 202 243 296
#
# _framework density 18.029539
#
# number of rings (size 3 to 8) (size 9 to 14) (size 15 to 20)
#    0.000    2.333    0.000    6.000    0.000    1.333 
#    0.000    0.833    0.000   14.000    0.000    0.000 
#    0.000    0.000    0.000    0.000    0.000    0.000 
#
# Total GULP energy -267781.326455 kJ/mol
# GULP energy per Si atom -5578.777634 kJ/mol
# Density = 1.798850 g / cm^3
# Si number density = 18.029539 Si / 1000 Ang^3
#
#
#
# Elastic Constant Matrix: (Units=GPa)
#
#
# Indices 1 2 3 4 5 6 
#
# 1 35.1738 -10.4550 7.0245 0.0000 0.0000 0.0000
# 2 -10.4550 45.7987 -19.4686 0.0000 0.0000 0.0000
# 3 7.0245 -19.4686 47.7937 0.0000 0.0000 0.0000
# 4 0.0000 0.0000 0.0000 5.0987 0.0000 0.0000
# 5 0.0000 0.0000 0.0000 0.0000 0.2057 0.0000
# 6 0.0000 0.0000 0.0000 0.0000 0.0000 6.7378
#
#
#
# Elastic Compliance Matrix: (Units=1/GPa)
#
#
# Indices 1 2 3 4 5 6 
#
# 1 0.030657 0.006148 -0.002002 0.000000 0.000000 0.000000
# 2 0.006148 0.027640 0.010356 0.000000 0.000000 0.000000
# 3 -0.002002 0.010356 0.025436 0.000000 0.000000 0.000000
# 4 0.000000 0.000000 0.000000 0.196129 0.000000 0.000000
# 5 0.000000 0.000000 0.000000 0.000000 4.860561 0.000000
# 6 0.000000 0.000000 0.000000 0.000000 0.000000 0.148416
#
#
# Mechanical properties :
#
#
# Convention : Reuss Voigt Hill
#
# Bulk Modulus (GPa) = 8.87028 9.21868 9.04448
# Shear Modulus (GPa) = 0.94386 12.51947 6.73166
#
# Velocity S-wave (km/s) = 0.72432 2.63798 1.93437
# Velocity P-wave (km/s) = 2.37278 3.79510 3.16487
#
# Compressibility (1/GPa) = 0.11273600
#
# Stress axis : x y z
#
# Youngs Moduli (GPa) = 32.61861 36.17936 39.31479
#
# Poissons Ratio (x) = -0.22242 0.07870
# Poissons Ratio (y) = -0.20053 -0.40712
# Poissons Ratio (z) = 0.06529 -0.37466
#
# Static dielectric constant tensor:
#      x y z
#    x 1.612550 0.000000 0.000000 
#    y 0.000000 1.623220 0.000000 
#    z 0.000000 0.000000 1.614320 
# 
# From -- ./inp_files/21089.got.cif
#   From: 2010.05.17/outbox.cif.g08.bks.cpg/sg57_11_cif.got.tgz:21089.got - 2010.06.03 13:58:18.
