data_PCOD9434821
_publ_section_title
;
Structure prediction by ZEFSAII (Michael W. Deem and Ramdas Pophale) SiO2 
 PCOD9434821
Probable space group: P B C M
;
_chemical_formula_sum "Si O2"
_cell_formula_units_Z 52
_cell_length_a 8.892688
_cell_length_b 14.943012
_cell_length_c 19.994621
_cell_angle_alpha 90.000000
_cell_angle_beta 90.000000
_cell_angle_gamma 90.000000
_cell_volume 2656.956089
_symmetry_space_group_name_H-M "P B C M"
_symmetry_group_IT_number 57
_symmetry_cell_setting 'orthorhombic'
loop_
_space_group_symop_operation_xyz
x,y,z
-x,-y,1/2+z
x,1/2-y,-z
-x,1/2+y,1/2-z
-x,-y,-z
x,y,1/2-z
-x,1/2+y,z
x,1/2-y,1/2+z
loop_
_atom_site_type_symbol
_atom_site_label
_atom_site_fract_x
_atom_site_fract_y
_atom_site_fract_z
Si Si1 0.559636 0.597394 0.618704
Si Si2 0.741589 0.563702 0.497576
Si Si3 0.780707 0.698739 0.250000
Si Si4 0.239286 0.090546 0.750000
Si Si5 0.940488 0.975987 0.750000
Si Si6 0.210578 0.566703 0.621642
Si Si7 0.985422 0.806079 0.437589
Si Si8 0.689132 0.789189 0.892248
O O1 0.625651 0.540764 0.556637
O O2 0.660131 0.580157 0.683937
O O3 0.386067 0.583010 0.633217
O O4 0.588919 0.701212 0.598966
O O5 0.796388 0.485883 0.448998
O O6 0.882312 0.613182 0.533136
O O7 0.665371 0.635897 0.447564
O O8 0.815482 0.805188 0.250000
O O9 0.920998 0.631202 0.250000
O O10 0.682564 0.679215 0.183889
O O11 0.104731 0.019950 0.750000
O O12 0.858926 0.011874 0.816947
O O13 0.111164 0.655156 0.610595
O O14 0.048717 0.750000 0.500000
O O15 0.862190 0.743368 0.402000
#
# Coordination Sequence:
#
# PCOD9434821 Si02
#       8
#     8   8   4   4   4   8   8   8
#     4  10  21  37  58  79 116 158 189 235 296 358
#     4  10  19  36  58  83 116 157 194 229 286 361
#     4  10  18  36  62  86 108 156 199 239 289 356
#     4  10  23  43  63  82 118 158 201 235 305 365
#     4  12  23  37  65  88 118 148 200 256 286 347
#     4  12  22  35  58  92 118 146 197 250 296 335
#     4   9  20  35  56  85 116 151 196 248 288 339
#     4   9  18  37  58  80 112 157 202 224 289 363
#
# _framework density 19.571269000000001
#
# number of rings (size 3 to 8) (size 9 to 14) (size 15 to 20)
#    0.000    1.846    1.538    5.538    0.000    1.231 
#    0.000    0.000    3.385    0.000    0.000    0.000 
#    0.000    0.000    0.000    0.000    0.000    0.000 
#
# Total GULP energy -290273.614636 kJ/mol
# GULP energy per Si atom -5582.184897 kJ/mol
# Density = 1.952672 g / cm^3
# Si number density = 19.571269 Si / 1000 Ang^3
#
#
#
# Elastic Constant Matrix: (Units=GPa)
#
#
# Indices 1 2 3 4 5 6 
#
# 1 89.2302 25.4693 31.8015 0.0000 0.0000 0.0000
# 2 25.4693 32.1697 18.8380 0.0000 0.0000 0.0000
# 3 31.8015 18.8380 116.7949 0.0000 0.0000 0.0000
# 4 0.0000 0.0000 0.0000 27.7519 0.0000 0.0000
# 5 0.0000 0.0000 0.0000 0.0000 26.5061 0.0000
# 6 0.0000 0.0000 0.0000 0.0000 0.0000 9.8801
#
#
#
# Elastic Compliance Matrix: (Units=1/GPa)
#
#
# Indices 1 2 3 4 5 6 
#
# 1 0.015067 -0.010520 -0.002406 0.000000 0.000000 0.000000
# 2 -0.010520 0.041673 -0.003857 0.000000 0.000000 0.000000
# 3 -0.002406 -0.003857 0.009839 0.000000 0.000000 0.000000
# 4 0.000000 0.000000 0.000000 0.036034 0.000000 0.000000
# 5 0.000000 0.000000 0.000000 0.000000 0.037727 0.000000
# 6 0.000000 0.000000 0.000000 0.000000 0.000000 0.101213
#
#
# Mechanical properties :
#
#
# Convention : Reuss Voigt Hill
#
# Bulk Modulus (GPa) = 30.29083 43.37915 36.83499
# Shear Modulus (GPa) = 17.47498 23.63335 20.55416
#
# Velocity S-wave (km/s) = 2.99137 3.47876 3.24423
# Velocity P-wave (km/s) = 5.23849 6.19262 5.73543
#
# Compressibility (1/GPa) = 0.03301329
#
# Stress axis : x y z
#
# Youngs Moduli (GPa) = 66.36941 23.99650 101.63469
#
# Poissons Ratio (x) = 0.25245 0.24451
# Poissons Ratio (y) = 0.69822 0.39200
# Poissons Ratio (z) = 0.15967 0.09255
#
# Static dielectric constant tensor:
#      x y z
#    x 1.665240 0.000000 0.000000 
#    y 0.000000 1.703130 0.000000 
#    z 0.000000 0.000000 1.724420 
# 
# From -- ./inp_files/24377.got.cif
#   From: 2010.05.17/outbox.cif.g08.bks.cpg/sg57_13_cif.got.tgz:24377.got - 2010.06.03 13:58:18.
