data_PCOD9434330
_publ_section_title
;
Structure prediction by ZEFSAII (Michael W. Deem and Ramdas Pophale) SiO2 
 PCOD9434330
Probable space group: P B C M
;
_chemical_formula_sum "Si O2"
_cell_formula_units_Z 64
_cell_length_a 21.059571
_cell_length_b 19.994878
_cell_length_c 8.132607
_cell_angle_alpha 90.000000
_cell_angle_beta 90.000000
_cell_angle_gamma 90.000000
_cell_volume 3424.507050
_symmetry_space_group_name_H-M "P B C M"
_symmetry_group_IT_number 57
_symmetry_cell_setting 'orthorhombic'
loop_
_space_group_symop_operation_xyz
x,y,z
-x,-y,1/2+z
x,1/2-y,-z
-x,1/2+y,1/2-z
-x,-y,-z
x,y,1/2-z
-x,1/2+y,z
x,1/2-y,1/2+z
loop_
_atom_site_type_symbol
_atom_site_label
_atom_site_fract_x
_atom_site_fract_y
_atom_site_fract_z
Si Si1 0.843035 0.569484 0.448246
Si Si2 0.984681 0.924482 0.446183
Si Si3 0.619378 0.600248 0.946394
Si Si4 0.652307 0.050426 0.947569
Si Si5 0.206404 0.575835 0.548746
Si Si6 0.516295 0.424150 0.051682
Si Si7 0.903384 0.326744 0.051349
Si Si8 0.260116 0.324119 0.946166
O O1 0.840636 0.568578 0.250000
O O2 0.913301 0.590554 0.498789
O O3 0.825908 0.494261 0.502836
O O4 0.790072 0.621146 0.509533
O O5 0.987442 0.922960 0.250000
O O6 0.037258 0.871865 0.508229
O O7 0.000000 0.000000 0.500000
O O8 0.617980 0.593662 0.750000
O O9 0.547013 0.614592 0.004066
O O10 0.643076 0.528498 0.015210
O O11 0.670094 0.655527 0.994548
O O12 0.653582 0.056896 0.750000
O O13 0.720529 0.075563 0.009010
O O14 0.588191 0.087353 0.009407
O O15 0.207413 0.575857 0.750000
O O16 0.161532 0.636675 0.495936
O O17 0.518707 0.420058 0.250000
O O18 0.500000 0.500000 0.000000
O O19 0.903895 0.328988 0.250000
O O20 0.907578 0.250000 0.000000
O O21 0.259831 0.327541 0.750000
O O22 0.242813 0.250000 0.000000
#
# Coordination Sequence:
#
# PCOD9434330 Si02
#       8
#     8   8   8   8   8   8   8   8
#     4  10  20  37  58  80 107 139 179 224 270 321
#     4  11  22  37  59  85 113 144 180 222 266 316
#     4  10  18  29  46  73 108 139 175 224 269 318
#     4   9  15  28  51  76 102 139 179 216 269 320
#     4   9  16  32  56  79 106 139 176 218 263 317
#     4   8  15  25  42  71 103 133 169 214 261 313
#     4  10  22  39  57  80 110 140 175 215 260 314
#     4  11  23  38  55  75 104 144 184 227 277 334
#
# _framework density 18.688821000000001
#
# number of rings (size 3 to 8) (size 9 to 14) (size 15 to 20)
#    0.000    2.250    2.500    1.125    0.000    3.000 
#    0.000    3.125    0.000    0.750    0.000    1.750 
#    0.000    0.000    0.000    0.000    0.000    0.000 
#
# Total GULP energy -356816.505642 kJ/mol
# GULP energy per Si atom -5575.257901 kJ/mol
# Density = 1.864628 g / cm^3
# Si number density = 18.688821 Si / 1000 Ang^3
#
#
#
# Elastic Constant Matrix: (Units=GPa)
#
#
# Indices 1 2 3 4 5 6 
#
# 1 176.3986 69.2439 17.3782 0.0000 0.0000 0.0000
# 2 69.2439 106.8449 5.1030 0.0000 0.0000 0.0000
# 3 17.3782 5.1030 7.0691 0.0000 0.0000 0.0000
# 4 0.0000 0.0000 0.0000 22.4255 0.0000 0.0000
# 5 0.0000 0.0000 0.0000 0.0000 18.7012 0.0000
# 6 0.0000 0.0000 0.0000 0.0000 0.0000 22.7337
#
#
#
# Elastic Compliance Matrix: (Units=1/GPa)
#
#
# Indices 1 2 3 4 5 6 
#
# 1 0.009755 -0.005361 -0.020110 0.000000 0.000000 0.000000
# 2 -0.005361 0.012640 0.004055 0.000000 0.000000 0.000000
# 3 -0.020110 0.004055 0.187970 0.000000 0.000000 0.000000
# 4 0.000000 0.000000 0.000000 0.044592 0.000000 0.000000
# 5 0.000000 0.000000 0.000000 0.000000 0.053473 0.000000
# 6 0.000000 0.000000 0.000000 0.000000 0.000000 0.043988
#
#
# Mechanical properties :
#
#
# Convention : Reuss Voigt Hill
#
# Bulk Modulus (GPa) = 5.96898 52.64029 29.30464
# Shear Modulus (GPa) = 11.08418 26.01125 18.54771
#
# Velocity S-wave (km/s) = 2.43799 3.73474 3.15373
# Velocity P-wave (km/s) = 3.33555 6.84292 5.38291
#
# Compressibility (1/GPa) = 0.16753279
#
# Stress axis : x y z
#
# Youngs Moduli (GPa) = 102.51446 79.11231 5.32000
#
# Poissons Ratio (x) = 0.42415 0.10699
# Poissons Ratio (y) = 0.54962 -0.02157
# Poissons Ratio (z) = 2.06158 -0.32083
#
# Static dielectric constant tensor:
#      x y z
#    x 1.699480 0.000000 0.000000 
#    y 0.000000 1.609450 0.000000 
#    z 0.000000 0.000000 1.663690 
# 
# From -- ./inp_files/8446.got.cif
#   From: 2010.05.17/outbox.cif.g08.bks.cpg/sg57_5_cif.got.tgz:8446.got - 2010.06.03 13:58:18.
