data_PCOD9434559
_publ_section_title
;
Structure prediction by ZEFSAII (Michael W. Deem and Ramdas Pophale) SiO2 
 PCOD9434559
Probable space group: P B C M
;
_chemical_formula_sum "Si O2"
_cell_formula_units_Z 44
_cell_length_a 10.656475
_cell_length_b 13.113662
_cell_length_c 16.381336
_cell_angle_alpha 90.000000
_cell_angle_beta 90.000000
_cell_angle_gamma 90.000000
_cell_volume 2289.216536
_symmetry_space_group_name_H-M "P B C M"
_symmetry_group_IT_number 57
_symmetry_cell_setting 'orthorhombic'
loop_
_space_group_symop_operation_xyz
x,y,z
-x,-y,1/2+z
x,1/2-y,-z
-x,1/2+y,1/2-z
-x,-y,-z
x,y,1/2-z
-x,1/2+y,z
x,1/2-y,1/2+z
loop_
_atom_site_type_symbol
_atom_site_label
_atom_site_fract_x
_atom_site_fract_y
_atom_site_fract_z
Si Si1 0.665051 0.172295 0.750000
Si Si2 0.479428 0.750000 0.000000
Si Si3 0.254772 0.168794 0.250000
Si Si4 0.907588 0.028113 0.750000
Si Si5 0.146464 0.485670 0.156445
Si Si6 0.668957 0.142858 0.125181
Si Si7 0.726062 0.796919 0.415406
Si Si8 0.500518 0.473475 0.750000
O O1 0.794557 0.108037 0.750000
O O2 0.661898 0.250569 0.825895
O O3 0.553336 0.088311 0.750000
O O4 0.391565 0.664176 0.038203
O O5 0.576551 0.794251 0.067121
O O6 0.249173 0.234380 0.167320
O O7 0.382497 0.103491 0.250000
O O8 0.145828 0.085516 0.250000
O O9 0.999713 0.035774 0.828635
O O10 0.194797 0.472365 0.250000
O O11 0.191285 0.597251 0.128908
O O12 0.213666 0.406165 0.098421
O O13 0.582512 0.060045 0.171961
O O14 0.778241 0.750000 0.500000
#
# Coordination Sequence:
#
# PCOD9434559 Si02
#       8
#     4   4   4   4   8   8   8   4
#     4  10  22  37  66  89 123 162 225 260 331 394
#     4  10  24  38  56  92 142 160 206 260 334 404
#     4  11  18  39  66  88 132 165 219 269 329 380
#     4   9  22  41  67  94 116 174 228 278 312 397
#     4  10  21  39  67  90 125 169 222 272 326 381
#     4  11  22  38  59  95 129 167 205 270 335 393
#     4  10  22  38  63  97 126 172 215 266 331 406
#     4  10  18  31  59  89 115 155 204 261 314 393
#
# _framework density 19.220551
#
# number of rings (size 3 to 8) (size 9 to 14) (size 15 to 20)
#    1.091    0.727    4.545    0.000    2.545    3.636 
#    6.545    0.909    4.000    0.000    0.000    0.000 
#    0.000    0.000    0.000    0.000    0.000    0.000 
#
# Total GULP energy -245025.595276 kJ/mol
# GULP energy per Si atom -5568.763529 kJ/mol
# Density = 1.917680 g / cm^3
# Si number density = 19.220551 Si / 1000 Ang^3
#
#
#
# Elastic Constant Matrix: (Units=GPa)
#
#
# Indices 1 2 3 4 5 6 
#
# 1 80.2954 35.9823 19.9286 0.0000 0.0000 0.0000
# 2 35.9823 102.5586 38.9717 0.0000 0.0000 0.0000
# 3 19.9286 38.9717 89.0103 0.0000 0.0000 0.0000
# 4 0.0000 0.0000 0.0000 25.4754 0.0000 0.0000
# 5 0.0000 0.0000 0.0000 0.0000 -1.4461 0.0000
# 6 0.0000 0.0000 0.0000 0.0000 0.0000 18.4230
#
#
#
# Elastic Compliance Matrix: (Units=1/GPa)
#
#
# Indices 1 2 3 4 5 6 
#
# 1 0.014893 -0.004748 -0.001256 0.000000 0.000000 0.000000
# 2 -0.004748 0.013210 -0.004721 0.000000 0.000000 0.000000
# 3 -0.001256 -0.004721 0.013583 0.000000 0.000000 0.000000
# 4 0.000000 0.000000 0.000000 0.039254 0.000000 0.000000
# 5 0.000000 0.000000 0.000000 0.000000 -0.691534 0.000000
# 6 0.000000 0.000000 0.000000 0.000000 0.000000 0.054280
#
#
# Mechanical properties :
#
#
# Convention : Reuss Voigt Hill
#
# Bulk Modulus (GPa) = 49.41394 51.29218 50.35306
# Shear Modulus (GPa) = -9.46755 20.28925 5.41085
#
# Velocity S-wave (km/s) = -2.22181 3.25253 1.67966
# Velocity P-wave (km/s) = 4.37982 6.39135 5.47869
#
# Compressibility (1/GPa) = 0.02023721
#
# Stress axis : x y z
#
# Youngs Moduli (GPa) = 67.14376 75.69853 73.62299
#
# Poissons Ratio (x) = 0.35943 0.09244
# Poissons Ratio (y) = 0.31881 0.34756
# Poissons Ratio (z) = 0.08430 0.35736
#
# Static dielectric constant tensor:
#      x y z
#    x 1.708960 0.000000 0.000000 
#    y 0.000000 1.661530 0.000000 
#    z 0.000000 0.000000 1.695850 
# 
# From -- ./inp_files/21772.got.cif
#   From: 2010.05.17/outbox.cif.g08.bks.cpg/sg57_11_cif.got.tgz:21772.got - 2010.06.03 13:58:18.
