data_PCOD9434179
_publ_section_title
;
Structure prediction by ZEFSAII (Michael W. Deem and Ramdas Pophale) SiO2 
 PCOD9434179
Probable space group: P B C M
;
_chemical_formula_sum "Si O2"
_cell_formula_units_Z 56
_cell_length_a 8.440998
_cell_length_b 22.335888
_cell_length_c 16.075573
_cell_angle_alpha 90.000000
_cell_angle_beta 90.000000
_cell_angle_gamma 90.000000
_cell_volume 3030.843296
_symmetry_space_group_name_H-M "P B C M"
_symmetry_group_IT_number 57
_symmetry_cell_setting 'orthorhombic'
loop_
_space_group_symop_operation_xyz
x,y,z
-x,-y,1/2+z
x,1/2-y,-z
-x,1/2+y,1/2-z
-x,-y,-z
x,y,1/2-z
-x,1/2+y,z
x,1/2-y,1/2+z
loop_
_atom_site_type_symbol
_atom_site_label
_atom_site_fract_x
_atom_site_fract_y
_atom_site_fract_z
Si Si1 0.141923 0.673502 0.156947
Si Si2 0.314484 0.784715 0.089174
Si Si3 0.916120 0.612462 0.473869
Si Si4 0.424220 0.597588 0.086308
Si Si5 0.718586 0.534215 0.343965
Si Si6 0.213815 0.919180 0.433291
Si Si7 0.367921 0.315385 0.473544
O O1 0.076700 0.666375 0.250000
O O2 0.225547 0.738276 0.148135
O O3 0.014629 0.659562 0.084122
O O4 0.284662 0.626553 0.140382
O O5 0.231173 0.848935 0.087127
O O6 0.306030 0.750000 0.000000
O O7 0.501131 0.802086 0.097940
O O8 0.040551 0.575309 0.527784
O O9 0.825576 0.569912 0.409579
O O10 0.787028 0.643980 0.533414
O O11 0.539146 0.553706 0.135235
O O12 0.530014 0.651333 0.046255
O O13 0.339998 0.567601 0.006849
O O14 0.756908 0.551007 0.250000
O O15 0.748832 0.464367 0.359985
O O16 0.312030 0.250000 0.500000
#
# Coordination Sequence:
#
# PCOD9434179 Si02
#       7
#     8   8   8   8   8   8   8
#     4  11  20  33  55  85 115 142 181 233 283 328
#     4  10  17  36  56  81 105 142 183 231 269 323
#     4  10  21  33  55  80 108 149 188 222 272 339
#     4   9  18  35  56  80 103 142 189 226 265 326
#     4  11  22  36  52  80 116 144 181 234 283 322
#     4  10  20  35  59  77 107 146 195 223 269 333
#     4   9  16  30  56  79 103 136 179 225 270 311
#
# _framework density 18.476706
#
# number of rings (size 3 to 8) (size 9 to 14) (size 15 to 20)
#    0.000    2.000    5.714    1.714    2.000    0.571 
#    0.000    0.000    0.000    0.857    0.000    0.000 
#    0.000    0.000    0.000    0.000    0.000    0.000 
#
# Total GULP energy -311912.321317 kJ/mol
# GULP energy per Si atom -5569.862881 kJ/mol
# Density = 1.843465 g / cm^3
# Si number density = 18.476706 Si / 1000 Ang^3
#
#
#
# Elastic Constant Matrix: (Units=GPa)
#
#
# Indices 1 2 3 4 5 6 
#
# 1 63.7125 20.8202 0.6944 0.0000 0.0000 0.0000
# 2 20.8202 47.5063 -6.0803 0.0000 0.0000 0.0000
# 3 0.6944 -6.0803 18.6782 0.0000 0.0000 0.0000
# 4 0.0000 0.0000 0.0000 17.0917 0.0000 0.0000
# 5 0.0000 0.0000 0.0000 0.0000 6.7710 0.0000
# 6 0.0000 0.0000 0.0000 0.0000 0.0000 14.0875
#
#
#
# Elastic Compliance Matrix: (Units=1/GPa)
#
#
# Indices 1 2 3 4 5 6 
#
# 1 0.018533 -0.008568 -0.003478 0.000000 0.000000 0.000000
# 2 -0.008568 0.025926 0.008758 0.000000 0.000000 0.000000
# 3 -0.003478 0.008758 0.056519 0.000000 0.000000 0.000000
# 4 0.000000 0.000000 0.000000 0.058508 0.000000 0.000000
# 5 0.000000 0.000000 0.000000 0.000000 0.147689 0.000000
# 6 0.000000 0.000000 0.000000 0.000000 0.000000 0.070985
#
#
# Mechanical properties :
#
#
# Convention : Reuss Voigt Hill
#
# Bulk Modulus (GPa) = 10.59291 17.86282 14.22787
# Shear Modulus (GPa) = 12.01341 15.22088 13.61714
#
# Velocity S-wave (km/s) = 2.55265 2.87328 2.71770
# Velocity P-wave (km/s) = 3.79916 4.54933 4.19106
#
# Compressibility (1/GPa) = 0.09440277
#
# Stress axis : x y z
#
# Youngs Moduli (GPa) = 53.95737 38.57191 17.69322
#
# Poissons Ratio (x) = 0.33047 0.06154
# Poissons Ratio (y) = 0.46228 -0.15496
# Poissons Ratio (z) = 0.18767 -0.33782
#
# Static dielectric constant tensor:
#      x y z
#    x 1.666130 0.000000 0.000000 
#    y 0.000000 1.648870 0.000000 
#    z 0.000000 0.000000 1.631480 
# 
# From -- ./inp_files/21347.got.cif
#   From: 2010.05.17/outbox.cif.g08.bks.cpg/sg57_11_cif.got.tgz:21347.got - 2010.06.03 13:58:18.
