data_PCOD9434057
_publ_section_title
;
Structure prediction by ZEFSAII (Michael W. Deem and Ramdas Pophale) SiO2 
 PCOD9434057
Probable space group: P B C M
;
_chemical_formula_sum "Si O2"
_cell_formula_units_Z 56
_cell_length_a 17.980916
_cell_length_b 22.345152
_cell_length_c 9.260698
_cell_angle_alpha 90.000000
_cell_angle_beta 90.000000
_cell_angle_gamma 90.000000
_cell_volume 3720.821595
_symmetry_space_group_name_H-M "P B C M"
_symmetry_group_IT_number 57
_symmetry_cell_setting 'orthorhombic'
loop_
_space_group_symop_operation_xyz
x,y,z
-x,-y,1/2+z
x,1/2-y,-z
-x,1/2+y,1/2-z
-x,-y,-z
x,y,1/2-z
-x,1/2+y,z
x,1/2-y,1/2+z
loop_
_atom_site_type_symbol
_atom_site_label
_atom_site_fract_x
_atom_site_fract_y
_atom_site_fract_z
Si Si1 0.909593 0.940118 0.083345
Si Si2 0.549713 0.418779 0.078907
Si Si3 0.202227 0.896019 0.421242
Si Si4 0.238766 0.036300 0.078680
Si Si5 0.658300 0.313266 0.077115
Si Si6 0.945252 0.416996 0.916147
Si Si7 0.389063 0.464122 0.420867
O O1 0.902055 0.921884 0.250000
O O2 0.928499 0.011388 0.082703
O O3 0.833116 0.934316 0.995678
O O4 0.979017 0.908778 0.005235
O O5 0.564525 0.430831 0.250000
O O6 0.588873 0.356516 0.042314
O O7 0.461088 0.421927 0.057981
O O8 0.585862 0.471973 0.986389
O O9 0.187417 0.890281 0.250000
O O10 0.267256 0.850278 0.462292
O O11 0.126370 0.887810 0.509040
O O12 0.230418 0.964263 0.443938
O O13 0.239459 0.046779 0.250000
O O14 0.315208 0.055533 0.003781
O O15 0.659410 0.305012 0.250000
O O16 0.654816 0.250000 0.000000
O O17 0.953601 0.398710 0.750000
O O18 0.374754 0.469436 0.250000
#
# Coordination Sequence:
#
# PCOD9434057 Si02
#       7
#     8   8   8   8   8   8   8
#     4   9  16  25  37  57  84 113 146 176 208 251
#     4   9  18  33  46  61  87 117 146 183 231 274
#     4   9  17  29  43  57  81 116 148 179 221 264
#     4  10  17  27  42  60  88 119 146 179 222 265
#     4  10  20  34  48  64  87 117 152 190 231 269
#     4   9  16  25  38  57  81 110 145 179 211 249
#     4  10  18  27  45  67  87 113 149 186 222 273
#
# _framework density 15.05044
#
# number of rings (size 3 to 8) (size 9 to 14) (size 15 to 20)
#    0.000    2.571    1.429    1.714    0.000    5.714 
#    0.000    0.000    0.000    0.000    0.000    0.000 
#    0.000    1.143    0.000    7.143    0.000    5.286 
#
# Total GULP energy -312075.441616 kJ/mol
# GULP energy per Si atom -5572.775743 kJ/mol
# Density = 1.501618 g / cm^3
# Si number density = 15.050440 Si / 1000 Ang^3
#
#
#
# Elastic Constant Matrix: (Units=GPa)
#
#
# Indices 1 2 3 4 5 6 
#
# 1 151.3613 42.9625 86.8989 0.0000 0.0000 0.0000
# 2 42.9625 51.4653 31.7267 0.0000 0.0000 0.0000
# 3 86.8989 31.7267 92.5475 0.0000 0.0000 0.0000
# 4 0.0000 0.0000 0.0000 16.8426 0.0000 0.0000
# 5 0.0000 0.0000 0.0000 0.0000 29.9512 0.0000
# 6 0.0000 0.0000 0.0000 0.0000 0.0000 10.6999
#
#
#
# Elastic Compliance Matrix: (Units=1/GPa)
#
#
# Indices 1 2 3 4 5 6 
#
# 1 0.015269 -0.004955 -0.012638 0.000000 0.000000 0.000000
# 2 -0.004955 0.026245 -0.004345 0.000000 0.000000 0.000000
# 3 -0.012638 -0.004345 0.024162 0.000000 0.000000 0.000000
# 4 0.000000 0.000000 0.000000 0.059373 0.000000 0.000000
# 5 0.000000 0.000000 0.000000 0.000000 0.033388 0.000000
# 6 0.000000 0.000000 0.000000 0.000000 0.000000 0.093459
#
#
# Mechanical properties :
#
#
# Convention : Reuss Voigt Hill
#
# Bulk Modulus (GPa) = 45.87201 68.72781 57.29991
# Shear Modulus (GPa) = 16.49953 20.41781 18.45867
#
# Velocity S-wave (km/s) = 3.31461 3.68724 3.50588
# Velocity P-wave (km/s) = 6.72264 7.99323 7.38531
#
# Compressibility (1/GPa) = 0.02179979
#
# Stress axis : x y z
#
# Youngs Moduli (GPa) = 65.49154 38.10192 41.38780
#
# Poissons Ratio (x) = 0.18880 0.52308
# Poissons Ratio (y) = 0.32453 0.17981
# Poissons Ratio (z) = 0.82771 0.16553
#
# Static dielectric constant tensor:
#      x y z
#    x 1.510430 0.000000 0.000000 
#    y 0.000000 1.456820 0.000000 
#    z 0.000000 0.000000 1.503230 
# 
# From -- ./inp_files/6994.got.cif
#   From: 2010.05.17/outbox.cif.g08.bks.cpg/sg57_4_cif.got.tgz:6994.got - 2010.06.03 13:58:18.
