data_PCOD9434474
_publ_section_title
;
Structure prediction by ZEFSAII (Michael W. Deem and Ramdas Pophale) SiO2 
 PCOD9434474
Probable space group: P B C M
;
_chemical_formula_sum "Si O2"
_cell_formula_units_Z 56
_cell_length_a 9.699895
_cell_length_b 23.022327
_cell_length_c 14.814704
_cell_angle_alpha 90.000000
_cell_angle_beta 90.000000
_cell_angle_gamma 90.000000
_cell_volume 3308.333099
_symmetry_space_group_name_H-M "P B C M"
_symmetry_group_IT_number 57
_symmetry_cell_setting 'orthorhombic'
loop_
_space_group_symop_operation_xyz
x,y,z
-x,-y,1/2+z
x,1/2-y,-z
-x,1/2+y,1/2-z
-x,-y,-z
x,y,1/2-z
-x,1/2+y,z
x,1/2-y,1/2+z
loop_
_atom_site_type_symbol
_atom_site_label
_atom_site_fract_x
_atom_site_fract_y
_atom_site_fract_z
Si Si1 0.351727 0.984430 0.641404
Si Si2 0.139027 0.905677 0.535637
Si Si3 0.130545 0.092969 0.145931
Si Si4 0.829588 0.045241 0.650529
Si Si5 0.566137 0.881907 0.857904
Si Si6 0.478415 0.595804 0.645044
Si Si7 0.613116 0.181908 0.008863
O O1 0.325141 0.981930 0.750000
O O2 0.223930 0.957799 0.585871
O O3 0.479857 0.940798 0.621897
O O4 0.402965 0.049386 0.618909
O O5 0.100358 0.925695 0.435127
O O6 0.244833 0.852419 0.526968
O O7 0.003470 0.890672 0.590619
O O8 0.114060 0.111302 0.250000
O O9 0.276692 0.115596 0.110584
O O10 0.146394 0.023209 0.145887
O O11 0.874807 0.065712 0.750000
O O12 0.666930 0.060436 0.642352
O O13 0.566520 0.876532 0.750000
O O14 0.484595 0.831187 0.906459
O O15 0.499384 0.612814 0.750000
O O16 0.457149 0.649270 0.577059
O O17 0.633938 0.250000 0.000000
#
# Coordination Sequence:
#
# PCOD9434474 Si02
#       7
#     8   8   8   8   8   8   8
#     4   9  16  29  49  78 105 127 157 204 259 317
#     4  10  20  30  51  76 105 133 166 209 263 303
#     4  10  18  31  49  77 106 130 159 199 253 315
#     4   9  17  29  46  71 105 136 163 193 247 321
#     4   9  18  32  54  76 102 133 166 205 254 308
#     4   9  17  31  52  74 100 133 165 206 260 314
#     4  10  22  36  51  73  99 134 182 220 248 289
#
# _framework density 16.926953000000001
#
# number of rings (size 3 to 8) (size 9 to 14) (size 15 to 20)
#    0.000    2.571    1.429    0.857    2.000    2.857 
#    0.000    0.714    0.000    0.000    0.000    0.000 
#    0.000    0.000    0.000    0.000    0.000    0.000 
#
# Total GULP energy -312190.507421 kJ/mol
# GULP energy per Si atom -5574.830490 kJ/mol
# Density = 1.688843 g / cm^3
# Si number density = 16.926953 Si / 1000 Ang^3
#
#
#
# Elastic Constant Matrix: (Units=GPa)
#
#
# Indices 1 2 3 4 5 6 
#
# 1 60.1781 13.9090 31.3462 0.0000 0.0000 0.0000
# 2 13.9090 72.4770 20.2843 0.0000 0.0000 0.0000
# 3 31.3462 20.2843 51.7128 0.0000 0.0000 0.0000
# 4 0.0000 0.0000 0.0000 12.6887 0.0000 0.0000
# 5 0.0000 0.0000 0.0000 0.0000 17.8835 0.0000
# 6 0.0000 0.0000 0.0000 0.0000 0.0000 7.1811
#
#
#
# Elastic Compliance Matrix: (Units=1/GPa)
#
#
# Indices 1 2 3 4 5 6 
#
# 1 0.024309 -0.000608 -0.014497 0.000000 0.000000 0.000000
# 2 -0.000608 0.015514 -0.005717 0.000000 0.000000 0.000000
# 3 -0.014497 -0.005717 0.030367 0.000000 0.000000 0.000000
# 4 0.000000 0.000000 0.000000 0.078810 0.000000 0.000000
# 5 0.000000 0.000000 0.000000 0.000000 0.055917 0.000000
# 6 0.000000 0.000000 0.000000 0.000000 0.000000 0.139255
#
#
# Mechanical properties :
#
#
# Convention : Reuss Voigt Hill
#
# Bulk Modulus (GPa) = 35.02938 35.04966 35.03952
# Shear Modulus (GPa) = 12.64762 15.47256 14.06009
#
# Velocity S-wave (km/s) = 2.73644 3.02665 2.88520
# Velocity P-wave (km/s) = 5.54288 5.74156 5.64309
#
# Compressibility (1/GPa) = 0.02854747
#
# Stress axis : x y z
#
# Youngs Moduli (GPa) = 41.13703 64.45725 32.93014
#
# Poissons Ratio (x) = 0.03918 0.47738
# Poissons Ratio (y) = 0.02501 0.18826
# Poissons Ratio (z) = 0.59635 0.36850
#
# Static dielectric constant tensor:
#      x y z
#    x 1.566370 0.000000 0.000000 
#    y 0.000000 1.538740 0.000000 
#    z 0.000000 0.000000 1.611460 
# 
# From -- ./inp_files/16703.got.cif
#   From: 2010.05.17/outbox.cif.g08.bks.cpg/sg57_9_cif.got.tgz:16703.got - 2010.06.03 13:58:18.
