data_PCOD9434170
_publ_section_title
;
Structure prediction by ZEFSAII (Michael W. Deem and Ramdas Pophale) SiO2 
 PCOD9434170
Probable space group: P B C M
;
_chemical_formula_sum "Si O2"
_cell_formula_units_Z 44
_cell_length_a 7.126519
_cell_length_b 13.901024
_cell_length_c 24.339194
_cell_angle_alpha 90.000000
_cell_angle_beta 90.000000
_cell_angle_gamma 90.000000
_cell_volume 2411.184443
_symmetry_space_group_name_H-M "P B C M"
_symmetry_group_IT_number 57
_symmetry_cell_setting 'orthorhombic'
loop_
_space_group_symop_operation_xyz
x,y,z
-x,-y,1/2+z
x,1/2-y,-z
-x,1/2+y,1/2-z
-x,-y,-z
x,y,1/2-z
-x,1/2+y,z
x,1/2-y,1/2+z
loop_
_atom_site_type_symbol
_atom_site_label
_atom_site_fract_x
_atom_site_fract_y
_atom_site_fract_z
Si Si1 0.724858 0.358916 0.368681
Si Si2 0.001319 0.994286 0.434739
Si Si3 0.725242 0.634604 0.628425
Si Si4 0.712078 0.061568 0.750000
Si Si5 0.997682 0.690928 0.369126
Si Si6 0.290010 0.134759 0.750000
Si Si7 0.145894 0.153592 0.250000
O O1 0.825768 0.431199 0.410931
O O2 0.499695 0.359914 0.373391
O O3 0.781735 0.392651 0.306992
O O4 0.815506 0.254220 0.376921
O O5 0.814661 0.940653 0.413159
O O6 0.000000 0.000000 0.500000
O O7 0.008679 0.098791 0.407420
O O8 0.788904 0.605838 0.690703
O O9 0.824122 0.737184 0.618314
O O10 0.494387 0.089189 0.750000
O O11 0.747515 0.947787 0.750000
O O12 0.975078 0.660823 0.305443
O O13 0.280538 0.251767 0.750000
#
# Coordination Sequence:
#
# PCOD9434170 Si02
#       7
#     8   8   8   4   8   4   4
#     4  10  21  39  61  86 121 152 192 249 298 362
#     4  11  24  40  58  85 117 157 208 251 289 349
#     4   9  21  39  60  86 118 153 190 247 302 357
#     4  10  17  35  60  90 121 151 187 239 303 364
#     4  10  21  38  60  86 116 150 196 239 299 360
#     4   8  18  35  55  90 121 145 191 235 292 372
#     4  10  17  34  63  86 118 160 184 236 305 360
#
# _framework density 18.248294000000001
#
# number of rings (size 3 to 8) (size 9 to 14) (size 15 to 20)
#    0.000    2.182    1.818    0.545    0.000    8.000 
#    9.818    1.818    0.000    0.000    0.000    0.000 
#    0.000    0.000    0.000    0.000    0.000    0.000 
#
# Total GULP energy -245398.845090 kJ/mol
# GULP energy per Si atom -5577.246479 kJ/mol
# Density = 1.820676 g / cm^3
# Si number density = 18.248294 Si / 1000 Ang^3
#
#
#
# Elastic Constant Matrix: (Units=GPa)
#
#
# Indices 1 2 3 4 5 6 
#
# 1 148.4588 47.7682 54.7186 0.0000 0.0000 0.0000
# 2 47.7682 100.3907 89.7374 0.0000 0.0000 0.0000
# 3 54.7186 89.7374 163.3418 0.0000 0.0000 0.0000
# 4 0.0000 0.0000 0.0000 -16.3345 0.0000 0.0000
# 5 0.0000 0.0000 0.0000 0.0000 21.0557 0.0000
# 6 0.0000 0.0000 0.0000 0.0000 0.0000 14.0886
#
#
#
# Elastic Compliance Matrix: (Units=1/GPa)
#
#
# Indices 1 2 3 4 5 6 
#
# 1 0.008065 -0.002795 -0.001166 0.000000 0.000000 0.000000
# 2 -0.002795 0.020542 -0.010349 0.000000 0.000000 0.000000
# 3 -0.001166 -0.010349 0.012198 0.000000 0.000000 0.000000
# 4 0.000000 0.000000 0.000000 -0.061220 0.000000 0.000000
# 5 0.000000 0.000000 0.000000 0.000000 0.047493 0.000000
# 6 0.000000 0.000000 0.000000 0.000000 0.000000 0.070979
#
#
# Mechanical properties :
#
#
# Convention : Reuss Voigt Hill
#
# Bulk Modulus (GPa) = 82.07025 88.51554 85.29289
# Shear Modulus (GPa) = 38.24382 18.42641 28.33512
#
# Velocity S-wave (km/s) = 4.58290 3.18112 3.94478
# Velocity P-wave (km/s) = 8.54844 7.88062 8.22131
#
# Compressibility (1/GPa) = 0.01218468
#
# Stress axis : x y z
#
# Youngs Moduli (GPa) = 123.99166 48.68098 81.97812
#
# Poissons Ratio (x) = 0.13607 0.09560
# Poissons Ratio (y) = 0.34658 0.84839
# Poissons Ratio (z) = 0.14459 0.50380
#
# Static dielectric constant tensor:
#      x y z
#    x 1.635260 0.000000 0.000000 
#    y 0.000000 1.612320 0.000000 
#    z 0.000000 0.000000 1.631660 
# 
# From -- ./inp_files/26647.got.cif
#   From: 2010.05.17/outbox.cif.g08.bks.cpg/sg57_14_cif.got.tgz:26647.got - 2010.06.03 13:58:18.
