data_PCOD9434171
_publ_section_title
;
Structure prediction by ZEFSAII (Michael W. Deem and Ramdas Pophale) SiO2 
 PCOD9434171
Probable space group: P B C M
;
_chemical_formula_sum "Si O2"
_cell_formula_units_Z 44
_cell_length_a 8.974572
_cell_length_b 15.474963
_cell_length_c 15.021596
_cell_angle_alpha 90.000000
_cell_angle_beta 90.000000
_cell_angle_gamma 90.000000
_cell_volume 2086.216822
_symmetry_space_group_name_H-M "P B C M"
_symmetry_group_IT_number 57
_symmetry_cell_setting 'orthorhombic'
loop_
_space_group_symop_operation_xyz
x,y,z
-x,-y,1/2+z
x,1/2-y,-z
-x,1/2+y,1/2-z
-x,-y,-z
x,y,1/2-z
-x,1/2+y,z
x,1/2-y,1/2+z
loop_
_atom_site_type_symbol
_atom_site_label
_atom_site_fract_x
_atom_site_fract_y
_atom_site_fract_z
Si Si1 0.146874 0.212195 0.402039
Si Si2 0.820040 0.150381 0.410735
Si Si3 0.743129 0.146110 0.605849
Si Si4 0.834707 0.846062 0.250000
Si Si5 0.919527 0.040251 0.750000
Si Si6 0.298274 0.386904 0.750000
Si Si7 0.618732 0.383106 0.750000
Si Si8 0.486076 0.680112 0.750000
O O1 0.183989 0.250000 0.500000
O O2 0.110961 0.292126 0.336172
O O3 0.274880 0.165206 0.343278
O O4 0.000397 0.150917 0.410102
O O5 0.754422 0.118519 0.504115
O O6 0.787169 0.252780 0.397775
O O7 0.726178 0.105452 0.333794
O O8 0.853454 0.089586 0.664703
O O9 0.589922 0.143207 0.660666
O O10 0.658097 0.841785 0.250000
O O11 0.906314 0.940275 0.250000
O O12 0.846169 0.947728 0.750000
O O13 0.459892 0.431659 0.750000
O O14 0.555981 0.282793 0.750000
#
# Coordination Sequence:
#
# PCOD9434171 Si02
#       8
#     8   8   8   4   4   4   4   4
#     4  11  20  37  58  86 111 151 201 246 275 347
#     4  10  17  34  63  87 105 147 209 244 279 329
#     4   9  18  33  59  87 108 149 198 243 286 346
#     4  11  19  35  58  85 114 152 200 235 293 341
#     4  11  20  40  59  82 125 163 187 237 300 365
#     4  11  26  38  55  91 127 154 185 242 315 344
#     4  10  19  34  52  86 122 142 190 255 287 332
#     4   9  18  31  52  86 114 139 196 253 289 324
#
# _framework density 21.090809
#
# number of rings (size 3 to 8) (size 9 to 14) (size 15 to 20)
#    0.000    1.818    5.455    1.636    0.000    1.455 
#    0.000    8.182    0.000    0.000    0.000    0.000 
#    0.000    0.000    0.000    0.000    0.000    0.000 
#
# Total GULP energy -245234.717188 kJ/mol
# GULP energy per Si atom -5573.516300 kJ/mol
# Density = 2.104281 g / cm^3
# Si number density = 21.090809 Si / 1000 Ang^3
#
#
#
# Elastic Constant Matrix: (Units=GPa)
#
#
# Indices 1 2 3 4 5 6 
#
# 1 101.9842 -2.1966 52.8592 0.0000 0.0000 0.0000
# 2 -2.1966 24.4842 21.0932 0.0000 0.0000 0.0000
# 3 52.8592 21.0932 206.0867 0.0000 0.0000 0.0000
# 4 0.0000 0.0000 0.0000 29.5814 0.0000 0.0000
# 5 0.0000 0.0000 0.0000 0.0000 255.9825 0.0000
# 6 0.0000 0.0000 0.0000 0.0000 0.0000 16.5812
#
#
#
# Elastic Compliance Matrix: (Units=1/GPa)
#
#
# Indices 1 2 3 4 5 6 
#
# 1 0.011650 0.003970 -0.003394 0.000000 0.000000 0.000000
# 2 0.003970 0.046145 -0.005741 0.000000 0.000000 0.000000
# 3 -0.003394 -0.005741 0.006311 0.000000 0.000000 0.000000
# 4 0.000000 0.000000 0.000000 0.033805 0.000000 0.000000
# 5 0.000000 0.000000 0.000000 0.000000 0.003907 0.000000
# 6 0.000000 0.000000 0.000000 0.000000 0.000000 0.060309
#
#
# Mechanical properties :
#
#
# Convention : Reuss Voigt Hill
#
# Bulk Modulus (GPa) = 18.59643 52.89629 35.74636
# Shear Modulus (GPa) = 26.26279 77.81562 52.03921
#
# Velocity S-wave (km/s) = 3.53260 6.08076 4.97267
# Velocity P-wave (km/s) = 5.04733 8.62760 7.06792
#
# Compressibility (1/GPa) = 0.05377375
#
# Stress axis : x y z
#
# Youngs Moduli (GPa) = 85.83443 21.67087 158.46373
#
# Poissons Ratio (x) = -0.08602 0.53790
# Poissons Ratio (y) = -0.34073 0.90976
# Poissons Ratio (z) = 0.29136 0.12442
#
# Static dielectric constant tensor:
#      x y z
#    x 1.797730 0.000000 0.000000 
#    y 0.000000 1.810080 0.000000 
#    z 0.000000 0.000000 1.727580 
# 
# From -- ./inp_files/16267.got.cif
#   From: 2010.05.17/outbox.cif.g08.bks.cpg/sg57_9_cif.got.tgz:16267.got - 2010.06.03 13:58:18.
