data_PCOD9434523
_publ_section_title
;
Structure prediction by ZEFSAII (Michael W. Deem and Ramdas Pophale) SiO2 
 PCOD9434523
Probable space group: P B C M
;
_chemical_formula_sum "Si O2"
_cell_formula_units_Z 56
_cell_length_a 23.019235
_cell_length_b 14.750429
_cell_length_c 8.530885
_cell_angle_alpha 90.000000
_cell_angle_beta 90.000000
_cell_angle_gamma 90.000000
_cell_volume 2896.607332
_symmetry_space_group_name_H-M "P B C M"
_symmetry_group_IT_number 57
_symmetry_cell_setting 'orthorhombic'
loop_
_space_group_symop_operation_xyz
x,y,z
-x,-y,1/2+z
x,1/2-y,-z
-x,1/2+y,1/2-z
-x,-y,-z
x,y,1/2-z
-x,1/2+y,z
x,1/2-y,1/2+z
loop_
_atom_site_type_symbol
_atom_site_label
_atom_site_fract_x
_atom_site_fract_y
_atom_site_fract_z
Si Si1 0.104545 0.651948 0.437320
Si Si2 0.516888 0.900791 0.437400
Si Si3 0.751641 0.647891 0.060986
Si Si4 0.634941 0.956656 0.561711
Si Si5 0.970944 0.848688 0.939160
Si Si6 0.602385 0.155536 0.436157
Si Si7 0.863259 0.966163 0.939294
O O1 0.123004 0.750000 0.500000
O O2 0.104865 0.653424 0.250000
O O3 0.141299 0.567865 0.498808
O O4 0.037393 0.636970 0.492017
O O5 0.513292 0.895146 0.250000
O O6 0.583195 0.893804 0.492978
O O7 0.465603 0.843726 0.514420
O O8 0.500000 0.000000 0.500000
O O9 0.752546 0.651220 0.250000
O O10 0.810584 0.597957 0.008747
O O11 0.747829 0.750000 0.000000
O O12 0.696079 0.587437 0.015439
O O13 0.629513 0.542453 0.250000
O O14 0.627770 0.060817 0.503764
O O15 0.970860 0.847702 0.750000
O O16 0.924453 0.922697 0.992885
O O17 0.952576 0.750000 0.000000
O O18 0.628468 0.250000 0.500000
O O19 0.607028 0.152695 0.250000
O O20 0.863363 0.968406 0.750000
#
# Coordination Sequence:
#
# PCOD9434523 Si02
#       7
#     8   8   8   8   8   8   8
#     4  10  20  34  53  80 109 143 179 220 270 325
#     4  10  18  31  52  79 109 143 179 219 265 316
#     4  10  23  40  60  82 108 141 181 225 271 318
#     4  10  20  37  56  79 111 147 185 228 271 319
#     4   9  18  31  51  79 112 143 178 220 269 322
#     4  11  21  35  56  84 114 146 181 223 273 328
#     4  10  20  36  55  79 109 143 180 225 271 318
#
# _framework density 19.332962999999999
#
# number of rings (size 3 to 8) (size 9 to 14) (size 15 to 20)
#    0.000    2.000    0.000    6.000    0.000    3.429 
#    0.000    2.143    0.000    0.000    0.000    0.000 
#    0.000    0.000    0.000    0.000    0.000    0.000 
#
# Total GULP energy -312514.379693 kJ/mol
# GULP energy per Si atom -5580.613923 kJ/mol
# Density = 1.928896 g / cm^3
# Si number density = 19.332963 Si / 1000 Ang^3
#
#
#
# Elastic Constant Matrix: (Units=GPa)
#
#
# Indices 1 2 3 4 5 6 
#
# 1 50.8531 50.5217 14.6570 0.0000 0.0000 0.0000
# 2 50.5217 149.9750 16.1722 0.0000 0.0000 0.0000
# 3 14.6570 16.1722 50.7373 0.0000 0.0000 0.0000
# 4 0.0000 0.0000 0.0000 30.9886 0.0000 0.0000
# 5 0.0000 0.0000 0.0000 0.0000 17.4460 0.0000
# 6 0.0000 0.0000 0.0000 0.0000 0.0000 27.2211
#
#
#
# Elastic Compliance Matrix: (Units=1/GPa)
#
#
# Indices 1 2 3 4 5 6 
#
# 1 0.031150 -0.009862 -0.005855 0.000000 0.000000 0.000000
# 2 -0.009862 0.010027 -0.000347 0.000000 0.000000 0.000000
# 3 -0.005855 -0.000347 0.021511 0.000000 0.000000 0.000000
# 4 0.000000 0.000000 0.000000 0.032270 0.000000 0.000000
# 5 0.000000 0.000000 0.000000 0.000000 0.057320 0.000000
# 6 0.000000 0.000000 0.000000 0.000000 0.000000 0.036736
#
#
# Mechanical properties :
#
#
# Convention : Reuss Voigt Hill
#
# Bulk Modulus (GPa) = 32.72252 46.02970 39.37611
# Shear Modulus (GPa) = 21.61416 26.47876 24.04646
#
# Velocity S-wave (km/s) = 3.34727 3.70485 3.53059
# Velocity P-wave (km/s) = 5.64814 6.49321 6.08536
#
# Compressibility (1/GPa) = 0.03056000
#
# Stress axis : x y z
#
# Youngs Moduli (GPa) = 32.10297 99.72664 46.48684
#
# Poissons Ratio (x) = 0.98350 0.27218
# Poissons Ratio (y) = 0.31660 0.01614
# Poissons Ratio (z) = 0.18797 0.03463
#
# Static dielectric constant tensor:
#      x y z
#    x 1.700680 0.000000 0.000000 
#    y 0.000000 1.670380 0.000000 
#    z 0.000000 0.000000 1.648690 
# 
# From -- ./inp_files/8126.got.cif
#   From: 2010.05.17/outbox.cif.g08.bks.cpg/sg57_5_cif.got.tgz:8126.got - 2010.06.03 13:58:18.
