data_PCOD9434951
_publ_section_title
;
Structure prediction by ZEFSAII (Michael W. Deem and Ramdas Pophale) SiO2 
 PCOD9434951
Probable space group: P B C M
;
_chemical_formula_sum "Si O2"
_cell_formula_units_Z 64
_cell_length_a 18.806927
_cell_length_b 24.883233
_cell_length_c 9.296565
_cell_angle_alpha 90.000000
_cell_angle_beta 90.000000
_cell_angle_gamma 90.000000
_cell_volume 4350.579961
_symmetry_space_group_name_H-M "P B C M"
_symmetry_group_IT_number 57
_symmetry_cell_setting 'orthorhombic'
loop_
_space_group_symop_operation_xyz
x,y,z
-x,-y,1/2+z
x,1/2-y,-z
-x,1/2+y,1/2-z
-x,-y,-z
x,y,1/2-z
-x,1/2+y,z
x,1/2-y,1/2+z
loop_
_atom_site_type_symbol
_atom_site_label
_atom_site_fract_x
_atom_site_fract_y
_atom_site_fract_z
Si Si1 0.270664 0.016768 0.581656
Si Si2 0.109816 0.000287 0.580003
Si Si3 0.405922 0.047604 0.084395
Si Si4 0.212183 0.804389 0.578851
Si Si5 0.676542 0.106043 0.418514
Si Si6 0.541309 0.077233 0.584627
Si Si7 0.955995 0.306228 0.577375
Si Si8 0.016949 0.585750 0.580114
O O1 0.275834 0.031995 0.750000
O O2 0.188433 0.019277 0.536185
O O3 0.329008 0.048726 0.490319
O O4 0.292861 0.954184 0.570247
O O5 0.113344 0.985071 0.750000
O O6 0.053014 0.048371 0.565423
O O7 0.080089 0.949870 0.490292
O O8 0.402452 0.064191 0.250000
O O9 0.432225 0.985169 0.081330
O O10 0.466849 0.079138 0.998639
O O11 0.233173 0.750000 0.500000
O O12 0.219342 0.797794 0.750000
O O13 0.262611 0.853003 0.533365
O O14 0.128776 0.814079 0.551081
O O15 0.661023 0.115305 0.250000
O O16 0.604246 0.109461 0.507811
O O17 0.532606 0.092600 0.750000
O O18 0.975878 0.250000 0.500000
O O19 0.967626 0.303823 0.750000
O O20 0.991014 0.358304 0.504219
O O21 0.029679 0.594897 0.750000
#
# Coordination Sequence:
#
# PCOD9434951 Si02
#       8
#     8   8   8   8   8   8   8   8
#     4   9  16  27  42  58  79 109 142 173 207 248
#     4   9  18  31  45  62  87 119 150 180 217 261
#     4   9  16  25  37  55  79 104 131 165 200 234
#     4   9  18  30  43  59  80 107 138 173 212 250
#     4   9  16  26  40  57  78 106 138 170 205 243
#     4   9  16  25  37  54  76 104 135 163 194 232
#     4  10  19  32  48  65  86 113 146 183 223 263
#     4  10  19  30  45  65  88 115 148 183 219 261
#
# _framework density 14.710682
#
# number of rings (size 3 to 8) (size 9 to 14) (size 15 to 20)
#    0.000    2.750    0.000    2.250    0.000    7.000 
#    0.000    2.500    0.000    0.000    0.000    0.000 
#    0.000    1.000    0.000    7.250    0.000    3.875 
#
# Total GULP energy -356547.919703 kJ/mol
# GULP energy per Si atom -5571.061245 kJ/mol
# Density = 1.467720 g / cm^3
# Si number density = 14.710682 Si / 1000 Ang^3
#
#
#
# Elastic Constant Matrix: (Units=GPa)
#
#
# Indices 1 2 3 4 5 6 
#
# 1 77.2079 4.9692 39.6574 0.0000 0.0000 0.0000
# 2 4.9692 44.5293 29.3492 0.0000 0.0000 0.0000
# 3 39.6574 29.3492 72.4928 0.0000 0.0000 0.0000
# 4 0.0000 0.0000 0.0000 21.0063 0.0000 0.0000
# 5 0.0000 0.0000 0.0000 0.0000 23.2248 0.0000
# 6 0.0000 0.0000 0.0000 0.0000 0.0000 17.4133
#
#
#
# Elastic Compliance Matrix: (Units=1/GPa)
#
#
# Indices 1 2 3 4 5 6 
#
# 1 0.019324 0.006562 -0.013228 0.000000 0.000000 0.000000
# 2 0.006562 0.032859 -0.016893 0.000000 0.000000 0.000000
# 3 -0.013228 -0.016893 0.027870 0.000000 0.000000 0.000000
# 4 0.000000 0.000000 0.000000 0.047605 0.000000 0.000000
# 5 0.000000 0.000000 0.000000 0.000000 0.043057 0.000000
# 6 0.000000 0.000000 0.000000 0.000000 0.000000 0.057427
#
#
# Mechanical properties :
#
#
# Convention : Reuss Voigt Hill
#
# Bulk Modulus (GPa) = 30.36241 38.02019 34.19130
# Shear Modulus (GPa) = 17.46787 20.34582 18.90685
#
# Velocity S-wave (km/s) = 3.44965 3.72299 3.58892
# Velocity P-wave (km/s) = 6.04576 6.66200 6.36135
#
# Compressibility (1/GPa) = 0.03293546
#
# Stress axis : x y z
#
# Youngs Moduli (GPa) = 51.74837 30.43305 35.88053
#
# Poissons Ratio (x) = -0.19971 0.47463
# Poissons Ratio (y) = -0.33958 0.60613
# Poissons Ratio (z) = 0.68454 0.51411
#
# Static dielectric constant tensor:
#      x y z
#    x 1.484450 0.000000 0.000000 
#    y 0.000000 1.465120 0.000000 
#    z 0.000000 0.000000 1.496230 
# 
# From -- ./inp_files/7393.got.cif
#   From: 2010.05.17/outbox.cif.g08.bks.cpg/sg57_4_cif.got.tgz:7393.got - 2010.06.03 13:58:18.
