data_PCOD9434746
_publ_section_title
;
Structure prediction by ZEFSAII (Michael W. Deem and Ramdas Pophale) SiO2 
 PCOD9434746
Probable space group: P B C M
;
_chemical_formula_sum "Si O2"
_cell_formula_units_Z 48
_cell_length_a 14.352036
_cell_length_b 9.538123
_cell_length_c 16.027146
_cell_angle_alpha 90.000000
_cell_angle_beta 90.000000
_cell_angle_gamma 90.000000
_cell_volume 2193.979811
_symmetry_space_group_name_H-M "P B C M"
_symmetry_group_IT_number 57
_symmetry_cell_setting 'orthorhombic'
loop_
_space_group_symop_operation_xyz
x,y,z
-x,-y,1/2+z
x,1/2-y,-z
-x,1/2+y,1/2-z
-x,-y,-z
x,y,1/2-z
-x,1/2+y,z
x,1/2-y,1/2+z
loop_
_atom_site_type_symbol
_atom_site_label
_atom_site_fract_x
_atom_site_fract_y
_atom_site_fract_z
Si Si1 0.198592 0.554601 0.344039
Si Si2 0.711436 0.938436 0.914554
Si Si3 0.859669 0.141812 0.650342
Si Si4 0.047422 0.117687 0.943002
Si Si5 0.657865 0.858497 0.106064
Si Si6 0.455953 0.620352 0.941020
O O1 0.161668 0.556893 0.250000
O O2 0.191085 0.713288 0.375163
O O3 0.134291 0.451570 0.397259
O O4 0.301405 0.489946 0.344972
O O5 0.703704 0.789264 0.869143
O O6 0.808213 0.014848 0.896761
O O7 0.629663 0.049714 0.892996
O O8 0.688381 0.898184 0.010725
O O9 0.851827 0.121017 0.750000
O O10 0.966549 0.158125 0.622597
O O11 0.073185 0.250000 0.000000
O O12 0.000000 0.000000 0.000000
O O13 0.547112 0.835953 0.110921
O O14 0.426459 0.750000 0.000000
O O15 0.500000 0.500000 0.000000
#
# Coordination Sequence:
#
# PCOD9434746 Si02
#       6
#     8   8   8   8   8   8
#     4  11  26  44  63  91 129 167 203 255 316 375
#     4  10  22  36  63  94 125 164 208 259 308 366
#     4  11  26  45  63  91 129 168 206 252 314 375
#     4  12  25  44  69  95 120 158 211 260 307 365
#     4  10  21  38  61  95 127 159 212 258 307 365
#     4  10  18  34  57  93 126 161 207 262 312 355
#
# _framework density 21.878050999999999
#
# number of rings (size 3 to 8) (size 9 to 14) (size 15 to 20)
#    0.000    1.333    5.000    1.500    9.333    0.667 
#    0.000    0.833    0.000    0.000    0.000    0.000 
#    0.000    0.000    0.000    0.000    0.000    0.000 
#
# Total GULP energy -268168.205868 kJ/mol
# GULP energy per Si atom -5586.837622 kJ/mol
# Density = 2.182826 g / cm^3
# Si number density = 21.878051 Si / 1000 Ang^3
#
#
#
# Elastic Constant Matrix: (Units=GPa)
#
#
# Indices 1 2 3 4 5 6 
#
# 1 78.7392 14.4581 7.0226 0.0000 0.0000 0.0000
# 2 14.4581 122.3535 15.3455 0.0000 0.0000 0.0000
# 3 7.0226 15.3455 38.1717 0.0000 0.0000 0.0000
# 4 0.0000 0.0000 0.0000 14.6287 0.0000 0.0000
# 5 0.0000 0.0000 0.0000 0.0000 10.5364 0.0000
# 6 0.0000 0.0000 0.0000 0.0000 0.0000 41.7238
#
#
#
# Elastic Compliance Matrix: (Units=1/GPa)
#
#
# Indices 1 2 3 4 5 6 
#
# 1 0.013109 -0.001313 -0.001884 0.000000 0.000000 0.000000
# 2 -0.001313 0.008738 -0.003271 0.000000 0.000000 0.000000
# 3 -0.001884 -0.003271 0.027859 0.000000 0.000000 0.000000
# 4 0.000000 0.000000 0.000000 0.068359 0.000000 0.000000
# 5 0.000000 0.000000 0.000000 0.000000 0.094909 0.000000
# 6 0.000000 0.000000 0.000000 0.000000 0.000000 0.023967
#
#
# Mechanical properties :
#
#
# Convention : Reuss Voigt Hill
#
# Bulk Modulus (GPa) = 27.19576 34.76852 30.98214
# Shear Modulus (GPa) = 19.07411 26.87365 22.97388
#
# Velocity S-wave (km/s) = 2.95589 3.50857 3.24402
# Velocity P-wave (km/s) = 4.90992 5.68681 5.31259
#
# Compressibility (1/GPa) = 0.03677044
#
# Stress axis : x y z
#
# Youngs Moduli (GPa) = 76.28207 114.43649 35.89479
#
# Poissons Ratio (x) = 0.15023 0.06763
# Poissons Ratio (y) = 0.10014 0.11743
# Poissons Ratio (z) = 0.14371 0.37437
#
# Static dielectric constant tensor:
#      x y z
#    x 1.847490 0.000000 0.000000 
#    y 0.000000 1.813190 0.000000 
#    z 0.000000 0.000000 1.862980 
# 
# From -- ./inp_files/22415.got.cif
#   From: 2010.05.17/outbox.cif.g08.bks.cpg/sg57_12_cif.got.tgz:22415.got - 2010.06.03 13:58:18.
