data_PCOD9434645
_publ_section_title
;
Structure prediction by ZEFSAII (Michael W. Deem and Ramdas Pophale) SiO2 
 PCOD9434645
Probable space group: P B C M
;
_chemical_formula_sum "Si O2"
_cell_formula_units_Z 32
_cell_length_a 7.274661
_cell_length_b 25.103347
_cell_length_c 8.669157
_cell_angle_alpha 90.000000
_cell_angle_beta 90.000000
_cell_angle_gamma 90.000000
_cell_volume 1583.147055
_symmetry_space_group_name_H-M "P B C M"
_symmetry_group_IT_number 57
_symmetry_cell_setting 'orthorhombic'
loop_
_space_group_symop_operation_xyz
x,y,z
-x,-y,1/2+z
x,1/2-y,-z
-x,1/2+y,1/2-z
-x,-y,-z
x,y,1/2-z
-x,1/2+y,z
x,1/2-y,1/2+z
loop_
_atom_site_type_symbol
_atom_site_label
_atom_site_fract_x
_atom_site_fract_y
_atom_site_fract_z
Si Si1 0.735146 0.602241 0.066680
Si Si2 0.141196 0.883758 0.433547
Si Si3 0.207154 0.507986 0.065519
Si Si4 0.466144 0.808703 0.433539
O O1 0.726803 0.597019 0.250000
O O2 0.689482 0.544530 0.992912
O O3 0.604897 0.649092 0.008329
O O4 0.943641 0.616241 0.014836
O O5 0.114234 0.890444 0.250000
O O6 0.255292 0.934493 0.497090
O O7 0.261328 0.831424 0.462604
O O8 0.206877 0.509742 0.250000
O O9 0.000000 0.500000 0.000000
O O10 0.490084 0.750000 0.500000
O O11 0.495646 0.808453 0.250000
#
# Coordination Sequence:
#
# PCOD9434645 Si02
#       4
#     8   8   8   8
#     4  11  22  38  62  89 121 157 193 238 292 349
#     4  10  21  39  62  88 120 155 194 241 294 350
#     4  10  18  32  57  88 121 153 191 237 289 350
#     4  11  25  43  62  85 115 153 199 247 290 342
#
# _framework density 20.212904000000002
#
# number of rings (size 3 to 8) (size 9 to 14) (size 15 to 20)
#    0.000    1.500    0.000    9.000    0.000    6.000 
#    0.000    2.500    0.000    0.000    0.000    0.000 
#    0.000    0.000    0.000    0.000    0.000    0.000 
#
# Total GULP energy -178917.089745 kJ/mol
# GULP energy per Si atom -5591.159055 kJ/mol
# Density = 2.016690 g / cm^3
# Si number density = 20.212904 Si / 1000 Ang^3
#
#
#
# Elastic Constant Matrix: (Units=GPa)
#
#
# Indices 1 2 3 4 5 6 
#
# 1 46.6272 9.9150 9.6479 0.0000 0.0000 0.0000
# 2 9.9150 117.8714 30.3636 0.0000 0.0000 0.0000
# 3 9.6479 30.3636 108.9537 0.0000 0.0000 0.0000
# 4 0.0000 0.0000 0.0000 37.1932 0.0000 0.0000
# 5 0.0000 0.0000 0.0000 0.0000 11.7599 0.0000
# 6 0.0000 0.0000 0.0000 0.0000 0.0000 28.3687
#
#
#
# Elastic Compliance Matrix: (Units=1/GPa)
#
#
# Indices 1 2 3 4 5 6 
#
# 1 0.022077 -0.001458 -0.001549 0.000000 0.000000 0.000000
# 2 -0.001458 0.009236 -0.002445 0.000000 0.000000 0.000000
# 3 -0.001549 -0.002445 0.009997 0.000000 0.000000 0.000000
# 4 0.000000 0.000000 0.000000 0.026887 0.000000 0.000000
# 5 0.000000 0.000000 0.000000 0.000000 0.085035 0.000000
# 6 0.000000 0.000000 0.000000 0.000000 0.000000 0.035250
#
#
# Mechanical properties :
#
#
# Convention : Reuss Voigt Hill
#
# Bulk Modulus (GPa) = 32.88723 41.47836 37.18280
# Shear Modulus (GPa) = 23.86403 30.36610 27.11507
#
# Velocity S-wave (km/s) = 3.43976 3.88017 3.66659
# Velocity P-wave (km/s) = 5.66407 6.37492 6.02998
#
# Compressibility (1/GPa) = 0.03040694
#
# Stress axis : x y z
#
# Youngs Moduli (GPa) = 45.29558 108.26876 100.03322
#
# Poissons Ratio (x) = 0.15787 0.15491
# Poissons Ratio (y) = 0.06605 0.24457
# Poissons Ratio (z) = 0.07014 0.26470
#
# Static dielectric constant tensor:
#      x y z
#    x 1.801210 0.000000 0.000000 
#    y 0.000000 1.728740 0.000000 
#    z 0.000000 0.000000 1.671490 
# 
# From -- ./inp_files/1216.got.cif
#   From: 2010.05.17/outbox.cif.g08.bks.cpg/sg57_1_cif.got.tgz:1216.got - 2010.06.03 13:58:18.
