data_PCOD9434858
_publ_section_title
;
Structure prediction by ZEFSAII (Michael W. Deem and Ramdas Pophale) SiO2 
 PCOD9434858
Probable space group: P B C M
;
_chemical_formula_sum "Si O2"
_cell_formula_units_Z 40
_cell_length_a 7.071049
_cell_length_b 9.369056
_cell_length_c 26.308631
_cell_angle_alpha 90.000000
_cell_angle_beta 90.000000
_cell_angle_gamma 90.000000
_cell_volume 1742.921917
_symmetry_space_group_name_H-M "P B C M"
_symmetry_group_IT_number 57
_symmetry_cell_setting 'orthorhombic'
loop_
_space_group_symop_operation_xyz
x,y,z
-x,-y,1/2+z
x,1/2-y,-z
-x,1/2+y,1/2-z
-x,-y,-z
x,y,1/2-z
-x,1/2+y,z
x,1/2-y,1/2+z
loop_
_atom_site_type_symbol
_atom_site_label
_atom_site_fract_x
_atom_site_fract_y
_atom_site_fract_z
Si Si1 0.733726 0.537343 0.250000
Si Si2 0.259059 0.772751 0.392395
Si Si3 0.581280 0.934002 0.640411
Si Si4 0.136395 0.174344 0.641459
Si Si5 0.955884 0.865410 0.034152
Si Si6 0.894313 0.643714 0.750000
O O1 0.604145 0.534820 0.299774
O O2 0.892475 0.415146 0.250000
O O3 0.853371 0.685958 0.250000
O O4 0.394836 0.644515 0.378523
O O5 0.084169 0.782932 0.352945
O O6 0.143514 0.782467 0.445093
O O7 0.377850 0.918517 0.387640
O O8 0.747561 0.818101 0.631571
O O9 0.138395 0.091592 0.587880
O O10 0.191067 0.100982 0.694597
O O11 0.845962 0.750000 0.000000
O O12 0.000000 0.000000 0.000000
#
# Coordination Sequence:
#
# PCOD9434858 Si02
#       6
#     4   8   8   8   8   4
#     4  10  20  37  63  91 134 173 220 267 324 403
#     4  10  24  40  67  93 134 170 220 273 334 400
#     4  11  22  42  60  98 131 170 218 271 332 402
#     4   9  22  39  69  89 134 169 221 272 328 398
#     4  10  21  41  67  93 124 172 223 273 332 391
#     4  10  18  39  65  97 126 177 216 265 332 397
#
# _framework density 22.949968999999999
#
# number of rings (size 3 to 8) (size 9 to 14) (size 15 to 20)
#    1.200    0.800    2.000    1.200    0.000    4.800 
#    3.600    5.000    0.000    0.000    0.000    0.000 
#    0.000    0.000    0.000    0.000    0.000    0.000 
#
# Total GULP energy -223042.290298 kJ/mol
# GULP energy per Si atom -5576.057257 kJ/mol
# Density = 2.289773 g / cm^3
# Si number density = 22.949969 Si / 1000 Ang^3
#
#
#
# Elastic Constant Matrix: (Units=GPa)
#
#
# Indices 1 2 3 4 5 6 
#
# 1 97.3293 60.3099 14.6521 0.0000 0.0000 0.0000
# 2 60.3099 71.8305 45.0345 0.0000 0.0000 0.0000
# 3 14.6521 45.0345 173.4955 0.0000 0.0000 0.0000
# 4 0.0000 0.0000 0.0000 28.6634 0.0000 0.0000
# 5 0.0000 0.0000 0.0000 0.0000 11.4397 0.0000
# 6 0.0000 0.0000 0.0000 0.0000 0.0000 42.8044
#
#
#
# Elastic Compliance Matrix: (Units=1/GPa)
#
#
# Indices 1 2 3 4 5 6 
#
# 1 0.023256 -0.021851 0.003708 0.000000 0.000000 0.000000
# 2 -0.021851 0.037158 -0.007800 0.000000 0.000000 0.000000
# 3 0.003708 -0.007800 0.007475 0.000000 0.000000 0.000000
# 4 0.000000 0.000000 0.000000 0.034888 0.000000 0.000000
# 5 0.000000 0.000000 0.000000 0.000000 0.087415 0.000000
# 6 0.000000 0.000000 0.000000 0.000000 0.000000 0.023362
#
#
# Mechanical properties :
#
#
# Convention : Reuss Voigt Hill
#
# Bulk Modulus (GPa) = 62.48493 64.73868 63.61181
# Shear Modulus (GPa) = 18.46562 31.42541 24.94552
#
# Velocity S-wave (km/s) = 2.83963 3.70442 3.30047
# Velocity P-wave (km/s) = 6.16742 6.82399 6.50399
#
# Compressibility (1/GPa) = 0.01600386
#
# Stress axis : x y z
#
# Youngs Moduli (GPa) = 42.99990 26.91226 133.77378
#
# Poissons Ratio (x) = 0.58805 -0.49600
# Poissons Ratio (y) = 0.93957 1.04341
# Poissons Ratio (z) = -0.15943 0.20991
#
# Static dielectric constant tensor:
#      x y z
#    x 1.854890 0.000000 0.000000 
#    y 0.000000 1.824520 0.000000 
#    z 0.000000 0.000000 1.942980 
# 
# From -- ./inp_files/29381.got.cif
#   From: 2010.05.17/outbox.cif.g08.bks.cpg/sg57_15_cif.got.tgz:29381.got - 2010.06.03 13:58:18.
