data_PCOD9434883
_publ_section_title
;
Structure prediction by ZEFSAII (Michael W. Deem and Ramdas Pophale) SiO2 
 PCOD9434883
Probable space group: P B C M
;
_chemical_formula_sum "Si O2"
_cell_formula_units_Z 60
_cell_length_a 19.123944
_cell_length_b 5.406377
_cell_length_c 27.579212
_cell_angle_alpha 90.000000
_cell_angle_beta 90.000000
_cell_angle_gamma 90.000000
_cell_volume 2851.449230
_symmetry_space_group_name_H-M "P B C M"
_symmetry_group_IT_number 57
_symmetry_cell_setting 'orthorhombic'
loop_
_space_group_symop_operation_xyz
x,y,z
-x,-y,1/2+z
x,1/2-y,-z
-x,1/2+y,1/2-z
-x,-y,-z
x,y,1/2-z
-x,1/2+y,z
x,1/2-y,1/2+z
loop_
_atom_site_type_symbol
_atom_site_label
_atom_site_fract_x
_atom_site_fract_y
_atom_site_fract_z
Si Si1 0.174489 0.176497 0.601002
Si Si2 0.956621 0.727951 0.750000
Si Si3 0.673254 0.681417 0.870699
Si Si4 0.966405 0.474455 0.932180
Si Si5 0.455499 0.250512 0.443289
Si Si6 0.069600 0.032134 0.154064
Si Si7 0.309841 0.674808 0.806681
Si Si8 0.840034 0.134989 0.196112
O O1 0.257267 0.204927 0.593948
O O2 0.116903 0.027011 0.568643
O O3 0.130072 0.422169 0.613554
O O4 0.178281 0.036196 0.651876
O O5 0.925441 0.764598 0.696233
O O6 0.995234 0.471489 0.750000
O O7 0.607292 0.703884 0.906096
O O8 0.671803 0.422978 0.838902
O O9 0.671923 0.918973 0.834235
O O10 0.001079 0.973477 0.877090
O O11 0.992048 0.212275 0.951731
O O12 0.432954 0.250000 0.500000
O O13 0.508422 0.482242 0.436005
O O14 0.092591 0.791777 0.182861
O O15 0.335327 0.689451 0.750000
O O16 0.225541 0.676388 0.802776
O O17 0.843097 0.024963 0.250000
#
# Coordination Sequence:
#
# PCOD9434883 Si02
#       8
#     8   4   8   8   8   8   8   8
#     4  10  21  32  44  67  97 135 196 239 284 345
#     4  12  26  32  38  54  80 126 188 248 316 342
#     4  11  21  37  64  87 119 163 201 245 294 357
#     4  10  19  30  41  55  88 132 179 247 293 338
#     4  10  22  43  72 106 136 154 177 224 299 384
#     4  11  20  29  40  56  89 132 185 249 294 339
#     4  10  21  36  53  84 123 167 215 256 286 331
#     4  10  19  29  41  61  92 141 193 252 300 332
#
# _framework density 21.041930000000001
#
# number of rings (size 3 to 8) (size 9 to 14) (size 15 to 20)
#    0.000    1.600    3.333    2.800    2.800    0.533 
#    0.000    0.000    0.000    8.000    0.000    0.000 
#    0.000    4.267    0.000    0.000    0.000    4.800 
#
# Total GULP energy -334008.823619 kJ/mol
# GULP energy per Si atom -5566.813727 kJ/mol
# Density = 2.099404 g / cm^3
# Si number density = 21.041930 Si / 1000 Ang^3
#
#
#
# Elastic Constant Matrix: (Units=GPa)
#
#
# Indices 1 2 3 4 5 6 
#
# 1 104.0793 34.4532 70.2184 0.0000 0.0000 0.0000
# 2 34.4532 140.7308 53.8446 0.0000 0.0000 0.0000
# 3 70.2184 53.8446 125.8028 0.0000 0.0000 0.0000
# 4 0.0000 0.0000 0.0000 -121.9702 0.0000 0.0000
# 5 0.0000 0.0000 0.0000 0.0000 60.7185 0.0000
# 6 0.0000 0.0000 0.0000 0.0000 0.0000 19.8571
#
#
#
# Elastic Compliance Matrix: (Units=1/GPa)
#
#
# Indices 1 2 3 4 5 6 
#
# 1 0.015451 -0.000578 -0.008377 0.000000 0.000000 0.000000
# 2 -0.000578 0.008519 -0.003324 0.000000 0.000000 0.000000
# 3 -0.008377 -0.003324 0.014047 0.000000 0.000000 0.000000
# 4 0.000000 0.000000 0.000000 -0.008199 0.000000 0.000000
# 5 0.000000 0.000000 0.000000 0.000000 0.016469 0.000000
# 6 0.000000 0.000000 0.000000 0.000000 0.000000 0.050360
#
#
# Mechanical properties :
#
#
# Convention : Reuss Voigt Hill
#
# Bulk Modulus (GPa) = 74.29153 76.40502 75.34827
# Shear Modulus (GPa) = 39.78026 5.86085 22.82055
#
# Velocity S-wave (km/s) = 4.35273 1.67074 3.29679
# Velocity P-wave (km/s) = 7.78748 6.33336 7.09776
#
# Compressibility (1/GPa) = 0.01346049
#
# Stress axis : x y z
#
# Youngs Moduli (GPa) = 64.72165 117.38659 71.18863
#
# Poissons Ratio (x) = 0.06780 0.59634
# Poissons Ratio (y) = 0.03738 0.23661
# Poissons Ratio (z) = 0.54216 0.39017
#
# Static dielectric constant tensor:
#      x y z
#    x 1.825670 0.000000 0.000000 
#    y 0.000000 1.948960 0.000000 
#    z 0.000000 0.000000 1.894810 
# 
# From -- ./inp_files/29976.got.cif
#   From: 2010.05.17/outbox.cif.g08.bks.cpg/sg57_15_cif.got.tgz:29976.got - 2010.06.03 13:58:18.
