data_PCOD9434249
_publ_section_title
;
Structure prediction by ZEFSAII (Michael W. Deem and Ramdas Pophale) SiO2 
 PCOD9434249
Probable space group: P B C M
;
_chemical_formula_sum "Si O2"
_cell_formula_units_Z 64
_cell_length_a 18.810969
_cell_length_b 25.394326
_cell_length_c 9.050959
_cell_angle_alpha 90.000000
_cell_angle_beta 90.000000
_cell_angle_gamma 90.000000
_cell_volume 4323.569613
_symmetry_space_group_name_H-M "P B C M"
_symmetry_group_IT_number 57
_symmetry_cell_setting 'orthorhombic'
loop_
_space_group_symop_operation_xyz
x,y,z
-x,-y,1/2+z
x,1/2-y,-z
-x,1/2+y,1/2-z
-x,-y,-z
x,y,1/2-z
-x,1/2+y,z
x,1/2-y,1/2+z
loop_
_atom_site_type_symbol
_atom_site_label
_atom_site_fract_x
_atom_site_fract_y
_atom_site_fract_z
Si Si1 0.736773 0.010697 0.076434
Si Si2 0.323314 0.392343 0.423806
Si Si3 0.889768 0.491041 0.073030
Si Si4 0.953331 0.806174 0.427903
Si Si5 0.539158 0.923485 0.920121
Si Si6 0.005751 0.414877 0.927303
Si Si7 0.213797 0.304411 0.072983
Si Si8 0.401856 0.544129 0.920792
O O1 0.746273 0.022163 0.250000
O O2 0.710093 0.950406 0.062195
O O3 0.810860 0.014835 0.990754
O O4 0.672367 0.044623 0.007977
O O5 0.336809 0.383753 0.250000
O O6 0.397605 0.390149 0.508570
O O7 0.264926 0.351025 0.477393
O O8 0.890689 0.483937 0.250000
O O9 0.924346 0.548761 0.041812
O O10 0.941162 0.448626 0.995334
O O11 0.974789 0.750000 0.500000
O O12 0.962429 0.804586 0.250000
O O13 0.989565 0.857630 0.498144
O O14 0.869136 0.813127 0.461893
O O15 0.527822 0.910080 0.750000
O O16 0.568536 0.983846 0.926145
O O17 0.465029 0.922360 0.006782
O O18 0.998858 0.410326 0.750000
O O19 0.218443 0.300640 0.250000
O O20 0.236093 0.250000 0.000000
O O21 0.391072 0.557733 0.750000
#
# Coordination Sequence:
#
# PCOD9434249 Si02
#       8
#     8   8   8   8   8   8   8   8
#     4  10  18  28  43  62  85 113 146 181 216 258
#     4   9  17  28  41  58  82 113 145 177 215 257
#     4  10  20  32  46  65  90 120 152 186 226 272
#     4  10  19  32  49  68  90 117 150 188 229 270
#     4   9  16  25  38  57  79 106 140 173 205 242
#     4  10  20  33  48  66  89 118 152 188 226 270
#     4   9  18  30  43  60  83 111 143 179 218 257
#     4   9  16  26  39  56  81 110 138 170 207 246
#
# _framework density 14.802584
#
# number of rings (size 3 to 8) (size 9 to 14) (size 15 to 20)
#    0.000    2.500    0.000    3.000    0.000    7.000 
#    0.000    0.000    0.000    0.000    0.000    0.000 
#    0.000    1.000    0.000    8.500    0.000    6.250 
#
# Total GULP energy -356669.366740 kJ/mol
# GULP energy per Si atom -5572.958855 kJ/mol
# Density = 1.476889 g / cm^3
# Si number density = 14.802584 Si / 1000 Ang^3
#
#
#
# Elastic Constant Matrix: (Units=GPa)
#
#
# Indices 1 2 3 4 5 6 
#
# 1 78.3476 21.5289 44.3776 0.0000 0.0000 0.0000
# 2 21.5289 65.7468 36.7310 0.0000 0.0000 0.0000
# 3 44.3776 36.7310 74.8207 0.0000 0.0000 0.0000
# 4 0.0000 0.0000 0.0000 20.7796 0.0000 0.0000
# 5 0.0000 0.0000 0.0000 0.0000 28.2270 0.0000
# 6 0.0000 0.0000 0.0000 0.0000 0.0000 18.2815
#
#
#
# Elastic Compliance Matrix: (Units=1/GPa)
#
#
# Indices 1 2 3 4 5 6 
#
# 1 0.019222 0.000104 -0.011451 0.000000 0.000000 0.000000
# 2 0.000104 0.020958 -0.010350 0.000000 0.000000 0.000000
# 3 -0.011451 -0.010350 0.025239 0.000000 0.000000 0.000000
# 4 0.000000 0.000000 0.000000 0.048124 0.000000 0.000000
# 5 0.000000 0.000000 0.000000 0.000000 0.035427 0.000000
# 6 0.000000 0.000000 0.000000 0.000000 0.000000 0.054700
#
#
# Mechanical properties :
#
#
# Convention : Reuss Voigt Hill
#
# Bulk Modulus (GPa) = 45.40923 47.13224 46.27074
# Shear Modulus (GPa) = 19.65354 21.20945 20.43150
#
# Velocity S-wave (km/s) = 3.64773 3.78937 3.71922
# Velocity P-wave (km/s) = 6.96307 7.14531 7.05478
#
# Compressibility (1/GPa) = 0.02202195
#
# Stress axis : x y z
#
# Youngs Moduli (GPa) = 52.02497 47.71351 39.62187
#
# Poissons Ratio (x) = -0.00494 0.45373
# Poissons Ratio (y) = -0.00539 0.41010
# Poissons Ratio (z) = 0.59576 0.49385
#
# Static dielectric constant tensor:
#      x y z
#    x 1.478820 0.000000 0.000000 
#    y 0.000000 1.471600 0.000000 
#    z 0.000000 0.000000 1.494770 
# 
# From -- ./inp_files/7417.got.cif
#   From: 2010.05.17/outbox.cif.g08.bks.cpg/sg57_4_cif.got.tgz:7417.got - 2010.06.03 13:58:18.
