data_PCOD9434198
_publ_section_title
;
Structure prediction by ZEFSAII (Michael W. Deem and Ramdas Pophale) SiO2 
 PCOD9434198
Probable space group: P B C M
;
_chemical_formula_sum "Si O2"
_cell_formula_units_Z 60
_cell_length_a 11.075813
_cell_length_b 22.851910
_cell_length_c 14.202129
_cell_angle_alpha 90.000000
_cell_angle_beta 90.000000
_cell_angle_gamma 90.000000
_cell_volume 3594.608300
_symmetry_space_group_name_H-M "P B C M"
_symmetry_group_IT_number 57
_symmetry_cell_setting 'orthorhombic'
loop_
_space_group_symop_operation_xyz
x,y,z
-x,-y,1/2+z
x,1/2-y,-z
-x,1/2+y,1/2-z
-x,-y,-z
x,y,1/2-z
-x,1/2+y,z
x,1/2-y,1/2+z
loop_
_atom_site_type_symbol
_atom_site_label
_atom_site_fract_x
_atom_site_fract_y
_atom_site_fract_z
Si Si1 0.947027 0.579705 0.145439
Si Si2 0.320520 0.363071 0.639907
Si Si3 0.622838 0.535332 0.011443
Si Si4 0.225801 0.107354 0.636894
Si Si5 0.019335 0.250000 0.500000
Si Si6 0.039516 0.877250 0.043909
Si Si7 0.802411 0.035514 0.643267
Si Si8 0.763183 0.758748 0.361733
O O1 0.992086 0.595081 0.250000
O O2 0.819558 0.614479 0.130892
O O3 0.911445 0.511619 0.144437
O O4 0.032169 0.592728 0.058321
O O5 0.351283 0.369475 0.750000
O O6 0.394981 0.406717 0.575322
O O7 0.324297 0.294897 0.612405
O O8 0.709037 0.492356 0.070878
O O9 0.500000 0.500000 0.000000
O O10 0.693299 0.560221 0.919305
O O11 0.224374 0.098204 0.750000
O O12 0.089369 0.109563 0.595105
O O13 0.271784 0.174206 0.617255
O O14 0.948535 0.191281 0.522457
O O15 0.111534 0.256156 0.587178
O O16 0.144106 0.904011 0.107049
O O17 0.754637 0.038281 0.750000
O O18 0.780756 0.755171 0.250000
#
# Coordination Sequence:
#
# PCOD9434198 Si02
#       8
#     8   8   8   8   4   8   8   8
#     4   9  16  27  47  72 101 134 167 201 238 293
#     4   9  15  29  51  74  99 132 169 206 252 309
#     4  11  22  36  52  71  98 136 179 225 265 307
#     4  10  20  31  48  79 111 133 163 214 268 315
#     4  10  18  26  46  74 108 142 170 202 248 302
#     4  11  18  32  50  76 110 141 170 210 254 312
#     4  10  21  36  53  74 101 138 175 205 252 315
#     4   9  16  28  47  74 108 136 161 203 261 313
#
# _framework density 16.691665
#
# number of rings (size 3 to 8) (size 9 to 14) (size 15 to 20)
#    0.000    2.133    4.000    2.800    0.000    1.600 
#    0.000    0.000    0.000    1.600    0.000    0.000 
#    0.000    0.000    0.000    0.000    0.000    0.000 
#
# Total GULP energy -334222.932628 kJ/mol
# GULP energy per Si atom -5570.382210 kJ/mol
# Density = 1.665367 g / cm^3
# Si number density = 16.691665 Si / 1000 Ang^3
#
#
#
# Elastic Constant Matrix: (Units=GPa)
#
#
# Indices 1 2 3 4 5 6 
#
# 1 30.4119 41.1629 28.8168 0.0000 0.0000 0.0000
# 2 41.1629 104.3712 44.9978 0.0000 0.0000 0.0000
# 3 28.8168 44.9978 104.2533 0.0000 0.0000 0.0000
# 4 0.0000 0.0000 0.0000 25.8756 0.0000 0.0000
# 5 0.0000 0.0000 0.0000 0.0000 2.9689 0.0000
# 6 0.0000 0.0000 0.0000 0.0000 0.0000 22.7558
#
#
#
# Elastic Compliance Matrix: (Units=1/GPa)
#
#
# Indices 1 2 3 4 5 6 
#
# 1 0.078534 -0.026556 -0.010246 0.000000 0.000000 0.000000
# 2 -0.026556 0.020751 -0.001616 0.000000 0.000000 0.000000
# 3 -0.010246 -0.001616 0.013122 0.000000 0.000000 0.000000
# 4 0.000000 0.000000 0.000000 0.038647 0.000000 0.000000
# 5 0.000000 0.000000 0.000000 0.000000 0.336821 0.000000
# 6 0.000000 0.000000 0.000000 0.000000 0.000000 0.043945
#
#
# Mechanical properties :
#
#
# Convention : Reuss Voigt Hill
#
# Bulk Modulus (GPa) = 28.11260 52.11017 40.11139
# Shear Modulus (GPa) = 8.05787 18.59064 13.32425
#
# Velocity S-wave (km/s) = 2.19954 3.34094 2.82841
# Velocity P-wave (km/s) = 4.83006 6.79482 5.89487
#
# Compressibility (1/GPa) = 0.03557123
#
# Stress axis : x y z
#
# Youngs Moduli (GPa) = 12.73342 48.18968 76.20956
#
# Poissons Ratio (x) = 1.27971 0.78082
# Poissons Ratio (y) = 0.33814 0.12319
# Poissons Ratio (z) = 0.13046 0.07789
#
# Static dielectric constant tensor:
#      x y z
#    x 1.532010 0.000000 0.000000 
#    y 0.000000 1.610220 0.000000 
#    z 0.000000 0.000000 1.415690 
# 
# From -- ./inp_files/18041.got.cif
#   From: 2010.05.17/outbox.cif.g08.bks.cpg/sg57_10_cif.got.tgz:18041.got - 2010.06.03 13:58:18.
