data_PCOD9434610
_publ_section_title
;
Structure prediction by ZEFSAII (Michael W. Deem and Ramdas Pophale) SiO2 
 PCOD9434610
Probable space group: P B C M
;
_chemical_formula_sum "Si O2"
_cell_formula_units_Z 56
_cell_length_a 15.209421
_cell_length_b 8.779184
_cell_length_c 21.235651
_cell_angle_alpha 90.000000
_cell_angle_beta 90.000000
_cell_angle_gamma 90.000000
_cell_volume 2835.518023
_symmetry_space_group_name_H-M "P B C M"
_symmetry_group_IT_number 57
_symmetry_cell_setting 'orthorhombic'
loop_
_space_group_symop_operation_xyz
x,y,z
-x,-y,1/2+z
x,1/2-y,-z
-x,1/2+y,1/2-z
-x,-y,-z
x,y,1/2-z
-x,1/2+y,z
x,1/2-y,1/2+z
loop_
_atom_site_type_symbol
_atom_site_label
_atom_site_fract_x
_atom_site_fract_y
_atom_site_fract_z
Si Si1 0.116380 0.380032 0.750000
Si Si2 0.577740 0.148478 0.325543
Si Si3 0.991770 0.353840 0.250000
Si Si4 0.391856 0.495441 0.826858
Si Si5 0.083987 0.811784 0.629919
Si Si6 0.216261 0.358395 0.874616
Si Si7 0.059913 0.993528 0.062201
Si Si8 0.754781 0.517813 0.672806
O O1 0.024743 0.468707 0.750000
O O2 0.168427 0.421622 0.811812
O O3 0.091011 0.202991 0.750000
O O4 0.576779 0.135674 0.250000
O O5 0.595548 0.325328 0.338884
O O6 0.481684 0.090883 0.344745
O O7 0.658585 0.043639 0.346924
O O8 0.946383 0.285638 0.189260
O O9 0.376051 0.473662 0.750000
O O10 0.312105 0.432078 0.868775
O O11 0.087025 0.680661 0.576559
O O12 0.172452 0.898808 0.648339
O O13 0.008759 0.932825 0.611866
O O14 0.149667 0.406433 0.930588
O O15 0.225762 0.178936 0.860750
O O16 0.000000 0.000000 0.000000
O O17 0.753643 0.527605 0.750000
#
# Coordination Sequence:
#
# PCOD9434610 Si02
#       8
#     4   8   4   8   8   8   8   8
#     4  12  24  34  56  83 123 150 202 254 318 372
#     4   9  19  31  49  81 126 169 201 243 310 392
#     4  12  22  36  56  87 113 148 198 254 326 372
#     4  10  18  32  53  82 125 169 210 254 314 386
#     4  12  23  39  61  83 117 156 202 257 315 376
#     4  12  22  36  58  84 118 164 210 263 314 376
#     4  12  27  44  59  81 116 164 215 263 312 373
#     4  11  22  34  57  91 126 160 205 255 323 394
#
# _framework density 19.749478
#
# number of rings (size 3 to 8) (size 9 to 14) (size 15 to 20)
#    0.000    0.857    5.000    3.000    2.000    2.286 
#    0.000    0.000    0.000    0.000    0.000    1.000 
#    0.000    2.286    0.000    0.429    0.000    0.429 
#
# Total GULP energy -312548.925391 kJ/mol
# GULP energy per Si atom -5581.230811 kJ/mol
# Density = 1.970453 g / cm^3
# Si number density = 19.749478 Si / 1000 Ang^3
#
#
#
# Elastic Constant Matrix: (Units=GPa)
#
#
# Indices 1 2 3 4 5 6 
#
# 1 172.2460 69.3497 34.7791 0.0000 0.0000 0.0000
# 2 69.3497 108.3728 35.7922 0.0000 0.0000 0.0000
# 3 34.7791 35.7922 60.9558 0.0000 0.0000 0.0000
# 4 0.0000 0.0000 0.0000 15.2108 0.0000 0.0000
# 5 0.0000 0.0000 0.0000 0.0000 27.1288 0.0000
# 6 0.0000 0.0000 0.0000 0.0000 0.0000 44.7223
#
#
#
# Elastic Compliance Matrix: (Units=1/GPa)
#
#
# Indices 1 2 3 4 5 6 
#
# 1 0.008000 -0.004481 -0.001933 0.000000 0.000000 0.000000
# 2 -0.004481 0.013957 -0.005639 0.000000 0.000000 0.000000
# 3 -0.001933 -0.005639 0.020820 0.000000 0.000000 0.000000
# 4 0.000000 0.000000 0.000000 0.065743 0.000000 0.000000
# 5 0.000000 0.000000 0.000000 0.000000 0.036861 0.000000
# 6 0.000000 0.000000 0.000000 0.000000 0.000000 0.022360
#
#
# Mechanical properties :
#
#
# Convention : Reuss Voigt Hill
#
# Bulk Modulus (GPa) = 53.56043 69.04629 61.30336
# Shear Modulus (GPa) = 25.24356 30.85598 28.04977
#
# Velocity S-wave (km/s) = 3.57906 3.95697 3.77275
# Velocity P-wave (km/s) = 6.65269 7.47755 7.07715
#
# Compressibility (1/GPa) = 0.01867050
#
# Stress axis : x y z
#
# Youngs Moduli (GPa) = 124.99800 71.64817 48.03189
#
# Poissons Ratio (x) = 0.32104 0.09287
# Poissons Ratio (y) = 0.56010 0.27084
# Poissons Ratio (z) = 0.24168 0.40401
#
# Static dielectric constant tensor:
#      x y z
#    x 1.702730 0.000000 0.000000 
#    y 0.000000 1.733010 0.000000 
#    z 0.000000 0.000000 1.676710 
# 
# From -- ./inp_files/25438.got.cif
#   From: 2010.05.17/outbox.cif.g08.bks.cpg/sg57_13_cif.got.tgz:25438.got - 2010.06.03 13:58:18.
