data_PCOD9434664
_publ_section_title
;
Structure prediction by ZEFSAII (Michael W. Deem and Ramdas Pophale) SiO2 
 PCOD9434664
Probable space group: P B C M
;
_chemical_formula_sum "Si O2"
_cell_formula_units_Z 64
_cell_length_a 18.562602
_cell_length_b 10.391333
_cell_length_c 14.202510
_cell_angle_alpha 90.000000
_cell_angle_beta 90.000000
_cell_angle_gamma 90.000000
_cell_volume 2739.524692
_symmetry_space_group_name_H-M "P B C M"
_symmetry_group_IT_number 57
_symmetry_cell_setting 'orthorhombic'
loop_
_space_group_symop_operation_xyz
x,y,z
-x,-y,1/2+z
x,1/2-y,-z
-x,1/2+y,1/2-z
-x,-y,-z
x,y,1/2-z
-x,1/2+y,z
x,1/2-y,1/2+z
loop_
_atom_site_type_symbol
_atom_site_label
_atom_site_fract_x
_atom_site_fract_y
_atom_site_fract_z
Si Si1 0.769532 0.066041 0.864546
Si Si2 0.427166 0.287193 0.364563
Si Si3 0.691660 0.179070 0.134567
Si Si4 0.462927 0.571415 0.365030
Si Si5 0.809203 0.972510 0.138573
Si Si6 0.264734 0.278044 0.635355
Si Si7 0.936029 0.384605 0.393934
Si Si8 0.963175 0.397970 0.887946
O O1 0.770238 0.065898 0.750000
O O2 0.714468 0.177685 0.894104
O O3 0.850090 0.103366 0.894906
O O4 0.749388 0.923106 0.896987
O O5 0.428047 0.288111 0.250000
O O6 0.462374 0.422398 0.394085
O O7 0.472052 0.162889 0.395456
O O8 0.343712 0.273779 0.391330
O O9 0.691838 0.177816 0.250000
O O10 0.612740 0.134412 0.105419
O O11 0.752296 0.077688 0.101840
O O12 0.464141 0.571182 0.250000
O O13 0.794963 0.966608 0.250000
O O14 0.792948 0.828764 0.103532
O O15 0.889375 0.024257 0.127897
O O16 0.263328 0.284622 0.750000
O O17 0.965975 0.382288 0.499732
O O18 0.957337 0.247258 0.350669
O O19 0.971781 0.513416 0.353090
#
# Coordination Sequence:
#
# PCOD9434664 Si02
#       8
#     8   8   8   8   8   8   8   8
#     4  10  20  33  51  74 101 131 165 207 249 292
#     4   9  16  25  37  59  94 134 169 199 239 292
#     4   9  16  28  45  65  94 130 165 201 244 290
#     4   9  16  24  37  59  92 133 169 199 240 294
#     4  10  18  33  53  73  98 133 168 202 247 294
#     4   9  18  30  45  69 102 133 166 209 250 289
#     4  10  22  39  54  75 101 128 163 201 248 300
#     4  10  22  38  56  74 100 131 160 203 249 294
#
# _framework density 23.361716000000001
#
# number of rings (size 3 to 8) (size 9 to 14) (size 15 to 20)
#    0.000    2.500    2.500    0.000    3.500    0.500 
#    0.000    0.000    0.000    0.000    0.000    0.000 
#    0.000    6.000    0.000    0.000    0.000    0.000 
#
# Total GULP energy -357796.624401 kJ/mol
# GULP energy per Si atom -5590.572256 kJ/mol
# Density = 2.330854 g / cm^3
# Si number density = 23.361716 Si / 1000 Ang^3
#
#
#
# Elastic Constant Matrix: (Units=GPa)
#
#
# Indices 1 2 3 4 5 6 
#
# 1 46.1494 33.9612 -8.1960 0.0000 0.0000 0.0000
# 2 33.9612 201.7337 18.0175 0.0000 0.0000 0.0000
# 3 -8.1960 18.0175 78.8091 0.0000 0.0000 0.0000
# 4 0.0000 0.0000 0.0000 10.7455 0.0000 0.0000
# 5 0.0000 0.0000 0.0000 0.0000 17.5461 0.0000
# 6 0.0000 0.0000 0.0000 0.0000 0.0000 61.8345
#
#
#
# Elastic Compliance Matrix: (Units=1/GPa)
#
#
# Indices 1 2 3 4 5 6 
#
# 1 0.025774 -0.004674 0.003749 0.000000 0.000000 0.000000
# 2 -0.004674 0.005908 -0.001837 0.000000 0.000000 0.000000
# 3 0.003749 -0.001837 0.013499 0.000000 0.000000 0.000000
# 4 0.000000 0.000000 0.000000 0.093062 0.000000 0.000000
# 5 0.000000 0.000000 0.000000 0.000000 0.056993 0.000000
# 6 0.000000 0.000000 0.000000 0.000000 0.000000 0.016172
#
#
# Mechanical properties :
#
#
# Convention : Reuss Voigt Hill
#
# Bulk Modulus (GPa) = 25.21596 46.02864 35.62230
# Shear Modulus (GPa) = 21.72493 36.88584 29.30538
#
# Velocity S-wave (km/s) = 3.05280 3.97785 3.54562
# Velocity P-wave (km/s) = 4.82112 6.39086 5.66067
#
# Compressibility (1/GPa) = 0.03965743
#
# Stress axis : x y z
#
# Youngs Moduli (GPa) = 38.79883 169.26497 74.08123
#
# Poissons Ratio (x) = 0.79111 -0.27773
# Poissons Ratio (y) = 0.18134 0.13607
# Poissons Ratio (z) = -0.14546 0.31090
#
# Static dielectric constant tensor:
#      x y z
#    x 1.800660 0.000000 0.000000 
#    y 0.000000 1.875440 0.000000 
#    z 0.000000 0.000000 1.939230 
# 
# From -- ./inp_files/25589.got.cif
#   From: 2010.05.17/outbox.cif.g08.bks.cpg/sg57_13_cif.got.tgz:25589.got - 2010.06.03 13:58:18.
