data_PCOD9434817
_publ_section_title
;
Structure prediction by ZEFSAII (Michael W. Deem and Ramdas Pophale) SiO2 
 PCOD9434817
Probable space group: P B C M
;
_chemical_formula_sum "Si O2"
_cell_formula_units_Z 40
_cell_length_a 10.816614
_cell_length_b 11.348978
_cell_length_c 13.597268
_cell_angle_alpha 90.000000
_cell_angle_beta 90.000000
_cell_angle_gamma 90.000000
_cell_volume 1669.166821
_symmetry_space_group_name_H-M "P B C M"
_symmetry_group_IT_number 57
_symmetry_cell_setting 'orthorhombic'
loop_
_space_group_symop_operation_xyz
x,y,z
-x,-y,1/2+z
x,1/2-y,-z
-x,1/2+y,1/2-z
-x,-y,-z
x,y,1/2-z
-x,1/2+y,z
x,1/2-y,1/2+z
loop_
_atom_site_type_symbol
_atom_site_label
_atom_site_fract_x
_atom_site_fract_y
_atom_site_fract_z
Si Si1 0.030738 0.371980 0.134737
Si Si2 0.563951 0.260180 0.117107
Si Si3 0.171607 0.020056 0.470831
Si Si4 0.442733 0.019533 0.392905
Si Si5 0.169348 0.673116 0.140387
O O1 0.067424 0.378918 0.250000
O O2 0.938637 0.479864 0.102504
O O3 0.949489 0.254366 0.125746
O O4 0.133503 0.378725 0.049086
O O5 0.525698 0.390582 0.150451
O O6 0.499560 0.138934 0.150406
O O7 0.708874 0.252931 0.140243
O O8 0.548356 0.250000 0.000000
O O9 0.296084 0.037288 0.409590
O O10 0.188387 0.913666 0.549423
O O11 0.500000 0.000000 0.500000
O O12 0.162443 0.618715 0.250000
#
# Coordination Sequence:
#
# PCOD9434817 Si02
#       5
#     8   8   8   8   8
#     4  10  22  37  62  94 122 164 218 268 325 395
#     4  10  18  36  61  88 126 167 221 271 330 387
#     4  11  20  39  64  89 129 171 212 271 334 387
#     4  10  19  35  66  92 126 170 222 270 327 401
#     4  11  20  36  62  90 126 172 221 269 326 401
#
# _framework density 23.964051999999999
#
# number of rings (size 3 to 8) (size 9 to 14) (size 15 to 20)
#    0.000    1.600    6.000    1.200    0.000    0.000 
#    0.000   14.000    0.000    0.000    0.000    0.000 
#    0.000    0.000    0.000    0.000    0.000    0.000 
#
# Total GULP energy -223254.068562 kJ/mol
# GULP energy per Si atom -5581.351714 kJ/mol
# Density = 2.390951 g / cm^3
# Si number density = 23.964052 Si / 1000 Ang^3
#
#
#
# Elastic Constant Matrix: (Units=GPa)
#
#
# Indices 1 2 3 4 5 6 
#
# 1 45.0119 41.9039 -6.8321 0.0000 0.0000 0.0000
# 2 41.9039 183.2879 36.2019 0.0000 0.0000 0.0000
# 3 -6.8321 36.2019 150.8884 0.0000 0.0000 0.0000
# 4 0.0000 0.0000 0.0000 -31.3391 0.0000 0.0000
# 5 0.0000 0.0000 0.0000 0.0000 -39.1994 0.0000
# 6 0.0000 0.0000 0.0000 0.0000 0.0000 37.9155
#
#
#
# Elastic Compliance Matrix: (Units=1/GPa)
#
#
# Indices 1 2 3 4 5 6 
#
# 1 0.029548 -0.007369 0.003106 0.000000 0.000000 0.000000
# 2 -0.007369 0.007565 -0.002149 0.000000 0.000000 0.000000
# 3 0.003106 -0.002149 0.007284 0.000000 0.000000 0.000000
# 4 0.000000 0.000000 0.000000 -0.031909 0.000000 0.000000
# 5 0.000000 0.000000 0.000000 0.000000 -0.025511 0.000000
# 6 0.000000 0.000000 0.000000 0.000000 0.000000 0.026374
#
#
# Mechanical properties :
#
#
# Convention : Reuss Voigt Hill
#
# Bulk Modulus (GPa) = 31.67258 57.97063 44.82160
# Shear Modulus (GPa) = 136.24552 14.00305 75.12428
#
# Velocity S-wave (km/s) = 7.54835 2.41993 5.60507
# Velocity P-wave (km/s) = 9.44539 5.66138 7.78674
#
# Compressibility (1/GPa) = 0.03157305
#
# Stress axis : x y z
#
# Youngs Moduli (GPa) = 33.84363 132.18857 137.29544
#
# Poissons Ratio (x) = 0.97406 -0.42642
# Poissons Ratio (y) = 0.24938 0.29500
# Poissons Ratio (z) = -0.10511 0.28403
#
# Static dielectric constant tensor:
#      x y z
#    x 1.955740 0.000000 0.000000 
#    y 0.000000 1.999100 0.000000 
#    z 0.000000 0.000000 1.559530 
# 
# From -- ./inp_files/17417.got.cif
#   From: 2010.05.17/outbox.cif.g08.bks.cpg/sg57_9_cif.got.tgz:17417.got - 2010.06.03 13:58:18.
