data_PCOD9434482
_publ_section_title
;
Structure prediction by ZEFSAII (Michael W. Deem and Ramdas Pophale) SiO2 
 PCOD9434482
Probable space group: P B C M
;
_chemical_formula_sum "Si O2"
_cell_formula_units_Z 40
_cell_length_a 15.489057
_cell_length_b 13.383486
_cell_length_c 8.261517
_cell_angle_alpha 90.000000
_cell_angle_beta 90.000000
_cell_angle_gamma 90.000000
_cell_volume 1712.592461
_symmetry_space_group_name_H-M "P B C M"
_symmetry_group_IT_number 57
_symmetry_cell_setting 'orthorhombic'
loop_
_space_group_symop_operation_xyz
x,y,z
-x,-y,1/2+z
x,1/2-y,-z
-x,1/2+y,1/2-z
-x,-y,-z
x,y,1/2-z
-x,1/2+y,z
x,1/2-y,1/2+z
loop_
_atom_site_type_symbol
_atom_site_label
_atom_site_fract_x
_atom_site_fract_y
_atom_site_fract_z
Si Si1 0.060898 0.143231 0.558001
Si Si2 0.491593 0.613372 0.940083
Si Si3 0.669413 0.854663 0.934511
Si Si4 0.122375 0.571470 0.053890
Si Si5 0.689037 0.079008 0.058627
O O1 0.093072 0.250000 0.500000
O O2 0.066232 0.141377 0.750000
O O3 0.109352 0.043751 0.496896
O O4 0.961072 0.129919 0.506691
O O5 0.512437 0.624287 0.750000
O O6 0.500000 0.500000 0.000000
O O7 0.565333 0.659048 0.053010
O O8 0.390582 0.632392 0.969931
O O9 0.695106 0.869979 0.750000
O O10 0.706240 0.750000 0.000000
O O11 0.687128 0.957791 0.029886
O O12 0.121300 0.571818 0.250000
O O13 0.215754 0.610899 0.002422
O O14 0.678755 0.095621 0.250000
#
# Coordination Sequence:
#
# PCOD9434482 Si02
#       5
#     8   8   8   8   8
#     4  10  20  36  58  82 110 144 181 223 272 327
#     4  10  18  31  50  72  98 132 170 205 249 301
#     4  11  21  34  51  74 104 138 176 218 265 313
#     4   9  20  37  57  82 111 144 182 224 271 325
#     4  10  19  34  54  77 105 136 173 216 263 314
#
# _framework density 23.356401999999999
#
# number of rings (size 3 to 8) (size 9 to 14) (size 15 to 20)
#    0.000    2.000    0.000    7.200    0.000    3.200 
#    0.000    3.000    0.000    4.800    0.000    0.000 
#    0.000    0.000    0.000    0.000    0.000    0.000 
#
# Total GULP energy -223368.383259 kJ/mol
# GULP energy per Si atom -5584.209581 kJ/mol
# Density = 2.330324 g / cm^3
# Si number density = 23.356402 Si / 1000 Ang^3
#
#
#
# Elastic Constant Matrix: (Units=GPa)
#
#
# Indices 1 2 3 4 5 6 
#
# 1 127.2544 -11.7444 7.8881 0.0000 0.0000 0.0000
# 2 -11.7444 70.0565 -10.8614 0.0000 0.0000 0.0000
# 3 7.8881 -10.8614 70.9664 0.0000 0.0000 0.0000
# 4 0.0000 0.0000 0.0000 24.7011 0.0000 0.0000
# 5 0.0000 0.0000 0.0000 0.0000 20.3692 0.0000
# 6 0.0000 0.0000 0.0000 0.0000 0.0000 -10.9229
#
#
#
# Elastic Compliance Matrix: (Units=1/GPa)
#
#
# Indices 1 2 3 4 5 6 
#
# 1 0.008016 0.001235 -0.000702 0.000000 0.000000 0.000000
# 2 0.001235 0.014811 0.002130 0.000000 0.000000 0.000000
# 3 -0.000702 0.002130 0.014495 0.000000 0.000000 0.000000
# 4 0.000000 0.000000 0.000000 0.040484 0.000000 0.000000
# 5 0.000000 0.000000 0.000000 0.000000 0.049094 0.000000
# 6 0.000000 0.000000 0.000000 0.000000 0.000000 -0.091551
#
#
# Mechanical properties :
#
#
# Convention : Reuss Voigt Hill
#
# Bulk Modulus (GPa) = 23.44803 26.53798 24.99301
# Shear Modulus (GPa) = 113.01950 25.69581 69.35765
#
# Velocity S-wave (km/s) = 6.96377 3.32047 5.45526
# Velocity P-wave (km/s) = 8.64407 5.10759 7.09956
#
# Compressibility (1/GPa) = 0.04264750
#
# Stress axis : x y z
#
# Youngs Moduli (GPa) = 124.75416 67.51555 68.98864
#
# Poissons Ratio (x) = -0.08338 0.04843
# Poissons Ratio (y) = -0.15407 -0.14692
# Poissons Ratio (z) = 0.08757 -0.14378
#
# Static dielectric constant tensor:
#      x y z
#    x 1.971700 0.000000 0.000000 
#    y 0.000000 1.898500 0.000000 
#    z 0.000000 0.000000 1.799040 
# 
# From -- ./inp_files/6367.got.cif
#   From: 2010.05.17/outbox.cif.g08.bks.cpg/sg57_4_cif.got.tgz:6367.got - 2010.06.03 13:58:18.
