data_PCOD9434266
_publ_section_title
;
Structure prediction by ZEFSAII (Michael W. Deem and Ramdas Pophale) SiO2 
 PCOD9434266
Probable space group: P B C M
;
_chemical_formula_sum "Si O2"
_cell_formula_units_Z 56
_cell_length_a 10.595523
_cell_length_b 31.214581
_cell_length_c 7.369199
_cell_angle_alpha 90.000000
_cell_angle_beta 90.000000
_cell_angle_gamma 90.000000
_cell_volume 2437.250638
_symmetry_space_group_name_H-M "P B C M"
_symmetry_group_IT_number 57
_symmetry_cell_setting 'orthorhombic'
loop_
_space_group_symop_operation_xyz
x,y,z
-x,-y,1/2+z
x,1/2-y,-z
-x,1/2+y,1/2-z
-x,-y,-z
x,y,1/2-z
-x,1/2+y,z
x,1/2-y,1/2+z
loop_
_atom_site_type_symbol
_atom_site_label
_atom_site_fract_x
_atom_site_fract_y
_atom_site_fract_z
Si Si1 0.359756 0.887914 0.471953
Si Si2 0.457967 0.702633 0.966350
Si Si3 0.915563 0.390207 0.471520
Si Si4 0.992498 0.203903 0.966039
Si Si5 0.814111 0.915832 0.030625
Si Si6 0.566628 0.955117 0.466552
Si Si7 0.264486 0.181240 0.969802
O O1 0.360787 0.888323 0.250000
O O2 0.381516 0.838823 0.530471
O O3 0.222740 0.904915 0.529135
O O4 0.474516 0.917541 0.534111
O O5 0.464411 0.698025 0.750000
O O6 0.602233 0.698859 0.036820
O O7 0.406665 0.750000 0.000000
O O8 0.917174 0.391035 0.250000
O O9 0.930346 0.340314 0.528683
O O10 0.041038 0.415108 0.533802
O O11 0.998835 0.199447 0.750000
O O12 0.136888 0.203693 0.036760
O O13 0.931903 0.250000 0.000000
O O14 0.822238 0.918711 0.250000
O O15 0.710058 0.949664 0.965520
O O16 0.755217 0.868999 0.989564
O O17 0.574013 0.949444 0.250000
O O18 0.500000 0.000000 0.500000
O O19 0.266396 0.184692 0.750000
#
# Coordination Sequence:
#
# PCOD9434266 Si02
#       7
#     8   8   8   8   8   8   8
#     4   9  17  31  49  69  96 128 161 196 235 283
#     4  10  18  28  44  67  95 126 160 196 235 278
#     4   8  15  27  46  69  90 120 162 199 227 268
#     4   9  16  25  40  62  89 119 156 197 231 267
#     4   8  13  26  48  70  91 120 158 193 226 273
#     4  10  19  33  55  78  97 122 156 197 243 290
#     4   8  13  24  42  63  87 119 158 195 225 265
#
# _framework density 22.976709
#
# number of rings (size 3 to 8) (size 9 to 14) (size 15 to 20)
#    0.000    3.143    1.429    2.143    0.000    0.571 
#    0.000    1.429    0.000    4.286    0.000    0.000 
#    0.000    0.000    0.000    0.000    0.000    0.000 
#
# Total GULP energy -312436.946051 kJ/mol
# GULP energy per Si atom -5579.231179 kJ/mol
# Density = 2.292441 g / cm^3
# Si number density = 22.976709 Si / 1000 Ang^3
#
#
#
# Elastic Constant Matrix: (Units=GPa)
#
#
# Indices 1 2 3 4 5 6 
#
# 1 130.9745 12.8501 7.7892 0.0000 0.0000 0.0000
# 2 12.8501 32.6663 -3.0927 0.0000 0.0000 0.0000
# 3 7.7892 -3.0927 80.9825 0.0000 0.0000 0.0000
# 4 0.0000 0.0000 0.0000 14.9054 0.0000 0.0000
# 5 0.0000 0.0000 0.0000 0.0000 -14.3007 0.0000
# 6 0.0000 0.0000 0.0000 0.0000 0.0000 -11.3282
#
#
#
# Elastic Compliance Matrix: (Units=1/GPa)
#
#
# Indices 1 2 3 4 5 6 
#
# 1 0.008005 -0.003234 -0.000893 0.000000 0.000000 0.000000
# 2 -0.003234 0.032030 0.001534 0.000000 0.000000 0.000000
# 3 -0.000893 0.001534 0.012493 0.000000 0.000000 0.000000
# 4 0.000000 0.000000 0.000000 0.067090 0.000000 0.000000
# 5 0.000000 0.000000 0.000000 0.000000 -0.069927 0.000000
# 6 0.000000 0.000000 0.000000 0.000000 0.000000 -0.088275
#
#
# Mechanical properties :
#
#
# Convention : Reuss Voigt Hill
#
# Bulk Modulus (GPa) = 21.12277 31.07961 26.10119
# Shear Modulus (GPa) = -283.81328 12.99376 -135.40976
#
# Velocity S-wave (km/s) = -11.12611 2.38064 -7.68514
# Velocity P-wave (km/s) = 12.48362 4.59484 8.20756
#
# Compressibility (1/GPa) = 0.04734228
#
# Stress axis : x y z
#
# Youngs Moduli (GPa) = 124.91448 31.22086 80.04562
#
# Poissons Ratio (x) = 0.10096 0.07152
# Poissons Ratio (y) = 0.40394 -0.12281
# Poissons Ratio (z) = 0.11161 -0.04790
#
# Static dielectric constant tensor:
#      x y z
#    x 1.880700 0.000000 0.000000 
#    y 0.000000 1.829380 0.000000 
#    z 0.000000 0.000000 1.887010 
# 
# From -- ./inp_files/13203.got.cif
#   From: 2010.05.17/outbox.cif.g08.bks.cpg/sg57_7_cif.got.tgz:13203.got - 2010.06.03 13:58:18.
