data_PCOD9434047
_publ_section_title
;
Structure prediction by ZEFSAII (Michael W. Deem and Ramdas Pophale) SiO2 
 PCOD9434047
Probable space group: P B C M
;
_chemical_formula_sum "Si O2"
_cell_formula_units_Z 64
_cell_length_a 21.689089
_cell_length_b 20.811493
_cell_length_c 8.373078
_cell_angle_alpha 90.000000
_cell_angle_beta 90.000000
_cell_angle_gamma 90.000000
_cell_volume 3779.459406
_symmetry_space_group_name_H-M "P B C M"
_symmetry_group_IT_number 57
_symmetry_cell_setting 'orthorhombic'
loop_
_space_group_symop_operation_xyz
x,y,z
-x,-y,1/2+z
x,1/2-y,-z
-x,1/2+y,1/2-z
-x,-y,-z
x,y,1/2-z
-x,1/2+y,z
x,1/2-y,1/2+z
loop_
_atom_site_type_symbol
_atom_site_label
_atom_site_fract_x
_atom_site_fract_y
_atom_site_fract_z
Si Si1 0.018402 0.320053 0.558313
Si Si2 0.940328 0.539799 0.441795
Si Si3 0.825793 0.455919 0.557835
Si Si4 0.441993 0.811781 0.559331
Si Si5 0.693409 0.183209 0.933918
Si Si6 0.122604 0.820467 0.060009
Si Si7 0.445811 0.955698 0.559682
Si Si8 0.693406 0.454585 0.563513
O O1 0.041315 0.250000 0.500000
O O2 0.016898 0.318528 0.750000
O O3 0.053740 0.385203 0.507691
O O4 0.948256 0.327283 0.496891
O O5 0.940134 0.538374 0.250000
O O6 0.880022 0.503250 0.503784
O O7 0.000000 0.500000 0.500000
O O8 0.824194 0.454159 0.750000
O O9 0.841346 0.383453 0.499892
O O10 0.758440 0.480144 0.497303
O O11 0.479502 0.750000 0.500000
O O12 0.428091 0.807987 0.750000
O O13 0.380481 0.810062 0.450882
O O14 0.466632 0.882518 0.528711
O O15 0.711027 0.172418 0.750000
O O16 0.719191 0.250000 0.000000
O O17 0.704538 0.121908 0.043914
O O18 0.124666 0.820025 0.250000
O O19 0.143165 0.750000 0.000000
O O20 0.440635 0.962449 0.750000
O O21 0.375520 0.966806 0.495055
O O22 0.500000 0.000000 0.500000
O O23 0.690546 0.471576 0.750000
#
# Coordination Sequence:
#
# PCOD9434047 Si02
#       8
#     8   8   8   8   8   8   8   8
#     4  10  20  34  53  76 102 132 169 211 256 301
#     4  11  22  35  54  78 105 135 170 210 254 303
#     4  11  22  36  53  72  99 135 174 213 257 303
#     4   9  16  27  43  66  96 126 159 197 236 283
#     4  10  17  26  43  64  89 124 163 200 237 281
#     4  11  21  33  50  71 101 137 175 214 251 296
#     4   9  18  32  50  73  99 128 163 202 248 297
#     4   9  20  36  49  66  96 130 165 207 249 298
#
# _framework density 16.933637999999998
#
# number of rings (size 3 to 8) (size 9 to 14) (size 15 to 20)
#    0.000    2.000    1.250    6.000    0.000    5.500 
#    0.000    0.000    0.000    0.000    0.000    0.875 
#    0.000    0.000    0.000    0.000    0.000    0.000 
#
# Total GULP energy -356473.503978 kJ/mol
# GULP energy per Si atom -5569.898500 kJ/mol
# Density = 1.689510 g / cm^3
# Si number density = 16.933638 Si / 1000 Ang^3
#
#
#
# Elastic Constant Matrix: (Units=GPa)
#
#
# Indices 1 2 3 4 5 6 
#
# 1 112.0140 73.4632 14.5836 0.0000 0.0000 0.0000
# 2 73.4632 119.0331 28.2054 0.0000 0.0000 0.0000
# 3 14.5836 28.2054 46.3004 0.0000 0.0000 0.0000
# 4 0.0000 0.0000 0.0000 29.6675 0.0000 0.0000
# 5 0.0000 0.0000 0.0000 0.0000 12.0644 0.0000
# 6 0.0000 0.0000 0.0000 0.0000 0.0000 9.6461
#
#
#
# Elastic Compliance Matrix: (Units=1/GPa)
#
#
# Indices 1 2 3 4 5 6 
#
# 1 0.015044 -0.009538 0.001072 0.000000 0.000000 0.000000
# 2 -0.009538 0.015866 -0.006661 0.000000 0.000000 0.000000
# 3 0.001072 -0.006661 0.025318 0.000000 0.000000 0.000000
# 4 0.000000 0.000000 0.000000 0.033707 0.000000 0.000000
# 5 0.000000 0.000000 0.000000 0.000000 0.082889 0.000000
# 6 0.000000 0.000000 0.000000 0.000000 0.000000 0.103669
#
#
# Mechanical properties :
#
#
# Convention : Reuss Voigt Hill
#
# Bulk Modulus (GPa) = 38.50082 56.65022 47.57552
# Shear Modulus (GPa) = 15.85266 21.01530 18.43398
#
# Velocity S-wave (km/s) = 3.06300 3.52666 3.30298
# Velocity P-wave (km/s) = 5.94095 7.07884 6.53471
#
# Compressibility (1/GPa) = 0.02597347
#
# Stress axis : x y z
#
# Youngs Moduli (GPa) = 66.47376 63.02721 39.49746
#
# Poissons Ratio (x) = 0.60118 -0.04235
# Poissons Ratio (y) = 0.63406 0.26309
# Poissons Ratio (z) = -0.07128 0.41982
#
# Static dielectric constant tensor:
#      x y z
#    x 1.617230 0.000000 0.000000 
#    y 0.000000 1.524980 0.000000 
#    z 0.000000 0.000000 1.572790 
# 
# From -- ./inp_files/9577.got.cif
#   From: 2010.05.17/outbox.cif.g08.bks.cpg/sg57_5_cif.got.tgz:9577.got - 2010.06.03 13:58:18.
