data_PCOD9434537
_publ_section_title
;
Structure prediction by ZEFSAII (Michael W. Deem and Ramdas Pophale) SiO2 
 PCOD9434537
Probable space group: P B C M
;
_chemical_formula_sum "Si O2"
_cell_formula_units_Z 40
_cell_length_a 26.685353
_cell_length_b 9.168718
_cell_length_c 8.635811
_cell_angle_alpha 90.000000
_cell_angle_beta 90.000000
_cell_angle_gamma 90.000000
_cell_volume 2112.927991
_symmetry_space_group_name_H-M "P B C M"
_symmetry_group_IT_number 57
_symmetry_cell_setting 'orthorhombic'
loop_
_space_group_symop_operation_xyz
x,y,z
-x,-y,1/2+z
x,1/2-y,-z
-x,1/2+y,1/2-z
-x,-y,-z
x,y,1/2-z
-x,1/2+y,z
x,1/2-y,1/2+z
loop_
_atom_site_type_symbol
_atom_site_label
_atom_site_fract_x
_atom_site_fract_y
_atom_site_fract_z
Si Si1 0.357069 0.586682 0.064338
Si Si2 0.255540 0.414026 0.064712
Si Si3 0.452191 0.413571 0.564911
Si Si4 0.848466 0.915858 0.565037
Si Si5 0.952361 0.914757 0.064634
O O1 0.363056 0.588402 0.250000
O O2 0.304156 0.509606 0.028043
O O3 0.358059 0.750000 0.000000
O O4 0.402125 0.494835 0.990867
O O5 0.249564 0.404989 0.250000
O O6 0.262740 0.250000 0.000000
O O7 0.204451 0.478409 0.992249
O O8 0.452565 0.250000 0.500000
O O9 0.500000 0.500000 0.500000
O O10 0.454165 0.410578 0.750000
O O11 0.847352 0.750000 0.500000
O O12 0.850863 0.913433 0.750000
O O13 0.899660 0.980544 0.496266
O O14 0.952273 0.912445 0.250000
O O15 0.955052 0.750000 0.000000
O O16 0.000000 0.000000 0.000000
#
# Coordination Sequence:
#
# PCOD9434537 Si02
#       5
#     8   8   8   8   8
#     4  11  24  41  61  87 120 157 196 238 289 343
#     4  10  20  35  57  84 112 145 187 235 285 339
#     4  12  25  43  66  92 123 157 197 241 289 341
#     4  10  18  31  53  80 109 144 186 232 283 339
#     4  11  21  36  56  81 112 147 188 234 286 342
#
# _framework density 18.931076000000001
#
# number of rings (size 3 to 8) (size 9 to 14) (size 15 to 20)
#    0.000    1.200    0.000   10.200    0.000    4.800 
#    0.000    1.000    0.000    2.400    0.000    0.000 
#    0.000    0.000    0.000    0.000    0.000    0.000 
#
# Total GULP energy -223620.850673 kJ/mol
# GULP energy per Si atom -5590.521267 kJ/mol
# Density = 1.888799 g / cm^3
# Si number density = 18.931076 Si / 1000 Ang^3
#
#
#
# Elastic Constant Matrix: (Units=GPa)
#
#
# Indices 1 2 3 4 5 6 
#
# 1 221.1968 88.8144 114.2890 0.0000 0.0000 0.0000
# 2 88.8144 108.4128 59.6950 0.0000 0.0000 0.0000
# 3 114.2890 59.6950 180.7204 0.0000 0.0000 0.0000
# 4 0.0000 0.0000 0.0000 29.5462 0.0000 0.0000
# 5 0.0000 0.0000 0.0000 0.0000 35.3968 0.0000
# 6 0.0000 0.0000 0.0000 0.0000 0.0000 30.4240
#
#
#
# Elastic Compliance Matrix: (Units=1/GPa)
#
#
# Indices 1 2 3 4 5 6 
#
# 1 0.008367 -0.004817 -0.003700 0.000000 0.000000 0.000000
# 2 -0.004817 0.014048 -0.001594 0.000000 0.000000 0.000000
# 3 -0.003700 -0.001594 0.008400 0.000000 0.000000 0.000000
# 4 0.000000 0.000000 0.000000 0.033845 0.000000 0.000000
# 5 0.000000 0.000000 0.000000 0.000000 0.028251 0.000000
# 6 0.000000 0.000000 0.000000 0.000000 0.000000 0.032869
#
#
# Mechanical properties :
#
#
# Convention : Reuss Voigt Hill
#
# Bulk Modulus (GPa) = 94.40635 115.10299 104.75467
# Shear Modulus (GPa) = 33.43761 35.57551 34.50656
#
# Velocity S-wave (km/s) = 4.20727 4.33969 4.27400
# Velocity P-wave (km/s) = 8.57778 9.27597 8.93370
#
# Compressibility (1/GPa) = 0.01059251
#
# Stress axis : x y z
#
# Youngs Moduli (GPa) = 119.52197 71.18570 119.04916
#
# Poissons Ratio (x) = 0.34289 0.44049
# Poissons Ratio (y) = 0.57572 0.18977
# Poissons Ratio (z) = 0.44224 0.11347
#
# Static dielectric constant tensor:
#      x y z
#    x 1.683830 0.000000 0.000000 
#    y 0.000000 1.546000 0.000000 
#    z 0.000000 0.000000 1.630940 
# 
# From -- ./inp_files/8907.got.cif
#   From: 2010.05.17/outbox.cif.g08.bks.cpg/sg57_5_cif.got.tgz:8907.got - 2010.06.03 13:58:18.
