data_PCOD9434977
_publ_section_title
;
Structure prediction by ZEFSAII (Michael W. Deem and Ramdas Pophale) SiO2 
 PCOD9434977
Probable space group: P B C M
;
_chemical_formula_sum "Si O2"
_cell_formula_units_Z 56
_cell_length_a 17.583370
_cell_length_b 22.667255
_cell_length_c 8.805056
_cell_angle_alpha 90.000000
_cell_angle_beta 90.000000
_cell_angle_gamma 90.000000
_cell_volume 3509.402391
_symmetry_space_group_name_H-M "P B C M"
_symmetry_group_IT_number 57
_symmetry_cell_setting 'orthorhombic'
loop_
_space_group_symop_operation_xyz
x,y,z
-x,-y,1/2+z
x,1/2-y,-z
-x,1/2+y,1/2-z
-x,-y,-z
x,y,1/2-z
-x,1/2+y,z
x,1/2-y,1/2+z
loop_
_atom_site_type_symbol
_atom_site_label
_atom_site_fract_x
_atom_site_fract_y
_atom_site_fract_z
Si Si1 0.729717 0.961458 0.428942
Si Si2 0.417618 0.186793 0.567881
Si Si3 0.745092 0.661884 0.072490
Si Si4 0.903001 0.694921 0.574459
Si Si5 0.554315 0.550416 0.568899
Si Si6 0.021342 0.089830 0.423739
Si Si7 0.115205 0.987866 0.926680
O O1 0.734031 0.943049 0.250000
O O2 0.752432 0.907331 0.535392
O O3 0.641025 0.971581 0.459697
O O4 0.794152 0.011092 0.450511
O O5 0.446838 0.250000 0.500000
O O6 0.423662 0.189634 0.750000
O O7 0.329103 0.182912 0.518606
O O8 0.449912 0.120746 0.519881
O O9 0.734071 0.673233 0.250000
O O10 0.823395 0.688035 0.013032
O O11 0.944493 0.750000 0.500000
O O12 0.887678 0.703287 0.750000
O O13 0.952416 0.637929 0.542125
O O14 0.500000 0.500000 0.500000
O O15 0.542333 0.551429 0.750000
O O16 0.035207 0.108971 0.250000
O O17 0.933484 0.071395 0.440959
O O18 0.073825 0.033319 0.461090
O O19 0.103098 0.007320 0.750000
#
# Coordination Sequence:
#
# PCOD9434977 Si02
#       7
#     8   8   8   8   8   8   8
#     4   9  17  31  49  70  96 129 162 196 237 285
#     4  10  20  34  50  71  98 131 166 202 241 294
#     4  11  20  30  45  68  95 126 162 199 233 280
#     4  12  23  34  45  60  88 126 162 200 241 284
#     4   9  19  33  50  73 103 133 165 202 246 295
#     4  10  19  30  45  69  93 118 157 197 236 279
#     4   9  17  30  49  68  93 124 153 193 238 278
#
# _framework density 15.957132
#
# number of rings (size 3 to 8) (size 9 to 14) (size 15 to 20)
#    0.000    2.000    1.429    4.714    0.000    3.429 
#    0.000    0.000    0.000    0.000    0.000    1.000 
#    0.000    2.286    0.000    0.000    0.000    0.000 
#
# Total GULP energy -311756.743791 kJ/mol
# GULP energy per Si atom -5567.084711 kJ/mol
# Density = 1.592081 g / cm^3
# Si number density = 15.957132 Si / 1000 Ang^3
#
#
#
# Elastic Constant Matrix: (Units=GPa)
#
#
# Indices 1 2 3 4 5 6 
#
# 1 68.2344 43.1157 19.7703 0.0000 0.0000 0.0000
# 2 43.1157 76.3614 21.1145 0.0000 0.0000 0.0000
# 3 19.7703 21.1145 48.2411 0.0000 0.0000 0.0000
# 4 0.0000 0.0000 0.0000 26.6295 0.0000 0.0000
# 5 0.0000 0.0000 0.0000 0.0000 13.3286 0.0000
# 6 0.0000 0.0000 0.0000 0.0000 0.0000 3.1021
#
#
#
# Elastic Compliance Matrix: (Units=1/GPa)
#
#
# Indices 1 2 3 4 5 6 
#
# 1 0.023564 -0.012099 -0.004362 0.000000 0.000000 0.000000
# 2 -0.012099 0.021111 -0.004282 0.000000 0.000000 0.000000
# 3 -0.004362 -0.004282 0.024391 0.000000 0.000000 0.000000
# 4 0.000000 0.000000 0.000000 0.037552 0.000000 0.000000
# 5 0.000000 0.000000 0.000000 0.000000 0.075026 0.000000
# 6 0.000000 0.000000 0.000000 0.000000 0.000000 0.322361
#
#
# Mechanical properties :
#
#
# Convention : Reuss Voigt Hill
#
# Bulk Modulus (GPa) = 36.25606 40.09310 38.17458
# Shear Modulus (GPa) = 9.01416 15.86782 12.44099
#
# Velocity S-wave (km/s) = 2.37934 3.15684 2.79525
# Velocity P-wave (km/s) = 5.50623 6.20222 5.86456
#
# Compressibility (1/GPa) = 0.02758159
#
# Stress axis : x y z
#
# Youngs Moduli (GPa) = 42.43747 47.36896 40.99930
#
# Poissons Ratio (x) = 0.57311 0.17882
# Poissons Ratio (y) = 0.51345 0.17554
# Poissons Ratio (z) = 0.18509 0.20281
#
# Static dielectric constant tensor:
#      x y z
#    x 1.532470 0.000000 0.000000 
#    y 0.000000 1.492780 0.000000 
#    z 0.000000 0.000000 1.548890 
# 
# From -- ./inp_files/7313.got.cif
#   From: 2010.05.17/outbox.cif.g08.bks.cpg/sg57_4_cif.got.tgz:7313.got - 2010.06.03 13:58:18.
