data_PCOD9434927
_publ_section_title
;
Structure prediction by ZEFSAII (Michael W. Deem and Ramdas Pophale) SiO2 
 PCOD9434927
Probable space group: P B C M
;
_chemical_formula_sum "Si O2"
_cell_formula_units_Z 64
_cell_length_a 14.998654
_cell_length_b 26.382070
_cell_length_c 7.599835
_cell_angle_alpha 90.000000
_cell_angle_beta 90.000000
_cell_angle_gamma 90.000000
_cell_volume 3007.220812
_symmetry_space_group_name_H-M "P B C M"
_symmetry_group_IT_number 57
_symmetry_cell_setting 'orthorhombic'
loop_
_space_group_symop_operation_xyz
x,y,z
-x,-y,1/2+z
x,1/2-y,-z
-x,1/2+y,1/2-z
-x,-y,-z
x,y,1/2-z
-x,1/2+y,z
x,1/2-y,1/2+z
loop_
_atom_site_type_symbol
_atom_site_label
_atom_site_fract_x
_atom_site_fract_y
_atom_site_fract_z
Si Si1 0.002069 0.310389 0.538967
Si Si2 0.100324 0.563599 0.545782
Si Si3 0.604241 0.000088 0.461746
Si Si4 0.196407 0.809127 0.538022
Si Si5 0.290939 0.597302 0.448747
Si Si6 0.910933 0.554403 0.964353
Si Si7 0.801598 0.691257 0.457620
Si Si8 0.721381 0.906746 0.040236
O O1 0.001237 0.250000 0.500000
O O2 0.001443 0.317379 0.750000
O O3 0.100475 0.324805 0.465128
O O4 0.902806 0.325585 0.472382
O O5 0.112412 0.576599 0.750000
O O6 0.188992 0.577433 0.443290
O O7 0.091222 0.502886 0.531909
O O8 0.002936 0.581308 0.478613
O O9 0.616571 0.001147 0.250000
O O10 0.651807 0.051567 0.530486
O O11 0.500000 0.000000 0.500000
O O12 0.650718 0.948036 0.527249
O O13 0.210335 0.750000 0.500000
O O14 0.195102 0.814341 0.750000
O O15 0.273274 0.847138 0.470230
O O16 0.325528 0.604568 0.250000
O O17 0.913130 0.553322 0.750000
O O18 0.818934 0.577681 0.027674
O O19 0.785249 0.750000 0.500000
O O20 0.811134 0.687872 0.250000
O O21 0.721855 0.653304 0.507976
O O22 0.721926 0.912737 0.250000
#
# Coordination Sequence:
#
# PCOD9434927 Si02
#       8
#     8   8   8   8   8   8   8   8
#     4   8  15  28  44  68 101 143 188 224 255 292
#     4  10  19  29  47  76 107 143 185 226 261 311
#     4  10  22  41  63  84 107 137 176 227 288 346
#     4   9  18  32  51  74 106 147 187 223 261 311
#     4  10  20  36  56  77 109 149 181 219 278 332
#     4   9  18  33  48  69 108 150 182 217 269 324
#     4  10  20  33  51  78 111 149 191 230 267 312
#     4  10  20  36  56  78 108 146 183 224 278 331
#
# _framework density 21.282108999999998
#
# number of rings (size 3 to 8) (size 9 to 14) (size 15 to 20)
#    0.000    2.500    1.250    0.750    1.750    3.000 
#    0.000    0.000    0.000    0.750    0.000    3.500 
#    0.000    0.000    0.000    0.000    0.000    0.000 
#
# Total GULP energy -356823.987396 kJ/mol
# GULP energy per Si atom -5575.374803 kJ/mol
# Density = 2.123367 g / cm^3
# Si number density = 21.282109 Si / 1000 Ang^3
#
#
#
# Elastic Constant Matrix: (Units=GPa)
#
#
# Indices 1 2 3 4 5 6 
#
# 1 111.6037 77.6948 2.5029 0.0000 0.0000 0.0000
# 2 77.6948 155.7296 5.8920 0.0000 0.0000 0.0000
# 3 2.5029 5.8920 65.9601 0.0000 0.0000 0.0000
# 4 0.0000 0.0000 0.0000 23.5941 0.0000 0.0000
# 5 0.0000 0.0000 0.0000 0.0000 14.3364 0.0000
# 6 0.0000 0.0000 0.0000 0.0000 0.0000 23.5601
#
#
#
# Elastic Compliance Matrix: (Units=1/GPa)
#
#
# Indices 1 2 3 4 5 6 
#
# 1 0.013729 -0.006853 0.000091 0.000000 0.000000 0.000000
# 2 -0.006853 0.009864 -0.000621 0.000000 0.000000 0.000000
# 3 0.000091 -0.000621 0.015213 0.000000 0.000000 0.000000
# 4 0.000000 0.000000 0.000000 0.042384 0.000000 0.000000
# 5 0.000000 0.000000 0.000000 0.000000 0.069752 0.000000
# 6 0.000000 0.000000 0.000000 0.000000 0.000000 0.042445
#
#
# Mechanical properties :
#
#
# Convention : Reuss Voigt Hill
#
# Bulk Modulus (GPa) = 41.59747 56.16365 48.88056
# Shear Modulus (GPa) = 23.13044 28.77835 25.95440
#
# Velocity S-wave (km/s) = 3.30032 3.68126 3.49598
# Velocity P-wave (km/s) = 5.84046 6.67205 6.27006
#
# Compressibility (1/GPa) = 0.02403992
#
# Stress axis : x y z
#
# Youngs Moduli (GPa) = 72.83820 101.37978 65.73455
#
# Poissons Ratio (x) = 0.69475 -0.00599
# Poissons Ratio (y) = 0.49916 0.04083
# Poissons Ratio (z) = -0.00664 0.06296
#
# Static dielectric constant tensor:
#      x y z
#    x 1.759500 0.000000 0.000000 
#    y 0.000000 1.705080 0.000000 
#    z 0.000000 0.000000 1.790980 
# 
# From -- ./inp_files/5671.got.cif
#   From: 2010.05.17/outbox.cif.g08.bks.cpg/sg57_3_cif.got.tgz:5671.got - 2010.06.03 13:58:18.
