data_PCOD9434714
_publ_section_title
;
Structure prediction by ZEFSAII (Michael W. Deem and Ramdas Pophale) SiO2 
 PCOD9434714
Probable space group: P B C M
;
_chemical_formula_sum "Si O2"
_cell_formula_units_Z 64
_cell_length_a 15.467294
_cell_length_b 9.716218
_cell_length_c 26.504111
_cell_angle_alpha 90.000000
_cell_angle_beta 90.000000
_cell_angle_gamma 90.000000
_cell_volume 3983.133226
_symmetry_space_group_name_H-M "P B C M"
_symmetry_group_IT_number 57
_symmetry_cell_setting 'orthorhombic'
loop_
_space_group_symop_operation_xyz
x,y,z
-x,-y,1/2+z
x,1/2-y,-z
-x,1/2+y,1/2-z
-x,-y,-z
x,y,1/2-z
-x,1/2+y,z
x,1/2-y,1/2+z
loop_
_atom_site_type_symbol
_atom_site_label
_atom_site_fract_x
_atom_site_fract_y
_atom_site_fract_z
Si Si1 0.351254 0.035509 0.893977
Si Si2 0.794169 0.602744 0.974762
Si Si3 0.419187 0.969005 0.308430
Si Si4 0.502270 0.129610 0.963665
Si Si5 0.403537 0.207483 0.807977
Si Si6 0.339304 0.787215 0.105222
Si Si7 0.018782 0.123582 0.962193
Si Si8 0.832068 0.354014 0.452511
O O1 0.280927 0.055181 0.937750
O O2 0.440003 0.092644 0.917792
O O3 0.337264 0.133552 0.845858
O O4 0.356243 0.873219 0.881954
O O5 0.884164 0.604018 0.942584
O O6 0.776455 0.750000 0.000000
O O7 0.806792 0.497977 0.021342
O O8 0.389286 0.959666 0.250000
O O9 0.511003 0.889216 0.309986
O O10 0.360071 0.887550 0.348138
O O11 0.424606 0.132579 0.321295
O O12 0.594719 0.171267 0.940147
O O13 0.469705 0.250000 0.000000
O O14 0.500000 0.000000 0.000000
O O15 0.373589 0.207424 0.750000
O O16 0.241946 0.807497 0.085583
O O17 0.930280 0.140632 0.930974
O O18 0.027178 0.250000 0.000000
O O19 0.000000 0.000000 0.000000
O O20 0.834152 0.250000 0.500000
#
# Coordination Sequence:
#
# PCOD9434714 Si02
#       8
#     8   8   8   8   8   8   8   8
#     4  12  23  35  52  75 102 139 175 214 253 301
#     4  10  20  33  49  78 107 138 175 213 252 304
#     4  10  22  39  57  75  97 128 172 221 264 307
#     4  12  24  35  45  68 106 144 173 201 238 296
#     4  10  22  39  57  75  97 129 171 221 266 305
#     4  12  23  35  52  76 100 140 178 209 257 301
#     4   8  16  30  51  71  99 137 173 210 254 292
#     4  10  18  34  52  73 107 142 172 211 250 304
#
# _framework density 16.067751999999999
#
# number of rings (size 3 to 8) (size 9 to 14) (size 15 to 20)
#    0.000    1.500    3.750    2.250    3.500    1.500 
#    0.000    0.000    0.000    0.000    0.000    0.875 
#    0.000    0.000    0.000    0.000    0.000    0.000 
#
# Total GULP energy -356613.288543 kJ/mol
# GULP energy per Si atom -5572.082633 kJ/mol
# Density = 1.603118 g / cm^3
# Si number density = 16.067752 Si / 1000 Ang^3
#
#
#
# Elastic Constant Matrix: (Units=GPa)
#
#
# Indices 1 2 3 4 5 6 
#
# 1 57.5231 -6.1582 6.0313 0.0000 0.0000 0.0000
# 2 -6.1582 131.8257 26.5447 0.0000 0.0000 0.0000
# 3 6.0313 26.5447 60.1877 0.0000 0.0000 0.0000
# 4 0.0000 0.0000 0.0000 27.3743 0.0000 0.0000
# 5 0.0000 0.0000 0.0000 0.0000 0.7043 0.0000
# 6 0.0000 0.0000 0.0000 0.0000 0.0000 15.9272
#
#
#
# Elastic Compliance Matrix: (Units=1/GPa)
#
#
# Indices 1 2 3 4 5 6 
#
# 1 0.017771 0.001305 -0.002356 0.000000 0.000000 0.000000
# 2 0.001305 0.008421 -0.003845 0.000000 0.000000 0.000000
# 3 -0.002356 -0.003845 0.018546 0.000000 0.000000 0.000000
# 4 0.000000 0.000000 0.000000 0.036531 0.000000 0.000000
# 5 0.000000 0.000000 0.000000 0.000000 1.419927 0.000000
# 6 0.000000 0.000000 0.000000 0.000000 0.000000 0.062786
#
#
# Mechanical properties :
#
#
# Convention : Reuss Voigt Hill
#
# Bulk Modulus (GPa) = 28.61561 33.59690 31.10625
# Shear Modulus (GPa) = 3.15373 23.67573 13.41473
#
# Velocity S-wave (km/s) = 1.40251 3.84278 2.89257
# Velocity P-wave (km/s) = 4.52446 6.37528 5.52788
#
# Compressibility (1/GPa) = 0.03494596
#
# Stress axis : x y z
#
# Youngs Moduli (GPa) = 56.27138 118.75243 53.91880
#
# Poissons Ratio (x) = -0.15493 0.12704
# Poissons Ratio (y) = -0.07341 0.20730
# Poissons Ratio (z) = 0.13259 0.45656
#
# Static dielectric constant tensor:
#      x y z
#    x 1.588270 0.000000 0.000000 
#    y 0.000000 1.592980 0.000000 
#    z 0.000000 0.000000 1.506500 
# 
# From -- ./inp_files/29914.got.cif
#   From: 2010.05.17/outbox.cif.g08.bks.cpg/sg57_15_cif.got.tgz:29914.got - 2010.06.03 13:58:18.
