data_PCOD9434934
_publ_section_title
;
Structure prediction by ZEFSAII (Michael W. Deem and Ramdas Pophale) SiO2 
 PCOD9434934
Probable space group: P B C M
;
_chemical_formula_sum "Si O2"
_cell_formula_units_Z 56
_cell_length_a 21.225371
_cell_length_b 14.416632
_cell_length_c 8.516985
_cell_angle_alpha 90.000000
_cell_angle_beta 90.000000
_cell_angle_gamma 90.000000
_cell_volume 2606.183466
_symmetry_space_group_name_H-M "P B C M"
_symmetry_group_IT_number 57
_symmetry_cell_setting 'orthorhombic'
loop_
_space_group_symop_operation_xyz
x,y,z
-x,-y,1/2+z
x,1/2-y,-z
-x,1/2+y,1/2-z
-x,-y,-z
x,y,1/2-z
-x,1/2+y,z
x,1/2-y,1/2+z
loop_
_atom_site_type_symbol
_atom_site_label
_atom_site_fract_x
_atom_site_fract_y
_atom_site_fract_z
Si Si1 0.191379 0.653157 0.931258
Si Si2 0.917932 0.900574 0.067257
Si Si3 0.521510 0.900240 0.062351
Si Si4 0.051002 0.599467 0.935893
Si Si5 0.784439 0.551736 0.937879
Si Si6 0.614130 0.345317 0.061572
Si Si7 0.650821 0.946365 0.562617
O O1 0.210728 0.644732 0.750000
O O2 0.115127 0.656410 0.940031
O O3 0.214864 0.750000 0.000000
O O4 0.210161 0.557014 0.014161
O O5 0.912544 0.875862 0.250000
O O6 0.984227 0.857702 0.009573
O O7 0.847229 0.894814 0.999114
O O8 0.934151 0.009434 0.041082
O O9 0.525707 0.899306 0.250000
O O10 0.459741 0.843675 0.014558
O O11 0.500000 0.000000 0.000000
O O12 0.591052 0.886421 0.994215
O O13 0.043675 0.572697 0.750000
O O14 0.785033 0.556867 0.750000
O O15 0.718165 0.587101 0.002169
O O16 0.617834 0.345432 0.250000
O O17 0.641069 0.445472 0.007921
O O18 0.643374 0.250000 0.000000
O O19 0.650224 0.947769 0.750000
#
# Coordination Sequence:
#
# PCOD9434934 Si02
#       7
#     8   8   8   8   8   8   8
#     4  10  19  30  43  60  86 119 152 184 221 268
#     4   8  14  25  41  61  82 103 134 176 220 261
#     4   9  17  31  49  70  93 119 153 192 233 275
#     4   8  14  25  41  59  79 105 137 176 218 257
#     4  10  19  30  45  65  89 118 150 185 225 270
#     4   9  19  32  48  70  94 119 150 187 226 270
#     4  10  20  33  47  67  95 127 160 192 228 275
#
# _framework density 21.487358
#
# number of rings (size 3 to 8) (size 9 to 14) (size 15 to 20)
#    0.000    2.857    0.000    2.571    0.000    5.143 
#    0.000    1.429    0.000    0.000    0.000    1.000 
#    0.000    2.286    0.000    0.000    0.000    0.000 
#
# Total GULP energy -311761.198119 kJ/mol
# GULP energy per Si atom -5567.164252 kJ/mol
# Density = 2.143845 g / cm^3
# Si number density = 21.487358 Si / 1000 Ang^3
#
#
#
# Elastic Constant Matrix: (Units=GPa)
#
#
# Indices 1 2 3 4 5 6 
#
# 1 196.7860 -7.9618 17.3164 0.0000 0.0000 0.0000
# 2 -7.9618 20.6656 -0.9101 0.0000 0.0000 0.0000
# 3 17.3164 -0.9101 15.4794 0.0000 0.0000 0.0000
# 4 0.0000 0.0000 0.0000 7.2175 0.0000 0.0000
# 5 0.0000 0.0000 0.0000 0.0000 25.7152 0.0000
# 6 0.0000 0.0000 0.0000 0.0000 0.0000 -5.3332
#
#
#
# Elastic Compliance Matrix: (Units=1/GPa)
#
#
# Indices 1 2 3 4 5 6 
#
# 1 0.005712 0.001924 -0.006277 0.000000 0.000000 0.000000
# 2 0.001924 0.049163 0.000738 0.000000 0.000000 0.000000
# 3 -0.006277 0.000738 0.071667 0.000000 0.000000 0.000000
# 4 0.000000 0.000000 0.000000 0.138552 0.000000 0.000000
# 5 0.000000 0.000000 0.000000 0.000000 0.038888 0.000000
# 6 0.000000 0.000000 0.000000 0.000000 0.000000 -0.187504
#
#
# Mechanical properties :
#
#
# Convention : Reuss Voigt Hill
#
# Bulk Modulus (GPa) = 8.38131 27.75780 18.06955
# Shear Modulus (GPa) = 30.58531 20.48566 25.53548
#
# Velocity S-wave (km/s) = 3.77690 3.09104 3.45105
# Velocity P-wave (km/s) = 4.78843 5.06810 4.93025
#
# Compressibility (1/GPa) = 0.11931309
#
# Stress axis : x y z
#
# Youngs Moduli (GPa) = 175.07542 20.34035 13.95349
#
# Poissons Ratio (x) = -0.03914 0.08758
# Poissons Ratio (y) = -0.33687 -0.01030
# Poissons Ratio (z) = 1.09887 -0.01501
#
# Static dielectric constant tensor:
#      x y z
#    x 1.881040 0.000000 0.000000 
#    y 0.000000 1.761290 0.000000 
#    z 0.000000 0.000000 1.737010 
# 
# From -- ./inp_files/8308.got.cif
#   From: 2010.05.17/outbox.cif.g08.bks.cpg/sg57_5_cif.got.tgz:8308.got - 2010.06.03 13:58:18.
