data_PCOD9434131
_publ_section_title
;
Structure prediction by ZEFSAII (Michael W. Deem and Ramdas Pophale) SiO2 
 PCOD9434131
Probable space group: P B C M
;
_chemical_formula_sum "Si O2"
_cell_formula_units_Z 40
_cell_length_a 13.725931
_cell_length_b 7.841567
_cell_length_c 15.880212
_cell_angle_alpha 90.000000
_cell_angle_beta 90.000000
_cell_angle_gamma 90.000000
_cell_volume 1709.231802
_symmetry_space_group_name_H-M "P B C M"
_symmetry_group_IT_number 57
_symmetry_cell_setting 'orthorhombic'
loop_
_space_group_symop_operation_xyz
x,y,z
-x,-y,1/2+z
x,1/2-y,-z
-x,1/2+y,1/2-z
-x,-y,-z
x,y,1/2-z
-x,1/2+y,z
x,1/2-y,1/2+z
loop_
_atom_site_type_symbol
_atom_site_label
_atom_site_fract_x
_atom_site_fract_y
_atom_site_fract_z
Si Si1 0.951571 0.926002 0.750000
Si Si2 0.651267 0.647610 0.847217
Si Si3 0.838762 0.803690 0.910515
Si Si4 0.151568 0.701612 0.250000
Si Si5 0.716425 0.385735 0.151940
Si Si6 0.473905 0.474577 0.903504
O O1 0.913625 0.828353 0.833550
O O2 0.906361 0.116143 0.750000
O O3 0.068128 0.935353 0.750000
O O4 0.674615 0.671013 0.750000
O O5 0.753263 0.665274 0.894631
O O6 0.575582 0.493969 0.855585
O O7 0.584471 0.803317 0.881964
O O8 0.778999 0.983679 0.904584
O O9 0.883406 0.750000 0.000000
O O10 0.222583 0.713890 0.330782
O O11 0.710232 0.452499 0.250000
O O12 0.607358 0.383575 0.119686
O O13 0.500000 0.500000 0.000000
#
# Coordination Sequence:
#
# PCOD9434131 Si02
#       6
#     4   8   8   4   8   8
#     4  10  18  38  53  84  96 138 177 222 273 324
#     4  11  20  34  52  79 109 148 185 221 268 329
#     4  10  17  31  55  78 107 136 179 225 265 317
#     4   8  18  34  63  68 104 136 183 218 269 328
#     4   8  16  34  51  72 100 151 176 202 272 339
#     4  11  20  32  52  79 109 142 188 220 266 327
#
# _framework density 23.402325999999999
#
# number of rings (size 3 to 8) (size 9 to 14) (size 15 to 20)
#    0.600    1.600    2.000    6.000    0.000    0.000 
#    0.000    6.000    0.000    2.400    0.000    0.000 
#    0.000    0.000    0.000    0.000    0.000    0.000 
#
# Total GULP energy -223153.161526 kJ/mol
# GULP energy per Si atom -5578.829038 kJ/mol
# Density = 2.334906 g / cm^3
# Si number density = 23.402326 Si / 1000 Ang^3
#
#
#
# Elastic Constant Matrix: (Units=GPa)
#
#
# Indices 1 2 3 4 5 6 
#
# 1 87.8472 2.8932 -9.7501 0.0000 0.0000 0.0000
# 2 2.8932 63.8256 -5.6715 0.0000 0.0000 0.0000
# 3 -9.7501 -5.6715 95.8686 0.0000 0.0000 0.0000
# 4 0.0000 0.0000 0.0000 1.9505 0.0000 0.0000
# 5 0.0000 0.0000 0.0000 0.0000 6.5937 0.0000
# 6 0.0000 0.0000 0.0000 0.0000 0.0000 36.3296
#
#
#
# Elastic Compliance Matrix: (Units=1/GPa)
#
#
# Indices 1 2 3 4 5 6 
#
# 1 0.011525 -0.000420 0.001147 0.000000 0.000000 0.000000
# 2 -0.000420 0.015766 0.000890 0.000000 0.000000 0.000000
# 3 0.001147 0.000890 0.010600 0.000000 0.000000 0.000000
# 4 0.000000 0.000000 0.000000 0.512684 0.000000 0.000000
# 5 0.000000 0.000000 0.000000 0.000000 0.151660 0.000000
# 6 0.000000 0.000000 0.000000 0.000000 0.000000 0.027526
#
#
# Mechanical properties :
#
#
# Convention : Reuss Voigt Hill
#
# Bulk Modulus (GPa) = 24.31672 24.72054 24.51863
# Shear Modulus (GPa) = 6.75461 26.31274 16.53367
#
# Velocity S-wave (km/s) = 1.70075 3.35679 2.66088
# Velocity P-wave (km/s) = 3.77757 5.06066 4.46544
#
# Compressibility (1/GPa) = 0.04112397
#
# Stress axis : x y z
#
# Youngs Moduli (GPa) = 86.77110 63.42832 94.33726
#
# Poissons Ratio (x) = 0.02667 -0.10822
# Poissons Ratio (y) = 0.03649 -0.08395
# Poissons Ratio (z) = -0.09954 -0.05645
#
# Static dielectric constant tensor:
#      x y z
#    x 1.828080 0.000000 0.000000 
#    y 0.000000 2.103080 0.000000 
#    z 0.000000 0.000000 1.828320 
# 
# From -- ./inp_files/18336.got.cif
#   From: 2010.05.17/outbox.cif.g08.bks.cpg/sg57_10_cif.got.tgz:18336.got - 2010.06.03 13:58:18.
