data_PCOD9434440
_publ_section_title
;
Structure prediction by ZEFSAII (Michael W. Deem and Ramdas Pophale) SiO2 
 PCOD9434440
Probable space group: P B C M
;
_chemical_formula_sum "Si O2"
_cell_formula_units_Z 64
_cell_length_a 21.159026
_cell_length_b 21.147984
_cell_length_c 8.718733
_cell_angle_alpha 90.000000
_cell_angle_beta 90.000000
_cell_angle_gamma 90.000000
_cell_volume 3901.377936
_symmetry_space_group_name_H-M "P B C M"
_symmetry_group_IT_number 57
_symmetry_cell_setting 'orthorhombic'
loop_
_space_group_symop_operation_xyz
x,y,z
-x,-y,1/2+z
x,1/2-y,-z
-x,1/2+y,1/2-z
-x,-y,-z
x,y,1/2-z
-x,1/2+y,z
x,1/2-y,1/2+z
loop_
_atom_site_type_symbol
_atom_site_label
_atom_site_fract_x
_atom_site_fract_y
_atom_site_fract_z
Si Si1 0.333826 0.501153 0.430487
Si Si2 0.543566 0.056136 0.931677
Si Si3 0.920538 0.685086 0.930541
Si Si4 0.197772 0.471194 0.432474
Si Si5 0.486026 0.316665 0.566846
Si Si6 0.788907 0.662965 0.427726
Si Si7 0.346925 0.360848 0.934635
Si Si8 0.944315 0.958042 0.067052
O O1 0.347034 0.507844 0.250000
O O2 0.384172 0.541583 0.523645
O O3 0.259085 0.514988 0.455643
O O4 0.344682 0.428076 0.479406
O O5 0.535624 0.056002 0.750000
O O6 0.521789 0.122808 0.999990
O O7 0.500000 0.000000 0.000000
O O8 0.930620 0.686372 0.750000
O O9 0.942793 0.615589 0.989133
O O10 0.947720 0.750000 0.000000
O O11 0.845482 0.686143 0.966259
O O12 0.200796 0.451606 0.250000
O O13 0.208618 0.412461 0.545381
O O14 0.124987 0.489199 0.460631
O O15 0.508091 0.250000 0.500000
O O16 0.491657 0.316577 0.750000
O O17 0.411920 0.326473 0.527126
O O18 0.800870 0.679092 0.250000
O O19 0.716851 0.677670 0.471626
O O20 0.345613 0.372463 0.750000
O O21 0.952009 0.954881 0.250000
O O22 0.000000 0.000000 0.000000
#
# Coordination Sequence:
#
# PCOD9434440 Si02
#       8
#     8   8   8   8   8   8   8   8
#     4  10  18  30  52  76  99 130 166 209 258 300
#     4  12  23  36  54  77 101 130 170 216 262 308
#     4  10  20  33  47  67  96 131 170 210 245 289
#     4   8  16  30  46  70 102 132 164 203 246 295
#     4  11  23  38  52  70  99 133 169 213 262 314
#     4   9  16  27  44  67  94 128 166 204 241 281
#     4   9  18  31  47  68  97 131 168 206 244 293
#     4   9  18  32  50  74 104 135 168 205 246 295
#
# _framework density 16.40446
#
# number of rings (size 3 to 8) (size 9 to 14) (size 15 to 20)
#    0.000    2.250    1.250    3.375    0.000    4.500 
#    0.000    1.250    0.000    0.000    0.000    0.875 
#    0.000    2.000    0.000    0.000    0.000    0.000 
#
# Total GULP energy -356571.518456 kJ/mol
# GULP energy per Si atom -5571.429976 kJ/mol
# Density = 1.636712 g / cm^3
# Si number density = 16.404460 Si / 1000 Ang^3
#
#
#
# Elastic Constant Matrix: (Units=GPa)
#
#
# Indices 1 2 3 4 5 6 
#
# 1 100.2365 58.7265 32.7944 0.0000 0.0000 0.0000
# 2 58.7265 101.5516 36.7469 0.0000 0.0000 0.0000
# 3 32.7944 36.7469 41.4955 0.0000 0.0000 0.0000
# 4 0.0000 0.0000 0.0000 24.3851 0.0000 0.0000
# 5 0.0000 0.0000 0.0000 0.0000 24.7401 0.0000
# 6 0.0000 0.0000 0.0000 0.0000 0.0000 8.6625
#
#
#
# Elastic Compliance Matrix: (Units=1/GPa)
#
#
# Indices 1 2 3 4 5 6 
#
# 1 0.016247 -0.006989 -0.006651 0.000000 0.000000 0.000000
# 2 -0.006989 0.017497 -0.009971 0.000000 0.000000 0.000000
# 3 -0.006651 -0.009971 0.038186 0.000000 0.000000 0.000000
# 4 0.000000 0.000000 0.000000 0.041009 0.000000 0.000000
# 5 0.000000 0.000000 0.000000 0.000000 0.040420 0.000000
# 6 0.000000 0.000000 0.000000 0.000000 0.000000 0.115440
#
#
# Mechanical properties :
#
#
# Convention : Reuss Voigt Hill
#
# Bulk Modulus (GPa) = 40.47417 55.53548 48.00483
# Shear Modulus (GPa) = 15.41985 19.22526 17.32255
#
# Velocity S-wave (km/s) = 3.06923 3.42709 3.25309
# Velocity P-wave (km/s) = 6.10627 7.04183 6.59067
#
# Compressibility (1/GPa) = 0.02470711
#
# Stress axis : x y z
#
# Youngs Moduli (GPa) = 61.54955 57.15288 26.18766
#
# Poissons Ratio (x) = 0.39943 0.17418
# Poissons Ratio (y) = 0.43015 0.26113
# Poissons Ratio (z) = 0.40938 0.56989
#
# Static dielectric constant tensor:
#      x y z
#    x 1.577260 0.000000 0.000000 
#    y 0.000000 1.564910 0.000000 
#    z 0.000000 0.000000 1.552880 
# 
# From -- ./inp_files/8708.got.cif
#   From: 2010.05.17/outbox.cif.g08.bks.cpg/sg57_5_cif.got.tgz:8708.got - 2010.06.03 13:58:18.
