data_PCOD9434504
_publ_section_title
;
Structure prediction by ZEFSAII (Michael W. Deem and Ramdas Pophale) SiO2 
 PCOD9434504
Probable space group: P B C M
;
_chemical_formula_sum "Si O2"
_cell_formula_units_Z 40
_cell_length_a 9.591812
_cell_length_b 26.875170
_cell_length_c 8.615775
_cell_angle_alpha 90.000000
_cell_angle_beta 90.000000
_cell_angle_gamma 90.000000
_cell_volume 2220.988076
_symmetry_space_group_name_H-M "P B C M"
_symmetry_group_IT_number 57
_symmetry_cell_setting 'orthorhombic'
loop_
_space_group_symop_operation_xyz
x,y,z
-x,-y,1/2+z
x,1/2-y,-z
-x,1/2+y,1/2-z
-x,-y,-z
x,y,1/2-z
-x,1/2+y,z
x,1/2-y,1/2+z
loop_
_atom_site_type_symbol
_atom_site_label
_atom_site_fract_x
_atom_site_fract_y
_atom_site_fract_z
Si Si1 0.338732 0.602792 0.563047
Si Si2 0.845341 0.303214 0.063536
Si Si3 0.170307 0.196182 0.563352
Si Si4 0.346395 0.104603 0.435263
Si Si5 0.658587 0.999087 0.064531
O O1 0.342978 0.600217 0.750000
O O2 0.247177 0.650047 0.513586
O O3 0.496056 0.608709 0.500517
O O4 0.279171 0.550629 0.498378
O O5 0.840429 0.301214 0.250000
O O6 0.007343 0.309730 0.018389
O O7 0.796245 0.250000 0.000000
O O8 0.216335 0.250000 0.500000
O O9 0.180612 0.195403 0.750000
O O10 0.259307 0.151704 0.492302
O O11 0.351585 0.101969 0.250000
O O12 0.283001 0.052940 0.501247
O O13 0.656756 0.998894 0.250000
O O14 0.500000 0.000000 0.000000
#
# Coordination Sequence:
#
# PCOD9434504 Si02
#       5
#     8   8   8   8   8
#     4  10  19  34  54  79 107 137 171 214 259 307
#     4   9  20  36  56  77 103 136 172 211 258 308
#     4  10  20  37  56  77 103 136 173 213 258 308
#     4  11  21  34  53  79 106 138 174 213 256 305
#     4  10  18  31  51  76 104 137 171 211 258 308
#
# _framework density 18.010002
#
# number of rings (size 3 to 8) (size 9 to 14) (size 15 to 20)
#    0.000    2.000    0.000    7.200    0.000    3.200 
#    0.000    3.000    0.000    0.000    0.000    0.000 
#    0.000    0.000    0.000    0.000    0.000    0.000 
#
# Total GULP energy -223229.430871 kJ/mol
# GULP energy per Si atom -5580.735772 kJ/mol
# Density = 1.796901 g / cm^3
# Si number density = 18.010002 Si / 1000 Ang^3
#
#
#
# Elastic Constant Matrix: (Units=GPa)
#
#
# Indices 1 2 3 4 5 6 
#
# 1 43.8428 73.6417 27.7357 0.0000 0.0000 0.0000
# 2 73.6417 227.4929 68.6527 0.0000 0.0000 0.0000
# 3 27.7357 68.6527 113.9655 0.0000 0.0000 0.0000
# 4 0.0000 0.0000 0.0000 37.9292 0.0000 0.0000
# 5 0.0000 0.0000 0.0000 0.0000 4.9538 0.0000
# 6 0.0000 0.0000 0.0000 0.0000 0.0000 -100.6136
#
#
#
# Elastic Compliance Matrix: (Units=1/GPa)
#
#
# Indices 1 2 3 4 5 6 
#
# 1 0.050817 -0.015544 -0.003004 0.000000 0.000000 0.000000
# 2 -0.015544 0.010127 -0.002318 0.000000 0.000000 0.000000
# 3 -0.003004 -0.002318 0.010902 0.000000 0.000000 0.000000
# 4 0.000000 0.000000 0.000000 0.026365 0.000000 0.000000
# 5 0.000000 0.000000 0.000000 0.000000 0.201864 0.000000
# 6 0.000000 0.000000 0.000000 0.000000 0.000000 -0.009939
#
#
# Mechanical properties :
#
#
# Convention : Reuss Voigt Hill
#
# Bulk Modulus (GPa) = 33.20523 80.59570 56.90047
# Shear Modulus (GPa) = 14.62399 2.80529 8.71464
#
# Velocity S-wave (km/s) = 2.85264 1.24940 2.20211
# Velocity P-wave (km/s) = 5.41546 6.85048 6.17480
#
# Compressibility (1/GPa) = 0.03011574
#
# Stress axis : x y z
#
# Youngs Moduli (GPa) = 19.67835 98.74866 91.72861
#
# Poissons Ratio (x) = 1.53490 0.27555
# Poissons Ratio (y) = 0.30587 0.21258
# Poissons Ratio (z) = 0.05911 0.22885
#
# Static dielectric constant tensor:
#      x y z
#    x 1.606610 0.000000 0.000000 
#    y 0.000000 1.642580 0.000000 
#    z 0.000000 0.000000 1.600430 
# 
# From -- ./inp_files/1738.got.cif
#   From: 2010.05.17/outbox.cif.g08.bks.cpg/sg57_1_cif.got.tgz:1738.got - 2010.06.03 13:58:18.
