data_PCOD9434132
_publ_section_title
;
Structure prediction by ZEFSAII (Michael W. Deem and Ramdas Pophale) SiO2 
 PCOD9434132
Probable space group: P B C M
;
_chemical_formula_sum "Si O2"
_cell_formula_units_Z 56
_cell_length_a 15.546078
_cell_length_b 13.380354
_cell_length_c 14.577533
_cell_angle_alpha 90.000000
_cell_angle_beta 90.000000
_cell_angle_gamma 90.000000
_cell_volume 3032.302187
_symmetry_space_group_name_H-M "P B C M"
_symmetry_group_IT_number 57
_symmetry_cell_setting 'orthorhombic'
loop_
_space_group_symop_operation_xyz
x,y,z
-x,-y,1/2+z
x,1/2-y,-z
-x,1/2+y,1/2-z
-x,-y,-z
x,y,1/2-z
-x,1/2+y,z
x,1/2-y,1/2+z
loop_
_atom_site_type_symbol
_atom_site_label
_atom_site_fract_x
_atom_site_fract_y
_atom_site_fract_z
Si Si1 0.908099 0.975137 0.140408
Si Si2 0.099990 0.457510 0.860099
Si Si3 0.767405 0.029483 0.503251
Si Si4 0.406162 0.632845 0.001128
Si Si5 0.525375 0.972917 0.142459
Si Si6 0.331078 0.338341 0.058960
Si Si7 0.154580 0.238653 0.859336
O O1 0.894952 0.986140 0.250000
O O2 0.902655 0.857415 0.116926
O O3 0.830593 0.025442 0.084537
O O4 0.001954 0.015926 0.116813
O O5 0.108664 0.463847 0.750000
O O6 0.169288 0.527067 0.910226
O O7 0.120508 0.344738 0.892752
O O8 0.710536 0.927322 0.501330
O O9 0.696260 0.114709 0.498554
O O10 0.447294 0.573847 0.088195
O O11 0.424709 0.750000 0.000000
O O12 0.446409 0.576656 0.912658
O O13 0.510184 0.988625 0.250000
O O14 0.603642 0.894454 0.126110
O O15 0.250268 0.286002 0.107456
O O16 0.373619 0.250000 0.000000
O O17 0.155757 0.244865 0.750000
#
# Coordination Sequence:
#
# PCOD9434132 Si02
#       7
#     8   8   8   8   8   8   8
#     4   9  19  34  53  77 109 149 194 241 285 341
#     4  10  19  33  51  78 113 146 188 240 291 342
#     4  10  20  35  55  78 110 151 189 231 287 346
#     4  10  23  43  61  87 125 155 193 245 295 354
#     4  10  22  40  65  90 116 155 199 241 289 351
#     4  10  17  31  56  85 116 143 187 238 286 341
#     4   9  17  30  50  76 108 144 185 234 288 334
#
# _framework density 18.467815000000002
#
# number of rings (size 3 to 8) (size 9 to 14) (size 15 to 20)
#    0.000    2.286    1.429    1.286    0.000    4.571 
#    2.571    0.000    0.000    0.000    0.000    0.000 
#    0.000    0.000    0.000    0.000    0.000    0.000 
#
# Total GULP energy -312364.916046 kJ/mol
# GULP energy per Si atom -5577.944929 kJ/mol
# Density = 1.842578 g / cm^3
# Si number density = 18.467815 Si / 1000 Ang^3
#
#
#
# Elastic Constant Matrix: (Units=GPa)
#
#
# Indices 1 2 3 4 5 6 
#
# 1 92.2695 35.2325 41.0070 0.0000 0.0000 0.0000
# 2 35.2325 80.9404 43.1744 0.0000 0.0000 0.0000
# 3 41.0070 43.1744 112.1440 0.0000 0.0000 0.0000
# 4 0.0000 0.0000 0.0000 14.3000 0.0000 0.0000
# 5 0.0000 0.0000 0.0000 0.0000 24.4906 0.0000
# 6 0.0000 0.0000 0.0000 0.0000 0.0000 0.0929
#
#
#
# Elastic Compliance Matrix: (Units=1/GPa)
#
#
# Indices 1 2 3 4 5 6 
#
# 1 0.014006 -0.004234 -0.003491 0.000000 0.000000 0.000000
# 2 -0.004234 0.016828 -0.004930 0.000000 0.000000 0.000000
# 3 -0.003491 -0.004930 0.012092 0.000000 0.000000 0.000000
# 4 0.000000 0.000000 0.000000 0.069930 0.000000 0.000000
# 5 0.000000 0.000000 0.000000 0.000000 0.040832 0.000000
# 6 0.000000 0.000000 0.000000 0.000000 0.000000 10.764281
#
#
# Mechanical properties :
#
#
# Convention : Reuss Voigt Hill
#
# Bulk Modulus (GPa) = 56.77310 58.24241 57.50776
# Shear Modulus (GPa) = 0.45666 18.83938 9.64802
#
# Velocity S-wave (km/s) = 0.49780 3.19740 2.28814
# Velocity P-wave (km/s) = 5.58021 6.72583 6.17963
#
# Compressibility (1/GPa) = 0.01761397
#
# Stress axis : x y z
#
# Youngs Moduli (GPa) = 71.39593 59.42550 82.70039
#
# Poissons Ratio (x) = 0.25164 0.28874
# Poissons Ratio (y) = 0.30233 0.40772
# Poissons Ratio (z) = 0.24927 0.29298
#
# Static dielectric constant tensor:
#      x y z
#    x 1.630320 0.000000 0.000000 
#    y 0.000000 1.772680 0.000000 
#    z 0.000000 0.000000 1.645000 
# 
# From -- ./inp_files/18609.got.cif
#   From: 2010.05.17/outbox.cif.g08.bks.cpg/sg57_10_cif.got.tgz:18609.got - 2010.06.03 13:58:18.
