data_PCOD9434309
_publ_section_title
;
Structure prediction by ZEFSAII (Michael W. Deem and Ramdas Pophale) SiO2 
 PCOD9434309
Probable space group: P B C M
;
_chemical_formula_sum "Si O2"
_cell_formula_units_Z 56
_cell_length_a 21.264644
_cell_length_b 18.895957
_cell_length_c 8.685254
_cell_angle_alpha 90.000000
_cell_angle_beta 90.000000
_cell_angle_gamma 90.000000
_cell_volume 3489.872272
_symmetry_space_group_name_H-M "P B C M"
_symmetry_group_IT_number 57
_symmetry_cell_setting 'orthorhombic'
loop_
_space_group_symop_operation_xyz
x,y,z
-x,-y,1/2+z
x,1/2-y,-z
-x,1/2+y,1/2-z
-x,-y,-z
x,y,1/2-z
-x,1/2+y,z
x,1/2-y,1/2+z
loop_
_atom_site_type_symbol
_atom_site_label
_atom_site_fract_x
_atom_site_fract_y
_atom_site_fract_z
Si Si1 0.435957 0.965626 0.934952
Si Si2 0.058966 0.955913 0.065486
Si Si3 0.750495 0.827405 0.065611
Si Si4 0.618729 0.891032 0.436707
Si Si5 0.865372 0.912992 0.564858
Si Si6 0.006856 0.328498 0.934193
Si Si7 0.516432 0.327524 0.434849
O O1 0.438863 0.961273 0.750000
O O2 0.384975 0.025614 0.978072
O O3 0.435509 0.887352 0.004659
O O4 0.500000 0.000000 0.000000
O O5 0.054886 0.953114 0.250000
O O6 0.118194 0.005540 0.024698
O O7 0.049036 0.878280 0.997335
O O8 0.000000 0.000000 0.000000
O O9 0.749285 0.823790 0.250000
O O10 0.681846 0.853138 0.008993
O O11 0.764709 0.750000 0.000000
O O12 0.804044 0.881589 0.013095
O O13 0.618540 0.888324 0.250000
O O14 0.554142 0.852232 0.486064
O O15 0.859091 0.908509 0.750000
O O16 0.926510 0.865456 0.521743
O O17 0.004285 0.327494 0.750000
O O18 0.004133 0.250000 0.000000
O O19 0.529201 0.250000 0.500000
O O20 0.517342 0.326976 0.250000
#
# Coordination Sequence:
#
# PCOD9434309 Si02
#       7
#     8   8   8   8   8   8   8
#     4   9  16  29  46  64  88 116 148 186 226 270
#     4   9  17  30  47  65  88 116 149 186 226 269
#     4  11  21  32  46  65  90 122 156 187 218 256
#     4   8  17  31  45  63  89 120 153 186 220 261
#     4   9  19  33  46  64  90 121 153 186 220 260
#     4  10  19  30  46  68  94 120 149 184 226 269
#     4  10  18  29  45  67  93 119 149 185 227 271
#
# _framework density 16.046433
#
# number of rings (size 3 to 8) (size 9 to 14) (size 15 to 20)
#    0.000    2.571    0.000    4.714    0.000    4.571 
#    0.000    7.857    0.000    0.000    0.000    1.000 
#    0.000    6.857    0.000    0.000    0.000    0.000 
#
# Total GULP energy -311954.463180 kJ/mol
# GULP energy per Si atom -5570.615414 kJ/mol
# Density = 1.600991 g / cm^3
# Si number density = 16.046433 Si / 1000 Ang^3
#
#
#
# Elastic Constant Matrix: (Units=GPa)
#
#
# Indices 1 2 3 4 5 6 
#
# 1 16.2423 -7.6312 3.0337 0.0000 0.0000 0.0000
# 2 -7.6312 77.5072 16.6708 0.0000 0.0000 0.0000
# 3 3.0337 16.6708 37.6323 0.0000 0.0000 0.0000
# 4 0.0000 0.0000 0.0000 28.3589 0.0000 0.0000
# 5 0.0000 0.0000 0.0000 0.0000 16.6011 0.0000
# 6 0.0000 0.0000 0.0000 0.0000 0.0000 25.7246
#
#
#
# Elastic Compliance Matrix: (Units=1/GPa)
#
#
# Indices 1 2 3 4 5 6 
#
# 1 0.067345 0.008620 -0.009247 0.000000 0.000000 0.000000
# 2 0.008620 0.015364 -0.007501 0.000000 0.000000 0.000000
# 3 -0.009247 -0.007501 0.030641 0.000000 0.000000 0.000000
# 4 0.000000 0.000000 0.000000 0.035262 0.000000 0.000000
# 5 0.000000 0.000000 0.000000 0.000000 0.060237 0.000000
# 6 0.000000 0.000000 0.000000 0.000000 0.000000 0.038873
#
#
# Mechanical properties :
#
#
# Convention : Reuss Voigt Hill
#
# Bulk Modulus (GPa) = 10.29945 17.28093 13.79019
# Shear Modulus (GPa) = 16.87228 22.09083 19.48156
#
# Velocity S-wave (km/s) = 3.24615 3.71439 3.48814
# Velocity P-wave (km/s) = 4.52575 5.40262 4.98351
#
# Compressibility (1/GPa) = 0.09709258
#
# Stress axis : x y z
#
# Youngs Moduli (GPa) = 14.84898 65.08703 32.63574
#
# Poissons Ratio (x) = -0.56102 0.30179
# Poissons Ratio (y) = -0.12799 0.24480
# Poissons Ratio (z) = 0.13731 0.48822
#
# Static dielectric constant tensor:
#      x y z
#    x 1.541230 0.000000 0.000000 
#    y 0.000000 1.509180 0.000000 
#    z 0.000000 0.000000 1.538930 
# 
# From -- ./inp_files/9517.got.cif
#   From: 2010.05.17/outbox.cif.g08.bks.cpg/sg57_5_cif.got.tgz:9517.got - 2010.06.03 13:58:18.
