data_PCOD9434501
_publ_section_title
;
Structure prediction by ZEFSAII (Michael W. Deem and Ramdas Pophale) SiO2 
 PCOD9434501
Probable space group: P B C M
;
_chemical_formula_sum "Si O2"
_cell_formula_units_Z 64
_cell_length_a 23.974561
_cell_length_b 17.815906
_cell_length_c 8.475511
_cell_angle_alpha 90.000000
_cell_angle_beta 90.000000
_cell_angle_gamma 90.000000
_cell_volume 3620.132513
_symmetry_space_group_name_H-M "P B C M"
_symmetry_group_IT_number 57
_symmetry_cell_setting 'orthorhombic'
loop_
_space_group_symop_operation_xyz
x,y,z
-x,-y,1/2+z
x,1/2-y,-z
-x,1/2+y,1/2-z
-x,-y,-z
x,y,1/2-z
-x,1/2+y,z
x,1/2-y,1/2+z
loop_
_atom_site_type_symbol
_atom_site_label
_atom_site_fract_x
_atom_site_fract_y
_atom_site_fract_z
Si Si1 0.633535 0.057380 0.438941
Si Si2 0.937367 0.833506 0.561699
Si Si3 0.542204 0.166266 0.059092
Si Si4 0.682718 0.831416 0.937105
Si Si5 0.965868 0.427673 0.438422
Si Si6 0.742235 0.521919 0.560440
Si Si7 0.130543 0.020897 0.559841
Si Si8 0.429627 0.086929 0.060910
O O1 0.637945 0.063214 0.250000
O O2 0.600431 0.130132 0.496980
O O3 0.695099 0.036288 0.500656
O O4 0.593280 0.987448 0.478616
O O5 0.923578 0.750000 0.500000
O O6 0.934864 0.834257 0.750000
O O7 0.897133 0.900488 0.498374
O O8 0.999804 0.857469 0.506360
O O9 0.541518 0.166201 0.250000
O O10 0.489844 0.115221 0.007394
O O11 0.534833 0.250000 0.000000
O O12 0.690755 0.835132 0.750000
O O13 0.617800 0.850494 0.970132
O O14 0.697274 0.750000 0.000000
O O15 0.718902 0.896418 0.016316
O O16 0.967376 0.424839 0.250000
O O17 0.904550 0.449512 0.497787
O O18 0.000000 0.500000 0.500000
O O19 0.743544 0.515575 0.750000
O O20 0.805561 0.514268 0.505092
O O21 0.127810 0.021714 0.750000
O O22 0.431075 0.074073 0.250000
#
# Coordination Sequence:
#
# PCOD9434501 Si02
#       8
#     8   8   8   8   8   8   8   8
#     4   9  18  33  51  71  94 125 162 203 246 292
#     4  11  21  34  52  77 108 137 163 197 241 288
#     4  10  20  32  48  71  98 123 155 197 247 301
#     4  10  19  30  45  65  94 127 161 198 241 292
#     4  10  18  31  51  75 102 132 164 198 236 280
#     4   9  19  34  51  69  93 127 167 205 244 285
#     4  10  19  33  52  74  98 130 170 207 242 287
#     4   9  18  31  47  70  95 123 157 197 243 297
#
# _framework density 17.678909999999998
#
# number of rings (size 3 to 8) (size 9 to 14) (size 15 to 20)
#    0.000    2.250    0.000    5.250    0.000    3.000 
#    0.000    0.000    0.000    0.750    0.000    1.750 
#    0.000    0.000    0.000    0.000    0.000    0.000 
#
# Total GULP energy -356833.784768 kJ/mol
# GULP energy per Si atom -5575.527887 kJ/mol
# Density = 1.763867 g / cm^3
# Si number density = 17.678910 Si / 1000 Ang^3
#
#
#
# Elastic Constant Matrix: (Units=GPa)
#
#
# Indices 1 2 3 4 5 6 
#
# 1 132.5869 25.7297 21.2024 0.0000 0.0000 0.0000
# 2 25.7297 23.9096 6.5934 0.0000 0.0000 0.0000
# 3 21.2024 6.5934 47.2081 0.0000 0.0000 0.0000
# 4 0.0000 0.0000 0.0000 19.8947 0.0000 0.0000
# 5 0.0000 0.0000 0.0000 0.0000 17.3949 0.0000
# 6 0.0000 0.0000 0.0000 0.0000 0.0000 11.9354
#
#
#
# Elastic Compliance Matrix: (Units=1/GPa)
#
#
# Indices 1 2 3 4 5 6 
#
# 1 0.009949 -0.009853 -0.003092 0.000000 0.000000 0.000000
# 2 -0.009853 0.053259 -0.003013 0.000000 0.000000 0.000000
# 3 -0.003092 -0.003013 0.022992 0.000000 0.000000 0.000000
# 4 0.000000 0.000000 0.000000 0.050265 0.000000 0.000000
# 5 0.000000 0.000000 0.000000 0.000000 0.057488 0.000000
# 6 0.000000 0.000000 0.000000 0.000000 0.000000 0.083784
#
#
# Mechanical properties :
#
#
# Convention : Reuss Voigt Hill
#
# Bulk Modulus (GPa) = 18.42210 34.52840 26.47525
# Shear Modulus (GPa) = 15.25562 19.85694 17.55628
#
# Velocity S-wave (km/s) = 2.94075 3.35505 3.15471
# Velocity P-wave (km/s) = 4.68761 5.88062 5.31768
#
# Compressibility (1/GPa) = 0.05428263
#
# Stress axis : x y z
#
# Youngs Moduli (GPa) = 100.51424 18.77634 43.49272
#
# Poissons Ratio (x) = 0.18501 0.13448
# Poissons Ratio (y) = 0.99041 0.13104
# Poissons Ratio (z) = 0.31080 0.05657
#
# Static dielectric constant tensor:
#      x y z
#    x 1.641950 0.000000 0.000000 
#    y 0.000000 1.575970 0.000000 
#    z 0.000000 0.000000 1.536030 
# 
# From -- ./inp_files/9550.got.cif
#   From: 2010.05.17/outbox.cif.g08.bks.cpg/sg57_5_cif.got.tgz:9550.got - 2010.06.03 13:58:18.
