data_PCOD9434607
_publ_section_title
;
Structure prediction by ZEFSAII (Michael W. Deem and Ramdas Pophale) SiO2 
 PCOD9434607
Probable space group: P B C M
;
_chemical_formula_sum "Si O2"
_cell_formula_units_Z 48
_cell_length_a 31.957901
_cell_length_b 9.382204
_cell_length_c 8.562141
_cell_angle_alpha 90.000000
_cell_angle_beta 90.000000
_cell_angle_gamma 90.000000
_cell_volume 2567.234227
_symmetry_space_group_name_H-M "P B C M"
_symmetry_group_IT_number 57
_symmetry_cell_setting 'orthorhombic'
loop_
_space_group_symop_operation_xyz
x,y,z
-x,-y,1/2+z
x,1/2-y,-z
-x,1/2+y,1/2-z
-x,-y,-z
x,y,1/2-z
-x,1/2+y,z
x,1/2-y,1/2+z
loop_
_atom_site_type_symbol
_atom_site_label
_atom_site_fract_x
_atom_site_fract_y
_atom_site_fract_z
Si Si1 0.126799 0.087211 0.063188
Si Si2 0.039126 0.088236 0.936908
Si Si3 0.539402 0.589198 0.437131
Si Si4 0.292064 0.910355 0.437144
Si Si5 0.617437 0.088707 0.062756
Si Si6 0.785755 0.911529 0.063148
O O1 0.126797 0.088102 0.250000
O O2 0.126819 0.250000 0.000000
O O3 0.083260 0.025727 0.999335
O O4 0.170276 0.024808 0.999553
O O5 0.039723 0.090463 0.750000
O O6 0.035820 0.250000 0.000000
O O7 0.000000 0.000000 0.000000
O O8 0.537267 0.750000 0.500000
O O9 0.500000 0.500000 0.500000
O O10 0.538923 0.589861 0.250000
O O11 0.581175 0.512073 0.498315
O O12 0.286634 0.750000 0.500000
O O13 0.293038 0.910314 0.250000
O O14 0.337026 0.959924 0.502374
O O15 0.253920 0.003583 0.499663
O O16 0.616952 0.091315 0.250000
O O17 0.611023 0.250000 0.000000
O O18 0.786402 0.909962 0.250000
O O19 0.782993 0.750000 0.000000
#
# Coordination Sequence:
#
# PCOD9434607 Si02
#       6
#     8   8   8   8   8   8
#     4  10  18  32  53  79 108 144 184 228 277 333
#     4  11  21  36  56  81 110 145 184 229 279 335
#     4  12  25  43  64  91 122 157 196 241 289 341
#     4  11  22  39  60  86 117 154 192 234 285 342
#     4  11  22  40  63  89 118 155 195 237 284 339
#     4  11  21  36  57  84 113 147 188 235 281 332
#
# _framework density 18.697163
#
# number of rings (size 3 to 8) (size 9 to 14) (size 15 to 20)
#    0.000    1.000    0.000   12.500    0.000    0.667 
#    0.000    4.167    0.000    0.000    0.000    0.000 
#    0.000    0.000    0.000    0.000    0.000    0.000 
#
# Total GULP energy -268380.834551 kJ/mol
# GULP energy per Si atom -5591.267386 kJ/mol
# Density = 1.865461 g / cm^3
# Si number density = 18.697163 Si / 1000 Ang^3
#
#
#
# Elastic Constant Matrix: (Units=GPa)
#
#
# Indices 1 2 3 4 5 6 
#
# 1 229.8118 93.5135 103.0652 0.0000 0.0000 0.0000
# 2 93.5135 70.8798 53.1840 0.0000 0.0000 0.0000
# 3 103.0652 53.1840 254.6085 0.0000 0.0000 0.0000
# 4 0.0000 0.0000 0.0000 31.0890 0.0000 0.0000
# 5 0.0000 0.0000 0.0000 0.0000 39.1919 0.0000
# 6 0.0000 0.0000 0.0000 0.0000 0.0000 38.6985
#
#
#
# Elastic Compliance Matrix: (Units=1/GPa)
#
#
# Indices 1 2 3 4 5 6 
#
# 1 0.009862 -0.011878 -0.001511 0.000000 0.000000 0.000000
# 2 -0.011878 0.031036 -0.001675 0.000000 0.000000 0.000000
# 3 -0.001511 -0.001675 0.004889 0.000000 0.000000 0.000000
# 4 0.000000 0.000000 0.000000 0.032166 0.000000 0.000000
# 5 0.000000 0.000000 0.000000 0.000000 0.025515 0.000000
# 6 0.000000 0.000000 0.000000 0.000000 0.000000 0.025841
#
#
# Mechanical properties :
#
#
# Convention : Reuss Voigt Hill
#
# Bulk Modulus (GPa) = 63.85808 117.20284 90.53046
# Shear Modulus (GPa) = 30.36630 42.16506 36.26568
#
# Velocity S-wave (km/s) = 4.03440 4.75400 4.40891
# Velocity P-wave (km/s) = 7.47863 9.64132 8.62800
#
# Compressibility (1/GPa) = 0.01565973
#
# Stress axis : x y z
#
# Youngs Moduli (GPa) = 101.39624 32.22105 204.53400
#
# Poissons Ratio (x) = 0.38271 0.30909
# Poissons Ratio (y) = 1.20435 0.34256
# Poissons Ratio (z) = 0.15323 0.05396
#
# Static dielectric constant tensor:
#      x y z
#    x 1.669650 0.000000 0.000000 
#    y 0.000000 1.621240 0.000000 
#    z 0.000000 0.000000 1.617520 
# 
# From -- ./inp_files/10016.got.cif
#   From: 2010.05.17/outbox.cif.g08.bks.cpg/sg57_6_cif.got.tgz:10016.got - 2010.06.03 13:58:18.
