data_PCOD9434569
_publ_section_title
;
Structure prediction by ZEFSAII (Michael W. Deem and Ramdas Pophale) SiO2 
 PCOD9434569
Probable space group: P B C M
;
_chemical_formula_sum "Si O2"
_cell_formula_units_Z 64
_cell_length_a 16.198455
_cell_length_b 29.495776
_cell_length_c 8.270186
_cell_angle_alpha 90.000000
_cell_angle_beta 90.000000
_cell_angle_gamma 90.000000
_cell_volume 3951.379090
_symmetry_space_group_name_H-M "P B C M"
_symmetry_group_IT_number 57
_symmetry_cell_setting 'orthorhombic'
loop_
_space_group_symop_operation_xyz
x,y,z
-x,-y,1/2+z
x,1/2-y,-z
-x,1/2+y,1/2-z
-x,-y,-z
x,y,1/2-z
-x,1/2+y,z
x,1/2-y,1/2+z
loop_
_atom_site_type_symbol
_atom_site_label
_atom_site_fract_x
_atom_site_fract_y
_atom_site_fract_z
Si Si1 0.588741 0.799373 0.944993
Si Si2 0.175277 0.444836 0.552339
Si Si3 0.182038 0.950014 0.444433
Si Si4 0.336489 0.107384 0.054828
Si Si5 0.601945 0.299503 0.556851
Si Si6 0.504611 0.948213 0.444055
Si Si7 0.659070 0.394552 0.054990
Si Si8 0.994716 0.447813 0.556692
O O1 0.587573 0.800104 0.750000
O O2 0.642211 0.841931 0.002898
O O3 0.493469 0.804933 0.001426
O O4 0.617832 0.750000 0.000000
O O5 0.176638 0.445345 0.750000
O O6 0.187097 0.497360 0.499912
O O7 0.250824 0.414052 0.495603
O O8 0.083615 0.428244 0.504059
O O9 0.185875 0.951412 0.250000
O O10 0.259165 0.920552 0.503846
O O11 0.092451 0.930446 0.491095
O O12 0.332329 0.108757 0.250000
O O13 0.413027 0.075533 0.008492
O O14 0.630733 0.250000 0.500000
O O15 0.601038 0.300187 0.750000
O O16 0.652975 0.342354 0.495571
O O17 0.505624 0.946914 0.250000
O O18 0.423666 0.920601 0.501377
O O19 0.500000 0.000000 0.500000
O O20 0.659403 0.396544 0.250000
O O21 0.991408 0.446411 0.750000
O O22 0.000000 0.500000 0.500000
#
# Coordination Sequence:
#
# PCOD9434569 Si02
#       8
#     8   8   8   8   8   8   8   8
#     4   9  18  30  47  67  89 117 150 190 231 269
#     4   8  15  28  47  66  91 122 153 186 226 276
#     4   9  17  30  46  66  91 123 155 188 231 275
#     4  10  18  32  49  67  90 121 157 190 225 271
#     4  10  19  32  49  70  92 119 155 196 237 277
#     4  11  22  33  45  63  92 128 159 189 222 266
#     4  10  20  33  48  67  93 126 159 192 234 277
#     4   9  16  28  45  66  89 118 152 191 234 274
#
# _framework density 16.196877000000001
#
# number of rings (size 3 to 8) (size 9 to 14) (size 15 to 20)
#    0.000    2.500    1.250    2.625    0.000    4.000 
#    0.000    5.625    0.000    0.000    0.000    0.875 
#    0.000    4.000    0.000    0.000    0.000    0.000 
#
# Total GULP energy -356710.307979 kJ/mol
# GULP energy per Si atom -5573.598562 kJ/mol
# Density = 1.616001 g / cm^3
# Si number density = 16.196877 Si / 1000 Ang^3
#
#
#
# Elastic Constant Matrix: (Units=GPa)
#
#
# Indices 1 2 3 4 5 6 
#
# 1 119.2877 51.9411 3.7299 0.0000 0.0000 0.0000
# 2 51.9411 102.2495 1.7489 0.0000 0.0000 0.0000
# 3 3.7299 1.7489 5.2946 0.0000 0.0000 0.0000
# 4 0.0000 0.0000 0.0000 21.0042 0.0000 0.0000
# 5 0.0000 0.0000 0.0000 0.0000 19.0801 0.0000
# 6 0.0000 0.0000 0.0000 0.0000 0.0000 9.5097
#
#
#
# Elastic Compliance Matrix: (Units=1/GPa)
#
#
# Indices 1 2 3 4 5 6 
#
# 1 0.010945 -0.005459 -0.005907 0.000000 0.000000 0.000000
# 2 -0.005459 0.012558 -0.000303 0.000000 0.000000 0.000000
# 3 -0.005907 -0.000303 0.193134 0.000000 0.000000 0.000000
# 4 0.000000 0.000000 0.000000 0.047609 0.000000 0.000000
# 5 0.000000 0.000000 0.000000 0.000000 0.052411 0.000000
# 6 0.000000 0.000000 0.000000 0.000000 0.000000 0.105155
#
#
# Mechanical properties :
#
#
# Convention : Reuss Voigt Hill
#
# Bulk Modulus (GPa) = 5.17331 37.96350 21.56840
# Shear Modulus (GPa) = 9.81195 21.21293 15.51244
#
# Velocity S-wave (km/s) = 2.46396 3.62289 3.09810
# Velocity P-wave (km/s) = 3.36091 6.40235 5.11302
#
# Compressibility (1/GPa) = 0.19330000
#
# Stress axis : x y z
#
# Youngs Moduli (GPa) = 91.36887 79.62993 5.17775
#
# Poissons Ratio (x) = 0.43467 0.03059
# Poissons Ratio (y) = 0.49875 0.00157
# Poissons Ratio (z) = 0.53973 0.02410
#
# Static dielectric constant tensor:
#      x y z
#    x 1.562970 0.000000 0.000000 
#    y 0.000000 1.526100 0.000000 
#    z 0.000000 0.000000 1.491400 
# 
# From -- ./inp_files/6059.got.cif
#   From: 2010.05.17/outbox.cif.g08.bks.cpg/sg57_4_cif.got.tgz:6059.got - 2010.06.03 13:58:18.
