data_PCOD9434495
_publ_section_title
;
Structure prediction by ZEFSAII (Michael W. Deem and Ramdas Pophale) SiO2 
 PCOD9434495
Probable space group: P B C M
;
_chemical_formula_sum "Si O2"
_cell_formula_units_Z 56
_cell_length_a 19.551273
_cell_length_b 18.605961
_cell_length_c 8.826637
_cell_angle_alpha 90.000000
_cell_angle_beta 90.000000
_cell_angle_gamma 90.000000
_cell_volume 3210.867709
_symmetry_space_group_name_H-M "P B C M"
_symmetry_group_IT_number 57
_symmetry_cell_setting 'orthorhombic'
loop_
_space_group_symop_operation_xyz
x,y,z
-x,-y,1/2+z
x,1/2-y,-z
-x,1/2+y,1/2-z
-x,-y,-z
x,y,1/2-z
-x,1/2+y,z
x,1/2-y,1/2+z
loop_
_atom_site_type_symbol
_atom_site_label
_atom_site_fract_x
_atom_site_fract_y
_atom_site_fract_z
Si Si1 0.070237 0.527348 0.568901
Si Si2 0.417909 0.919957 0.069556
Si Si3 0.786212 0.536546 0.067439
Si Si4 0.562712 0.911096 0.567976
Si Si5 0.143426 0.674462 0.932114
Si Si6 0.698610 0.672315 0.432006
Si Si7 0.723388 0.393603 0.569746
O O1 0.063313 0.528678 0.750000
O O2 0.134162 0.475309 0.532195
O O3 0.095293 0.607192 0.521828
O O4 0.000000 0.500000 0.500000
O O5 0.412054 0.912630 0.250000
O O6 0.418089 0.005799 0.033197
O O7 0.491297 0.893147 0.011433
O O8 0.353374 0.883076 0.990249
O O9 0.777101 0.526026 0.250000
O O10 0.755691 0.613466 0.026286
O O11 0.745228 0.473554 0.983948
O O12 0.554363 0.906867 0.750000
O O13 0.625155 0.860323 0.521144
O O14 0.145544 0.677004 0.750000
O O15 0.120068 0.750000 0.000000
O O16 0.219314 0.656904 0.994214
O O17 0.710587 0.750000 0.500000
O O18 0.698065 0.677122 0.250000
O O19 0.726339 0.387152 0.750000
#
# Coordination Sequence:
#
# PCOD9434495 Si02
#       7
#     8   8   8   8   8   8   8
#     4   9  19  35  59  85 113 144 178 218 263 314
#     4  10  18  31  51  74 102 135 175 226 275 325
#     4   9  18  36  55  75 105 142 179 222 270 316
#     4   9  18  32  49  71 100 135 176 226 276 326
#     4  10  21  38  58  83 114 148 181 221 273 326
#     4  10  20  35  53  73 104 141 180 225 276 324
#     4  11  20  31  53  82 108 138 179 225 267 324
#
# _framework density 17.440767000000001
#
# number of rings (size 3 to 8) (size 9 to 14) (size 15 to 20)
#    0.000    2.286    1.429    3.000    0.000    4.571 
#    0.000    1.429    0.000    5.143    0.000    0.000 
#    0.000    0.000    0.000    0.000    0.000    0.000 
#
# Total GULP energy -312463.919292 kJ/mol
# GULP energy per Si atom -5579.712844 kJ/mol
# Density = 1.740107 g / cm^3
# Si number density = 17.440767 Si / 1000 Ang^3
#
#
#
# Elastic Constant Matrix: (Units=GPa)
#
#
# Indices 1 2 3 4 5 6 
#
# 1 142.7275 62.7609 44.1639 0.0000 0.0000 0.0000
# 2 62.7609 108.3752 30.9144 0.0000 0.0000 0.0000
# 3 44.1639 30.9144 44.6957 0.0000 0.0000 0.0000
# 4 0.0000 0.0000 0.0000 27.6856 0.0000 0.0000
# 5 0.0000 0.0000 0.0000 0.0000 29.4829 0.0000
# 6 0.0000 0.0000 0.0000 0.0000 0.0000 17.3225
#
#
#
# Elastic Compliance Matrix: (Units=1/GPa)
#
#
# Indices 1 2 3 4 5 6 
#
# 1 0.011473 -0.004249 -0.008398 0.000000 0.000000 0.000000
# 2 -0.004249 0.013069 -0.004841 0.000000 0.000000 0.000000
# 3 -0.008398 -0.004841 0.034020 0.000000 0.000000 0.000000
# 4 0.000000 0.000000 0.000000 0.036120 0.000000 0.000000
# 5 0.000000 0.000000 0.000000 0.000000 0.033918 0.000000
# 6 0.000000 0.000000 0.000000 0.000000 0.000000 0.057728
#
#
# Mechanical properties :
#
#
# Convention : Reuss Voigt Hill
#
# Bulk Modulus (GPa) = 42.39731 63.49744 52.94737
# Shear Modulus (GPa) = 21.81831 25.42881 23.62356
#
# Velocity S-wave (km/s) = 3.54078 3.82253 3.68435
# Velocity P-wave (km/s) = 6.40923 7.48123 6.96588
#
# Compressibility (1/GPa) = 0.02358640
#
# Stress axis : x y z
#
# Youngs Moduli (GPa) = 87.15986 76.51978 29.39452
#
# Poissons Ratio (x) = 0.32510 0.24686
# Poissons Ratio (y) = 0.37031 0.14230
# Poissons Ratio (z) = 0.73197 0.37043
#
# Static dielectric constant tensor:
#      x y z
#    x 1.588100 0.000000 0.000000 
#    y 0.000000 1.588470 0.000000 
#    z 0.000000 0.000000 1.585060 
# 
# From -- ./inp_files/8343.got.cif
#   From: 2010.05.17/outbox.cif.g08.bks.cpg/sg57_5_cif.got.tgz:8343.got - 2010.06.03 13:58:18.
