data_PCOD9434021
_publ_section_title
;
Structure prediction by ZEFSAII (Michael W. Deem and Ramdas Pophale) SiO2 
 PCOD9434021
Probable space group: P B C M
;
_chemical_formula_sum "Si O2"
_cell_formula_units_Z 64
_cell_length_a 26.095914
_cell_length_b 5.439087
_cell_length_c 24.188548
_cell_angle_alpha 90.000000
_cell_angle_beta 90.000000
_cell_angle_gamma 90.000000
_cell_volume 3433.272834
_symmetry_space_group_name_H-M "P B C M"
_symmetry_group_IT_number 57
_symmetry_cell_setting 'orthorhombic'
loop_
_space_group_symop_operation_xyz
x,y,z
-x,-y,1/2+z
x,1/2-y,-z
-x,1/2+y,1/2-z
-x,-y,-z
x,y,1/2-z
-x,1/2+y,z
x,1/2-y,1/2+z
loop_
_atom_site_type_symbol
_atom_site_label
_atom_site_fract_x
_atom_site_fract_y
_atom_site_fract_z
Si Si1 0.279119 0.706578 0.314616
Si Si2 0.989135 0.723081 0.338165
Si Si3 0.926314 0.276242 0.561992
Si Si4 0.556097 0.842484 0.689132
Si Si5 0.785856 0.795416 0.815085
Si Si6 0.882541 0.722897 0.104110
Si Si7 0.517371 0.147689 0.419037
Si Si8 0.608488 0.342624 0.653494
O O1 0.295268 0.719275 0.250000
O O2 0.245903 0.458386 0.320653
O O3 0.330790 0.679791 0.349622
O O4 0.247656 0.957550 0.325653
O O5 0.027207 0.721211 0.392852
O O6 0.999345 0.472387 0.308431
O O7 0.930487 0.726360 0.354625
O O8 0.947638 0.250000 0.500000
O O9 0.893110 0.526390 0.569504
O O10 0.891485 0.034241 0.572182
O O11 0.532213 0.834485 0.750000
O O12 0.514438 0.844786 0.640009
O O13 0.591300 0.599454 0.681933
O O14 0.588182 0.094183 0.683011
O O15 0.802635 0.809943 0.750000
O O16 0.831559 0.781975 0.859350
O O17 0.500322 0.398071 0.446070
O O18 0.577008 0.150507 0.403910
#
# Coordination Sequence:
#
# PCOD9434021 Si02
#       8
#     8   8   8   8   8   8   8   8
#     4  10  19  30  44  59  74  99 146 204 247 267
#     4   8  16  27  44  68  96 120 142 164 200 258
#     4  10  19  31  51  79 105 123 140 167 214 278
#     4  10  17  23  32  47  68  92 116 149 211 288
#     4  10  21  35  48  62  82 116 162 203 235 260
#     4  10  19  32  49  68  96 127 151 180 221 263
#     4   8  16  24  31  45  66  91 116 147 205 282
#     4  10  18  26  36  50  68  90 122 172 229 274
#
# _framework density 18.641105
#
# number of rings (size 3 to 8) (size 9 to 14) (size 15 to 20)
#    0.000    2.500    0.000    3.000    0.000   10.500 
#    0.000    0.000    0.000    6.750    0.000    0.000 
#    0.000    0.000    0.000    0.000    0.000    0.000 
#
# Total GULP energy -356558.236011 kJ/mol
# GULP energy per Si atom -5571.222438 kJ/mol
# Density = 1.859868 g / cm^3
# Si number density = 18.641105 Si / 1000 Ang^3
#
#
#
# Elastic Constant Matrix: (Units=GPa)
#
#
# Indices 1 2 3 4 5 6 
#
# 1 95.3834 37.1728 27.3059 0.0000 0.0000 0.0000
# 2 37.1728 187.6358 20.0743 0.0000 0.0000 0.0000
# 3 27.3059 20.0743 64.1109 0.0000 0.0000 0.0000
# 4 0.0000 0.0000 0.0000 14.3803 0.0000 0.0000
# 5 0.0000 0.0000 0.0000 0.0000 -23.0432 0.0000
# 6 0.0000 0.0000 0.0000 0.0000 0.0000 23.9843
#
#
#
# Elastic Compliance Matrix: (Units=1/GPa)
#
#
# Indices 1 2 3 4 5 6 
#
# 1 0.012621 -0.001992 -0.004752 0.000000 0.000000 0.000000
# 2 -0.001992 0.005829 -0.000977 0.000000 0.000000 0.000000
# 3 -0.004752 -0.000977 0.017928 0.000000 0.000000 0.000000
# 4 0.000000 0.000000 0.000000 0.069540 0.000000 0.000000
# 5 0.000000 0.000000 0.000000 0.000000 -0.043397 0.000000
# 6 0.000000 0.000000 0.000000 0.000000 0.000000 0.041694
#
#
# Mechanical properties :
#
#
# Convention : Reuss Voigt Hill
#
# Bulk Modulus (GPa) = 47.76377 57.35956 52.56167
# Shear Modulus (GPa) = 39.48427 20.56942 30.02684
#
# Velocity S-wave (km/s) = 4.60731 3.32542 4.01781
# Velocity P-wave (km/s) = 7.34721 6.75143 7.05561
#
# Compressibility (1/GPa) = 0.02093637
#
# Stress axis : x y z
#
# Youngs Moduli (GPa) = 79.23577 171.56834 55.78009
#
# Poissons Ratio (x) = 0.34175 0.26504
# Poissons Ratio (y) = 0.15783 0.05448
# Poissons Ratio (z) = 0.37650 0.16756
#
# Static dielectric constant tensor:
#      x y z
#    x 1.615610 0.000000 0.000000 
#    y 0.000000 1.736730 0.000000 
#    z 0.000000 0.000000 1.650800 
# 
# From -- ./inp_files/27696.got.cif
#   From: 2010.05.17/outbox.cif.g08.bks.cpg/sg57_14_cif.got.tgz:27696.got - 2010.06.03 13:58:18.
