data_PCOD9434353
_publ_section_title
;
Structure prediction by ZEFSAII (Michael W. Deem and Ramdas Pophale) SiO2 
 PCOD9434353
Probable space group: P B C M
;
_chemical_formula_sum "Si O2"
_cell_formula_units_Z 32
_cell_length_a 9.032365
_cell_length_b 22.751729
_cell_length_c 5.620019
_cell_angle_alpha 90.000000
_cell_angle_beta 90.000000
_cell_angle_gamma 90.000000
_cell_volume 1154.924699
_symmetry_space_group_name_H-M "P B C M"
_symmetry_group_IT_number 57
_symmetry_cell_setting 'orthorhombic'
loop_
_space_group_symop_operation_xyz
x,y,z
-x,-y,1/2+z
x,1/2-y,-z
-x,1/2+y,1/2-z
-x,-y,-z
x,y,1/2-z
-x,1/2+y,z
x,1/2-y,1/2+z
loop_
_atom_site_type_symbol
_atom_site_label
_atom_site_fract_x
_atom_site_fract_y
_atom_site_fract_z
Si Si1 0.515727 0.585221 0.750000
Si Si2 0.418035 0.620303 0.250000
Si Si3 0.772955 0.270425 0.750000
Si Si4 0.234504 0.507928 0.250000
Si Si5 0.780863 0.496988 0.250000
Si Si6 0.668662 0.742878 0.250000
Si Si7 0.043139 0.177800 0.750000
Si Si8 0.877591 0.869602 0.750000
O O1 0.496394 0.622873 0.508573
O O2 0.676610 0.553889 0.750000
O O3 0.381861 0.535329 0.750000
O O4 0.272440 0.661105 0.250000
O O5 0.367104 0.553518 0.250000
O O6 0.710492 0.250000 0.500000
O O7 0.928111 0.232665 0.750000
O O8 0.152612 0.519822 0.495770
O O9 0.796889 0.567531 0.250000
O O10 0.589804 0.750000 0.500000
O O11 0.797424 0.791761 0.250000
O O12 0.754554 0.681245 0.250000
O O13 0.033993 0.142073 0.500276
#
# Coordination Sequence:
#
# PCOD9434353 Si02
#       8
#     4   4   4   4   4   4   4   4
#     4  10  19  36  59  88 118 149 189 231 295 368
#     4  10  20  34  56  87 117 147 186 243 286 340
#     4  12  23  37  57  87 114 145 200 245 288 341
#     4  10  19  35  58  88 118 148 189 232 292 366
#     4  10  18  29  51  86 116 144 185 230 278 346
#     4   8  14  25  41  61  86 125 170 215 258 301
#     4  10  19  33  50  73 104 144 191 237 279 327
#     4  10  18  29  48  78 109 140 184 235 280 323
#
# _framework density 27.707436000000001
#
# number of rings (size 3 to 8) (size 9 to 14) (size 15 to 20)
#    0.000    2.000    0.000    8.250    0.000    0.000 
#    0.000    0.000    0.000    0.000    0.000  208.250 
#    0.000    0.000    0.000    0.000    0.000    0.000 
#
# Total GULP energy -178637.094262 kJ/mol
# GULP energy per Si atom -5582.409196 kJ/mol
# Density = 2.764437 g / cm^3
# Si number density = 27.707436 Si / 1000 Ang^3
#
#
#
# Elastic Constant Matrix: (Units=GPa)
#
#
# Indices 1 2 3 4 5 6 
#
# 1 124.4107 10.6584 62.4885 0.0000 0.0000 0.0000
# 2 10.6584 101.8041 54.3408 0.0000 0.0000 0.0000
# 3 62.4885 54.3408 365.5890 0.0000 0.0000 0.0000
# 4 0.0000 0.0000 0.0000 17.9915 0.0000 0.0000
# 5 0.0000 0.0000 0.0000 0.0000-1492.6851 0.0000
# 6 0.0000 0.0000 0.0000 0.0000 0.0000 52.0822
#
#
#
# Elastic Compliance Matrix: (Units=1/GPa)
#
#
# Indices 1 2 3 4 5 6 
#
# 1 0.008794 -0.000129 -0.001484 0.000000 0.000000 0.000000
# 2 -0.000129 0.010671 -0.001564 0.000000 0.000000 0.000000
# 3 -0.001484 -0.001564 0.003221 0.000000 0.000000 0.000000
# 4 0.000000 0.000000 0.000000 0.055582 0.000000 0.000000
# 5 0.000000 0.000000 0.000000 0.000000 -0.000670 0.000000
# 6 0.000000 0.000000 0.000000 0.000000 0.000000 0.019200
#
#
# Mechanical properties :
#
#
# Convention : Reuss Voigt Hill
#
# Bulk Modulus (GPa) = 61.22440 94.08658 77.65549
# Shear Modulus (GPa) = 46.04168 -253.56786 -103.76309
#
# Velocity S-wave (km/s) = 4.08083 -9.57679 -6.12624
# Velocity P-wave (km/s) = 6.65950 9.39444 4.68544
#
# Compressibility (1/GPa) = 0.01633336
#
# Stress axis : x y z
#
# Youngs Moduli (GPa) = 113.70979 93.71043 310.41688
#
# Poissons Ratio (x) = 0.01205 0.46068
# Poissons Ratio (y) = 0.01462 0.48555
# Poissons Ratio (z) = 0.16875 0.14658
#
# Static dielectric constant tensor:
#      x y z
#    x 2.110910 0.000000 0.000000 
#    y 0.000000 2.158570 0.000000 
#    z 0.000000 0.000000 2.154740 
# 
# From -- ./inp_files/352.got.cif
#   From: 2010.05.17/outbox.cif.g08.bks.cpg/sg57_1_cif.got.tgz:352.got - 2010.06.03 13:58:18.
