data_PCOD9434931
_publ_section_title
;
Structure prediction by ZEFSAII (Michael W. Deem and Ramdas Pophale) SiO2 
 PCOD9434931
Probable space group: P B C M
;
_chemical_formula_sum "Si O2"
_cell_formula_units_Z 64
_cell_length_a 11.119757
_cell_length_b 34.211183
_cell_length_c 8.821466
_cell_angle_alpha 90.000000
_cell_angle_beta 90.000000
_cell_angle_gamma 90.000000
_cell_volume 3355.862463
_symmetry_space_group_name_H-M "P B C M"
_symmetry_group_IT_number 57
_symmetry_cell_setting 'orthorhombic'
loop_
_space_group_symop_operation_xyz
x,y,z
-x,-y,1/2+z
x,1/2-y,-z
-x,1/2+y,1/2-z
-x,-y,-z
x,y,1/2-z
-x,1/2+y,z
x,1/2-y,1/2+z
loop_
_atom_site_type_symbol
_atom_site_label
_atom_site_fract_x
_atom_site_fract_y
_atom_site_fract_z
Si Si1 0.796403 0.866303 0.073791
Si Si2 0.705160 0.512049 0.069800
Si Si3 0.066858 0.442071 0.432198
Si Si4 0.327463 0.870971 0.432150
Si Si5 0.437921 0.078552 0.927926
Si Si6 0.420652 0.707857 0.067418
Si Si7 0.298965 0.291010 0.929238
Si Si8 0.809859 0.438805 0.930744
O O1 0.804982 0.855288 0.250000
O O2 0.902852 0.896416 0.037788
O O3 0.675811 0.892329 0.055711
O O4 0.781364 0.827436 0.978177
O O5 0.709131 0.508376 0.250000
O O6 0.824865 0.533828 0.007256
O O7 0.595262 0.539684 0.019585
O O8 0.712131 0.469529 0.994598
O O9 0.068441 0.448229 0.250000
O O10 0.938811 0.451621 0.503282
O O11 0.317142 0.869504 0.250000
O O12 0.446576 0.896303 0.472011
O O13 0.345615 0.827931 0.499191
O O14 0.220770 0.896087 0.504596
O O15 0.448125 0.068060 0.750000
O O16 0.413007 0.708218 0.250000
O O17 0.561628 0.701730 0.022666
O O18 0.385455 0.750000 0.000000
O O19 0.299565 0.287181 0.750000
O O20 0.260088 0.250000 0.000000
O O21 0.810644 0.439402 0.750000
#
# Coordination Sequence:
#
# PCOD9434931 Si02
#       8
#     8   8   8   8   8   8   8   8
#     4   9  17  32  54  79 108 140 175 221 273 325
#     4  11  22  37  59  84 111 144 184 232 282 331
#     4  10  21  39  60  82 108 142 184 231 281 331
#     4  11  22  38  59  82 114 151 187 231 279 333
#     4   9  19  35  55  80 111 147 183 223 277 333
#     4  10  20  34  54  83 115 150 187 227 271 322
#     4  10  19  29  48  78 113 145 178 218 266 324
#     4  12  25  40  57  80 110 146 190 235 277 328
#
# _framework density 19.071103999999998
#
# number of rings (size 3 to 8) (size 9 to 14) (size 15 to 20)
#    0.000    1.750    1.250    4.875    0.000    5.000 
#    0.000    0.000    0.000    0.750    0.000    1.750 
#    0.000    0.000    0.000    0.000    0.000    0.000 
#
# Total GULP energy -357597.705402 kJ/mol
# GULP energy per Si atom -5587.464147 kJ/mol
# Density = 1.902770 g / cm^3
# Si number density = 19.071104 Si / 1000 Ang^3
#
#
#
# Elastic Constant Matrix: (Units=GPa)
#
#
# Indices 1 2 3 4 5 6 
#
# 1 36.2221 14.5083 14.2880 0.0000 0.0000 0.0000
# 2 14.5083 124.8544 53.1500 0.0000 0.0000 0.0000
# 3 14.2880 53.1500 79.8659 0.0000 0.0000 0.0000
# 4 0.0000 0.0000 0.0000 36.3132 0.0000 0.0000
# 5 0.0000 0.0000 0.0000 0.0000 20.8724 0.0000
# 6 0.0000 0.0000 0.0000 0.0000 0.0000 22.7238
#
#
#
# Elastic Compliance Matrix: (Units=1/GPa)
#
#
# Indices 1 2 3 4 5 6 
#
# 1 0.029952 -0.001674 -0.004245 0.000000 0.000000 0.000000
# 2 -0.001674 0.011269 -0.007200 0.000000 0.000000 0.000000
# 3 -0.004245 -0.007200 0.018072 0.000000 0.000000 0.000000
# 4 0.000000 0.000000 0.000000 0.027538 0.000000 0.000000
# 5 0.000000 0.000000 0.000000 0.000000 0.047910 0.000000
# 6 0.000000 0.000000 0.000000 0.000000 0.000000 0.044007
#
#
# Mechanical properties :
#
#
# Convention : Reuss Voigt Hill
#
# Bulk Modulus (GPa) = 30.25127 44.98166 37.61646
# Shear Modulus (GPa) = 23.14787 26.58163 24.86475
#
# Velocity S-wave (km/s) = 3.48770 3.73744 3.61472
# Velocity P-wave (km/s) = 5.66705 6.50093 6.09826
#
# Compressibility (1/GPa) = 0.03305647
#
# Stress axis : x y z
#
# Youngs Moduli (GPa) = 33.38665 88.74110 55.33490
#
# Poissons Ratio (x) = 0.14851 0.23488
# Poissons Ratio (y) = 0.05587 0.39840
# Poissons Ratio (z) = 0.14172 0.63892
#
# Static dielectric constant tensor:
#      x y z
#    x 1.681650 0.000000 0.000000 
#    y 0.000000 1.670560 0.000000 
#    z 0.000000 0.000000 1.623710 
# 
# From -- ./inp_files/3917.got.cif
#   From: 2010.05.17/outbox.cif.g08.bks.cpg/sg57_2_cif.got.tgz:3917.got - 2010.06.03 13:58:18.
