data_PCOD9434228
_publ_section_title
;
Structure prediction by ZEFSAII (Michael W. Deem and Ramdas Pophale) SiO2 
 PCOD9434228
Probable space group: P B C M
;
_chemical_formula_sum "Si O2"
_cell_formula_units_Z 64
_cell_length_a 17.205398
_cell_length_b 21.564174
_cell_length_c 8.173733
_cell_angle_alpha 90.000000
_cell_angle_beta 90.000000
_cell_angle_gamma 90.000000
_cell_volume 3032.620021
_symmetry_space_group_name_H-M "P B C M"
_symmetry_group_IT_number 57
_symmetry_cell_setting 'orthorhombic'
loop_
_space_group_symop_operation_xyz
x,y,z
-x,-y,1/2+z
x,1/2-y,-z
-x,1/2+y,1/2-z
-x,-y,-z
x,y,1/2-z
-x,1/2+y,z
x,1/2-y,1/2+z
loop_
_atom_site_type_symbol
_atom_site_label
_atom_site_fract_x
_atom_site_fract_y
_atom_site_fract_z
Si Si1 0.968452 0.080289 0.937507
Si Si2 0.606019 0.819011 0.557064
Si Si3 0.287387 0.895883 0.559860
Si Si4 0.084877 0.182306 0.948512
Si Si5 0.431393 0.679339 0.448652
Si Si6 0.169570 0.499789 0.944005
Si Si7 0.760706 0.627791 0.941132
Si Si8 0.141036 0.681740 0.061819
O O1 0.987239 0.064804 0.750000
O O2 0.915857 0.023493 0.007242
O O3 0.039206 0.120705 0.011299
O O4 0.903351 0.134448 0.945115
O O5 0.627990 0.750000 0.500000
O O6 0.597921 0.816947 0.750000
O O7 0.519513 0.833492 0.491765
O O8 0.675967 0.864665 0.515740
O O9 0.296206 0.915591 0.750000
O O10 0.369434 0.871876 0.492975
O O11 0.236433 0.948546 0.472867
O O12 0.231346 0.835975 0.558547
O O13 0.081423 0.179483 0.750000
O O14 0.173823 0.175126 0.006139
O O15 0.054446 0.250000 0.000000
O O16 0.412389 0.750000 0.500000
O O17 0.428614 0.677405 0.250000
O O18 0.161522 0.489519 0.750000
O O19 0.201136 0.438995 0.030972
O O20 0.751881 0.639834 0.750000
O O21 0.114304 0.672889 0.250000
O O22 0.128376 0.750000 0.000000
#
# Coordination Sequence:
#
# PCOD9434228 Si02
#       8
#     8   8   8   8   8   8   8   8
#     4   9  19  36  54  75 106 139 173 215 262 313
#     4  10  20  36  58  84 112 141 177 221 272 324
#     4   9  18  33  51  74 106 142 179 218 261 312
#     4  10  22  38  57  82 109 138 174 218 267 319
#     4   9  18  32  53  81 112 144 178 220 269 322
#     4  10  21  37  57  80 107 142 182 222 264 314
#     4  11  23  39  58  79 106 141 182 226 271 319
#     4  10  18  27  44  71 103 139 176 213 257 309
#
# _framework density 21.103864999999999
#
# number of rings (size 3 to 8) (size 9 to 14) (size 15 to 20)
#    0.000    2.250    0.000    2.625    0.000    6.000 
#    0.000    0.625    0.000    0.000    0.000    0.000 
#    0.000    0.000    0.000    0.000    0.000    0.000 
#
# Total GULP energy -356918.158015 kJ/mol
# GULP energy per Si atom -5576.846219 kJ/mol
# Density = 2.105583 g / cm^3
# Si number density = 21.103865 Si / 1000 Ang^3
#
#
#
# Elastic Constant Matrix: (Units=GPa)
#
#
# Indices 1 2 3 4 5 6 
#
# 1 109.5427 20.1196 7.4583 0.0000 0.0000 0.0000
# 2 20.1196 49.2890 -7.1109 0.0000 0.0000 0.0000
# 3 7.4583 -7.1109 29.2191 0.0000 0.0000 0.0000
# 4 0.0000 0.0000 0.0000 28.7685 0.0000 0.0000
# 5 0.0000 0.0000 0.0000 0.0000 -2.8226 0.0000
# 6 0.0000 0.0000 0.0000 0.0000 0.0000 38.9838
#
#
#
# Elastic Compliance Matrix: (Units=1/GPa)
#
#
# Indices 1 2 3 4 5 6 
#
# 1 0.010254 -0.004729 -0.003768 0.000000 0.000000 0.000000
# 2 -0.004729 0.023208 0.006855 0.000000 0.000000 0.000000
# 3 -0.003768 0.006855 0.036854 0.000000 0.000000 0.000000
# 4 0.000000 0.000000 0.000000 0.034760 0.000000 0.000000
# 5 0.000000 0.000000 0.000000 0.000000 -0.354280 0.000000
# 6 0.000000 0.000000 0.000000 0.000000 0.000000 0.025652
#
#
# Mechanical properties :
#
#
# Convention : Reuss Voigt Hill
#
# Bulk Modulus (GPa) = 14.91834 25.44274 20.18054
# Shear Modulus (GPa) = -25.26236 24.15820 -0.55208
#
# Velocity S-wave (km/s) = -3.46359 3.38705 -0.51203
# Velocity P-wave (km/s) = 2.98512 5.23243 3.03870
#
# Compressibility (1/GPa) = 0.06703157
#
# Stress axis : x y z
#
# Youngs Moduli (GPa) = 97.52236 43.08857 27.13377
#
# Poissons Ratio (x) = 0.20378 0.10225
# Poissons Ratio (y) = 0.46122 -0.18601
# Poissons Ratio (z) = 0.36750 -0.29538
#
# Static dielectric constant tensor:
#      x y z
#    x 1.820210 0.000000 0.000000 
#    y 0.000000 1.759720 0.000000 
#    z 0.000000 0.000000 1.764650 
# 
# From -- ./inp_files/7289.got.cif
#   From: 2010.05.17/outbox.cif.g08.bks.cpg/sg57_4_cif.got.tgz:7289.got - 2010.06.03 13:58:18.
