data_PCOD9434164
_publ_section_title
;
Structure prediction by ZEFSAII (Michael W. Deem and Ramdas Pophale) SiO2 
 PCOD9434164
Probable space group: P B C M
;
_chemical_formula_sum "Si O2"
_cell_formula_units_Z 44
_cell_length_a 6.674230
_cell_length_b 21.849707
_cell_length_c 14.582111
_cell_angle_alpha 90.000000
_cell_angle_beta 90.000000
_cell_angle_gamma 90.000000
_cell_volume 2126.508809
_symmetry_space_group_name_H-M "P B C M"
_symmetry_group_IT_number 57
_symmetry_cell_setting 'orthorhombic'
loop_
_space_group_symop_operation_xyz
x,y,z
-x,-y,1/2+z
x,1/2-y,-z
-x,1/2+y,1/2-z
-x,-y,-z
x,y,1/2-z
-x,1/2+y,z
x,1/2-y,1/2+z
loop_
_atom_site_type_symbol
_atom_site_label
_atom_site_fract_x
_atom_site_fract_y
_atom_site_fract_z
Si Si1 0.665271 0.271885 0.250000
Si Si2 0.499929 0.646185 0.250000
Si Si3 0.994004 0.749845 0.392923
Si Si4 0.196220 0.906732 0.250000
Si Si5 0.404741 0.047624 0.750000
Si Si6 0.879188 0.430662 0.750000
Si Si7 0.152714 0.117670 0.891429
Si Si8 0.178802 0.116061 0.109041
O O1 0.492806 0.220609 0.250000
O O2 0.803195 0.257832 0.162365
O O3 0.662593 0.345741 0.250000
O O4 0.268199 0.627559 0.250000
O O5 0.607982 0.616952 0.339226
O O6 0.040215 0.750000 0.500000
O O7 0.854425 0.808962 0.375154
O O8 0.895523 0.685333 0.371556
O O9 0.357124 0.960766 0.250000
O O10 0.049330 0.904863 0.338337
O O11 0.333063 0.085296 0.839079
O O12 0.270494 0.987186 0.750000
O O13 0.024043 0.427449 0.837802
O O14 0.169136 0.106221 0.000024
#
# Coordination Sequence:
#
# PCOD9434164 Si02
#       8
#     4   4   8   4   4   4   8   8
#     4  10  17  34  56  84 119 155 183 234 294 343
#     4  11  22  34  59  90 114 155 201 242 287 351
#     4   9  17  35  60  87 121 149 181 238 297 352
#     4   9  21  37  61  85 120 156 193 241 300 347
#     4  11  24  40  60  87 114 159 207 242 284 356
#     4  11  24  41  58  82 125 157 202 245 289 343
#     4   9  21  40  61  88 120 154 193 242 296 354
#     4  10  21  39  61  88 119 156 193 243 296 348
#
# _framework density 20.691189999999999
#
# number of rings (size 3 to 8) (size 9 to 14) (size 15 to 20)
#    0.000    2.182    1.818    1.091    2.545    5.091 
#    3.273    1.818    0.000    0.000    0.000    0.000 
#    0.000    0.000    0.000    0.000    0.000    0.000 
#
# Total GULP energy -245492.116535 kJ/mol
# GULP energy per Si atom -5579.366285 kJ/mol
# Density = 2.064410 g / cm^3
# Si number density = 20.691190 Si / 1000 Ang^3
#
#
#
# Elastic Constant Matrix: (Units=GPa)
#
#
# Indices 1 2 3 4 5 6 
#
# 1 70.3381 8.3393 34.8757 0.0000 0.0000 0.0000
# 2 8.3393 43.6027 24.3570 0.0000 0.0000 0.0000
# 3 34.8757 24.3570 116.6993 0.0000 0.0000 0.0000
# 4 0.0000 0.0000 0.0000 10.1100 0.0000 0.0000
# 5 0.0000 0.0000 0.0000 0.0000 6.4071 0.0000
# 6 0.0000 0.0000 0.0000 0.0000 0.0000 33.0586
#
#
#
# Elastic Compliance Matrix: (Units=1/GPa)
#
#
# Indices 1 2 3 4 5 6 
#
# 1 0.016698 -0.000460 -0.004894 0.000000 0.000000 0.000000
# 2 -0.000460 0.025974 -0.005284 0.000000 0.000000 0.000000
# 3 -0.004894 -0.005284 0.011135 0.000000 0.000000 0.000000
# 4 0.000000 0.000000 0.000000 0.098912 0.000000 0.000000
# 5 0.000000 0.000000 0.000000 0.000000 0.156076 0.000000
# 6 0.000000 0.000000 0.000000 0.000000 0.000000 0.030249
#
#
# Mechanical properties :
#
#
# Convention : Reuss Voigt Hill
#
# Bulk Modulus (GPa) = 30.73980 40.64268 35.69124
# Shear Modulus (GPa) = 13.47116 20.78635 17.12876
#
# Velocity S-wave (km/s) = 2.55435 3.17298 2.88032
# Velocity P-wave (km/s) = 4.85678 5.75403 5.32434
#
# Compressibility (1/GPa) = 0.03253111
#
# Stress axis : x y z
#
# Youngs Moduli (GPa) = 59.88626 38.50030 89.81068
#
# Poissons Ratio (x) = 0.01770 0.43957
# Poissons Ratio (y) = 0.02752 0.47454
# Poissons Ratio (z) = 0.29311 0.20343
#
# Static dielectric constant tensor:
#      x y z
#    x 1.722290 0.000000 0.000000 
#    y 0.000000 1.826710 0.000000 
#    z 0.000000 0.000000 1.691700 
# 
# From -- ./inp_files/15078.got.cif
#   From: 2010.05.17/outbox.cif.g08.bks.cpg/sg57_8_cif.got.tgz:15078.got - 2010.06.03 13:58:18.
