data_PCOD9434455
_publ_section_title
;
Structure prediction by ZEFSAII (Michael W. Deem and Ramdas Pophale) SiO2 
 PCOD9434455
Probable space group: P B C M
;
_chemical_formula_sum "Si O2"
_cell_formula_units_Z 48
_cell_length_a 9.140346
_cell_length_b 17.878418
_cell_length_c 17.902078
_cell_angle_alpha 90.000000
_cell_angle_beta 90.000000
_cell_angle_gamma 90.000000
_cell_volume 2925.466760
_symmetry_space_group_name_H-M "P B C M"
_symmetry_group_IT_number 57
_symmetry_cell_setting 'orthorhombic'
loop_
_space_group_symop_operation_xyz
x,y,z
-x,-y,1/2+z
x,1/2-y,-z
-x,1/2+y,1/2-z
-x,-y,-z
x,y,1/2-z
-x,1/2+y,z
x,1/2-y,1/2+z
loop_
_atom_site_type_symbol
_atom_site_label
_atom_site_fract_x
_atom_site_fract_y
_atom_site_fract_z
Si Si1 0.957623 0.956577 0.924502
Si Si2 0.551496 0.941717 0.064792
Si Si3 0.459346 0.360815 0.666131
Si Si4 0.301620 0.524844 0.835410
Si Si5 0.257209 0.946818 0.839482
Si Si6 0.268381 0.327902 0.966890
O O1 0.851878 0.009569 0.875221
O O2 0.862644 0.883678 0.945212
O O3 0.100320 0.935796 0.876830
O O4 0.000000 0.000000 0.000000
O O5 0.408436 0.924969 0.114215
O O6 0.667686 0.983213 0.118360
O O7 0.628997 0.872934 0.024798
O O8 0.500000 0.000000 0.000000
O O9 0.447639 0.330938 0.750000
O O10 0.383096 0.443487 0.665646
O O11 0.628276 0.378735 0.648108
O O12 0.370812 0.314919 0.605381
O O13 0.287465 0.549792 0.750000
O O14 0.248786 0.958475 0.750000
O O15 0.216679 0.250000 0.000000
#
# Coordination Sequence:
#
# PCOD9434455 Si02
#       6
#     8   8   8   8   8   8
#     4  11  19  32  54  79 111 143 182 222 261 318
#     4  11  16  33  55  80 103 132 181 228 263 308
#     4   8  16  32  53  76 103 138 180 220 261 318
#     4   9  17  29  51  79 105 133 176 224 265 308
#     4  10  18  30  55  84 105 137 186 231 263 306
#     4  11  22  35  54  82 110 141 179 221 280 325
#
# _framework density 16.407637000000001
#
# number of rings (size 3 to 8) (size 9 to 14) (size 15 to 20)
#    0.000    2.000    6.667    2.000    0.000    0.667 
#    0.000    2.500    0.000    0.000    0.000    0.000 
#    0.000    0.000    0.000    0.000    0.000    0.000 
#
# Total GULP energy -267470.953453 kJ/mol
# GULP energy per Si atom -5572.311530 kJ/mol
# Density = 1.637029 g / cm^3
# Si number density = 16.407637 Si / 1000 Ang^3
#
#
#
# Elastic Constant Matrix: (Units=GPa)
#
#
# Indices 1 2 3 4 5 6 
#
# 1 129.9680 21.1080 68.9593 0.0000 0.0000 0.0000
# 2 21.1080 36.6555 26.0666 0.0000 0.0000 0.0000
# 3 68.9593 26.0666 125.8841 0.0000 0.0000 0.0000
# 4 0.0000 0.0000 0.0000 14.2607 0.0000 0.0000
# 5 0.0000 0.0000 0.0000 0.0000 36.5617 0.0000
# 6 0.0000 0.0000 0.0000 0.0000 0.0000 10.9440
#
#
#
# Elastic Compliance Matrix: (Units=1/GPa)
#
#
# Indices 1 2 3 4 5 6 
#
# 1 0.011025 -0.002409 -0.005541 0.000000 0.000000 0.000000
# 2 -0.002409 0.032518 -0.005414 0.000000 0.000000 0.000000
# 3 -0.005541 -0.005414 0.012100 0.000000 0.000000 0.000000
# 4 0.000000 0.000000 0.000000 0.070123 0.000000 0.000000
# 5 0.000000 0.000000 0.000000 0.000000 0.027351 0.000000
# 6 0.000000 0.000000 0.000000 0.000000 0.000000 0.091374
#
#
# Mechanical properties :
#
#
# Convention : Reuss Voigt Hill
#
# Bulk Modulus (GPa) = 34.58235 58.30835 46.44535
# Shear Modulus (GPa) = 17.80262 24.11152 20.95707
#
# Velocity S-wave (km/s) = 3.29754 3.83760 3.57778
# Velocity P-wave (km/s) = 5.96834 7.43308 6.74062
#
# Compressibility (1/GPa) = 0.02891648
#
# Stress axis : x y z
#
# Youngs Moduli (GPa) = 90.70022 30.75214 82.64322
#
# Poissons Ratio (x) = 0.07407 0.45792
# Poissons Ratio (y) = 0.21846 0.44743
# Poissons Ratio (z) = 0.50256 0.16649
#
# Static dielectric constant tensor:
#      x y z
#    x 1.565210 0.000000 0.000000 
#    y 0.000000 1.530500 0.000000 
#    z 0.000000 0.000000 1.577110 
# 
# From -- ./inp_files/21290.got.cif
#   From: 2010.05.17/outbox.cif.g08.bks.cpg/sg57_11_cif.got.tgz:21290.got - 2010.06.03 13:58:18.
