data_PCOD9434432
_publ_section_title
;
Structure prediction by ZEFSAII (Michael W. Deem and Ramdas Pophale) SiO2 
 PCOD9434432
Probable space group: P B C M
;
_chemical_formula_sum "Si O2"
_cell_formula_units_Z 40
_cell_length_a 10.670095
_cell_length_b 13.813595
_cell_length_c 13.170278
_cell_angle_alpha 90.000000
_cell_angle_beta 90.000000
_cell_angle_gamma 90.000000
_cell_volume 1941.198500
_symmetry_space_group_name_H-M "P B C M"
_symmetry_group_IT_number 57
_symmetry_cell_setting 'orthorhombic'
loop_
_space_group_symop_operation_xyz
x,y,z
-x,-y,1/2+z
x,1/2-y,-z
-x,1/2+y,1/2-z
-x,-y,-z
x,y,1/2-z
-x,1/2+y,z
x,1/2-y,1/2+z
loop_
_atom_site_type_symbol
_atom_site_label
_atom_site_fract_x
_atom_site_fract_y
_atom_site_fract_z
Si Si1 0.473012 0.893207 0.130468
Si Si2 0.329949 0.447652 0.989248
Si Si3 0.176626 0.913383 0.628879
Si Si4 0.896761 0.514396 0.370473
Si Si5 0.207536 0.804529 0.371111
O O1 0.504675 0.894159 0.250000
O O2 0.588095 0.873844 0.054867
O O3 0.355536 0.822333 0.114342
O O4 0.416485 0.997119 0.093473
O O5 0.283343 0.526484 0.072196
O O6 0.202443 0.419671 0.931480
O O7 0.200317 0.915362 0.750000
O O8 0.173291 0.802264 0.592708
O O9 0.040680 0.960806 0.611730
O O10 0.872609 0.524304 0.250000
O O11 0.864251 0.403342 0.400408
O O12 0.185642 0.800746 0.250000
#
# Coordination Sequence:
#
# PCOD9434432 Si02
#       5
#     8   8   8   8   8
#     4   9  18  32  50  72 101 134 169 215 261 305
#     4  10  18  30  51  76 102 135 175 212 258 311
#     4  10  19  31  52  79 105 138 178 214 255 315
#     4   9  18  32  50  76 110 140 170 216 263 306
#     4   8  16  32  52  74 102 138 175 214 263 309
#
# _framework density 20.605827000000001
#
# number of rings (size 3 to 8) (size 9 to 14) (size 15 to 20)
#    0.000    2.800    0.000    3.000    0.000    3.200 
#    0.000    0.000    0.000   12.000    0.000   36.400 
#    0.000    0.000    0.000    0.000    0.000    0.000 
#
# Total GULP energy -223103.665806 kJ/mol
# GULP energy per Si atom -5577.591645 kJ/mol
# Density = 2.055893 g / cm^3
# Si number density = 20.605827 Si / 1000 Ang^3
#
#
#
# Elastic Constant Matrix: (Units=GPa)
#
#
# Indices 1 2 3 4 5 6 
#
# 1 79.7964 38.2854 34.6268 0.0000 0.0000 0.0000
# 2 38.2854 64.2358 27.6449 0.0000 0.0000 0.0000
# 3 34.6268 27.6449 104.5487 0.0000 0.0000 0.0000
# 4 0.0000 0.0000 0.0000 25.1250 0.0000 0.0000
# 5 0.0000 0.0000 0.0000 0.0000 47.8753 0.0000
# 6 0.0000 0.0000 0.0000 0.0000 0.0000 8.9513
#
#
#
# Elastic Compliance Matrix: (Units=1/GPa)
#
#
# Indices 1 2 3 4 5 6 
#
# 1 0.018719 -0.009579 -0.003667 0.000000 0.000000 0.000000
# 2 -0.009579 0.022468 -0.002769 0.000000 0.000000 0.000000
# 3 -0.003667 -0.002769 0.011511 0.000000 0.000000 0.000000
# 4 0.000000 0.000000 0.000000 0.039801 0.000000 0.000000
# 5 0.000000 0.000000 0.000000 0.000000 0.020888 0.000000
# 6 0.000000 0.000000 0.000000 0.000000 0.000000 0.111715
#
#
# Mechanical properties :
#
#
# Convention : Reuss Voigt Hill
#
# Bulk Modulus (GPa) = 48.37877 49.96612 49.17245
# Shear Modulus (GPa) = 18.93793 26.25857 22.59825
#
# Velocity S-wave (km/s) = 3.03488 3.57365 3.31523
# Velocity P-wave (km/s) = 5.98413 6.42877 6.21043
#
# Compressibility (1/GPa) = 0.02067022
#
# Stress axis : x y z
#
# Youngs Moduli (GPa) = 53.42225 44.50750 86.86969
#
# Poissons Ratio (x) = 0.42632 0.31855
# Poissons Ratio (y) = 0.51171 0.24051
# Poissons Ratio (z) = 0.19590 0.12322
#
# Static dielectric constant tensor:
#      x y z
#    x 1.726810 0.000000 0.000000 
#    y 0.000000 1.742420 0.000000 
#    z 0.000000 0.000000 1.820540 
# 
# From -- ./inp_files/17411.got.cif
#   From: 2010.05.17/outbox.cif.g08.bks.cpg/sg57_9_cif.got.tgz:17411.got - 2010.06.03 13:58:18.
