data_PCOD9434366
_publ_section_title
;
Structure prediction by ZEFSAII (Michael W. Deem and Ramdas Pophale) SiO2 
 PCOD9434366
Probable space group: P B C M
;
_chemical_formula_sum "Si O2"
_cell_formula_units_Z 64
_cell_length_a 14.449214
_cell_length_b 8.620010
_cell_length_c 30.855252
_cell_angle_alpha 90.000000
_cell_angle_beta 90.000000
_cell_angle_gamma 90.000000
_cell_volume 3843.094738
_symmetry_space_group_name_H-M "P B C M"
_symmetry_group_IT_number 57
_symmetry_cell_setting 'orthorhombic'
loop_
_space_group_symop_operation_xyz
x,y,z
-x,-y,1/2+z
x,1/2-y,-z
-x,1/2+y,1/2-z
-x,-y,-z
x,y,1/2-z
-x,1/2+y,z
x,1/2-y,1/2+z
loop_
_atom_site_type_symbol
_atom_site_label
_atom_site_fract_x
_atom_site_fract_y
_atom_site_fract_z
Si Si1 0.730843 0.508875 0.698506
Si Si2 0.960159 0.432098 0.297007
Si Si3 0.042877 0.627738 0.968280
Si Si4 0.814294 0.838911 0.827230
Si Si5 0.633622 0.981130 0.801816
Si Si6 0.896816 0.129905 0.343449
Si Si7 0.459606 0.352132 0.301543
Si Si8 0.941814 0.862887 0.909230
O O1 0.736245 0.464177 0.750000
O O2 0.774192 0.681525 0.692739
O O3 0.789121 0.399135 0.666160
O O4 0.623709 0.532956 0.685014
O O5 0.963740 0.359325 0.250000
O O6 0.890775 0.576664 0.298325
O O7 0.924645 0.303158 0.329903
O O8 0.056531 0.505526 0.310885
O O9 0.091625 0.521487 0.932159
O O10 0.964515 0.728089 0.943456
O O11 0.093904 0.750000 0.000000
O O12 0.000000 0.500000 0.000000
O O13 0.727772 0.956741 0.827955
O O14 0.868581 0.814365 0.872467
O O15 0.656220 0.997699 0.750000
O O16 0.575393 0.822161 0.807346
O O17 0.562721 0.112497 0.817399
O O18 0.957051 0.103039 0.387017
O O19 0.466292 0.377670 0.250000
#
# Coordination Sequence:
#
# PCOD9434366 Si02
#       8
#     8   8   8   8   8   8   8   8
#     4  10  18  30  42  59  84 123 165 194 221 252
#     4  11  20  29  38  56  81 119 162 190 212 250
#     4   9  18  32  51  66  83 113 139 166 204 262
#     4  10  19  29  45  62  87 118 145 189 232 260
#     4   9  16  29  43  60  82 117 158 194 228 258
#     4  11  21  29  42  59  87 120 147 189 226 251
#     4   8  16  27  42  57  78 110 156 201 227 250
#     4  10  18  31  44  67  91 112 143 171 216 265
#
# _framework density 16.653245999999999
#
# number of rings (size 3 to 8) (size 9 to 14) (size 15 to 20)
#    0.000    2.250    0.000    6.750    0.000    1.000 
#    0.000    2.500    0.000    0.000    0.000    0.000 
#    0.000    0.000    0.000  148.500    0.000    0.000 
#
# Total GULP energy -356310.747602 kJ/mol
# GULP energy per Si atom -5567.355431 kJ/mol
# Density = 1.661534 g / cm^3
# Si number density = 16.653246 Si / 1000 Ang^3
#
#
#
# Elastic Constant Matrix: (Units=GPa)
#
#
# Indices 1 2 3 4 5 6 
#
# 1 39.7752 -2.4196 6.8200 0.0000 0.0000 0.0000
# 2 -2.4196 36.8938 12.7849 0.0000 0.0000 0.0000
# 3 6.8200 12.7849 56.8903 0.0000 0.0000 0.0000
# 4 0.0000 0.0000 0.0000 24.6723 0.0000 0.0000
# 5 0.0000 0.0000 0.0000 0.0000 5.9187 0.0000
# 6 0.0000 0.0000 0.0000 0.0000 0.0000 23.0213
#
#
#
# Elastic Compliance Matrix: (Units=1/GPa)
#
#
# Indices 1 2 3 4 5 6 
#
# 1 0.025975 0.003018 -0.003792 0.000000 0.000000 0.000000
# 2 0.003018 0.029744 -0.007046 0.000000 0.000000 0.000000
# 3 -0.003792 -0.007046 0.019616 0.000000 0.000000 0.000000
# 4 0.000000 0.000000 0.000000 0.040531 0.000000 0.000000
# 5 0.000000 0.000000 0.000000 0.000000 0.168956 0.000000
# 6 0.000000 0.000000 0.000000 0.000000 0.000000 0.043438
#
#
# Mechanical properties :
#
#
# Convention : Reuss Voigt Hill
#
# Bulk Modulus (GPa) = 16.75211 18.65889 17.70550
# Shear Modulus (GPa) = 13.74383 18.48072 16.11227
#
# Velocity S-wave (km/s) = 2.87591 3.33488 3.11387
# Velocity P-wave (km/s) = 4.59446 5.10463 4.85625
#
# Compressibility (1/GPa) = 0.05969397
#
# Stress axis : x y z
#
# Youngs Moduli (GPa) = 38.49845 33.61973 50.97938
#
# Poissons Ratio (x) = -0.10145 0.19332
# Poissons Ratio (y) = -0.11617 0.35921
# Poissons Ratio (z) = 0.14599 0.23689
#
# Static dielectric constant tensor:
#      x y z
#    x 1.601190 0.000000 0.000000 
#    y 0.000000 1.647190 0.000000 
#    z 0.000000 0.000000 1.577090 
# 
# From -- ./inp_files/29903.got.cif
#   From: 2010.05.17/outbox.cif.g08.bks.cpg/sg57_15_cif.got.tgz:29903.got - 2010.06.03 13:58:18.
