data_PCOD9434216
_publ_section_title
;
Structure prediction by ZEFSAII (Michael W. Deem and Ramdas Pophale) SiO2 
 PCOD9434216
Probable space group: P B C M
;
_chemical_formula_sum "Si O2"
_cell_formula_units_Z 48
_cell_length_a 11.781158
_cell_length_b 26.407914
_cell_length_c 9.181997
_cell_angle_alpha 90.000000
_cell_angle_beta 90.000000
_cell_angle_gamma 90.000000
_cell_volume 2856.664409
_symmetry_space_group_name_H-M "P B C M"
_symmetry_group_IT_number 57
_symmetry_cell_setting 'orthorhombic'
loop_
_space_group_symop_operation_xyz
x,y,z
-x,-y,1/2+z
x,1/2-y,-z
-x,1/2+y,1/2-z
-x,-y,-z
x,y,1/2-z
-x,1/2+y,z
x,1/2-y,1/2+z
loop_
_atom_site_type_symbol
_atom_site_label
_atom_site_fract_x
_atom_site_fract_y
_atom_site_fract_z
Si Si1 0.966120 0.205444 0.587125
Si Si2 0.786734 0.115231 0.915070
Si Si3 0.391600 0.696537 0.577255
Si Si4 0.338752 0.196238 0.577746
Si Si5 0.970088 0.052555 0.423800
Si Si6 0.147263 0.356778 0.576803
O O1 0.906652 0.250000 0.500000
O O2 0.999682 0.220347 0.750000
O O3 0.881650 0.158820 0.596705
O O4 0.071485 0.188222 0.490219
O O5 0.763487 0.096184 0.750000
O O6 0.678692 0.146975 0.972915
O O7 0.850833 0.073979 0.013104
O O8 0.364499 0.750000 0.500000
O O9 0.366133 0.701901 0.750000
O O10 0.526263 0.688073 0.560301
O O11 0.312626 0.250000 0.500000
O O12 0.313338 0.199392 0.750000
O O13 0.266588 0.151515 0.503334
O O14 0.962080 0.047263 0.250000
O O15 0.072593 0.092812 0.453557
O O16 0.000000 0.000000 0.500000
O O17 0.159915 0.352295 0.750000
#
# Coordination Sequence:
#
# PCOD9434216 Si02
#       6
#     8   8   8   8   8   8
#     4  10  18  27  42  65  94 126 156 190 233 281
#     4   9  18  32  49  70  97 127 159 196 239 287
#     4   9  18  31  48  72 102 136 169 200 235 277
#     4  10  19  31  48  71 101 136 170 201 234 276
#     4  10  21  36  55  76  96 121 155 200 252 300
#     4  10  20  33  48  68  94 124 159 197 239 287
#
# _framework density 16.802814000000001
#
# number of rings (size 3 to 8) (size 9 to 14) (size 15 to 20)
#    0.000    2.333    0.000    3.000    0.000    4.000 
#    0.000    0.000    0.000    1.000    0.000    0.000 
#    0.000    0.000    0.000    0.000    0.000    0.000 
#
# Total GULP energy -267405.449315 kJ/mol
# GULP energy per Si atom -5570.946861 kJ/mol
# Density = 1.676457 g / cm^3
# Si number density = 16.802814 Si / 1000 Ang^3
#
#
#
# Elastic Constant Matrix: (Units=GPa)
#
#
# Indices 1 2 3 4 5 6 
#
# 1 82.4124 31.9160 45.4428 0.0000 0.0000 0.0000
# 2 31.9160 71.3566 60.1788 0.0000 0.0000 0.0000
# 3 45.4428 60.1788 97.5003 0.0000 0.0000 0.0000
# 4 0.0000 0.0000 0.0000 27.1429 0.0000 0.0000
# 5 0.0000 0.0000 0.0000 0.0000 39.3456 0.0000
# 6 0.0000 0.0000 0.0000 0.0000 0.0000 20.7199
#
#
#
# Elastic Compliance Matrix: (Units=1/GPa)
#
#
# Indices 1 2 3 4 5 6 
#
# 1 0.016449 -0.001860 -0.006519 0.000000 0.000000 0.000000
# 2 -0.001860 0.029439 -0.017303 0.000000 0.000000 0.000000
# 3 -0.006519 -0.017303 0.023975 0.000000 0.000000 0.000000
# 4 0.000000 0.000000 0.000000 0.036842 0.000000 0.000000
# 5 0.000000 0.000000 0.000000 0.000000 0.025416 0.000000
# 6 0.000000 0.000000 0.000000 0.000000 0.000000 0.048263
#
#
# Mechanical properties :
#
#
# Convention : Reuss Voigt Hill
#
# Bulk Modulus (GPa) = 54.05763 58.48272 56.27018
# Shear Modulus (GPa) = 21.01618 25.02379 23.01999
#
# Velocity S-wave (km/s) = 3.54044 3.86328 3.70538
# Velocity P-wave (km/s) = 6.99675 7.40141 7.20192
#
# Compressibility (1/GPa) = 0.01849878
#
# Stress axis : x y z
#
# Youngs Moduli (GPa) = 60.79515 33.96889 41.71095
#
# Poissons Ratio (x) = 0.06317 0.27190
# Poissons Ratio (y) = 0.11305 0.72174
# Poissons Ratio (z) = 0.39630 0.58778
#
# Static dielectric constant tensor:
#      x y z
#    x 1.600680 0.000000 0.000000 
#    y 0.000000 1.583880 0.000000 
#    z 0.000000 0.000000 1.507250 
# 
# From -- ./inp_files/3101.got.cif
#   From: 2010.05.17/outbox.cif.g08.bks.cpg/sg57_2_cif.got.tgz:3101.got - 2010.06.03 13:58:18.
