data_PCOD9434315
_publ_section_title
;
Structure prediction by ZEFSAII (Michael W. Deem and Ramdas Pophale) SiO2 
 PCOD9434315
Probable space group: P B C M
;
_chemical_formula_sum "Si O2"
_cell_formula_units_Z 56
_cell_length_a 20.736842
_cell_length_b 18.777021
_cell_length_c 8.777217
_cell_angle_alpha 90.000000
_cell_angle_beta 90.000000
_cell_angle_gamma 90.000000
_cell_volume 3417.638680
_symmetry_space_group_name_H-M "P B C M"
_symmetry_group_IT_number 57
_symmetry_cell_setting 'orthorhombic'
loop_
_space_group_symop_operation_xyz
x,y,z
-x,-y,1/2+z
x,1/2-y,-z
-x,1/2+y,1/2-z
-x,-y,-z
x,y,1/2-z
-x,1/2+y,z
x,1/2-y,1/2+z
loop_
_atom_site_type_symbol
_atom_site_label
_atom_site_fract_x
_atom_site_fract_y
_atom_site_fract_z
Si Si1 0.560103 0.456562 0.567254
Si Si2 0.027839 0.672500 0.567677
Si Si3 0.066535 0.530587 0.432236
Si Si4 0.247120 0.326073 0.569409
Si Si5 0.640802 0.583746 0.566728
Si Si6 0.117023 0.118751 0.567701
Si Si7 0.480262 0.171724 0.066672
O O1 0.500000 0.500000 0.500000
O O2 0.556842 0.460334 0.750000
O O3 0.622792 0.502142 0.522816
O O4 0.543552 0.375533 0.525735
O O5 0.041902 0.750000 0.500000
O O6 0.032591 0.673429 0.750000
O O7 0.072507 0.609051 0.502311
O O8 0.953387 0.651103 0.528922
O O9 0.061391 0.535971 0.250000
O O10 0.115966 0.466259 0.466032
O O11 0.000000 0.500000 0.500000
O O12 0.266804 0.250000 0.500000
O O13 0.252658 0.323147 0.750000
O O14 0.293740 0.386454 0.502543
O O15 0.174161 0.342781 0.519600
O O16 0.642900 0.589345 0.750000
O O17 0.582236 0.632261 0.503285
O O18 0.125783 0.127419 0.750000
O O19 0.473611 0.173494 0.250000
O O20 0.484586 0.250000 0.000000
#
# Coordination Sequence:
#
# PCOD9434315 Si02
#       7
#     8   8   8   8   8   8   8
#     4   8  16  29  46  65  87 116 149 185 225 268
#     4  10  19  30  47  71  98 125 155 191 233 276
#     4   9  17  30  48  68  92 121 154 190 232 278
#     4  12  24  35  48  67  92 124 158 192 226 266
#     4  10  19  33  49  65  89 122 156 190 227 268
#     4   9  19  34  49  67  92 124 158 192 228 271
#     4  10  18  29  45  69  96 120 149 184 225 271
#
# _framework density 16.385581999999999
#
# number of rings (size 3 to 8) (size 9 to 14) (size 15 to 20)
#    0.000    2.286    0.000    4.714    0.000    5.714 
#    0.000    0.000    0.000    0.000    0.000    1.000 
#    0.000    2.286    0.000    0.000    0.000    0.000 
#
# Total GULP energy -312047.035253 kJ/mol
# GULP energy per Si atom -5572.268487 kJ/mol
# Density = 1.634829 g / cm^3
# Si number density = 16.385582 Si / 1000 Ang^3
#
#
#
# Elastic Constant Matrix: (Units=GPa)
#
#
# Indices 1 2 3 4 5 6 
#
# 1 18.1909 -5.9318 10.1198 0.0000 0.0000 0.0000
# 2 -5.9318 75.1026 18.9227 0.0000 0.0000 0.0000
# 3 10.1198 18.9227 50.3994 0.0000 0.0000 0.0000
# 4 0.0000 0.0000 0.0000 24.6252 0.0000 0.0000
# 5 0.0000 0.0000 0.0000 0.0000 21.6796 0.0000
# 6 0.0000 0.0000 0.0000 0.0000 0.0000 25.5138
#
#
#
# Elastic Compliance Matrix: (Units=1/GPa)
#
#
# Indices 1 2 3 4 5 6 
#
# 1 0.067722 0.009692 -0.017237 0.000000 0.000000 0.000000
# 2 0.009692 0.016093 -0.007988 0.000000 0.000000 0.000000
# 3 -0.017237 -0.007988 0.026302 0.000000 0.000000 0.000000
# 4 0.000000 0.000000 0.000000 0.040609 0.000000 0.000000
# 5 0.000000 0.000000 0.000000 0.000000 0.046126 0.000000
# 6 0.000000 0.000000 0.000000 0.000000 0.000000 0.039195
#
#
# Mechanical properties :
#
#
# Convention : Reuss Voigt Hill
#
# Bulk Modulus (GPa) = 12.65018 21.10158 16.87588
# Shear Modulus (GPa) = 17.03791 22.40253 19.72022
#
# Velocity S-wave (km/s) = 3.22811 3.70159 3.47293
# Velocity P-wave (km/s) = 4.65095 5.58347 5.13841
#
# Compressibility (1/GPa) = 0.07905023
#
# Stress axis : x y z
#
# Youngs Moduli (GPa) = 14.76630 62.13756 38.02031
#
# Poissons Ratio (x) = -0.60222 0.65535
# Poissons Ratio (y) = -0.14311 0.30372
# Poissons Ratio (z) = 0.25452 0.49638
#
# Static dielectric constant tensor:
#      x y z
#    x 1.539870 0.000000 0.000000 
#    y 0.000000 1.588340 0.000000 
#    z 0.000000 0.000000 1.547590 
# 
# From -- ./inp_files/8299.got.cif
#   From: 2010.05.17/outbox.cif.g08.bks.cpg/sg57_5_cif.got.tgz:8299.got - 2010.06.03 13:58:18.
