data_PCOD9434456
_publ_section_title
;
Structure prediction by ZEFSAII (Michael W. Deem and Ramdas Pophale) SiO2 
 PCOD9434456
Probable space group: P B C M
;
_chemical_formula_sum "Si O2"
_cell_formula_units_Z 64
_cell_length_a 9.934482
_cell_length_b 19.369009
_cell_length_c 20.160003
_cell_angle_alpha 90.000000
_cell_angle_beta 90.000000
_cell_angle_gamma 90.000000
_cell_volume 3879.209374
_symmetry_space_group_name_H-M "P B C M"
_symmetry_group_IT_number 57
_symmetry_cell_setting 'orthorhombic'
loop_
_space_group_symop_operation_xyz
x,y,z
-x,-y,1/2+z
x,1/2-y,-z
-x,1/2+y,1/2-z
-x,-y,-z
x,y,1/2-z
-x,1/2+y,z
x,1/2-y,1/2+z
loop_
_atom_site_type_symbol
_atom_site_label
_atom_site_fract_x
_atom_site_fract_y
_atom_site_fract_z
Si Si1 0.785461 0.562367 0.826181
Si Si2 0.523653 0.562029 0.909594
Si Si3 0.652017 0.321131 0.915576
Si Si4 0.095833 0.071856 0.426108
Si Si5 0.592008 0.587494 0.437266
Si Si6 0.713254 0.338288 0.067864
Si Si7 0.984575 0.089272 0.572464
Si Si8 0.138079 0.900339 0.673373
O O1 0.797411 0.584237 0.750000
O O2 0.638426 0.575031 0.856024
O O3 0.897579 0.594925 0.873905
O O4 0.812847 0.479939 0.829483
O O5 0.478624 0.482260 0.910669
O O6 0.391759 0.608422 0.900737
O O7 0.582742 0.580379 0.982603
O O8 0.499180 0.348743 0.913131
O O9 0.668801 0.239058 0.915302
O O10 0.746002 0.354886 0.860257
O O11 0.703135 0.346711 0.987947
O O12 0.252235 0.089784 0.417544
O O13 0.044969 0.095960 0.498558
O O14 0.997149 0.102736 0.370547
O O15 0.077510 0.988436 0.424367
O O16 0.865123 0.357299 0.085779
O O17 0.115335 0.882167 0.750000
#
# Coordination Sequence:
#
# PCOD9434456 Si02
#       8
#     8   8   8   8   8   8   8   8
#     4  10  20  34  53  81 113 143 180 229 284 332
#     4  10  18  31  53  83 108 141 180 230 279 322
#     4  10  20  35  54  80 112 145 185 228 271 336
#     4  10  18  30  55  84 106 135 182 233 276 323
#     4  10  18  30  56  83 107 140 185 232 273 319
#     4  10  20  34  56  82 111 141 183 237 278 316
#     4  10  18  31  54  82 107 138 178 232 281 324
#     4  10  20  35  54  79 111 146 181 224 277 334
#
# _framework density 16.498207000000001
#
# number of rings (size 3 to 8) (size 9 to 14) (size 15 to 20)
#    0.000    2.000    5.000    0.000    0.000    0.000 
#    0.000    4.375    2.750    0.000    0.000    0.000 
#    0.000    0.000    0.000    0.000    0.000    0.000 
#
# Total GULP energy -356964.573161 kJ/mol
# GULP energy per Si atom -5577.571456 kJ/mol
# Density = 1.646066 g / cm^3
# Si number density = 16.498207 Si / 1000 Ang^3
#
#
#
# Elastic Constant Matrix: (Units=GPa)
#
#
# Indices 1 2 3 4 5 6 
#
# 1 136.6659 36.3358 66.5253 0.0000 0.0000 0.0000
# 2 36.3358 44.2444 33.0157 0.0000 0.0000 0.0000
# 3 66.5253 33.0157 108.6205 0.0000 0.0000 0.0000
# 4 0.0000 0.0000 0.0000 11.8622 0.0000 0.0000
# 5 0.0000 0.0000 0.0000 0.0000 24.2348 0.0000
# 6 0.0000 0.0000 0.0000 0.0000 0.0000 21.4435
#
#
#
# Elastic Compliance Matrix: (Units=1/GPa)
#
#
# Indices 1 2 3 4 5 6 
#
# 1 0.011321 -0.005333 -0.005313 0.000000 0.000000 0.000000
# 2 -0.005333 0.031744 -0.006382 0.000000 0.000000 0.000000
# 3 -0.005313 -0.006382 0.014400 0.000000 0.000000 0.000000
# 4 0.000000 0.000000 0.000000 0.084302 0.000000 0.000000
# 5 0.000000 0.000000 0.000000 0.000000 0.041263 0.000000
# 6 0.000000 0.000000 0.000000 0.000000 0.000000 0.046634
#
#
# Mechanical properties :
#
#
# Convention : Reuss Voigt Hill
#
# Bulk Modulus (GPa) = 42.71875 62.36495 52.54185
# Shear Modulus (GPa) = 18.41459 21.75170 20.08315
#
# Velocity S-wave (km/s) = 3.34452 3.63496 3.49276
# Velocity P-wave (km/s) = 6.39246 7.44985 6.94132
#
# Compressibility (1/GPa) = 0.02340892
#
# Stress axis : x y z
#
# Youngs Moduli (GPa) = 88.33057 31.50177 69.44383
#
# Poissons Ratio (x) = 0.16800 0.36893
# Poissons Ratio (y) = 0.47108 0.44323
# Poissons Ratio (z) = 0.46927 0.20106
#
# Static dielectric constant tensor:
#      x y z
#    x 1.540110 0.000000 0.000000 
#    y 0.000000 1.545590 0.000000 
#    z 0.000000 0.000000 1.544310 
# 
# From -- ./inp_files/24635.got.cif
#   From: 2010.05.17/outbox.cif.g08.bks.cpg/sg57_13_cif.got.tgz:24635.got - 2010.06.03 13:58:18.
