data_PCOD9434993
_publ_section_title
;
Structure prediction by ZEFSAII (Michael W. Deem and Ramdas Pophale) SiO2 
 PCOD9434993
Probable space group: P B C M
;
_chemical_formula_sum "Si O2"
_cell_formula_units_Z 64
_cell_length_a 17.363623
_cell_length_b 24.847259
_cell_length_c 8.438314
_cell_angle_alpha 90.000000
_cell_angle_beta 90.000000
_cell_angle_gamma 90.000000
_cell_volume 3640.613010
_symmetry_space_group_name_H-M "P B C M"
_symmetry_group_IT_number 57
_symmetry_cell_setting 'orthorhombic'
loop_
_space_group_symop_operation_xyz
x,y,z
-x,-y,1/2+z
x,1/2-y,-z
-x,1/2+y,1/2-z
-x,-y,-z
x,y,1/2-z
-x,1/2+y,z
x,1/2-y,1/2+z
loop_
_atom_site_type_symbol
_atom_site_label
_atom_site_fract_x
_atom_site_fract_y
_atom_site_fract_z
Si Si1 0.764196 0.811253 0.558044
Si Si2 0.725429 0.126448 0.439261
Si Si3 0.872324 0.190591 0.560716
Si Si4 0.574484 0.188286 0.057818
Si Si5 0.593951 0.811297 0.940784
Si Si6 0.969191 0.410995 0.440437
Si Si7 0.184518 0.526535 0.941335
Si Si8 0.859579 0.912192 0.559442
O O1 0.776023 0.750000 0.500000
O O2 0.766238 0.809376 0.750000
O O3 0.678270 0.831427 0.508809
O O4 0.825643 0.855406 0.501196
O O5 0.723395 0.124812 0.250000
O O6 0.793085 0.166945 0.492096
O O7 0.644321 0.150570 0.497166
O O8 0.750901 0.067789 0.499738
O O9 0.887076 0.250000 0.500000
O O10 0.865652 0.190470 0.750000
O O11 0.939391 0.148717 0.517105
O O12 0.576133 0.189793 0.250000
O O13 0.489620 0.167130 0.007236
O O14 0.584252 0.250000 0.000000
O O15 0.593873 0.812613 0.750000
O O16 0.593174 0.750000 0.000000
O O17 0.975205 0.414932 0.250000
O O18 0.899264 0.449943 0.491469
O O19 0.051994 0.421014 0.513278
O O20 0.185755 0.528387 0.750000
O O21 0.188259 0.464711 0.994101
O O22 0.855049 0.911055 0.750000
#
# Coordination Sequence:
#
# PCOD9434993 Si02
#       8
#     8   8   8   8   8   8   8   8
#     4   9  18  32  50  72  96 122 150 183 228 277
#     4  10  19  30  46  69  94 122 157 193 231 273
#     4  10  20  33  47  66  95 129 160 189 228 277
#     4   9  17  27  43  69  96 122 153 187 223 267
#     4   8  14  27  45  65  92 122 150 182 221 266
#     4   9  19  33  48  67  90 118 153 194 236 273
#     4   9  19  35  50  66  91 121 155 194 233 275
#     4  10  20  33  51  72  91 116 154 195 233 277
#
# _framework density 17.579457000000001
#
# number of rings (size 3 to 8) (size 9 to 14) (size 15 to 20)
#    0.000    2.750    0.000    2.250    0.000    6.000 
#    0.000    2.500    0.000    0.750    0.000    0.000 
#    0.000    0.000    0.000    0.000    0.000    0.125 
#
# Total GULP energy -356477.640513 kJ/mol
# GULP energy per Si atom -5569.963133 kJ/mol
# Density = 1.753945 g / cm^3
# Si number density = 17.579457 Si / 1000 Ang^3
#
#
#
# Elastic Constant Matrix: (Units=GPa)
#
#
# Indices 1 2 3 4 5 6 
#
# 1 56.7268 22.9008 9.1534 0.0000 0.0000 0.0000
# 2 22.9008 95.0696 16.6771 0.0000 0.0000 0.0000
# 3 9.1534 16.6771 7.4147 0.0000 0.0000 0.0000
# 4 0.0000 0.0000 0.0000 19.7890 0.0000 0.0000
# 5 0.0000 0.0000 0.0000 0.0000 15.2062 0.0000
# 6 0.0000 0.0000 0.0000 0.0000 0.0000 16.4909
#
#
#
# Elastic Compliance Matrix: (Units=1/GPa)
#
#
# Indices 1 2 3 4 5 6 
#
# 1 0.022058 -0.000886 -0.025237 0.000000 0.000000 0.000000
# 2 -0.000886 0.017409 -0.038061 0.000000 0.000000 0.000000
# 3 -0.025237 -0.038061 0.251629 0.000000 0.000000 0.000000
# 4 0.000000 0.000000 0.000000 0.050533 0.000000 0.000000
# 5 0.000000 0.000000 0.000000 0.000000 0.065763 0.000000
# 6 0.000000 0.000000 0.000000 0.000000 0.000000 0.060640
#
#
# Mechanical properties :
#
#
# Convention : Reuss Voigt Hill
#
# Bulk Modulus (GPa) = 6.14530 28.51931 17.33231
# Shear Modulus (GPa) = 7.68470 17.66254 12.67362
#
# Velocity S-wave (km/s) = 2.09306 3.17318 2.68793
# Velocity P-wave (km/s) = 3.05688 5.44828 4.41748
#
# Compressibility (1/GPa) = 0.16272598
#
# Stress axis : x y z
#
# Youngs Moduli (GPa) = 45.33409 57.44205 3.97411
#
# Poissons Ratio (x) = 0.05092 0.10030
# Poissons Ratio (y) = 0.04019 0.15126
# Poissons Ratio (z) = 1.14410 2.18632
#
# Static dielectric constant tensor:
#      x y z
#    x 1.623890 0.000000 0.000000 
#    y 0.000000 1.591000 0.000000 
#    z 0.000000 0.000000 1.637890 
# 
# From -- ./inp_files/7440.got.cif
#   From: 2010.05.17/outbox.cif.g08.bks.cpg/sg57_4_cif.got.tgz:7440.got - 2010.06.03 13:58:18.
