data_PCOD9434835
_publ_section_title
;
Structure prediction by ZEFSAII (Michael W. Deem and Ramdas Pophale) SiO2 
 PCOD9434835
Probable space group: P B C M
;
_chemical_formula_sum "Si O2"
_cell_formula_units_Z 48
_cell_length_a 9.395473
_cell_length_b 7.867414
_cell_length_c 27.474689
_cell_angle_alpha 90.000000
_cell_angle_beta 90.000000
_cell_angle_gamma 90.000000
_cell_volume 2030.876145
_symmetry_space_group_name_H-M "P B C M"
_symmetry_group_IT_number 57
_symmetry_cell_setting 'orthorhombic'
loop_
_space_group_symop_operation_xyz
x,y,z
-x,-y,1/2+z
x,1/2-y,-z
-x,1/2+y,1/2-z
-x,-y,-z
x,y,1/2-z
-x,1/2+y,z
x,1/2-y,1/2+z
loop_
_atom_site_type_symbol
_atom_site_label
_atom_site_fract_x
_atom_site_fract_y
_atom_site_fract_z
Si Si1 0.284340 0.003076 0.343397
Si Si2 0.836609 0.551416 0.445371
Si Si3 0.960408 0.775515 0.806514
Si Si4 0.457465 0.310610 0.193978
Si Si5 0.779797 0.467321 0.843980
Si Si6 0.829232 0.960319 0.446707
O O1 0.240595 0.973512 0.398882
O O2 0.144542 0.062265 0.313807
O O3 0.385720 0.169826 0.339839
O O4 0.383790 0.858945 0.320885
O O5 0.818914 0.755704 0.443629
O O6 0.786388 0.489710 0.498470
O O7 0.004771 0.511986 0.441588
O O8 0.959040 0.727538 0.750000
O O9 0.885228 0.630704 0.837893
O O10 0.117300 0.820268 0.824720
O O11 0.447077 0.255777 0.250000
O O12 0.356584 0.476770 0.186915
O O13 0.748284 0.456841 0.901259
#
# Coordination Sequence:
#
# PCOD9434835 Si02
#       6
#     8   8   8   8   8   8
#     4  11  22  41  58  85 118 164 204 245 301 355
#     4  10  20  36  65  91 123 153 195 251 308 366
#     4  11  21  35  57  86 118 150 199 250 297 353
#     4  11  23  40  59  82 121 165 204 245 300 359
#     4  11  20  37  58  86 117 152 194 251 302 355
#     4  10  18  37  63  95 120 151 193 246 312 356
#
# _framework density 23.635117000000001
#
# number of rings (size 3 to 8) (size 9 to 14) (size 15 to 20)
#    0.000    1.333    5.000    4.000    0.000    1.333 
#    3.000    4.167    0.000    0.000    0.000    0.000 
#    0.000    0.000    0.000    0.000    0.000    0.000 
#
# Total GULP energy -268735.438293 kJ/mol
# GULP energy per Si atom -5598.654964 kJ/mol
# Density = 2.358132 g / cm^3
# Si number density = 23.635117 Si / 1000 Ang^3
#
#
#
# Elastic Constant Matrix: (Units=GPa)
#
#
# Indices 1 2 3 4 5 6 
#
# 1 108.1541 3.8561 16.9287 0.0000 0.0000 0.0000
# 2 3.8561 57.3649 -4.7748 0.0000 0.0000 0.0000
# 3 16.9287 -4.7748 184.1270 0.0000 0.0000 0.0000
# 4 0.0000 0.0000 0.0000 19.3458 0.0000 0.0000
# 5 0.0000 0.0000 0.0000 0.0000 35.4106 0.0000
# 6 0.0000 0.0000 0.0000 0.0000 0.0000 38.6496
#
#
#
# Elastic Compliance Matrix: (Units=1/GPa)
#
#
# Indices 1 2 3 4 5 6 
#
# 1 0.009410 -0.000706 -0.000883 0.000000 0.000000 0.000000
# 2 -0.000706 0.017523 0.000519 0.000000 0.000000 0.000000
# 3 -0.000883 0.000519 0.005526 0.000000 0.000000 0.000000
# 4 0.000000 0.000000 0.000000 0.051691 0.000000 0.000000
# 5 0.000000 0.000000 0.000000 0.000000 0.028240 0.000000
# 6 0.000000 0.000000 0.000000 0.000000 0.000000 0.025873
#
#
# Mechanical properties :
#
#
# Convention : Reuss Voigt Hill
#
# Bulk Modulus (GPa) = 32.98382 42.40734 37.69558
# Shear Modulus (GPa) = 33.22060 40.92359 37.07210
#
# Velocity S-wave (km/s) = 3.75315 4.16561 3.96475
# Velocity P-wave (km/s) = 5.72427 6.41232 6.07804
#
# Compressibility (1/GPa) = 0.03031789
#
# Stress axis : x y z
#
# Youngs Moduli (GPa) = 106.27535 57.06801 180.97180
#
# Poissons Ratio (x) = 0.04029 0.15988
# Poissons Ratio (y) = 0.07504 -0.09398
# Poissons Ratio (z) = 0.09389 -0.02964
#
# Static dielectric constant tensor:
#      x y z
#    x 1.881050 0.000000 0.000000 
#    y 0.000000 2.060850 0.000000 
#    z 0.000000 0.000000 1.855650 
# 
# From -- ./inp_files/29479.got.cif
#   From: 2010.05.17/outbox.cif.g08.bks.cpg/sg57_15_cif.got.tgz:29479.got - 2010.06.03 13:58:18.
