data_PCOD9434832
_publ_section_title
;
Structure prediction by ZEFSAII (Michael W. Deem and Ramdas Pophale) SiO2 
 PCOD9434832
Probable space group: P B C M
;
_chemical_formula_sum "Si O2"
_cell_formula_units_Z 64
_cell_length_a 11.092941
_cell_length_b 14.536664
_cell_length_c 17.359867
_cell_angle_alpha 90.000000
_cell_angle_beta 90.000000
_cell_angle_gamma 90.000000
_cell_volume 2799.354175
_symmetry_space_group_name_H-M "P B C M"
_symmetry_group_IT_number 57
_symmetry_cell_setting 'orthorhombic'
loop_
_space_group_symop_operation_xyz
x,y,z
-x,-y,1/2+z
x,1/2-y,-z
-x,1/2+y,1/2-z
-x,-y,-z
x,y,1/2-z
-x,1/2+y,z
x,1/2-y,1/2+z
loop_
_atom_site_type_symbol
_atom_site_label
_atom_site_fract_x
_atom_site_fract_y
_atom_site_fract_z
Si Si1 0.540011 0.501301 0.161828
Si Si2 0.095157 0.944501 0.163172
Si Si3 0.279468 0.590220 0.339775
Si Si4 0.081458 0.133645 0.434293
Si Si5 0.649328 0.851582 0.572581
Si Si6 0.839558 0.255464 0.412121
Si Si7 0.404553 0.165746 0.607009
Si Si8 0.849347 0.579220 0.892801
O O1 0.573712 0.512859 0.250000
O O2 0.415996 0.557839 0.146900
O O3 0.636667 0.547570 0.106794
O O4 0.505847 0.397271 0.143440
O O5 0.142145 0.956997 0.250000
O O6 0.156974 0.859942 0.118093
O O7 0.956589 0.911111 0.166361
O O8 0.084745 0.040890 0.116956
O O9 0.251835 0.570986 0.250000
O O10 0.246979 0.693952 0.359494
O O11 0.196159 0.526203 0.393695
O O12 0.212110 0.179758 0.423165
O O13 0.092591 0.105619 0.524546
O O14 0.971194 0.202234 0.414746
O O15 0.602769 0.851025 0.485260
O O16 0.579266 0.773541 0.619562
O O17 0.796117 0.250000 0.500000
O O18 0.271751 0.131967 0.632161
#
# Coordination Sequence:
#
# PCOD9434832 Si02
#       8
#     8   8   8   8   8   8   8   8
#     4  10  22  41  62  87 122 163 203 250 306 364
#     4  12  24  36  56  90 126 161 199 249 310 364
#     4  10  21  39  60  84 121 163 207 252 299 360
#     4  11  23  40  63  91 127 158 201 258 309 364
#     4  10  21  40  65  93 122 156 202 257 307 355
#     4  12  23  39  62  89 125 164 209 248 305 370
#     4   9  20  38  66  93 115 157 207 252 292 361
#     4  10  18  37  63  87 117 160 203 244 297 364
#
# _framework density 22.862417000000001
#
# number of rings (size 3 to 8) (size 9 to 14) (size 15 to 20)
#    0.000    1.500    2.500    3.000    1.750    2.000 
#    4.500    1.250    0.000    0.000    0.000    0.000 
#    0.000    0.000    0.000    0.000    0.000    0.000 
#
# Total GULP energy -357595.195296 kJ/mol
# GULP energy per Si atom -5587.424926 kJ/mol
# Density = 2.281038 g / cm^3
# Si number density = 22.862417 Si / 1000 Ang^3
#
#
#
# Elastic Constant Matrix: (Units=GPa)
#
#
# Indices 1 2 3 4 5 6 
#
# 1 40.1523 -4.4203 8.6365 0.0000 0.0000 0.0000
# 2 -4.4203 94.7233 12.7637 0.0000 0.0000 0.0000
# 3 8.6365 12.7637 56.1946 0.0000 0.0000 0.0000
# 4 0.0000 0.0000 0.0000 18.6001 0.0000 0.0000
# 5 0.0000 0.0000 0.0000 0.0000 12.2794 0.0000
# 6 0.0000 0.0000 0.0000 0.0000 0.0000 36.9473
#
#
#
# Elastic Compliance Matrix: (Units=1/GPa)
#
#
# Indices 1 2 3 4 5 6 
#
# 1 0.026054 0.001811 -0.004416 0.000000 0.000000 0.000000
# 2 0.001811 0.011016 -0.002780 0.000000 0.000000 0.000000
# 3 -0.004416 -0.002780 0.019105 0.000000 0.000000 0.000000
# 4 0.000000 0.000000 0.000000 0.053763 0.000000 0.000000
# 5 0.000000 0.000000 0.000000 0.000000 0.081437 0.000000
# 6 0.000000 0.000000 0.000000 0.000000 0.000000 0.027066
#
#
# Mechanical properties :
#
#
# Convention : Reuss Voigt Hill
#
# Bulk Modulus (GPa) = 22.02373 25.00333 23.51353
# Shear Modulus (GPa) = 20.46269 25.17140 22.81704
#
# Velocity S-wave (km/s) = 2.99496 3.32172 3.16257
# Velocity P-wave (km/s) = 4.64906 5.06675 4.86239
#
# Compressibility (1/GPa) = 0.04540556
#
# Stress axis : x y z
#
# Youngs Moduli (GPa) = 38.38141 90.77520 52.34106
#
# Poissons Ratio (x) = -0.16438 0.23112
# Poissons Ratio (y) = -0.06950 0.14553
# Poissons Ratio (z) = 0.16948 0.25240
#
# Static dielectric constant tensor:
#      x y z
#    x 1.887350 0.000000 0.000000 
#    y 0.000000 1.876420 0.000000 
#    z 0.000000 0.000000 1.826560 
# 
# From -- ./inp_files/22085.got.cif
#   From: 2010.05.17/outbox.cif.g08.bks.cpg/sg57_12_cif.got.tgz:22085.got - 2010.06.03 13:58:18.
