data_PCOD9434381
_publ_section_title
;
Structure prediction by ZEFSAII (Michael W. Deem and Ramdas Pophale) SiO2 
 PCOD9434381
Probable space group: P B C M
;
_chemical_formula_sum "Si O2"
_cell_formula_units_Z 48
_cell_length_a 13.061057
_cell_length_b 26.117598
_cell_length_c 8.622763
_cell_angle_alpha 90.000000
_cell_angle_beta 90.000000
_cell_angle_gamma 90.000000
_cell_volume 2941.426544
_symmetry_space_group_name_H-M "P B C M"
_symmetry_group_IT_number 57
_symmetry_cell_setting 'orthorhombic'
loop_
_space_group_symop_operation_xyz
x,y,z
-x,-y,1/2+z
x,1/2-y,-z
-x,1/2+y,1/2-z
-x,-y,-z
x,y,1/2-z
-x,1/2+y,z
x,1/2-y,1/2+z
loop_
_atom_site_type_symbol
_atom_site_label
_atom_site_fract_x
_atom_site_fract_y
_atom_site_fract_z
Si Si1 0.002569 0.692115 0.064291
Si Si2 0.384234 0.002234 0.063882
Si Si3 0.619275 0.609703 0.564171
Si Si4 0.775259 0.692250 0.435858
Si Si5 0.381717 0.889543 0.061608
Si Si6 0.784546 0.307766 0.063807
O O1 0.012545 0.692898 0.250000
O O2 0.889690 0.671575 0.023957
O O3 0.000468 0.750000 0.000000
O O4 0.106035 0.669908 0.991847
O O5 0.385226 0.005603 0.250000
O O6 0.341222 0.946346 0.018914
O O7 0.340491 0.054682 0.995712
O O8 0.500000 0.000000 0.000000
O O9 0.619353 0.609323 0.750000
O O10 0.689051 0.655297 0.502510
O O11 0.500334 0.615814 0.511462
O O12 0.765239 0.750000 0.500000
O O13 0.768372 0.694335 0.250000
O O14 0.383264 0.888041 0.250000
O O15 0.307548 0.844263 0.009333
O O16 0.784574 0.305306 0.250000
O O17 0.773542 0.250000 0.000000
#
# Coordination Sequence:
#
# PCOD9434381 Si02
#       6
#     8   8   8   8   8   8
#     4   9  17  30  47  67  90 118 155 194 229 269
#     4   9  16  30  49  68  91 122 161 198 234 275
#     4  10  19  32  49  71  98 125 156 193 235 282
#     4  10  20  33  49  70  96 125 156 192 234 278
#     4   8  17  31  47  68  95 125 154 190 232 275
#     4  10  18  30  47  68  94 123 154 187 228 274
#
# _framework density 16.318612000000002
#
# number of rings (size 3 to 8) (size 9 to 14) (size 15 to 20)
#    0.000    2.667    0.000    4.500    0.000    2.667 
#    0.000   11.667    0.000    1.000    0.000    0.000 
#    0.000    0.000    0.000    0.000    0.000    0.000 
#
# Total GULP energy -267214.170261 kJ/mol
# GULP energy per Si atom -5566.961880 kJ/mol
# Density = 1.628147 g / cm^3
# Si number density = 16.318612 Si / 1000 Ang^3
#
#
#
# Elastic Constant Matrix: (Units=GPa)
#
#
# Indices 1 2 3 4 5 6 
#
# 1 107.5684 70.9039 31.9960 0.0000 0.0000 0.0000
# 2 70.9039 111.3699 32.1709 0.0000 0.0000 0.0000
# 3 31.9960 32.1709 53.9394 0.0000 0.0000 0.0000
# 4 0.0000 0.0000 0.0000 24.7915 0.0000 0.0000
# 5 0.0000 0.0000 0.0000 0.0000 21.1314 0.0000
# 6 0.0000 0.0000 0.0000 0.0000 0.0000 -1.2602
#
#
#
# Elastic Compliance Matrix: (Units=1/GPa)
#
#
# Indices 1 2 3 4 5 6 
#
# 1 0.016819 -0.009455 -0.004338 0.000000 0.000000 0.000000
# 2 -0.009455 0.016163 -0.004032 0.000000 0.000000 0.000000
# 3 -0.004338 -0.004032 0.023517 0.000000 0.000000 0.000000
# 4 0.000000 0.000000 0.000000 0.040336 0.000000 0.000000
# 5 0.000000 0.000000 0.000000 0.000000 0.047323 0.000000
# 6 0.000000 0.000000 0.000000 0.000000 0.000000 -0.793536
#
#
# Mechanical properties :
#
#
# Convention : Reuss Voigt Hill
#
# Bulk Modulus (GPa) = 47.95987 60.33549 54.14768
# Shear Modulus (GPa) = -8.24022 18.11967 4.93973
#
# Velocity S-wave (km/s) = -2.24957 3.33583 1.74173
# Velocity P-wave (km/s) = 4.76509 7.20352 6.10724
#
# Compressibility (1/GPa) = 0.02085076
#
# Stress axis : x y z
#
# Youngs Moduli (GPa) = 59.45780 61.86955 42.52254
#
# Poissons Ratio (x) = 0.58496 0.18444
# Poissons Ratio (y) = 0.56215 0.17144
# Poissons Ratio (z) = 0.25790 0.24944
#
# Static dielectric constant tensor:
#      x y z
#    x 1.559390 0.000000 0.000000 
#    y 0.000000 1.537570 0.000000 
#    z 0.000000 0.000000 1.552080 
# 
# From -- ./inp_files/3303.got.cif
#   From: 2010.05.17/outbox.cif.g08.bks.cpg/sg57_2_cif.got.tgz:3303.got - 2010.06.03 13:58:18.
