data_PCOD9434073
_publ_section_title
;
Structure prediction by ZEFSAII (Michael W. Deem and Ramdas Pophale) SiO2 
 PCOD9434073
Probable space group: P B C M
;
_chemical_formula_sum "Si O2"
_cell_formula_units_Z 48
_cell_length_a 9.209940
_cell_length_b 32.397620
_cell_length_c 8.590796
_cell_angle_alpha 90.000000
_cell_angle_beta 90.000000
_cell_angle_gamma 90.000000
_cell_volume 2563.322882
_symmetry_space_group_name_H-M "P B C M"
_symmetry_group_IT_number 57
_symmetry_cell_setting 'orthorhombic'
loop_
_space_group_symop_operation_xyz
x,y,z
-x,-y,1/2+z
x,1/2-y,-z
-x,1/2+y,1/2-z
-x,-y,-z
x,y,1/2-z
-x,1/2+y,z
x,1/2-y,1/2+z
loop_
_atom_site_type_symbol
_atom_site_label
_atom_site_fract_x
_atom_site_fract_y
_atom_site_fract_z
Si Si1 0.579671 0.040651 0.937585
Si Si2 0.418557 0.207283 0.564037
Si Si3 0.916050 0.460366 0.437383
Si Si4 0.912351 0.878386 0.062621
Si Si5 0.416541 0.120792 0.436054
Si Si6 0.913077 0.707592 0.435837
O O1 0.570764 0.041633 0.750000
O O2 0.748257 0.039084 0.985030
O O3 0.505415 0.081539 0.005269
O O4 0.500000 0.000000 0.000000
O O5 0.484745 0.250000 0.500000
O O6 0.417623 0.207773 0.750000
O O7 0.479752 0.164019 0.501576
O O8 0.252082 0.207015 0.501851
O O9 0.920403 0.461666 0.250000
O O10 0.000000 0.500000 0.500000
O O11 0.994789 0.418065 0.485555
O O12 0.906695 0.875850 0.250000
O O13 0.748424 0.883206 0.999280
O O14 0.976179 0.835545 0.996522
O O15 0.412546 0.122550 0.250000
O O16 0.980801 0.750000 0.500000
O O17 0.908335 0.708471 0.250000
#
# Coordination Sequence:
#
# PCOD9434073 Si02
#       6
#     8   8   8   8   8   8
#     4  11  23  40  58  81 108 140 177 220 268 321
#     4  10  17  28  47  74 107 143 179 222 266 312
#     4  10  23  39  58  80 107 138 175 218 266 318
#     4  10  19  34  54  79 108 142 178 221 268 314
#     4  11  21  34  53  81 111 144 181 222 266 317
#     4  10  17  27  45  73 106 141 177 219 262 310
#
# _framework density 18.725695000000002
#
# number of rings (size 3 to 8) (size 9 to 14) (size 15 to 20)
#    0.000    1.667    0.000    9.500    0.000    5.333 
#    0.000    0.000    0.000    1.000    0.000    4.667 
#    0.000    0.000    0.000    0.000    0.000    0.000 
#
# Total GULP energy -268029.162607 kJ/mol
# GULP energy per Si atom -5583.940888 kJ/mol
# Density = 1.868307 g / cm^3
# Si number density = 18.725695 Si / 1000 Ang^3
#
#
#
# Elastic Constant Matrix: (Units=GPa)
#
#
# Indices 1 2 3 4 5 6 
#
# 1 77.5873 79.0767 34.7286 0.0000 0.0000 0.0000
# 2 79.0767 243.2216 75.7924 0.0000 0.0000 0.0000
# 3 34.7286 75.7924 137.4914 0.0000 0.0000 0.0000
# 4 0.0000 0.0000 0.0000 40.8930 0.0000 0.0000
# 5 0.0000 0.0000 0.0000 0.0000 16.8984 0.0000
# 6 0.0000 0.0000 0.0000 0.0000 0.0000 25.0194
#
#
#
# Elastic Compliance Matrix: (Units=1/GPa)
#
#
# Indices 1 2 3 4 5 6 
#
# 1 0.019614 -0.005836 -0.001737 0.000000 0.000000 0.000000
# 2 -0.005836 0.006700 -0.002220 0.000000 0.000000 0.000000
# 3 -0.001737 -0.002220 0.008936 0.000000 0.000000 0.000000
# 4 0.000000 0.000000 0.000000 0.024454 0.000000 0.000000
# 5 0.000000 0.000000 0.000000 0.000000 0.059177 0.000000
# 6 0.000000 0.000000 0.000000 0.000000 0.000000 0.039969
#
#
# Mechanical properties :
#
#
# Convention : Reuss Voigt Hill
#
# Bulk Modulus (GPa) = 63.83725 93.05508 78.44617
# Shear Modulus (GPa) = 27.22468 34.47566 30.85017
#
# Velocity S-wave (km/s) = 3.81710 4.29545 4.06332
# Velocity P-wave (km/s) = 7.32064 8.62571 7.99983
#
# Compressibility (1/GPa) = 0.01566484
#
# Stress axis : x y z
#
# Youngs Moduli (GPa) = 50.98426 149.24464 111.91186
#
# Poissons Ratio (x) = 0.87092 0.19444
# Poissons Ratio (y) = 0.29752 0.24840
# Poissons Ratio (z) = 0.08858 0.33127
#
# Static dielectric constant tensor:
#      x y z
#    x 1.637070 0.000000 0.000000 
#    y 0.000000 1.689690 0.000000 
#    z 0.000000 0.000000 1.628130 
# 
# From -- ./inp_files/2074.got.cif
#   From: 2010.05.17/outbox.cif.g08.bks.cpg/sg57_2_cif.got.tgz:2074.got - 2010.06.03 13:58:18.
