data_PCOD9434926
_publ_section_title
;
Structure prediction by ZEFSAII (Michael W. Deem and Ramdas Pophale) SiO2 
 PCOD9434926
Probable space group: P B C M
;
_chemical_formula_sum "Si O2"
_cell_formula_units_Z 64
_cell_length_a 17.034249
_cell_length_b 24.378768
_cell_length_c 8.758983
_cell_angle_alpha 90.000000
_cell_angle_beta 90.000000
_cell_angle_gamma 90.000000
_cell_volume 3637.377945
_symmetry_space_group_name_H-M "P B C M"
_symmetry_group_IT_number 57
_symmetry_cell_setting 'orthorhombic'
loop_
_space_group_symop_operation_xyz
x,y,z
-x,-y,1/2+z
x,1/2-y,-z
-x,1/2+y,1/2-z
-x,-y,-z
x,y,1/2-z
-x,1/2+y,z
x,1/2-y,1/2+z
loop_
_atom_site_type_symbol
_atom_site_label
_atom_site_fract_x
_atom_site_fract_y
_atom_site_fract_z
Si Si1 0.815312 0.478394 0.066609
Si Si2 0.038340 0.587315 0.431688
Si Si3 0.428101 0.811375 0.932062
Si Si4 0.235974 0.188977 0.567523
Si Si5 0.121678 0.810256 0.432551
Si Si6 0.866976 0.586024 0.932473
Si Si7 0.398032 0.188519 0.432998
Si Si8 0.282853 0.625635 0.931872
O O1 0.816389 0.482163 0.250000
O O2 0.747858 0.434717 0.022021
O O3 0.897289 0.451684 0.010697
O O4 0.810304 0.537827 0.991581
O O5 0.043327 0.581252 0.250000
O O6 0.062707 0.648244 0.484822
O O7 0.950907 0.576729 0.489680
O O8 0.424844 0.806008 0.750000
O O9 0.515411 0.833668 0.972330
O O10 0.418404 0.750000 0.000000
O O11 0.359494 0.850866 0.988445
O O12 0.223660 0.250000 0.500000
O O13 0.241095 0.193841 0.750000
O O14 0.168167 0.145649 0.528620
O O15 0.318610 0.165176 0.504726
O O16 0.114642 0.750000 0.500000
O O17 0.108579 0.811273 0.250000
O O18 0.209144 0.833923 0.461216
O O19 0.875272 0.582469 0.750000
O O20 0.399930 0.250000 0.500000
O O21 0.390218 0.189821 0.250000
O O22 0.295878 0.625070 0.750000
#
# Coordination Sequence:
#
# PCOD9434926 Si02
#       8
#     8   8   8   8   8   8   8   8
#     4  10  21  38  57  77 102 134 173 215 259 304
#     4  11  22  36  55  77 102 136 174 215 261 304
#     4  10  19  29  47  76 107 139 173 209 250 298
#     4  10  21  36  56  80 106 135 166 205 254 306
#     4  10  20  34  50  72 104 140 176 213 258 309
#     4  11  23  38  56  79 104 131 168 213 258 307
#     4   9  17  30  49  74 104 136 169 206 249 298
#     4   9  19  33  50  73 102 135 171 212 253 297
#
# _framework density 17.595092000000001
#
# number of rings (size 3 to 8) (size 9 to 14) (size 15 to 20)
#    0.000    2.000    0.000    5.625    0.000    8.000 
#    0.000    1.250    0.000    0.750    0.000    0.000 
#    0.000    0.000    0.000    0.000    0.000    0.000 
#
# Total GULP energy -357136.317708 kJ/mol
# GULP energy per Si atom -5580.254964 kJ/mol
# Density = 1.755505 g / cm^3
# Si number density = 17.595092 Si / 1000 Ang^3
#
#
#
# Elastic Constant Matrix: (Units=GPa)
#
#
# Indices 1 2 3 4 5 6 
#
# 1 52.4509 9.1332 12.8844 0.0000 0.0000 0.0000
# 2 9.1332 77.3642 14.5097 0.0000 0.0000 0.0000
# 3 12.8844 14.5097 40.9339 0.0000 0.0000 0.0000
# 4 0.0000 0.0000 0.0000 26.5696 0.0000 0.0000
# 5 0.0000 0.0000 0.0000 0.0000 26.7793 0.0000
# 6 0.0000 0.0000 0.0000 0.0000 0.0000 14.4195
#
#
#
# Elastic Compliance Matrix: (Units=1/GPa)
#
#
# Indices 1 2 3 4 5 6 
#
# 1 0.020787 -0.001314 -0.006077 0.000000 0.000000 0.000000
# 2 -0.001314 0.013929 -0.004524 0.000000 0.000000 0.000000
# 3 -0.006077 -0.004524 0.027946 0.000000 0.000000 0.000000
# 4 0.000000 0.000000 0.000000 0.037637 0.000000 0.000000
# 5 0.000000 0.000000 0.000000 0.000000 0.037342 0.000000
# 6 0.000000 0.000000 0.000000 0.000000 0.000000 0.069351
#
#
# Mechanical properties :
#
#
# Convention : Reuss Voigt Hill
#
# Bulk Modulus (GPa) = 25.75185 27.08929 26.42057
# Shear Modulus (GPa) = 20.51138 22.50178 21.50658
#
# Velocity S-wave (km/s) = 3.41800 3.58000 3.49994
# Velocity P-wave (km/s) = 5.49951 5.70245 5.60190
#
# Compressibility (1/GPa) = 0.03883216
#
# Stress axis : x y z
#
# Youngs Moduli (GPa) = 48.10664 71.79019 35.78323
#
# Poissons Ratio (x) = 0.09435 0.21746
# Poissons Ratio (y) = 0.06322 0.16188
# Poissons Ratio (z) = 0.29235 0.32477
#
# Static dielectric constant tensor:
#      x y z
#    x 1.618670 0.000000 0.000000 
#    y 0.000000 1.599220 0.000000 
#    z 0.000000 0.000000 1.581210 
# 
# From -- ./inp_files/5641.got.cif
#   From: 2010.05.17/outbox.cif.g08.bks.cpg/sg57_3_cif.got.tgz:5641.got - 2010.06.03 13:58:18.
