data_PCOD9434904
_publ_section_title
;
Structure prediction by ZEFSAII (Michael W. Deem and Ramdas Pophale) SiO2 
 PCOD9434904
Probable space group: P B C M
;
_chemical_formula_sum "Si O2"
_cell_formula_units_Z 64
_cell_length_a 14.060647
_cell_length_b 27.877916
_cell_length_c 9.391600
_cell_angle_alpha 90.000000
_cell_angle_beta 90.000000
_cell_angle_gamma 90.000000
_cell_volume 3681.333793
_symmetry_space_group_name_H-M "P B C M"
_symmetry_group_IT_number 57
_symmetry_cell_setting 'orthorhombic'
loop_
_space_group_symop_operation_xyz
x,y,z
-x,-y,1/2+z
x,1/2-y,-z
-x,1/2+y,1/2-z
-x,-y,-z
x,y,1/2-z
-x,1/2+y,z
x,1/2-y,1/2+z
loop_
_atom_site_type_symbol
_atom_site_label
_atom_site_fract_x
_atom_site_fract_y
_atom_site_fract_z
Si Si1 0.586924 0.346185 0.912353
Si Si2 0.022431 0.299062 0.081950
Si Si3 0.730777 0.436892 0.583819
Si Si4 0.600283 0.988773 0.578953
Si Si5 0.727485 0.291442 0.407701
Si Si6 0.371418 0.376341 0.917930
Si Si7 0.750239 0.700914 0.582342
Si Si8 0.876394 0.121869 0.587259
O O1 0.591130 0.328729 0.750000
O O2 0.654341 0.393127 0.919369
O O3 0.479619 0.360003 0.945779
O O4 0.630762 0.307831 0.018310
O O5 0.999125 0.293053 0.250000
O O6 0.135769 0.305171 0.067823
O O7 0.967180 0.347345 0.034956
O O8 0.997098 0.250000 0.000000
O O9 0.742835 0.450271 0.750000
O O10 0.681309 0.477895 0.489890
O O11 0.829063 0.417947 0.513927
O O12 0.590184 0.996690 0.750000
O O13 0.628945 0.933340 0.556481
O O14 0.500000 0.000000 0.500000
O O15 0.773427 0.250000 0.500000
O O16 0.711536 0.273806 0.250000
O O17 0.795586 0.337097 0.404457
O O18 0.351066 0.368374 0.750000
O O19 0.302327 0.344238 0.012600
O O20 0.723807 0.750000 0.500000
O O21 0.728274 0.705231 0.750000
O O22 0.893016 0.104397 0.750000
#
# Coordination Sequence:
#
# PCOD9434904 Si02
#       8
#     8   8   8   8   8   8   8   8
#     4   9  18  33  48  65  95 132 168 207 253 304
#     4   9  18  33  54  79 107 136 176 223 272 323
#     4  10  19  33  51  77 108 138 173 215 261 313
#     4  11  21  35  56  81 109 142 180 222 267 313
#     4  10  19  29  43  66  95 130 168 204 249 304
#     4  10  21  37  55  77 105 139 177 220 265 313
#     4  10  21  37  57  81 107 140 178 224 271 317
#     4   9  18  32  50  74 103 136 171 212 263 319
#
# _framework density 17.385003999999999
#
# number of rings (size 3 to 8) (size 9 to 14) (size 15 to 20)
#    0.000    2.250    1.250    1.875    0.000    4.000 
#    0.000    0.000    0.000    0.750    0.000    0.000 
#    0.000    0.000    0.000    0.000    0.000    0.000 
#
# Total GULP energy -356806.690280 kJ/mol
# GULP energy per Si atom -5575.104536 kJ/mol
# Density = 1.734543 g / cm^3
# Si number density = 17.385004 Si / 1000 Ang^3
#
#
#
# Elastic Constant Matrix: (Units=GPa)
#
#
# Indices 1 2 3 4 5 6 
#
# 1 55.6827 36.3243 46.9572 0.0000 0.0000 0.0000
# 2 36.3243 74.3688 56.2433 0.0000 0.0000 0.0000
# 3 46.9572 56.2433 105.2518 0.0000 0.0000 0.0000
# 4 0.0000 0.0000 0.0000 30.3907 0.0000 0.0000
# 5 0.0000 0.0000 0.0000 0.0000 20.3111 0.0000
# 6 0.0000 0.0000 0.0000 0.0000 0.0000 26.1148
#
#
#
# Elastic Compliance Matrix: (Units=1/GPa)
#
#
# Indices 1 2 3 4 5 6 
#
# 1 0.031361 -0.007949 -0.009744 0.000000 0.000000 0.000000
# 2 -0.007949 0.024581 -0.009589 0.000000 0.000000 0.000000
# 3 -0.009744 -0.009589 0.018972 0.000000 0.000000 0.000000
# 4 0.000000 0.000000 0.000000 0.032905 0.000000 0.000000
# 5 0.000000 0.000000 0.000000 0.000000 0.049234 0.000000
# 6 0.000000 0.000000 0.000000 0.000000 0.000000 0.038292
#
#
# Mechanical properties :
#
#
# Convention : Reuss Voigt Hill
#
# Bulk Modulus (GPa) = 49.13777 57.15033 53.14405
# Shear Modulus (GPa) = 19.47849 21.74854 20.61351
#
# Velocity S-wave (km/s) = 3.35090 3.54078 3.44714
# Velocity P-wave (km/s) = 6.58006 7.04705 6.81755
#
# Compressibility (1/GPa) = 0.02035094
#
# Stress axis : x y z
#
# Youngs Moduli (GPa) = 31.88624 40.68206 52.70850
#
# Poissons Ratio (x) = 0.32338 0.51359
# Poissons Ratio (y) = 0.25346 0.50542
# Poissons Ratio (z) = 0.31070 0.39010
#
# Static dielectric constant tensor:
#      x y z
#    x 1.585980 0.000000 0.000000 
#    y 0.000000 1.590690 0.000000 
#    z 0.000000 0.000000 1.625510 
# 
# From -- ./inp_files/5586.got.cif
#   From: 2010.05.17/outbox.cif.g08.bks.cpg/sg57_3_cif.got.tgz:5586.got - 2010.06.03 13:58:18.
