data_PCOD9434649
_publ_section_title
;
Structure prediction by ZEFSAII (Michael W. Deem and Ramdas Pophale) SiO2 
 PCOD9434649
Probable space group: P B C M
;
_chemical_formula_sum "Si O2"
_cell_formula_units_Z 44
_cell_length_a 11.226117
_cell_length_b 12.172054
_cell_length_c 18.700929
_cell_angle_alpha 90.000000
_cell_angle_beta 90.000000
_cell_angle_gamma 90.000000
_cell_volume 2555.386617
_symmetry_space_group_name_H-M "P B C M"
_symmetry_group_IT_number 57
_symmetry_cell_setting 'orthorhombic'
loop_
_space_group_symop_operation_xyz
x,y,z
-x,-y,1/2+z
x,1/2-y,-z
-x,1/2+y,1/2-z
-x,-y,-z
x,y,1/2-z
-x,1/2+y,z
x,1/2-y,1/2+z
loop_
_atom_site_type_symbol
_atom_site_label
_atom_site_fract_x
_atom_site_fract_y
_atom_site_fract_z
Si Si1 0.326906 0.572204 0.015233
Si Si2 0.235060 0.222645 0.166043
Si Si3 0.046234 0.391112 0.919992
Si Si4 0.418955 0.151460 0.054431
Si Si5 0.140887 0.750000 0.000000
Si Si6 0.856580 0.570913 0.577232
O O1 0.438830 0.638351 0.046480
O O2 0.230257 0.651797 0.977808
O O3 0.252015 0.514549 0.077773
O O4 0.372353 0.469900 0.967736
O O5 0.247163 0.236742 0.250000
O O6 0.135006 0.134382 0.143691
O O7 0.358528 0.187100 0.128383
O O8 0.181429 0.330069 0.126935
O O9 0.945837 0.298964 0.938790
O O10 0.976616 0.504211 0.906466
O O11 0.121779 0.395400 0.994069
O O12 0.383125 0.250000 0.000000
#
# Coordination Sequence:
#
# PCOD9434649 Si02
#       6
#     8   8   8   8   4   8
#     4  10  20  33  62  86 109 138 186 251 290 330
#     4  12  23  36  54  82 124 159 187 228 288 359
#     4  10  19  34  59  85 117 141 192 241 282 342
#     4  11  20  37  59  84 110 144 198 246 285 331
#     4  10  18  32  58  96 108 136 182 248 302 322
#     4  10  19  36  58  85 108 148 189 243 288 331
#
# _framework density 17.218527999999999
#
# number of rings (size 3 to 8) (size 9 to 14) (size 15 to 20)
#    0.000    1.455    6.364    0.000    0.000    0.727 
#    0.000    0.909    0.000    1.091    0.000    0.000 
#    0.000    0.000    0.000    0.000    0.000    0.000 
#
# Total GULP energy -245052.076803 kJ/mol
# GULP energy per Si atom -5569.365382 kJ/mol
# Density = 1.717934 g / cm^3
# Si number density = 17.218528 Si / 1000 Ang^3
#
#
#
# Elastic Constant Matrix: (Units=GPa)
#
#
# Indices 1 2 3 4 5 6 
#
# 1 111.4205 34.3480 45.6799 0.0000 0.0000 0.0000
# 2 34.3480 72.1434 32.2492 0.0000 0.0000 0.0000
# 3 45.6799 32.2492 92.4302 0.0000 0.0000 0.0000
# 4 0.0000 0.0000 0.0000 10.5286 0.0000 0.0000
# 5 0.0000 0.0000 0.0000 0.0000 15.2064 0.0000
# 6 0.0000 0.0000 0.0000 0.0000 0.0000 34.9309
#
#
#
# Elastic Compliance Matrix: (Units=1/GPa)
#
#
# Indices 1 2 3 4 5 6 
#
# 1 0.012008 -0.003630 -0.004668 0.000000 0.000000 0.000000
# 2 -0.003630 0.017520 -0.004319 0.000000 0.000000 0.000000
# 3 -0.004668 -0.004319 0.014633 0.000000 0.000000 0.000000
# 4 0.000000 0.000000 0.000000 0.094979 0.000000 0.000000
# 5 0.000000 0.000000 0.000000 0.000000 0.065762 0.000000
# 6 0.000000 0.000000 0.000000 0.000000 0.000000 0.028628
#
#
# Mechanical properties :
#
#
# Convention : Reuss Voigt Hill
#
# Bulk Modulus (GPa) = 52.83454 55.61649 54.22552
# Shear Modulus (GPa) = 18.86276 23.04764 20.95520
#
# Velocity S-wave (km/s) = 3.31341 3.66257 3.49236
# Velocity P-wave (km/s) = 6.73718 7.08918 6.91542
#
# Compressibility (1/GPa) = 0.01892701
#
# Stress axis : x y z
#
# Youngs Moduli (GPa) = 83.27887 57.07667 68.34050
#
# Poissons Ratio (x) = 0.20722 0.31899
# Poissons Ratio (y) = 0.30234 0.29514
# Poissons Ratio (z) = 0.38872 0.24650
#
# Static dielectric constant tensor:
#      x y z
#    x 1.640180 0.000000 0.000000 
#    y 0.000000 1.670390 0.000000 
#    z 0.000000 0.000000 1.532590 
# 
# From -- ./inp_files/21730.got.cif
#   From: 2010.05.17/outbox.cif.g08.bks.cpg/sg57_11_cif.got.tgz:21730.got - 2010.06.03 13:58:18.
