data_PCOD9434226
_publ_section_title
;
Structure prediction by ZEFSAII (Michael W. Deem and Ramdas Pophale) SiO2 
 PCOD9434226
Probable space group: P B C M
;
_chemical_formula_sum "Si O2"
_cell_formula_units_Z 48
_cell_length_a 11.807935
_cell_length_b 27.300826
_cell_length_c 8.851978
_cell_angle_alpha 90.000000
_cell_angle_beta 90.000000
_cell_angle_gamma 90.000000
_cell_volume 2853.580094
_symmetry_space_group_name_H-M "P B C M"
_symmetry_group_IT_number 57
_symmetry_cell_setting 'orthorhombic'
loop_
_space_group_symop_operation_xyz
x,y,z
-x,-y,1/2+z
x,1/2-y,-z
-x,1/2+y,1/2-z
-x,-y,-z
x,y,1/2-z
-x,1/2+y,z
x,1/2-y,1/2+z
loop_
_atom_site_type_symbol
_atom_site_label
_atom_site_fract_x
_atom_site_fract_y
_atom_site_fract_z
Si Si1 0.855679 0.546751 0.067921
Si Si2 0.538342 0.451272 0.579298
Si Si3 0.669656 0.623188 0.421070
Si Si4 0.496791 0.696092 0.568694
Si Si5 0.879324 0.441699 0.929847
Si Si6 0.701297 0.122641 0.571811
O O1 0.841685 0.542847 0.250000
O O2 0.775535 0.591709 0.016840
O O3 0.986836 0.558419 0.033697
O O4 0.831901 0.493097 0.997854
O O5 0.500000 0.500000 0.500000
O O6 0.583354 0.458273 0.750000
O O7 0.429153 0.416977 0.590532
O O8 0.625070 0.423978 0.471065
O O9 0.696997 0.640397 0.250000
O O10 0.607967 0.666249 0.513320
O O11 0.497195 0.750000 0.500000
O O12 0.497010 0.697400 0.750000
O O13 0.380440 0.667462 0.521104
O O14 0.866868 0.443350 0.750000
O O15 0.817760 0.393020 0.992006
O O16 0.719288 0.127216 0.750000
#
# Coordination Sequence:
#
# PCOD9434226 Si02
#       6
#     8   8   8   8   8   8
#     4   9  18  32  49  72 104 139 170 201 239 284
#     4  10  18  27  43  68  97 128 159 195 240 290
#     4   9  18  32  49  69  96 128 161 198 241 290
#     4  10  21  36  55  76  96 121 156 202 255 304
#     4  10  19  30  48  74 103 137 173 205 238 281
#     4  10  20  33  48  68  96 129 164 202 244 291
#
# _framework density 16.820974
#
# number of rings (size 3 to 8) (size 9 to 14) (size 15 to 20)
#    0.000    2.333    0.000    3.000    0.000    5.333 
#    0.000    0.000    0.000    1.000    0.000    2.333 
#    0.000    0.000    0.000    0.000    0.000    0.000 
#
# Total GULP energy -267337.341337 kJ/mol
# GULP energy per Si atom -5569.527945 kJ/mol
# Density = 1.678269 g / cm^3
# Si number density = 16.820974 Si / 1000 Ang^3
#
#
#
# Elastic Constant Matrix: (Units=GPa)
#
#
# Indices 1 2 3 4 5 6 
#
# 1 88.8080 51.2794 23.2373 0.0000 0.0000 0.0000
# 2 51.2794 114.0426 42.5764 0.0000 0.0000 0.0000
# 3 23.2373 42.5764 33.9462 0.0000 0.0000 0.0000
# 4 0.0000 0.0000 0.0000 22.4778 0.0000 0.0000
# 5 0.0000 0.0000 0.0000 0.0000 23.5076 0.0000
# 6 0.0000 0.0000 0.0000 0.0000 0.0000 25.2347
#
#
#
# Elastic Compliance Matrix: (Units=1/GPa)
#
#
# Indices 1 2 3 4 5 6 
#
# 1 0.015427 -0.005631 -0.003498 0.000000 0.000000 0.000000
# 2 -0.005631 0.018546 -0.019406 0.000000 0.000000 0.000000
# 3 -0.003498 -0.019406 0.056192 0.000000 0.000000 0.000000
# 4 0.000000 0.000000 0.000000 0.044488 0.000000 0.000000
# 5 0.000000 0.000000 0.000000 0.000000 0.042540 0.000000
# 6 0.000000 0.000000 0.000000 0.000000 0.000000 0.039628
#
#
# Mechanical properties :
#
#
# Convention : Reuss Voigt Hill
#
# Bulk Modulus (GPa) = 30.21553 52.33146 41.27349
# Shear Modulus (GPa) = 17.54869 22.22425 19.88647
#
# Velocity S-wave (km/s) = 3.23346 3.63881 3.44211
# Velocity P-wave (km/s) = 5.65176 6.98806 6.35513
#
# Compressibility (1/GPa) = 0.03309557
#
# Stress axis : x y z
#
# Youngs Moduli (GPa) = 64.82215 53.92134 17.79601
#
# Poissons Ratio (x) = 0.30362 0.06225
# Poissons Ratio (y) = 0.36500 0.34535
# Poissons Ratio (z) = 0.22674 1.04639
#
# Static dielectric constant tensor:
#      x y z
#    x 1.610930 0.000000 0.000000 
#    y 0.000000 1.536350 0.000000 
#    z 0.000000 0.000000 1.581740 
# 
# From -- ./inp_files/3097.got.cif
#   From: 2010.05.17/outbox.cif.g08.bks.cpg/sg57_2_cif.got.tgz:3097.got - 2010.06.03 13:58:18.
