data_PCOD9434698
_publ_section_title
;
Structure prediction by ZEFSAII (Michael W. Deem and Ramdas Pophale) SiO2 
 PCOD9434698
Probable space group: P B C M
;
_chemical_formula_sum "Si O2"
_cell_formula_units_Z 36
_cell_length_a 20.992131
_cell_length_b 7.890109
_cell_length_c 9.737478
_cell_angle_alpha 90.000000
_cell_angle_beta 90.000000
_cell_angle_gamma 90.000000
_cell_volume 1612.820446
_symmetry_space_group_name_H-M "P B C M"
_symmetry_group_IT_number 57
_symmetry_cell_setting 'orthorhombic'
loop_
_space_group_symop_operation_xyz
x,y,z
-x,-y,1/2+z
x,1/2-y,-z
-x,1/2+y,1/2-z
-x,-y,-z
x,y,1/2-z
-x,1/2+y,z
x,1/2-y,1/2+z
loop_
_atom_site_type_symbol
_atom_site_label
_atom_site_fract_x
_atom_site_fract_y
_atom_site_fract_z
Si Si1 0.403572 0.423510 0.250000
Si Si2 0.955625 0.854445 0.750000
Si Si3 0.094881 0.966782 0.750000
Si Si4 0.540328 0.949938 0.750000
Si Si5 0.857940 0.551475 0.468229
Si Si6 0.362559 0.553498 0.968166
Si Si7 0.748244 0.004345 0.750000
O O1 0.434099 0.239847 0.250000
O O2 0.464513 0.547665 0.250000
O O3 0.364897 0.455318 0.388349
O O4 0.930213 0.661975 0.750000
O O5 0.924605 0.942152 0.615925
O O6 0.031264 0.856929 0.750000
O O7 0.134459 0.951574 0.610343
O O8 0.570969 0.035085 0.614775
O O9 0.842654 0.750000 0.500000
O O10 0.803706 0.484966 0.369200
O O11 0.307447 0.490758 0.868668
O O12 0.351459 0.750000 0.000000
#
# Coordination Sequence:
#
# PCOD9434698 Si02
#       7
#     4   4   4   4   8   8   4
#     4  12  23  41  68  99 130 168 212 254 312 380
#     4   9  18  33  54  85 119 153 196 250 305 364
#     4  10  18  33  58  87 118 158 198 246 309 372
#     4  11  24  42  66  99 133 163 204 260 315 381
#     4   9  19  36  58  84 120 161 203 251 307 366
#     4  11  24  43  65  92 128 169 208 260 319 373
#     4  10  23  41  60  84 118 162 212 258 299 359
#
# _framework density 22.321145999999999
#
# number of rings (size 3 to 8) (size 9 to 14) (size 15 to 20)
#    0.000    1.778    0.000    5.333    0.000    4.444 
#    0.000    4.444    0.000    0.000    0.000    0.000 
#    0.000    0.000    0.000    0.000    0.000    0.000 
#
# Total GULP energy -200419.258586 kJ/mol
# GULP energy per Si atom -5567.201627 kJ/mol
# Density = 2.227034 g / cm^3
# Si number density = 22.321146 Si / 1000 Ang^3
#
#
#
# Elastic Constant Matrix: (Units=GPa)
#
#
# Indices 1 2 3 4 5 6 
#
# 1 109.7444 19.6708 84.2249 0.0000 0.0000 0.0000
# 2 19.6708 26.9835 24.3764 0.0000 0.0000 0.0000
# 3 84.2249 24.3764 230.6122 0.0000 0.0000 0.0000
# 4 0.0000 0.0000 0.0000 4.1479 0.0000 0.0000
# 5 0.0000 0.0000 0.0000 0.0000 9.7892 0.0000
# 6 0.0000 0.0000 0.0000 0.0000 0.0000 -4.4146
#
#
#
# Elastic Compliance Matrix: (Units=1/GPa)
#
#
# Indices 1 2 3 4 5 6 
#
# 1 0.013471 -0.005943 -0.004292 0.000000 0.000000 0.000000
# 2 -0.005943 0.043594 -0.002437 0.000000 0.000000 0.000000
# 3 -0.004292 -0.002437 0.006161 0.000000 0.000000 0.000000
# 4 0.000000 0.000000 0.000000 0.241083 0.000000 0.000000
# 5 0.000000 0.000000 0.000000 0.000000 0.102154 0.000000
# 6 0.000000 0.000000 0.000000 0.000000 0.000000 -0.226523
#
#
# Mechanical properties :
#
#
# Convention : Reuss Voigt Hill
#
# Bulk Modulus (GPa) = 26.39792 69.32048 47.85920
# Shear Modulus (GPa) = 22.94505 17.84238 20.39372
#
# Velocity S-wave (km/s) = 3.20965 2.83034 3.02594
# Velocity P-wave (km/s) = 5.05844 6.46564 5.80484
#
# Compressibility (1/GPa) = 0.03788177
#
# Stress axis : x y z
#
# Youngs Moduli (GPa) = 74.23277 22.93886 162.30152
#
# Poissons Ratio (x) = 0.13633 0.69656
# Poissons Ratio (y) = 0.44119 0.39559
# Poissons Ratio (z) = 0.31859 0.05591
#
# Static dielectric constant tensor:
#      x y z
#    x 1.764480 0.000000 0.000000 
#    y 0.000000 2.118470 0.000000 
#    z 0.000000 0.000000 1.797250 
# 
# From -- ./inp_files/7738.got.cif
#   From: 2010.05.17/outbox.cif.g08.bks.cpg/sg57_4_cif.got.tgz:7738.got - 2010.06.03 13:58:18.
