data_PCOD9434580
_publ_section_title
;
Structure prediction by ZEFSAII (Michael W. Deem and Ramdas Pophale) SiO2 
 PCOD9434580
Probable space group: P B C M
;
_chemical_formula_sum "Si O2"
_cell_formula_units_Z 64
_cell_length_a 19.957951
_cell_length_b 10.464992
_cell_length_c 14.522419
_cell_angle_alpha 90.000000
_cell_angle_beta 90.000000
_cell_angle_gamma 90.000000
_cell_volume 3033.149492
_symmetry_space_group_name_H-M "P B C M"
_symmetry_group_IT_number 57
_symmetry_cell_setting 'orthorhombic'
loop_
_space_group_symop_operation_xyz
x,y,z
-x,-y,1/2+z
x,1/2-y,-z
-x,1/2+y,1/2-z
-x,-y,-z
x,y,1/2-z
-x,1/2+y,z
x,1/2-y,1/2+z
loop_
_atom_site_type_symbol
_atom_site_label
_atom_site_fract_x
_atom_site_fract_y
_atom_site_fract_z
Si Si1 0.799910 0.835934 0.620669
Si Si2 0.346491 0.939597 0.861828
Si Si3 0.206776 0.446872 0.413291
Si Si4 0.349447 0.082660 0.144838
Si Si5 0.913609 0.383632 0.949682
Si Si6 0.939843 0.630550 0.073881
Si Si7 0.565594 0.821489 0.137598
Si Si8 0.588331 0.322572 0.136961
O O1 0.790766 0.685899 0.641888
O O2 0.800928 0.886802 0.515103
O O3 0.877853 0.861331 0.644287
O O4 0.730609 0.901760 0.650280
O O5 0.340007 0.941661 0.750000
O O6 0.370746 0.801350 0.891162
O O7 0.275939 0.980678 0.902728
O O8 0.401323 0.044861 0.887990
O O9 0.146598 0.546365 0.395927
O O10 0.373790 0.078364 0.250000
O O11 0.375340 0.950782 0.103364
O O12 0.386445 0.206565 0.104453
O O13 0.982899 0.360109 0.894637
O O14 0.894715 0.250000 0.000000
O O15 0.931942 0.492212 0.025411
O O16 0.932633 0.750000 0.000000
O O17 0.565140 0.819367 0.250000
O O18 0.488867 0.813017 0.107632
O O19 0.588159 0.321296 0.250000
#
# Coordination Sequence:
#
# PCOD9434580 Si02
#       8
#     8   8   8   8   8   8   8   8
#     4  10  18  32  51  71  99 132 159 200 245 285
#     4  10  19  31  50  74  98 126 160 202 247 291
#     4  10  19  32  49  72 101 129 161 197 247 290
#     4  10  19  31  51  76  97 127 168 201 240 295
#     4   9  17  27  47  73  96 120 157 200 232 273
#     4   9  15  29  47  69  96 124 156 193 236 276
#     4   9  16  29  50  73  94 124 166 204 239 286
#     4   9  18  31  48  72 101 125 157 210 252 277
#
# _framework density 21.100180000000002
#
# number of rings (size 3 to 8) (size 9 to 14) (size 15 to 20)
#    0.000    2.500    3.750    0.750    0.000    5.000 
#    0.000    0.000    0.000    5.250    0.000    0.000 
#    0.000    0.000    0.000    0.000    0.000    0.000 
#
# Total GULP energy -356503.936778 kJ/mol
# GULP energy per Si atom -5570.374012 kJ/mol
# Density = 2.105215 g / cm^3
# Si number density = 21.100180 Si / 1000 Ang^3
#
#
#
# Elastic Constant Matrix: (Units=GPa)
#
#
# Indices 1 2 3 4 5 6 
#
# 1 176.0125 67.9772 16.4359 0.0000 0.0000 0.0000
# 2 67.9772 156.5795 20.3866 0.0000 0.0000 0.0000
# 3 16.4359 20.3866 45.2931 0.0000 0.0000 0.0000
# 4 0.0000 0.0000 0.0000 5.7273 0.0000 0.0000
# 5 0.0000 0.0000 0.0000 0.0000 18.7619 0.0000
# 6 0.0000 0.0000 0.0000 0.0000 0.0000 42.5780
#
#
#
# Elastic Compliance Matrix: (Units=1/GPa)
#
#
# Indices 1 2 3 4 5 6 
#
# 1 0.006889 -0.002831 -0.001226 0.000000 0.000000 0.000000
# 2 -0.002831 0.007948 -0.002550 0.000000 0.000000 0.000000
# 3 -0.001226 -0.002550 0.023671 0.000000 0.000000 0.000000
# 4 0.000000 0.000000 0.000000 0.174602 0.000000 0.000000
# 5 0.000000 0.000000 0.000000 0.000000 0.053300 0.000000
# 6 0.000000 0.000000 0.000000 0.000000 0.000000 0.023486
#
#
# Mechanical properties :
#
#
# Convention : Reuss Voigt Hill
#
# Bulk Modulus (GPa) = 39.53457 65.27606 52.40532
# Shear Modulus (GPa) = 16.04928 31.61914 23.83421
#
# Velocity S-wave (km/s) = 2.76093 3.87528 3.36456
# Velocity P-wave (km/s) = 5.37968 7.14333 6.32329
#
# Compressibility (1/GPa) = 0.02529432
#
# Stress axis : x y z
#
# Youngs Moduli (GPa) = 145.15154 125.82213 42.24602
#
# Poissons Ratio (x) = 0.35625 0.05178
# Poissons Ratio (y) = 0.41098 0.10772
# Poissons Ratio (z) = 0.17790 0.32083
#
# Static dielectric constant tensor:
#      x y z
#    x 1.768410 0.000000 0.000000 
#    y 0.000000 1.760540 0.000000 
#    z 0.000000 0.000000 1.771390 
# 
# From -- ./inp_files/27599.got.cif
#   From: 2010.05.17/outbox.cif.g08.bks.cpg/sg57_14_cif.got.tgz:27599.got - 2010.06.03 13:58:18.
