data_PCOD9434145
_publ_section_title
;
Structure prediction by ZEFSAII (Michael W. Deem and Ramdas Pophale) SiO2 
 PCOD9434145
Probable space group: P B C M
;
_chemical_formula_sum "Si O2"
_cell_formula_units_Z 64
_cell_length_a 16.047287
_cell_length_b 24.453786
_cell_length_c 7.758430
_cell_angle_alpha 90.000000
_cell_angle_beta 90.000000
_cell_angle_gamma 90.000000
_cell_volume 3044.539222
_symmetry_space_group_name_H-M "P B C M"
_symmetry_group_IT_number 57
_symmetry_cell_setting 'orthorhombic'
loop_
_space_group_symop_operation_xyz
x,y,z
-x,-y,1/2+z
x,1/2-y,-z
-x,1/2+y,1/2-z
-x,-y,-z
x,y,1/2-z
-x,1/2+y,z
x,1/2-y,1/2+z
loop_
_atom_site_type_symbol
_atom_site_label
_atom_site_fract_x
_atom_site_fract_y
_atom_site_fract_z
Si Si1 0.253967 0.813561 0.042501
Si Si2 0.901740 0.383090 0.046019
Si Si3 0.589223 0.115172 0.961441
Si Si4 0.344400 0.002733 0.458385
Si Si5 0.755146 0.686324 0.955682
Si Si6 0.149583 0.498606 0.539321
Si Si7 0.916455 0.616900 0.452716
Si Si8 0.405251 0.378080 0.047006
O O1 0.254165 0.818091 0.250000
O O2 0.170903 0.844071 0.976252
O O3 0.336503 0.845198 0.981323
O O4 0.254558 0.750000 0.000000
O O5 0.886669 0.387226 0.250000
O O6 0.892161 0.445134 0.978237
O O7 0.995396 0.362672 0.022186
O O8 0.588425 0.115257 0.750000
O O9 0.610806 0.053065 0.013692
O O10 0.497694 0.132353 0.023415
O O11 0.347284 0.004975 0.250000
O O12 0.247074 0.001106 0.508628
O O13 0.385597 0.057763 0.527247
O O14 0.755028 0.680432 0.750000
O O15 0.672546 0.655916 0.026563
O O16 0.754428 0.750000 0.000000
O O17 0.838539 0.656464 0.018319
O O18 0.146954 0.497263 0.750000
O O19 0.106500 0.443211 0.474966
O O20 0.928160 0.610773 0.250000
O O21 0.408705 0.365050 0.250000
#
# Coordination Sequence:
#
# PCOD9434145 Si02
#       8
#     8   8   8   8   8   8   8   8
#     4  10  21  38  59  80 108 148 190 232 274 325
#     4  10  20  37  59  83 113 151 191 227 278 338
#     4   9  18  35  59  84 113 151 187 222 273 336
#     4  10  17  32  59  85 113 150 187 222 272 339
#     4  11  24  41  59  80 110 149 191 236 281 330
#     4   9  17  32  57  85 112 146 185 226 274 334
#     4  11  22  37  59  87 116 144 183 233 284 337
#     4  10  21  36  56  86 118 145 181 230 282 330
#
# _framework density 21.021243999999999
#
# number of rings (size 3 to 8) (size 9 to 14) (size 15 to 20)
#    0.000    2.000    2.500    1.500    0.000    2.000 
#    0.000    3.750    0.000    0.000    0.000    0.000 
#    0.000    0.000    0.000    0.000    0.000    0.000 
#
# Total GULP energy -357549.454583 kJ/mol
# GULP energy per Si atom -5586.710228 kJ/mol
# Density = 2.097340 g / cm^3
# Si number density = 21.021244 Si / 1000 Ang^3
#
#
#
# Elastic Constant Matrix: (Units=GPa)
#
#
# Indices 1 2 3 4 5 6 
#
# 1 194.9858 83.9117 -6.2951 0.0000 0.0000 0.0000
# 2 83.9117 144.8788 -10.8306 0.0000 0.0000 0.0000
# 3 -6.2951 -10.8306 25.1162 0.0000 0.0000 0.0000
# 4 0.0000 0.0000 0.0000 19.9987 0.0000 0.0000
# 5 0.0000 0.0000 0.0000 0.0000 3.1640 0.0000
# 6 0.0000 0.0000 0.0000 0.0000 0.0000 1.3397
#
#
#
# Elastic Compliance Matrix: (Units=1/GPa)
#
#
# Indices 1 2 3 4 5 6 
#
# 1 0.006831 -0.003956 0.000006 0.000000 0.000000 0.000000
# 2 -0.003956 0.009423 0.003072 0.000000 0.000000 0.000000
# 3 0.000006 0.003072 0.041141 0.000000 0.000000 0.000000
# 4 0.000000 0.000000 0.000000 0.050003 0.000000 0.000000
# 5 0.000000 0.000000 0.000000 0.000000 0.316060 0.000000
# 6 0.000000 0.000000 0.000000 0.000000 0.000000 0.746451
#
#
# Mechanical properties :
#
#
# Convention : Reuss Voigt Hill
#
# Bulk Modulus (GPa) = 17.97273 55.39474 36.68373
# Shear Modulus (GPa) = 4.20093 24.78012 14.49053
#
# Velocity S-wave (km/s) = 1.41519 3.43711 2.62835
# Velocity P-wave (km/s) = 3.35242 6.49312 5.16717
#
# Compressibility (1/GPa) = 0.05563985
#
# Stress axis : x y z
#
# Youngs Moduli (GPa) = 146.38530 106.11999 24.30658
#
# Poissons Ratio (x) = 0.41982 -0.00015
# Poissons Ratio (y) = 0.57912 -0.07467
# Poissons Ratio (z) = -0.00091 -0.32600
#
# Static dielectric constant tensor:
#      x y z
#    x 1.760090 0.000000 0.000000 
#    y 0.000000 1.716800 0.000000 
#    z 0.000000 0.000000 1.760120 
# 
# From -- ./inp_files/5657.got.cif
#   From: 2010.05.17/outbox.cif.g08.bks.cpg/sg57_3_cif.got.tgz:5657.got - 2010.06.03 13:58:18.
