data_PCOD9434488
_publ_section_title
;
Structure prediction by ZEFSAII (Michael W. Deem and Ramdas Pophale) SiO2 
 PCOD9434488
Probable space group: P B C M
;
_chemical_formula_sum "Si O2"
_cell_formula_units_Z 56
_cell_length_a 12.936320
_cell_length_b 31.036982
_cell_length_c 8.784592
_cell_angle_alpha 90.000000
_cell_angle_beta 90.000000
_cell_angle_gamma 90.000000
_cell_volume 3527.051734
_symmetry_space_group_name_H-M "P B C M"
_symmetry_group_IT_number 57
_symmetry_cell_setting 'orthorhombic'
loop_
_space_group_symop_operation_xyz
x,y,z
-x,-y,1/2+z
x,1/2-y,-z
-x,1/2+y,1/2-z
-x,-y,-z
x,y,1/2-z
-x,1/2+y,z
x,1/2-y,1/2+z
loop_
_atom_site_type_symbol
_atom_site_label
_atom_site_fract_x
_atom_site_fract_y
_atom_site_fract_z
Si Si1 0.130397 0.540914 0.925046
Si Si2 0.127190 0.637149 0.566815
Si Si3 0.879457 0.546759 0.576829
Si Si4 0.099551 0.364642 0.929782
Si Si5 0.718713 0.797828 0.932302
Si Si6 0.493946 0.201448 0.567483
Si Si7 0.707605 0.201808 0.067759
O O1 0.162841 0.535656 0.750000
O O2 0.161270 0.588535 0.979563
O O3 0.162433 0.498943 0.018474
O O4 0.004782 0.542469 0.925779
O O5 0.134984 0.640010 0.750000
O O6 0.198325 0.672323 0.487072
O O7 0.007630 0.642316 0.518836
O O8 0.151840 0.445038 0.250000
O O9 0.856865 0.588381 0.475250
O O10 0.077281 0.364032 0.750000
O O11 0.183640 0.328119 0.964157
O O12 0.704617 0.794509 0.750000
O O13 0.735063 0.750000 0.000000
O O14 0.614214 0.816967 0.006789
O O15 0.492554 0.250000 0.500000
O O16 0.496806 0.202292 0.750000
O O17 0.600288 0.183020 0.500364
O O18 0.701436 0.204326 0.250000
O O19 0.720134 0.250000 0.000000
#
# Coordination Sequence:
#
# PCOD9434488 Si02
#       7
#     8   8   8   8   8   8   8
#     4   8  15  27  43  63  89 120 152 190 232 274
#     4  10  20  33  48  69  97 127 160 194 232 280
#     4   9  16  26  43  65  89 119 155 194 232 272
#     4  10  20  32  46  67  97 130 161 192 232 282
#     4  10  20  33  49  69  93 123 158 195 234 276
#     4  10  18  31  51  71  91 116 152 197 238 274
#     4  11  21  34  51  70  95 125 158 195 234 276
#
# _framework density 15.877285000000001
#
# number of rings (size 3 to 8) (size 9 to 14) (size 15 to 20)
#    0.000    2.286    0.000    6.857    0.000    6.857 
#    0.000    1.429    0.000    0.000    0.000    1.000 
#    0.000    0.000    0.000    0.000    0.000    0.000 
#
# Total GULP energy -312057.390971 kJ/mol
# GULP energy per Si atom -5572.453410 kJ/mol
# Density = 1.584115 g / cm^3
# Si number density = 15.877285 Si / 1000 Ang^3
#
#
#
# Elastic Constant Matrix: (Units=GPa)
#
#
# Indices 1 2 3 4 5 6 
#
# 1 70.6790 44.3086 44.0462 0.0000 0.0000 0.0000
# 2 44.3086 83.6114 43.2632 0.0000 0.0000 0.0000
# 3 44.0462 43.2632 98.8154 0.0000 0.0000 0.0000
# 4 0.0000 0.0000 0.0000 25.3585 0.0000 0.0000
# 5 0.0000 0.0000 0.0000 0.0000 20.9153 0.0000
# 6 0.0000 0.0000 0.0000 0.0000 0.0000 -1.8452
#
#
#
# Elastic Compliance Matrix: (Units=1/GPa)
#
#
# Indices 1 2 3 4 5 6 
#
# 1 0.024176 -0.009355 -0.006681 0.000000 0.000000 0.000000
# 2 -0.009355 0.019083 -0.004185 0.000000 0.000000 0.000000
# 3 -0.006681 -0.004185 0.014930 0.000000 0.000000 0.000000
# 4 0.000000 0.000000 0.000000 0.039434 0.000000 0.000000
# 5 0.000000 0.000000 0.000000 0.000000 0.047812 0.000000
# 6 0.000000 0.000000 0.000000 0.000000 0.000000 -0.541947
#
#
# Mechanical properties :
#
#
# Convention : Reuss Voigt Hill
#
# Bulk Modulus (GPa) = 56.34406 57.37129 56.85768
# Shear Modulus (GPa) = -14.27944 16.98491 1.35273
#
# Velocity S-wave (km/s) = -3.00219 3.27427 0.92404
# Velocity P-wave (km/s) = 4.85250 7.10683 6.08497
#
# Compressibility (1/GPa) = 0.01774810
#
# Stress axis : x y z
#
# Youngs Moduli (GPa) = 41.36251 52.40220 66.97938
#
# Poissons Ratio (x) = 0.49023 0.44746
# Poissons Ratio (y) = 0.38695 0.28031
# Poissons Ratio (z) = 0.27633 0.21930
#
# Static dielectric constant tensor:
#      x y z
#    x 1.536520 0.000000 0.000000 
#    y 0.000000 1.534870 0.000000 
#    z 0.000000 0.000000 1.560520 
# 
# From -- ./inp_files/5915.got.cif
#   From: 2010.05.17/outbox.cif.g08.bks.cpg/sg57_3_cif.got.tgz:5915.got - 2010.06.03 13:58:18.
