data_PCOD9434805
_publ_section_title
;
Structure prediction by ZEFSAII (Michael W. Deem and Ramdas Pophale) SiO2 
 PCOD9434805
Probable space group: P B C M
;
_chemical_formula_sum "Si O2"
_cell_formula_units_Z 40
_cell_length_a 9.410162
_cell_length_b 15.837112
_cell_length_c 13.484697
_cell_angle_alpha 90.000000
_cell_angle_beta 90.000000
_cell_angle_gamma 90.000000
_cell_volume 2009.621556
_symmetry_space_group_name_H-M "P B C M"
_symmetry_group_IT_number 57
_symmetry_cell_setting 'orthorhombic'
loop_
_space_group_symop_operation_xyz
x,y,z
-x,-y,1/2+z
x,1/2-y,-z
-x,1/2+y,1/2-z
-x,-y,-z
x,y,1/2-z
-x,1/2+y,z
x,1/2-y,1/2+z
loop_
_atom_site_type_symbol
_atom_site_label
_atom_site_fract_x
_atom_site_fract_y
_atom_site_fract_z
Si Si1 0.134746 0.251996 0.750000
Si Si2 0.656872 0.986844 0.960423
Si Si3 0.887924 0.871977 0.428469
Si Si4 0.188931 0.844705 0.972110
Si Si5 0.851844 0.155412 0.250000
Si Si6 0.009472 0.519809 0.750000
Si Si7 0.292079 0.068505 0.250000
O O1 0.162866 0.202904 0.854012
O O2 0.219332 0.339591 0.750000
O O3 0.963749 0.267282 0.750000
O O4 0.631274 0.948482 0.851943
O O5 0.759781 0.919843 0.016793
O O6 0.500000 0.000000 0.000000
O O7 0.737118 0.077497 0.971217
O O8 0.956659 0.935008 0.348289
O O9 0.017733 0.850630 0.504111
O O10 0.224091 0.849461 0.855198
O O11 0.232768 0.750000 0.000000
O O12 0.946721 0.072549 0.250000
O O13 0.175156 0.506174 0.750000
#
# Coordination Sequence:
#
# PCOD9434805 Si02
#       7
#     4   8   8   8   4   4   4
#     4  10  22  37  70 112 130 173 229 304 342 409
#     4  12  28  47  69  97 148 194 226 277 348 431
#     4  11  21  40  70 103 134 173 232 289 346 397
#     4  12  24  42  68 104 132 172 234 297 344 394
#     4  11  20  35  63  98 136 160 224 290 354 389
#     4  10  18  35  71  96 128 169 230 286 346 391
#     4  11  24  43  70 100 136 180 241 278 350 413
#
# _framework density 19.904245
#
# number of rings (size 3 to 8) (size 9 to 14) (size 15 to 20)
#    0.000    0.800    6.000    3.000    0.000    3.200 
#    3.600    0.000    0.000    0.000    0.000    0.000 
#    0.000    0.000    0.000    0.000    0.000    0.000 
#
# Total GULP energy -223114.036788 kJ/mol
# GULP energy per Si atom -5577.850920 kJ/mol
# Density = 1.985894 g / cm^3
# Si number density = 19.904245 Si / 1000 Ang^3
#
#
#
# Elastic Constant Matrix: (Units=GPa)
#
#
# Indices 1 2 3 4 5 6 
#
# 1 85.8505 39.2933 30.0493 0.0000 0.0000 0.0000
# 2 39.2933 114.5458 47.3113 0.0000 0.0000 0.0000
# 3 30.0493 47.3113 118.2996 0.0000 0.0000 0.0000
# 4 0.0000 0.0000 0.0000 63.3022 0.0000 0.0000
# 5 0.0000 0.0000 0.0000 0.0000 4.5251 0.0000
# 6 0.0000 0.0000 0.0000 0.0000 0.0000 15.1841
#
#
#
# Elastic Compliance Matrix: (Units=1/GPa)
#
#
# Indices 1 2 3 4 5 6 
#
# 1 0.014197 -0.004050 -0.001987 0.000000 0.000000 0.000000
# 2 -0.004050 0.011613 -0.003616 0.000000 0.000000 0.000000
# 3 -0.001987 -0.003616 0.010404 0.000000 0.000000 0.000000
# 4 0.000000 0.000000 0.000000 0.015797 0.000000 0.000000
# 5 0.000000 0.000000 0.000000 0.000000 0.220991 0.000000
# 6 0.000000 0.000000 0.000000 0.000000 0.000000 0.065858
#
#
# Mechanical properties :
#
#
# Convention : Reuss Voigt Hill
#
# Bulk Modulus (GPa) = 59.13737 61.33374 60.23555
# Shear Modulus (GPa) = 13.74381 30.07174 21.90778
#
# Velocity S-wave (km/s) = 2.63058 3.89114 3.32122
# Velocity P-wave (km/s) = 6.24516 7.14628 6.71086
#
# Compressibility (1/GPa) = 0.01690978
#
# Stress axis : x y z
#
# Youngs Moduli (GPa) = 70.43766 86.11316 96.11938
#
# Poissons Ratio (x) = 0.34872 0.19096
# Poissons Ratio (y) = 0.28524 0.34753
# Poissons Ratio (z) = 0.13994 0.31135
#
# Static dielectric constant tensor:
#      x y z
#    x 1.678530 0.000000 0.000000 
#    y 0.000000 1.742510 0.000000 
#    z 0.000000 0.000000 1.788070 
# 
# From -- ./inp_files/11622.got.cif
#   From: 2010.05.17/outbox.cif.g08.bks.cpg/sg57_6_cif.got.tgz:11622.got - 2010.06.03 13:58:18.
