data_PCOD9434597
_publ_section_title
;
Structure prediction by ZEFSAII (Michael W. Deem and Ramdas Pophale) SiO2 
 PCOD9434597
Probable space group: P B C M
;
_chemical_formula_sum "Si O2"
_cell_formula_units_Z 36
_cell_length_a 13.061474
_cell_length_b 5.621977
_cell_length_c 23.999249
_cell_angle_alpha 90.000000
_cell_angle_beta 90.000000
_cell_angle_gamma 90.000000
_cell_volume 1762.296207
_symmetry_space_group_name_H-M "P B C M"
_symmetry_group_IT_number 57
_symmetry_cell_setting 'orthorhombic'
loop_
_space_group_symop_operation_xyz
x,y,z
-x,-y,1/2+z
x,1/2-y,-z
-x,1/2+y,1/2-z
-x,-y,-z
x,y,1/2-z
-x,1/2+y,z
x,1/2-y,1/2+z
loop_
_atom_site_type_symbol
_atom_site_label
_atom_site_fract_x
_atom_site_fract_y
_atom_site_fract_z
Si Si1 0.539829 0.389336 0.660595
Si Si2 0.741417 0.250000 0.500000
Si Si3 0.596186 0.862496 0.945433
Si Si4 0.058440 0.394123 0.183440
Si Si5 0.252531 0.986241 0.889288
O O1 0.511660 0.650144 0.686128
O O2 0.486393 0.428255 0.600188
O O3 0.660944 0.349989 0.648386
O O4 0.667443 0.436763 0.470649
O O5 0.794184 0.140007 0.444858
O O6 0.677364 0.692522 0.915009
O O7 0.545660 0.750000 0.000000
O O8 0.076687 0.396818 0.250000
O O9 0.163238 0.419958 0.149634
O O10 0.005713 0.137734 0.170772
#
# Coordination Sequence:
#
# PCOD9434597 Si02
#       5
#     8   4   8   8   8
#     4  10  19  30  48  81 120 159 193 228 266 334
#     4  10  18  32  52  88 128 166 192 224 282 352
#     4   9  19  30  49  83 126 164 197 224 264 338
#     4  10  24  46  71  89 104 142 205 267 312 350
#     4  10  21  34  58  85 123 154 200 244 292 349
#
# _framework density 20.427894999999999
#
# number of rings (size 3 to 8) (size 9 to 14) (size 15 to 20)
#    0.000    2.222    2.222    0.000    4.667    2.667 
#    0.000    1.111    0.000    5.333    0.000    0.000 
#    0.000    0.000    0.000    0.000    0.000    0.000 
#
# Total GULP energy -200499.670407 kJ/mol
# GULP energy per Si atom -5569.435289 kJ/mol
# Density = 2.038140 g / cm^3
# Si number density = 20.427895 Si / 1000 Ang^3
#
#
#
# Elastic Constant Matrix: (Units=GPa)
#
#
# Indices 1 2 3 4 5 6 
#
# 1 76.2228 15.0053 36.0705 0.0000 0.0000 0.0000
# 2 15.0053 104.4598 18.7727 0.0000 0.0000 0.0000
# 3 36.0705 18.7727 65.0948 0.0000 0.0000 0.0000
# 4 0.0000 0.0000 0.0000 -1.7026 0.0000 0.0000
# 5 0.0000 0.0000 0.0000 0.0000 48.8936 0.0000
# 6 0.0000 0.0000 0.0000 0.0000 0.0000 16.1482
#
#
#
# Elastic Compliance Matrix: (Units=1/GPa)
#
#
# Indices 1 2 3 4 5 6 
#
# 1 0.017850 -0.000830 -0.009652 0.000000 0.000000 0.000000
# 2 -0.000830 0.010135 -0.002463 0.000000 0.000000 0.000000
# 3 -0.009652 -0.002463 0.021421 0.000000 0.000000 0.000000
# 4 0.000000 0.000000 0.000000 -0.587350 0.000000 0.000000
# 5 0.000000 0.000000 0.000000 0.000000 0.020453 0.000000
# 6 0.000000 0.000000 0.000000 0.000000 0.000000 0.061927
#
#
# Mechanical properties :
#
#
# Convention : Reuss Voigt Hill
#
# Bulk Modulus (GPa) = 42.52289 42.83048 42.67669
# Shear Modulus (GPa) = -11.85295 24.39642 6.27174
#
# Velocity S-wave (km/s) = -2.41142 3.45957 1.75409
# Velocity P-wave (km/s) = 3.62050 6.08032 5.00392
#
# Compressibility (1/GPa) = 0.02351675
#
# Stress axis : x y z
#
# Youngs Moduli (GPa) = 56.02140 98.66920 46.68326
#
# Poissons Ratio (x) = 0.08185 0.45059
# Poissons Ratio (y) = 0.04647 0.11499
# Poissons Ratio (z) = 0.54072 0.24303
#
# Static dielectric constant tensor:
#      x y z
#    x 1.674770 0.000000 0.000000 
#    y 0.000000 1.929840 0.000000 
#    z 0.000000 0.000000 1.736760 
# 
# From -- ./inp_files/27005.got.cif
#   From: 2010.05.17/outbox.cif.g08.bks.cpg/sg57_14_cif.got.tgz:27005.got - 2010.06.03 13:58:18.
