data_PCOD9434230
_publ_section_title
;
Structure prediction by ZEFSAII (Michael W. Deem and Ramdas Pophale) SiO2 
 PCOD9434230
Probable space group: P B C M
;
_chemical_formula_sum "Si O2"
_cell_formula_units_Z 32
_cell_length_a 11.467085
_cell_length_b 24.081086
_cell_length_c 5.528973
_cell_angle_alpha 90.000000
_cell_angle_beta 90.000000
_cell_angle_gamma 90.000000
_cell_volume 1526.769830
_symmetry_space_group_name_H-M "P B C M"
_symmetry_group_IT_number 57
_symmetry_cell_setting 'orthorhombic'
loop_
_space_group_symop_operation_xyz
x,y,z
-x,-y,1/2+z
x,1/2-y,-z
-x,1/2+y,1/2-z
-x,-y,-z
x,y,1/2-z
-x,1/2+y,z
x,1/2-y,1/2+z
loop_
_atom_site_type_symbol
_atom_site_label
_atom_site_fract_x
_atom_site_fract_y
_atom_site_fract_z
Si Si1 0.431155 0.625186 0.250000
Si Si2 0.337644 0.649244 0.750000
Si Si3 0.845877 0.912013 0.250000
Si Si4 0.560778 0.980632 0.750000
Si Si5 0.794806 0.561838 0.250000
Si Si6 0.074359 0.541671 0.250000
Si Si7 0.477066 0.248713 0.250000
Si Si8 0.101540 0.606449 0.750000
O O1 0.366752 0.616044 0.504490
O O2 0.541403 0.585625 0.250000
O O3 0.459919 0.689735 0.250000
O O4 0.421736 0.703544 0.750000
O O5 0.198073 0.654801 0.750000
O O6 0.779206 0.904890 0.500224
O O7 0.965241 0.877542 0.250000
O O8 0.881183 0.978291 0.250000
O O9 0.699899 0.987408 0.750000
O O10 0.500000 0.000000 0.500000
O O11 0.932214 0.544305 0.250000
O O12 0.113055 0.572012 0.497720
O O13 0.408727 0.250000 0.500000
#
# Coordination Sequence:
#
# PCOD9434230 Si02
#       8
#     4   4   4   4   4   4   4   4
#     4  10  21  35  50  71 104 139 170 205 256 315
#     4  10  19  32  54  78 103 126 162 217 266 313
#     4  10  19  31  48  66  91 132 173 203 239 293
#     4  12  26  37  49  72 103 145 186 220 259 305
#     4  10  20  34  46  61  93 129 168 215 244 281
#     4  10  19  30  46  67  94 132 170 199 238 295
#     4   8  16  32  51  72  98 125 159 206 259 312
#     4  10  18  27  44  73  96 118 158 201 247 294
#
# _framework density 20.959282000000002
#
# number of rings (size 3 to 8) (size 9 to 14) (size 15 to 20)
#    0.000    2.000    0.000    6.000    0.000    8.000 
#    0.000    0.000    0.000    0.000    0.000    0.000 
#    0.000  216.000    0.000    0.000    0.000    0.000 
#
# Total GULP energy -178184.231279 kJ/mol
# GULP energy per Si atom -5568.257227 kJ/mol
# Density = 2.091158 g / cm^3
# Si number density = 20.959282 Si / 1000 Ang^3
#
#
#
# Elastic Constant Matrix: (Units=GPa)
#
#
# Indices 1 2 3 4 5 6 
#
# 1 71.3572 19.6276 24.7037 0.0000 0.0000 0.0000
# 2 19.6276 31.9209 11.0523 0.0000 0.0000 0.0000
# 3 24.7037 11.0523 235.4643 0.0000 0.0000 0.0000
# 4 0.0000 0.0000 0.0000 -13.2070 0.0000 0.0000
# 5 0.0000 0.0000 0.0000 0.0000 19.6591 0.0000
# 6 0.0000 0.0000 0.0000 0.0000 0.0000 5.3154
#
#
#
# Elastic Compliance Matrix: (Units=1/GPa)
#
#
# Indices 1 2 3 4 5 6 
#
# 1 0.017270 -0.010157 -0.001335 0.000000 0.000000 0.000000
# 2 -0.010157 0.037818 -0.000710 0.000000 0.000000 0.000000
# 3 -0.001335 -0.000710 0.004420 0.000000 0.000000 0.000000
# 4 0.000000 0.000000 0.000000 -0.075717 0.000000 0.000000
# 5 0.000000 0.000000 0.000000 0.000000 0.050867 0.000000
# 6 0.000000 0.000000 0.000000 0.000000 0.000000 0.188133
#
#
# Mechanical properties :
#
#
# Convention : Reuss Voigt Hill
#
# Bulk Modulus (GPa) = 28.48533 49.94552 39.21542
# Shear Modulus (GPa) = 19.31275 21.24407 20.27841
#
# Velocity S-wave (km/s) = 3.03882 3.18714 3.11386
# Velocity P-wave (km/s) = 5.09243 6.11763 5.62842
#
# Compressibility (1/GPa) = 0.03510579
#
# Stress axis : x y z
#
# Youngs Moduli (GPa) = 57.90404 26.44218 226.22858
#
# Poissons Ratio (x) = 0.26857 0.30205
# Poissons Ratio (y) = 0.58812 0.16052
# Poissons Ratio (z) = 0.07731 0.01876
#
# Static dielectric constant tensor:
#      x y z
#    x 1.795590 0.000000 0.000000 
#    y 0.000000 1.742170 0.000000 
#    z 0.000000 0.000000 1.899560 
# 
# From -- ./inp_files/396.got.cif
#   From: 2010.05.17/outbox.cif.g08.bks.cpg/sg57_1_cif.got.tgz:396.got - 2010.06.03 13:58:18.
