data_PCOD9434398
_publ_section_title
;
Structure prediction by ZEFSAII (Michael W. Deem and Ramdas Pophale) SiO2 
 PCOD9434398
Probable space group: P B C M
;
_chemical_formula_sum "Si O2"
_cell_formula_units_Z 64
_cell_length_a 20.966226
_cell_length_b 21.000182
_cell_length_c 8.943721
_cell_angle_alpha 90.000000
_cell_angle_beta 90.000000
_cell_angle_gamma 90.000000
_cell_volume 3937.871719
_symmetry_space_group_name_H-M "P B C M"
_symmetry_group_IT_number 57
_symmetry_cell_setting 'orthorhombic'
loop_
_space_group_symop_operation_xyz
x,y,z
-x,-y,1/2+z
x,1/2-y,-z
-x,1/2+y,1/2-z
-x,-y,-z
x,y,1/2-z
-x,1/2+y,z
x,1/2-y,1/2+z
loop_
_atom_site_type_symbol
_atom_site_label
_atom_site_fract_x
_atom_site_fract_y
_atom_site_fract_z
Si Si1 0.951917 0.448054 0.570541
Si Si2 0.853517 0.643576 0.925973
Si Si3 0.285931 0.352131 0.079432
Si Si4 0.829779 0.504479 0.069830
Si Si5 0.442589 0.039654 0.570370
Si Si6 0.311096 0.019164 0.075617
Si Si7 0.572555 0.813885 0.077841
Si Si8 0.982308 0.686532 0.072794
O O1 0.949217 0.457084 0.750000
O O2 0.882963 0.458269 0.497018
O O3 0.000000 0.500000 0.500000
O O4 0.979317 0.377964 0.539215
O O5 0.868378 0.638825 0.750000
O O6 0.784080 0.676420 0.941067
O O7 0.844652 0.573000 0.994959
O O8 0.911242 0.676750 0.009236
O O9 0.285284 0.380586 0.250000
O O10 0.349980 0.311707 0.074041
O O11 0.294750 0.406930 0.957304
O O12 0.835501 0.509918 0.250000
O O13 0.756204 0.486044 0.035346
O O14 0.445432 0.039248 0.750000
O O15 0.375288 0.009315 0.517957
O O16 0.444047 0.114649 0.520959
O O17 0.500000 0.000000 0.500000
O O18 0.675834 0.508536 0.250000
O O19 0.552535 0.812044 0.250000
O O20 0.547943 0.750000 0.000000
O O21 0.979193 0.694168 0.250000
O O22 0.010342 0.750000 0.000000
#
# Coordination Sequence:
#
# PCOD9434398 Si02
#       8
#     8   8   8   8   8   8   8   8
#     4  11  22  35  54  76  99 129 169 214 261 310
#     4  10  18  30  49  69  95 132 169 208 252 293
#     4   8  16  29  43  64  94 129 168 205 241 283
#     4  10  19  31  50  76 103 130 167 211 253 300
#     4  10  20  34  52  75 104 137 172 210 251 300
#     4   9  17  29  47  73 102 131 164 204 248 296
#     4   9  18  31  46  67  97 130 167 206 241 286
#     4  11  24  38  50  68  96 129 168 212 261 318
#
# _framework density 16.252434000000001
#
# number of rings (size 3 to 8) (size 9 to 14) (size 15 to 20)
#    0.000    2.250    1.250    3.000    0.000    6.500 
#    0.000    1.250    0.000    0.000    0.000    0.875 
#    0.000    6.000    0.000    0.000    0.000    0.000 
#
# Total GULP energy -356528.684598 kJ/mol
# GULP energy per Si atom -5570.760697 kJ/mol
# Density = 1.621544 g / cm^3
# Si number density = 16.252434 Si / 1000 Ang^3
#
#
#
# Elastic Constant Matrix: (Units=GPa)
#
#
# Indices 1 2 3 4 5 6 
#
# 1 102.6238 51.9905 47.6510 0.0000 0.0000 0.0000
# 2 51.9905 89.1049 51.2939 0.0000 0.0000 0.0000
# 3 47.6510 51.2939 58.9236 0.0000 0.0000 0.0000
# 4 0.0000 0.0000 0.0000 22.3026 0.0000 0.0000
# 5 0.0000 0.0000 0.0000 0.0000 26.7820 0.0000
# 6 0.0000 0.0000 0.0000 0.0000 0.0000 9.2744
#
#
#
# Elastic Compliance Matrix: (Units=1/GPa)
#
#
# Indices 1 2 3 4 5 6 
#
# 1 0.016233 -0.003838 -0.009786 0.000000 0.000000 0.000000
# 2 -0.003838 0.023403 -0.017269 0.000000 0.000000 0.000000
# 3 -0.009786 -0.017269 0.039918 0.000000 0.000000 0.000000
# 4 0.000000 0.000000 0.000000 0.044838 0.000000 0.000000
# 5 0.000000 0.000000 0.000000 0.000000 0.037339 0.000000
# 6 0.000000 0.000000 0.000000 0.000000 0.000000 0.107824
#
#
# Mechanical properties :
#
#
# Convention : Reuss Voigt Hill
#
# Bulk Modulus (GPa) = 56.28261 61.39144 58.83703
# Shear Modulus (GPa) = 14.82521 18.31960 16.57240
#
# Velocity S-wave (km/s) = 3.02351 3.36101 3.19672
# Velocity P-wave (km/s) = 6.84794 7.27444 7.06441
#
# Compressibility (1/GPa) = 0.01776748
#
# Stress axis : x y z
#
# Youngs Moduli (GPa) = 61.60427 42.72938 25.05116
#
# Poissons Ratio (x) = 0.16398 0.24516
# Poissons Ratio (y) = 0.23642 0.43261
# Poissons Ratio (z) = 0.60288 0.73790
#
# Static dielectric constant tensor:
#      x y z
#    x 1.567780 0.000000 0.000000 
#    y 0.000000 1.565860 0.000000 
#    z 0.000000 0.000000 1.555350 
# 
# From -- ./inp_files/8713.got.cif
#   From: 2010.05.17/outbox.cif.g08.bks.cpg/sg57_5_cif.got.tgz:8713.got - 2010.06.03 13:58:18.
