data_PCOD9434587
_publ_section_title
;
Structure prediction by ZEFSAII (Michael W. Deem and Ramdas Pophale) SiO2 
 PCOD9434587
Probable space group: P B C M
;
_chemical_formula_sum "Si O2"
_cell_formula_units_Z 60
_cell_length_a 12.021474
_cell_length_b 28.712204
_cell_length_c 9.678528
_cell_angle_alpha 90.000000
_cell_angle_beta 90.000000
_cell_angle_gamma 90.000000
_cell_volume 3340.669894
_symmetry_space_group_name_H-M "P B C M"
_symmetry_group_IT_number 57
_symmetry_cell_setting 'orthorhombic'
loop_
_space_group_symop_operation_xyz
x,y,z
-x,-y,1/2+z
x,1/2-y,-z
-x,1/2+y,1/2-z
-x,-y,-z
x,y,1/2-z
-x,1/2+y,z
x,1/2-y,1/2+z
loop_
_atom_site_type_symbol
_atom_site_label
_atom_site_fract_x
_atom_site_fract_y
_atom_site_fract_z
Si Si1 0.153208 0.180859 0.406723
Si Si2 0.470178 0.340410 0.091771
Si Si3 0.667712 0.750000 0.500000
Si Si4 0.929776 0.437954 0.909831
Si Si5 0.911612 0.173231 0.086543
Si Si6 0.687737 0.899620 0.917440
Si Si7 0.168928 0.484520 0.913875
Si Si8 0.700204 0.294746 0.413615
O O1 0.126572 0.166971 0.250000
O O2 0.244504 0.221509 0.406322
O O3 0.215403 0.136097 0.468044
O O4 0.031844 0.192357 0.463881
O O5 0.447660 0.353734 0.250000
O O6 0.408280 0.290494 0.065538
O O7 0.601188 0.332085 0.073481
O O8 0.420941 0.378748 0.988674
O O9 0.908175 0.449707 0.750000
O O10 0.919712 0.382740 0.924933
O O11 0.055915 0.454711 0.939994
O O12 0.847493 0.467776 0.004646
O O13 0.891243 0.185091 0.250000
O O14 0.813282 0.190264 0.988615
O O15 0.679890 0.896028 0.750000
O O16 0.727777 0.951450 0.952390
O O17 0.174445 0.493088 0.750000
O O18 0.661052 0.250000 0.500000
O O19 0.714913 0.285152 0.250000
#
# Coordination Sequence:
#
# PCOD9434587 Si02
#       8
#     8   8   4   8   8   8   8   8
#     4   9  17  30  49  72 103 137 168 204 255 313
#     4  10  21  36  54  77 104 133 175 224 264 308
#     4  10  18  32  52  74 104 136 168 206 270 314
#     4   9  17  30  50  75 108 144 176 210 255 312
#     4  10  20  36  54  76 108 144 178 215 259 308
#     4   9  17  31  53  79 107 139 168 208 261 315
#     4   9  16  29  50  78 110 141 173 208 255 315
#     4  11  24  41  57  77 102 138 184 225 262 304
#
# _framework density 17.960470000000001
#
# number of rings (size 3 to 8) (size 9 to 14) (size 15 to 20)
#    0.000    2.400    2.000    0.800    0.933    2.667 
#    0.000    2.667    0.000    0.800    0.000    0.000 
#    0.000    0.000    0.000    0.000    0.000    0.000 
#
# Total GULP energy -334156.776773 kJ/mol
# GULP energy per Si atom -5569.279613 kJ/mol
# Density = 1.791959 g / cm^3
# Si number density = 17.960470 Si / 1000 Ang^3
#
#
#
# Elastic Constant Matrix: (Units=GPa)
#
#
# Indices 1 2 3 4 5 6 
#
# 1 75.6859 -10.0787 24.6325 0.0000 0.0000 0.0000
# 2 -10.0787 19.3214 1.1901 0.0000 0.0000 0.0000
# 3 24.6325 1.1901 50.9267 0.0000 0.0000 0.0000
# 4 0.0000 0.0000 0.0000 25.6944 0.0000 0.0000
# 5 0.0000 0.0000 0.0000 0.0000 22.6861 0.0000
# 6 0.0000 0.0000 0.0000 0.0000 0.0000 19.7029
#
#
#
# Elastic Compliance Matrix: (Units=1/GPa)
#
#
# Indices 1 2 3 4 5 6 
#
# 1 0.017275 0.009539 -0.008578 0.000000 0.000000 0.000000
# 2 0.009539 0.057098 -0.005948 0.000000 0.000000 0.000000
# 3 -0.008578 -0.005948 0.023924 0.000000 0.000000 0.000000
# 4 0.000000 0.000000 0.000000 0.038919 0.000000 0.000000
# 5 0.000000 0.000000 0.000000 0.000000 0.044080 0.000000
# 6 0.000000 0.000000 0.000000 0.000000 0.000000 0.050754
#
#
# Mechanical properties :
#
#
# Convention : Reuss Voigt Hill
#
# Bulk Modulus (GPa) = 11.32212 19.71354 15.51783
# Shear Modulus (GPa) = 18.41851 22.29602 20.35726
#
# Velocity S-wave (km/s) = 3.20582 3.52716 3.37032
# Velocity P-wave (km/s) = 4.47444 5.25240 4.87895
#
# Compressibility (1/GPa) = 0.08832266
#
# Stress axis : x y z
#
# Youngs Moduli (GPa) = 57.88805 17.51360 41.79847
#
# Poissons Ratio (x) = -0.16707 0.35857
# Poissons Ratio (y) = -0.55222 0.24864
# Poissons Ratio (z) = 0.49659 0.10418
#
# Static dielectric constant tensor:
#      x y z
#    x 1.645540 0.000000 0.000000 
#    y 0.000000 1.623970 0.000000 
#    z 0.000000 0.000000 1.611390 
# 
# From -- ./inp_files/3707.got.cif
#   From: 2010.05.17/outbox.cif.g08.bks.cpg/sg57_2_cif.got.tgz:3707.got - 2010.06.03 13:58:18.
