data_PCOD9434887
_publ_section_title
;
Structure prediction by ZEFSAII (Michael W. Deem and Ramdas Pophale) SiO2 
 PCOD9434887
Probable space group: P B C M
;
_chemical_formula_sum "Si O2"
_cell_formula_units_Z 60
_cell_length_a 26.424092
_cell_length_b 5.330746
_cell_length_c 24.569682
_cell_angle_alpha 90.000000
_cell_angle_beta 90.000000
_cell_angle_gamma 90.000000
_cell_volume 3460.888422
_symmetry_space_group_name_H-M "P B C M"
_symmetry_group_IT_number 57
_symmetry_cell_setting 'orthorhombic'
loop_
_space_group_symop_operation_xyz
x,y,z
-x,-y,1/2+z
x,1/2-y,-z
-x,1/2+y,1/2-z
-x,-y,-z
x,y,1/2-z
-x,1/2+y,z
x,1/2-y,1/2+z
loop_
_atom_site_type_symbol
_atom_site_label
_atom_site_fract_x
_atom_site_fract_y
_atom_site_fract_z
Si Si1 0.199200 0.749870 0.874353
Si Si2 0.702405 0.248986 0.185802
Si Si3 0.029965 0.809198 0.250000
Si Si4 0.646768 0.748951 0.316666
Si Si5 0.922353 0.251769 0.631136
Si Si6 0.073118 0.251181 0.563030
Si Si7 0.804077 0.749091 0.938879
Si Si8 0.470588 0.249950 0.683709
O O1 0.237677 0.750221 0.824491
O O2 0.138954 0.752199 0.864114
O O3 0.210625 0.499825 0.907949
O O4 0.211126 0.998077 0.908376
O O5 0.693564 0.248929 0.250000
O O6 0.675712 0.499903 0.164304
O O7 0.675875 0.997599 0.164344
O O8 0.057786 0.757444 0.192750
O O9 0.985394 0.601696 0.250000
O O10 0.647727 0.748825 0.250000
O O11 0.588044 0.749557 0.332875
O O12 0.939301 0.501042 0.597878
O O13 0.938737 0.005683 0.596421
O O14 0.054228 0.250000 0.500000
O O15 0.134427 0.248202 0.559282
O O16 0.784970 0.750000 0.000000
O O17 0.470828 0.249929 0.750000
O O18 0.500066 0.499766 0.666218
#
# Coordination Sequence:
#
# PCOD9434887 Si02
#       8
#     8   8   4   8   8   8   8   8
#     4  10  19  31  50  75  97 126 165 198 234 283
#     4  10  19  29  42  60  93 130 158 195 229 278
#     4  12  26  44  62  78 108 146 176 214 258 308
#     4   9  17  28  38  55  83 121 160 195 244 280
#     4  10  21  36  58  82 104 136 174 212 250 306
#     4   9  17  33  58  86 109 130 161 210 262 300
#     4   9  17  30  48  73 101 124 154 196 240 287
#     4   9  15  23  37  54  72 102 154 211 241 269
#
# _framework density 17.336590000000001
#
# number of rings (size 3 to 8) (size 9 to 14) (size 15 to 20)
#    0.000    2.400    0.000    3.200    0.933    6.400 
#    0.000    0.000    0.000    8.000    0.000    0.000 
#    0.000    0.000    0.000    0.000    0.000  168.000 
#
# Total GULP energy -334463.793472 kJ/mol
# GULP energy per Si atom -5574.396558 kJ/mol
# Density = 1.729713 g / cm^3
# Si number density = 17.336590 Si / 1000 Ang^3
#
#
#
# Elastic Constant Matrix: (Units=GPa)
#
#
# Indices 1 2 3 4 5 6 
#
# 1 78.6334 35.3183 15.5725 0.0000 0.0000 0.0000
# 2 35.3183 159.6783 42.6707 0.0000 0.0000 0.0000
# 3 15.5725 42.6707 74.8542 0.0000 0.0000 0.0000
# 4 0.0000 0.0000 0.0000 14.6589 0.0000 0.0000
# 5 0.0000 0.0000 0.0000 0.0000 -2.1354 0.0000
# 6 0.0000 0.0000 0.0000 0.0000 0.0000 13.6179
#
#
#
# Elastic Compliance Matrix: (Units=1/GPa)
#
#
# Indices 1 2 3 4 5 6 
#
# 1 0.014239 -0.002782 -0.001377 0.000000 0.000000 0.000000
# 2 -0.002782 0.007931 -0.003943 0.000000 0.000000 0.000000
# 3 -0.001377 -0.003943 0.015893 0.000000 0.000000 0.000000
# 4 0.000000 0.000000 0.000000 0.068218 0.000000 0.000000
# 5 0.000000 0.000000 0.000000 0.000000 -0.468294 0.000000
# 6 0.000000 0.000000 0.000000 0.000000 0.000000 0.073433
#
#
# Mechanical properties :
#
#
# Convention : Reuss Voigt Hill
#
# Bulk Modulus (GPa) = 45.74131 55.58767 50.66449
# Shear Modulus (GPa) = -18.86151 19.86857 0.50353
#
# Velocity S-wave (km/s) = -3.30200 3.38901 0.53951
# Velocity P-wave (km/s) = 3.45021 6.88819 5.44753
#
# Compressibility (1/GPa) = 0.02186208
#
# Stress axis : x y z
#
# Youngs Moduli (GPa) = 70.22851 126.08076 62.92003
#
# Poissons Ratio (x) = 0.35071 0.08662
# Poissons Ratio (y) = 0.19535 0.24807
# Poissons Ratio (z) = 0.09668 0.49709
#
# Static dielectric constant tensor:
#      x y z
#    x 1.581230 0.000000 0.000000 
#    y 0.000000 1.598830 0.000000 
#    z 0.000000 0.000000 1.565240 
# 
# From -- ./inp_files/25876.got.cif
#   From: 2010.05.17/outbox.cif.g08.bks.cpg/sg57_13_cif.got.tgz:25876.got - 2010.06.03 13:58:18.
