data_PCOD9434033
_publ_section_title
;
Structure prediction by ZEFSAII (Michael W. Deem and Ramdas Pophale) SiO2 
 PCOD9434033
Probable space group: P B C M
;
_chemical_formula_sum "Si O2"
_cell_formula_units_Z 52
_cell_length_a 25.185487
_cell_length_b 5.506206
_cell_length_c 18.722288
_cell_angle_alpha 90.000000
_cell_angle_beta 90.000000
_cell_angle_gamma 90.000000
_cell_volume 2596.340991
_symmetry_space_group_name_H-M "P B C M"
_symmetry_group_IT_number 57
_symmetry_cell_setting 'orthorhombic'
loop_
_space_group_symop_operation_xyz
x,y,z
-x,-y,1/2+z
x,1/2-y,-z
-x,1/2+y,1/2-z
-x,-y,-z
x,y,1/2-z
-x,1/2+y,z
x,1/2-y,1/2+z
loop_
_atom_site_type_symbol
_atom_site_label
_atom_site_fract_x
_atom_site_fract_y
_atom_site_fract_z
Si Si1 0.709806 0.265620 0.163394
Si Si2 0.907601 0.637899 0.750000
Si Si3 0.828929 0.161063 0.611343
Si Si4 0.131770 0.162450 0.594676
Si Si5 0.905581 0.137366 0.750000
Si Si6 0.651764 0.766202 0.163068
Si Si7 0.528743 0.720357 0.662877
Si Si8 0.966877 0.750000 0.500000
O O1 0.711294 0.264810 0.250000
O O2 0.769509 0.281775 0.135141
O O3 0.678718 0.511375 0.141217
O O4 0.682139 0.012598 0.140650
O O5 0.870749 0.638852 0.819756
O O6 0.937641 0.385443 0.750000
O O7 0.937789 0.890044 0.750000
O O8 0.850741 0.396283 0.569761
O O9 0.867757 0.137818 0.680511
O O10 0.832451 0.894444 0.576558
O O11 0.073326 0.229288 0.566684
O O12 0.652520 0.766916 0.250000
O O13 0.590279 0.775818 0.140909
O O14 0.527623 0.720139 0.750000
O O15 0.500477 0.469274 0.640147
O O16 0.000000 0.500000 0.500000
#
# Coordination Sequence:
#
# PCOD9434033 Si02
#       8
#     8   4   8   8   4   8   8   4
#     4  10  17  25  39  63  95 121 147 194 260 314
#     4   8  16  30  52  79 102 126 158 201 238 280
#     4  10  17  30  49  75 100 129 160 195 242 307
#     4  10  21  36  58  81 105 133 169 204 242 302
#     4   8  14  24  42  69 100 122 150 187 236 284
#     4   9  17  24  32  52  82 116 156 208 264 309
#     4   9  15  23  33  42  61 104 164 220 259 290
#     4  12  26  46  64  82 108 140 170 210 256 286
#
# _framework density 20.028185000000001
#
# number of rings (size 3 to 8) (size 9 to 14) (size 15 to 20)
#    0.000    2.462    0.769    2.769    0.000    3.692 
#    0.000    0.769    0.000    0.000    0.000    0.000 
#    0.000    0.000    0.000    0.000    0.000    0.000 
#
# Total GULP energy -289686.805156 kJ/mol
# GULP energy per Si atom -5570.900099 kJ/mol
# Density = 1.998260 g / cm^3
# Si number density = 20.028185 Si / 1000 Ang^3
#
#
#
# Elastic Constant Matrix: (Units=GPa)
#
#
# Indices 1 2 3 4 5 6 
#
# 1 116.2162 66.6281 1.1171 0.0000 0.0000 0.0000
# 2 66.6281 235.5547 10.3364 0.0000 0.0000 0.0000
# 3 1.1171 10.3364 39.6167 0.0000 0.0000 0.0000
# 4 0.0000 0.0000 0.0000 11.5281 0.0000 0.0000
# 5 0.0000 0.0000 0.0000 0.0000 59.0910 0.0000
# 6 0.0000 0.0000 0.0000 0.0000 0.0000 30.6199
#
#
#
# Elastic Compliance Matrix: (Units=1/GPa)
#
#
# Indices 1 2 3 4 5 6 
#
# 1 0.010279 -0.002928 0.000474 0.000000 0.000000 0.000000
# 2 -0.002928 0.005129 -0.001256 0.000000 0.000000 0.000000
# 3 0.000474 -0.001256 0.025556 0.000000 0.000000 0.000000
# 4 0.000000 0.000000 0.000000 0.086744 0.000000 0.000000
# 5 0.000000 0.000000 0.000000 0.000000 0.016923 0.000000
# 6 0.000000 0.000000 0.000000 0.000000 0.000000 0.032658
#
#
# Mechanical properties :
#
#
# Convention : Reuss Voigt Hill
#
# Bulk Modulus (GPa) = 29.81125 60.83898 45.32512
# Shear Modulus (GPa) = 25.52450 41.13489 33.32969
#
# Velocity S-wave (km/s) = 3.57379 4.53686 4.08381
# Velocity P-wave (km/s) = 5.65210 7.60833 6.70198
#
# Compressibility (1/GPa) = 0.03354438
#
# Stress axis : x y z
#
# Youngs Moduli (GPa) = 97.28673 194.98236 39.12963
#
# Poissons Ratio (x) = 0.57096 -0.01855
# Poissons Ratio (y) = 0.28488 0.04913
# Poissons Ratio (z) = -0.04613 0.24481
#
# Static dielectric constant tensor:
#      x y z
#    x 1.651340 0.000000 0.000000 
#    y 0.000000 1.793960 0.000000 
#    z 0.000000 0.000000 2.116550 
# 
# From -- ./inp_files/25783.got.cif
#   From: 2010.05.17/outbox.cif.g08.bks.cpg/sg57_13_cif.got.tgz:25783.got - 2010.06.03 13:58:18.
