data_PCOD9434694
_publ_section_title
;
Structure prediction by ZEFSAII (Michael W. Deem and Ramdas Pophale) SiO2 
 PCOD9434694
Probable space group: P B C M
;
_chemical_formula_sum "Si O2"
_cell_formula_units_Z 48
_cell_length_a 10.348220
_cell_length_b 14.460120
_cell_length_c 14.743783
_cell_angle_alpha 90.000000
_cell_angle_beta 90.000000
_cell_angle_gamma 90.000000
_cell_volume 2206.208129
_symmetry_space_group_name_H-M "P B C M"
_symmetry_group_IT_number 57
_symmetry_cell_setting 'orthorhombic'
loop_
_space_group_symop_operation_xyz
x,y,z
-x,-y,1/2+z
x,1/2-y,-z
-x,1/2+y,1/2-z
-x,-y,-z
x,y,1/2-z
-x,1/2+y,z
x,1/2-y,1/2+z
loop_
_atom_site_type_symbol
_atom_site_label
_atom_site_fract_x
_atom_site_fract_y
_atom_site_fract_z
Si Si1 0.341459 0.510470 0.360817
Si Si2 0.148287 0.494452 0.638603
Si Si3 0.402348 0.591040 0.643409
Si Si4 0.096876 0.391542 0.360944
Si Si5 0.272193 0.783483 0.899003
Si Si6 0.970260 0.804581 0.643022
O O1 0.339505 0.514052 0.250000
O O2 0.460864 0.446218 0.392070
O O3 0.209685 0.459916 0.390109
O O4 0.341975 0.617257 0.391641
O O5 0.152286 0.492835 0.750000
O O6 0.042598 0.570124 0.613202
O O7 0.091609 0.397683 0.604821
O O8 0.286510 0.528267 0.604776
O O9 0.408324 0.570522 0.750000
O O10 0.358881 0.698524 0.638773
O O11 0.101311 0.390728 0.250000
O O12 0.099126 0.286668 0.393593
O O13 0.126195 0.796668 0.861728
O O14 0.251326 0.750000 0.000000
O O15 0.941600 0.807539 0.750000
#
# Coordination Sequence:
#
# PCOD9434694 Si02
#       6
#     8   8   8   8   8   8
#     4  10  21  38  61  87 113 145 191 239 283 336
#     4   9  16  29  55  87 112 139 179 234 285 320
#     4  10  21  38  61  87 113 145 191 239 283 336
#     4   9  16  29  55  87 112 139 179 234 285 320
#     4  12  24  37  56  82 116 154 188 226 289 347
#     4  10  18  33  58  82 112 148 192 236 279 333
#
# _framework density 21.756786000000002
#
# number of rings (size 3 to 8) (size 9 to 14) (size 15 to 20)
#    0.000    2.000    3.333    1.500    0.000    2.000 
#    0.000    8.333    0.000    2.000    0.000    0.000 
#    0.000    0.000    0.000    0.000    0.000    0.000 
#
# Total GULP energy -267926.373080 kJ/mol
# GULP energy per Si atom -5581.799439 kJ/mol
# Density = 2.170727 g / cm^3
# Si number density = 21.756786 Si / 1000 Ang^3
#
#
#
# Elastic Constant Matrix: (Units=GPa)
#
#
# Indices 1 2 3 4 5 6 
#
# 1 86.5879 31.7594 -14.1241 0.0000 0.0000 0.0000
# 2 31.7594 136.1034 -8.1927 0.0000 0.0000 0.0000
# 3 -14.1241 -8.1927 28.1055 0.0000 0.0000 0.0000
# 4 0.0000 0.0000 0.0000 19.3691 0.0000 0.0000
# 5 0.0000 0.0000 0.0000 0.0000 -6.4183 0.0000
# 6 0.0000 0.0000 0.0000 0.0000 0.0000 34.3568
#
#
#
# Elastic Compliance Matrix: (Units=1/GPa)
#
#
# Indices 1 2 3 4 5 6 
#
# 1 0.013555 -0.002802 0.005995 0.000000 0.000000 0.000000
# 2 -0.002802 0.008058 0.000941 0.000000 0.000000 0.000000
# 3 0.005995 0.000941 0.038867 0.000000 0.000000 0.000000
# 4 0.000000 0.000000 0.000000 0.051629 0.000000 0.000000
# 5 0.000000 0.000000 0.000000 0.000000 -0.155805 0.000000
# 6 0.000000 0.000000 0.000000 0.000000 0.000000 0.029106
#
#
# Mechanical properties :
#
#
# Convention : Reuss Voigt Hill
#
# Bulk Modulus (GPa) = 14.54621 29.96470 22.25545
# Shear Modulus (GPa) = 86838.60314 25.55181 43432.07747
#
# Velocity S-wave (km/s) = 199.99997 3.43071 141.44214
# Velocity P-wave (km/s) = 230.95458 5.43098 163.35470
#
# Compressibility (1/GPa) = 0.06874643
#
# Stress axis : x y z
#
# Youngs Moduli (GPa) = 73.77570 124.10278 25.72876
#
# Poissons Ratio (x) = 0.34775 -0.15424
# Poissons Ratio (y) = 0.20673 -0.02420
# Poissons Ratio (z) = -0.44228 -0.11674
#
# Static dielectric constant tensor:
#      x y z
#    x 1.761150 0.000000 0.000000 
#    y 0.000000 1.808630 0.000000 
#    z 0.000000 0.000000 1.862800 
# 
# From -- ./inp_files/20953.got.cif
#   From: 2010.05.17/outbox.cif.g08.bks.cpg/sg57_11_cif.got.tgz:20953.got - 2010.06.03 13:58:18.
