data_PCOD9434448
_publ_section_title
;
Structure prediction by ZEFSAII (Michael W. Deem and Ramdas Pophale) SiO2 
 PCOD9434448
Probable space group: P B C M
;
_chemical_formula_sum "Si O2"
_cell_formula_units_Z 48
_cell_length_a 18.063925
_cell_length_b 15.780470
_cell_length_c 7.759610
_cell_angle_alpha 90.000000
_cell_angle_beta 90.000000
_cell_angle_gamma 90.000000
_cell_volume 2211.932906
_symmetry_space_group_name_H-M "P B C M"
_symmetry_group_IT_number 57
_symmetry_cell_setting 'orthorhombic'
loop_
_space_group_symop_operation_xyz
x,y,z
-x,-y,1/2+z
x,1/2-y,-z
-x,1/2+y,1/2-z
-x,-y,-z
x,y,1/2-z
-x,1/2+y,z
x,1/2-y,1/2+z
loop_
_atom_site_type_symbol
_atom_site_label
_atom_site_fract_x
_atom_site_fract_y
_atom_site_fract_z
Si Si1 0.659033 0.111806 0.951120
Si Si2 0.185390 0.155441 0.455086
Si Si3 0.500099 0.399645 0.043129
Si Si4 0.342099 0.416505 0.046349
Si Si5 0.913910 0.501098 0.457490
Si Si6 0.181479 0.657470 0.542614
O O1 0.657664 0.136081 0.750000
O O2 0.578290 0.134982 0.027271
O O3 0.734588 0.148316 0.027928
O O4 0.665908 0.009241 0.961105
O O5 0.162084 0.250000 0.500000
O O6 0.188421 0.147705 0.250000
O O7 0.268168 0.136344 0.519409
O O8 0.129089 0.084262 0.522392
O O9 0.503471 0.389562 0.250000
O O10 0.418336 0.371936 0.983934
O O11 0.500000 0.500000 0.000000
O O12 0.350876 0.432709 0.250000
O O13 0.908359 0.501236 0.250000
O O14 0.870279 0.418199 0.521680
O O15 0.000000 0.500000 0.500000
O O16 0.151992 0.750000 0.500000
O O17 0.185657 0.649140 0.750000
#
# Coordination Sequence:
#
# PCOD9434448 Si02
#       6
#     8   8   8   8   8   8
#     4   9  16  32  54  76 113 157 194 239 290 338
#     4  11  23  41  62  87 118 154 194 237 289 346
#     4   8  15  26  46  76 109 149 194 238 283 333
#     4  10  18  30  52  84 116 150 197 242 285 340
#     4  10  23  43  65  88 116 148 185 230 288 349
#     4  10  21  38  59  86 117 152 191 231 280 338
#
# _framework density 21.700479000000001
#
# number of rings (size 3 to 8) (size 9 to 14) (size 15 to 20)
#    0.000    2.333    1.667    1.000    0.000    4.000 
#    0.000    4.167    0.000    2.000    0.000    0.000 
#    0.000    0.000    0.000    0.000    0.000    0.000 
#
# Total GULP energy -267866.578936 kJ/mol
# GULP energy per Si atom -5580.553728 kJ/mol
# Density = 2.165109 g / cm^3
# Si number density = 21.700479 Si / 1000 Ang^3
#
#
#
# Elastic Constant Matrix: (Units=GPa)
#
#
# Indices 1 2 3 4 5 6 
#
# 1 194.8476 87.2223 8.5688 0.0000 0.0000 0.0000
# 2 87.2223 123.2912 -6.6848 0.0000 0.0000 0.0000
# 3 8.5688 -6.6848 37.7500 0.0000 0.0000 0.0000
# 4 0.0000 0.0000 0.0000 19.1503 0.0000 0.0000
# 5 0.0000 0.0000 0.0000 0.0000 16.2111 0.0000
# 6 0.0000 0.0000 0.0000 0.0000 0.0000 -4.6030
#
#
#
# Elastic Compliance Matrix: (Units=1/GPa)
#
#
# Indices 1 2 3 4 5 6 
#
# 1 0.007787 -0.005659 -0.002770 0.000000 0.000000 0.000000
# 2 -0.005659 0.012302 0.003463 0.000000 0.000000 0.000000
# 3 -0.002770 0.003463 0.027732 0.000000 0.000000 0.000000
# 4 0.000000 0.000000 0.000000 0.052218 0.000000 0.000000
# 5 0.000000 0.000000 0.000000 0.000000 0.061686 0.000000
# 6 0.000000 0.000000 0.000000 0.000000 0.000000 -0.217251
#
#
# Mechanical properties :
#
#
# Convention : Reuss Voigt Hill
#
# Bulk Modulus (GPa) = 26.39242 59.34460 42.86851
# Shear Modulus (GPa) = -151.68898 23.93718 -63.87590
#
# Velocity S-wave (km/s) = -8.36976 3.32486 -5.43131
# Velocity P-wave (km/s) = 9.01196 6.49200 4.41981
#
# Compressibility (1/GPa) = 0.03788967
#
# Stress axis : x y z
#
# Youngs Moduli (GPa) = 128.41249 81.28520 36.05937
#
# Poissons Ratio (x) = 0.46002 0.09988
# Poissons Ratio (y) = 0.72673 -0.12488
# Poissons Ratio (z) = 0.35568 -0.28150
#
# Static dielectric constant tensor:
#      x y z
#    x 1.817910 0.000000 0.000000 
#    y 0.000000 1.771150 0.000000 
#    z 0.000000 0.000000 1.816870 
# 
# From -- ./inp_files/6501.got.cif
#   From: 2010.05.17/outbox.cif.g08.bks.cpg/sg57_4_cif.got.tgz:6501.got - 2010.06.03 13:58:18.
