data_PCOD9434051
_publ_section_title
;
Structure prediction by ZEFSAII (Michael W. Deem and Ramdas Pophale) SiO2 
 PCOD9434051
Probable space group: P B C M
;
_chemical_formula_sum "Si O2"
_cell_formula_units_Z 56
_cell_length_a 10.444053
_cell_length_b 19.355649
_cell_length_c 18.349595
_cell_angle_alpha 90.000000
_cell_angle_beta 90.000000
_cell_angle_gamma 90.000000
_cell_volume 3709.396759
_symmetry_space_group_name_H-M "P B C M"
_symmetry_group_IT_number 57
_symmetry_cell_setting 'orthorhombic'
loop_
_space_group_symop_operation_xyz
x,y,z
-x,-y,1/2+z
x,1/2-y,-z
-x,1/2+y,1/2-z
-x,-y,-z
x,y,1/2-z
-x,1/2+y,z
x,1/2-y,1/2+z
loop_
_atom_site_type_symbol
_atom_site_label
_atom_site_fract_x
_atom_site_fract_y
_atom_site_fract_z
Si Si1 0.133267 0.464716 0.981518
Si Si2 0.588685 0.707419 0.663237
Si Si3 0.494082 0.940496 0.165884
Si Si4 0.731163 0.543240 0.335099
Si Si5 0.238575 0.321596 0.467459
Si Si6 0.453582 0.152000 0.412128
Si Si7 0.616817 0.028711 0.049188
O O1 0.156878 0.456560 0.894686
O O2 0.153431 0.389193 0.018336
O O3 0.249920 0.512096 0.011447
O O4 0.000000 0.500000 0.000000
O O5 0.611353 0.715095 0.750000
O O6 0.500402 0.640458 0.650798
O O7 0.715965 0.691791 0.615206
O O8 0.527595 0.775925 0.628505
O O9 0.524584 0.950772 0.250000
O O10 0.355934 0.974888 0.153829
O O11 0.599874 0.981335 0.120158
O O12 0.766238 0.549015 0.250000
O O13 0.634890 0.604618 0.359478
O O14 0.183725 0.250000 0.500000
O O15 0.367933 0.335487 0.515525
O O16 0.578010 0.107078 0.432107
O O17 0.500000 0.000000 0.000000
#
# Coordination Sequence:
#
# PCOD9434051 Si02
#       7
#     8   8   8   8   8   8   8
#     4  11  21  33  53  75 104 137 179 218 259 316
#     4  10  17  26  44  78 107 126 163 215 263 308
#     4   9  16  26  47  73  98 126 163 209 256 301
#     4   9  17  31  49  71  97 131 168 208 254 305
#     4   9  17  31  50  71  98 132 169 212 258 304
#     4   9  17  27  50  74  99 127 167 209 257 310
#     4  11  16  32  51  71 100 131 164 213 261 304
#
# _framework density 15.096795
#
# number of rings (size 3 to 8) (size 9 to 14) (size 15 to 20)
#    0.000    2.286    5.714    0.429    0.000    0.571 
#    0.000    1.429    3.143    0.000    0.000    0.000 
#    0.000    0.000    0.000    0.000    0.000    0.000 
#
# Total GULP energy -311745.391742 kJ/mol
# GULP energy per Si atom -5566.881995 kJ/mol
# Density = 1.506243 g / cm^3
# Si number density = 15.096795 Si / 1000 Ang^3
#
#
#
# Elastic Constant Matrix: (Units=GPa)
#
#
# Indices 1 2 3 4 5 6 
#
# 1 62.5295 32.9749 25.3385 0.0000 0.0000 0.0000
# 2 32.9749 108.9091 40.8951 0.0000 0.0000 0.0000
# 3 25.3385 40.8951 84.1414 0.0000 0.0000 0.0000
# 4 0.0000 0.0000 0.0000 23.8381 0.0000 0.0000
# 5 0.0000 0.0000 0.0000 0.0000 11.2322 0.0000
# 6 0.0000 0.0000 0.0000 0.0000 0.0000 18.0513
#
#
#
# Elastic Compliance Matrix: (Units=1/GPa)
#
#
# Indices 1 2 3 4 5 6 
#
# 1 0.019958 -0.004631 -0.003759 0.000000 0.000000 0.000000
# 2 -0.004631 0.012306 -0.004587 0.000000 0.000000 0.000000
# 3 -0.003759 -0.004587 0.015246 0.000000 0.000000 0.000000
# 4 0.000000 0.000000 0.000000 0.041950 0.000000 0.000000
# 5 0.000000 0.000000 0.000000 0.000000 0.089029 0.000000
# 6 0.000000 0.000000 0.000000 0.000000 0.000000 0.055398
#
#
# Mechanical properties :
#
#
# Convention : Reuss Voigt Hill
#
# Bulk Modulus (GPa) = 46.39013 50.44411 48.41712
# Shear Modulus (GPa) = 18.72468 21.04909 19.88688
#
# Velocity S-wave (km/s) = 3.52562 3.73805 3.63339
# Velocity P-wave (km/s) = 6.88248 7.21921 7.05286
#
# Compressibility (1/GPa) = 0.02155631
#
# Stress axis : x y z
#
# Youngs Moduli (GPa) = 50.10502 81.25822 65.59066
#
# Poissons Ratio (x) = 0.37632 0.24658
# Poissons Ratio (y) = 0.23205 0.30084
# Poissons Ratio (z) = 0.18836 0.37270
#
# Static dielectric constant tensor:
#      x y z
#    x 1.462350 0.000000 0.000000 
#    y 0.000000 1.539240 0.000000 
#    z 0.000000 0.000000 1.591870 
# 
# From -- ./inp_files/22117.got.cif
#   From: 2010.05.17/outbox.cif.g08.bks.cpg/sg57_12_cif.got.tgz:22117.got - 2010.06.03 13:58:18.
