data_PCOD9434425
_publ_section_title
;
Structure prediction by ZEFSAII (Michael W. Deem and Ramdas Pophale) SiO2 
 PCOD9434425
Probable space group: P B C M
;
_chemical_formula_sum "Si O2"
_cell_formula_units_Z 40
_cell_length_a 13.195660
_cell_length_b 20.447339
_cell_length_c 8.645967
_cell_angle_alpha 90.000000
_cell_angle_beta 90.000000
_cell_angle_gamma 90.000000
_cell_volume 2332.821385
_symmetry_space_group_name_H-M "P B C M"
_symmetry_group_IT_number 57
_symmetry_cell_setting 'orthorhombic'
loop_
_space_group_symop_operation_xyz
x,y,z
-x,-y,1/2+z
x,1/2-y,-z
-x,1/2+y,1/2-z
-x,-y,-z
x,y,1/2-z
-x,1/2+y,z
x,1/2-y,1/2+z
loop_
_atom_site_type_symbol
_atom_site_label
_atom_site_fract_x
_atom_site_fract_y
_atom_site_fract_z
Si Si1 0.979168 0.572425 0.936007
Si Si2 0.617526 0.321752 0.564651
Si Si3 0.456006 0.432013 0.935450
Si Si4 0.197177 0.901080 0.063837
Si Si5 0.760816 0.952799 0.436110
O O1 0.979673 0.570021 0.750000
O O2 0.863225 0.586604 0.982026
O O3 0.079610 0.612342 0.981943
O O4 0.000000 0.500000 0.000000
O O5 0.597688 0.250000 0.500000
O O6 0.620916 0.320038 0.750000
O O7 0.530442 0.373280 0.517485
O O8 0.723764 0.349514 0.502036
O O9 0.454632 0.435664 0.750000
O O10 0.500000 0.500000 0.000000
O O11 0.342405 0.423992 0.997508
O O12 0.204022 0.902802 0.250000
O O13 0.226615 0.973009 0.999328
O O14 0.754764 0.955922 0.250000
#
# Coordination Sequence:
#
# PCOD9434425 Si02
#       5
#     8   8   8   8   8
#     4   8  16  28  45  73 105 136 168 208 255 306
#     4  11  24  39  55  77 106 141 181 225 274 329
#     4  11  22  35  54  79 108 141 181 225 273 325
#     4  10  18  31  52  76 106 140 176 217 265 316
#     4  10  18  30  50  78 110 140 175 218 266 315
#
# _framework density 17.146619000000001
#
# number of rings (size 3 to 8) (size 9 to 14) (size 15 to 20)
#    0.000    2.000    2.000    2.400    0.000    4.000 
#    0.000    0.000    0.000    1.200    0.000    2.800 
#    0.000    0.000    0.000    0.000    0.000    0.000 
#
# Total GULP energy -223002.314763 kJ/mol
# GULP energy per Si atom -5575.057869 kJ/mol
# Density = 1.710759 g / cm^3
# Si number density = 17.146619 Si / 1000 Ang^3
#
#
#
# Elastic Constant Matrix: (Units=GPa)
#
#
# Indices 1 2 3 4 5 6 
#
# 1 197.0953 72.0307 44.2164 0.0000 0.0000 0.0000
# 2 72.0307 92.9051 31.5467 0.0000 0.0000 0.0000
# 3 44.2164 31.5467 42.1919 0.0000 0.0000 0.0000
# 4 0.0000 0.0000 0.0000 21.6966 0.0000 0.0000
# 5 0.0000 0.0000 0.0000 0.0000 28.6113 0.0000
# 6 0.0000 0.0000 0.0000 0.0000 0.0000 19.1948
#
#
#
# Elastic Compliance Matrix: (Units=1/GPa)
#
#
# Indices 1 2 3 4 5 6 
#
# 1 0.007761 -0.004363 -0.004871 0.000000 0.000000 0.000000
# 2 -0.004363 0.016879 -0.008048 0.000000 0.000000 0.000000
# 3 -0.004871 -0.008048 0.034823 0.000000 0.000000 0.000000
# 4 0.000000 0.000000 0.000000 0.046090 0.000000 0.000000
# 5 0.000000 0.000000 0.000000 0.000000 0.034951 0.000000
# 6 0.000000 0.000000 0.000000 0.000000 0.000000 0.052097
#
#
# Mechanical properties :
#
#
# Convention : Reuss Voigt Hill
#
# Bulk Modulus (GPa) = 40.16189 69.75331 54.95760
# Shear Modulus (GPa) = 21.23440 26.19378 23.71409
#
# Velocity S-wave (km/s) = 3.52291 3.91274 3.72293
# Velocity P-wave (km/s) = 6.32624 7.82186 7.11347
#
# Compressibility (1/GPa) = 0.02489923
#
# Stress axis : x y z
#
# Youngs Moduli (GPa) = 128.84835 59.24401 28.71626
#
# Poissons Ratio (x) = 0.25850 0.13988
# Poissons Ratio (y) = 0.56220 0.23111
# Poissons Ratio (z) = 0.62763 0.47680
#
# Static dielectric constant tensor:
#      x y z
#    x 1.637400 0.000000 0.000000 
#    y 0.000000 1.538810 0.000000 
#    z 0.000000 0.000000 1.576080 
# 
# From -- ./inp_files/2907.got.cif
#   From: 2010.05.17/outbox.cif.g08.bks.cpg/sg57_2_cif.got.tgz:2907.got - 2010.06.03 13:58:18.
