data_PCOD9434983
_publ_section_title
;
Structure prediction by ZEFSAII (Michael W. Deem and Ramdas Pophale) SiO2 
 PCOD9434983
Probable space group: P B C M
;
_chemical_formula_sum "Si O2"
_cell_formula_units_Z 48
_cell_length_a 14.132654
_cell_length_b 24.543397
_cell_length_c 8.726349
_cell_angle_alpha 90.000000
_cell_angle_beta 90.000000
_cell_angle_gamma 90.000000
_cell_volume 3026.850541
_symmetry_space_group_name_H-M "P B C M"
_symmetry_group_IT_number 57
_symmetry_cell_setting 'orthorhombic'
loop_
_space_group_symop_operation_xyz
x,y,z
-x,-y,1/2+z
x,1/2-y,-z
-x,1/2+y,1/2-z
-x,-y,-z
x,y,1/2-z
-x,1/2+y,z
x,1/2-y,1/2+z
loop_
_atom_site_type_symbol
_atom_site_label
_atom_site_fract_x
_atom_site_fract_y
_atom_site_fract_z
Si Si1 0.857914 0.808226 0.565489
Si Si2 0.360165 0.526872 0.434807
Si Si3 0.537957 0.914261 0.433075
Si Si4 0.854917 0.022241 0.065043
Si Si5 0.041991 0.082432 0.064915
Si Si6 0.362313 0.308799 0.933540
O O1 0.887669 0.750000 0.500000
O O2 0.861023 0.805816 0.750000
O O3 0.921840 0.858693 0.513378
O O4 0.748012 0.817573 0.520952
O O5 0.366014 0.531623 0.250000
O O6 0.434435 0.568380 0.508473
O O7 0.394585 0.465629 0.475596
O O8 0.251832 0.535073 0.483461
O O9 0.538047 0.909631 0.250000
O O10 0.576299 0.858763 0.504933
O O11 0.854983 0.018563 0.250000
O O12 0.935165 0.066014 0.019811
O O13 0.890117 0.964704 0.999174
O O14 0.046820 0.081000 0.250000
O O15 0.366981 0.307098 0.750000
O O16 0.391121 0.250000 0.000000
#
# Coordination Sequence:
#
# PCOD9434983 Si02
#       6
#     8   8   8   8   8   8
#     4   9  18  30  45  66  91 119 148 180 219 263
#     4   9  18  31  46  66  92 122 153 185 225 271
#     4  10  19  30  46  68  92 118 151 189 227 269
#     4   9  17  29  46  67  91 120 151 182 221 269
#     4   9  17  29  45  67  93 118 147 184 225 266
#     4  10  19  31  47  67  92 120 149 182 223 268
#
# _framework density 15.858067999999999
#
# number of rings (size 3 to 8) (size 9 to 14) (size 15 to 20)
#    0.000    2.667    0.000    2.000    0.000    2.667 
#    0.000    0.000    0.000    1.000    0.000    2.333 
#    0.000    0.000    0.000    0.000    0.000    0.000 
#
# Total GULP energy -267613.969992 kJ/mol
# GULP energy per Si atom -5575.291041 kJ/mol
# Density = 1.582197 g / cm^3
# Si number density = 15.858068 Si / 1000 Ang^3
#
#
#
# Elastic Constant Matrix: (Units=GPa)
#
#
# Indices 1 2 3 4 5 6 
#
# 1 127.0867 89.8704 31.4837 0.0000 0.0000 0.0000
# 2 89.8704 159.2268 36.6283 0.0000 0.0000 0.0000
# 3 31.4837 36.6283 18.5051 0.0000 0.0000 0.0000
# 4 0.0000 0.0000 0.0000 26.7690 0.0000 0.0000
# 5 0.0000 0.0000 0.0000 0.0000 18.5733 0.0000
# 6 0.0000 0.0000 0.0000 0.0000 0.0000 22.1873
#
#
#
# Elastic Compliance Matrix: (Units=1/GPa)
#
#
# Indices 1 2 3 4 5 6 
#
# 1 0.015440 -0.004905 -0.016559 0.000000 0.000000 0.000000
# 2 -0.004905 0.013089 -0.017562 0.000000 0.000000 0.000000
# 3 -0.016559 -0.017562 0.116974 0.000000 0.000000 0.000000
# 4 0.000000 0.000000 0.000000 0.037357 0.000000 0.000000
# 5 0.000000 0.000000 0.000000 0.000000 0.053841 0.000000
# 6 0.000000 0.000000 0.000000 0.000000 0.000000 0.045071
#
#
# Mechanical properties :
#
#
# Convention : Reuss Voigt Hill
#
# Bulk Modulus (GPa) = 14.82591 68.97592 41.90092
# Shear Modulus (GPa) = 13.07849 23.29500 18.18674
#
# Velocity S-wave (km/s) = 2.87491 3.83687 3.39018
# Velocity P-wave (km/s) = 4.51548 7.95104 6.46562
#
# Compressibility (1/GPa) = 0.06744948
#
# Stress axis : x y z
#
# Youngs Moduli (GPa) = 64.76843 76.40044 8.54890
#
# Poissons Ratio (x) = 0.37476 0.14156
# Poissons Ratio (y) = 0.31770 0.15014
# Poissons Ratio (z) = 1.07251 1.34177
#
# Static dielectric constant tensor:
#      x y z
#    x 1.528780 0.000000 0.000000 
#    y 0.000000 1.504530 0.000000 
#    z 0.000000 0.000000 1.523210 
# 
# From -- ./inp_files/4886.got.cif
#   From: 2010.05.17/outbox.cif.g08.bks.cpg/sg57_3_cif.got.tgz:4886.got - 2010.06.03 13:58:18.
