data_PCOD9434527
_publ_section_title
;
Structure prediction by ZEFSAII (Michael W. Deem and Ramdas Pophale) SiO2 
 PCOD9434527
Probable space group: P B C M
;
_chemical_formula_sum "Si O2"
_cell_formula_units_Z 64
_cell_length_a 11.817974
_cell_length_b 12.057422
_cell_length_c 23.295185
_cell_angle_alpha 90.000000
_cell_angle_beta 90.000000
_cell_angle_gamma 90.000000
_cell_volume 3319.431073
_symmetry_space_group_name_H-M "P B C M"
_symmetry_group_IT_number 57
_symmetry_cell_setting 'orthorhombic'
loop_
_space_group_symop_operation_xyz
x,y,z
-x,-y,1/2+z
x,1/2-y,-z
-x,1/2+y,1/2-z
-x,-y,-z
x,y,1/2-z
-x,1/2+y,z
x,1/2-y,1/2+z
loop_
_atom_site_type_symbol
_atom_site_label
_atom_site_fract_x
_atom_site_fract_y
_atom_site_fract_z
Si Si1 0.347564 0.910434 0.317865
Si Si2 0.265479 0.354962 0.865317
Si Si3 0.182050 0.007500 0.686092
Si Si4 0.608351 0.854977 0.181859
Si Si5 0.948477 0.741140 0.814518
Si Si6 0.142355 0.455227 0.536820
Si Si7 0.110968 0.587894 0.067997
Si Si8 0.159359 0.687796 0.603853
O O1 0.326009 0.898892 0.250000
O O2 0.478067 0.881257 0.329144
O O3 0.264859 0.832346 0.354385
O O4 0.319617 0.036153 0.336924
O O5 0.343000 0.248555 0.853608
O O6 0.142755 0.330694 0.836435
O O7 0.235765 0.381604 0.931450
O O8 0.175896 0.957414 0.750000
O O9 0.312046 0.037864 0.672042
O O10 0.121235 0.126536 0.688552
O O11 0.123121 0.943136 0.634741
O O12 0.621576 0.827684 0.250000
O O13 0.986563 0.768475 0.750000
O O14 0.049714 0.715991 0.857768
O O15 0.160354 0.488396 0.470848
O O16 0.139910 0.573862 0.569693
O O17 0.018567 0.402440 0.546562
O O18 0.172309 0.705687 0.063246
#
# Coordination Sequence:
#
# PCOD9434527 Si02
#       8
#     8   8   8   8   8   8   8   8
#     4  10  21  35  56  85 116 153 195 236 286 351
#     4  10  19  37  58  81 112 154 194 236 290 343
#     4   9  19  35  56  83 114 142 184 239 287 338
#     4   9  19  37  59  84 115 153 197 241 284 338
#     4  10  18  31  52  82 116 147 180 230 290 348
#     4  10  22  37  56  80 113 152 196 230 283 352
#     4  11  21  37  56  82 115 150 183 238 289 345
#     4  11  21  35  52  82 116 148 186 237 286 343
#
# _framework density 19.280411999999998
#
# number of rings (size 3 to 8) (size 9 to 14) (size 15 to 20)
#    0.000    2.000    2.500    2.625    0.000    2.000 
#    0.000    5.000    0.000    9.750    0.000    0.000 
#    0.000    0.000    0.000    0.000    0.000    0.000 
#
# Total GULP energy -357202.466457 kJ/mol
# GULP energy per Si atom -5581.288538 kJ/mol
# Density = 1.923653 g / cm^3
# Si number density = 19.280412 Si / 1000 Ang^3
#
#
#
# Elastic Constant Matrix: (Units=GPa)
#
#
# Indices 1 2 3 4 5 6 
#
# 1 86.1449 14.2060 14.9386 0.0000 0.0000 0.0000
# 2 14.2060 41.7829 -0.6780 0.0000 0.0000 0.0000
# 3 14.9386 -0.6780 66.6829 0.0000 0.0000 0.0000
# 4 0.0000 0.0000 0.0000 23.5822 0.0000 0.0000
# 5 0.0000 0.0000 0.0000 0.0000 20.3466 0.0000
# 6 0.0000 0.0000 0.0000 0.0000 0.0000 27.5543
#
#
#
# Elastic Compliance Matrix: (Units=1/GPa)
#
#
# Indices 1 2 3 4 5 6 
#
# 1 0.012843 -0.004414 -0.002922 0.000000 0.000000 0.000000
# 2 -0.004414 0.025454 0.001248 0.000000 0.000000 0.000000
# 3 -0.002922 0.001248 0.015664 0.000000 0.000000 0.000000
# 4 0.000000 0.000000 0.000000 0.042405 0.000000 0.000000
# 5 0.000000 0.000000 0.000000 0.000000 0.049148 0.000000
# 6 0.000000 0.000000 0.000000 0.000000 0.000000 0.036292
#
#
# Mechanical properties :
#
#
# Convention : Reuss Voigt Hill
#
# Bulk Modulus (GPa) = 23.93254 27.94933 25.94094
# Shear Modulus (GPa) = 24.04879 25.37289 24.71084
#
# Velocity S-wave (km/s) = 3.53557 3.63160 3.58391
# Velocity P-wave (km/s) = 5.39507 5.66678 5.53259
#
# Compressibility (1/GPa) = 0.04178412
#
# Stress axis : x y z
#
# Youngs Moduli (GPa) = 77.86370 39.28628 63.84212
#
# Poissons Ratio (x) = 0.17341 0.18655
# Poissons Ratio (y) = 0.34369 -0.07965
# Poissons Ratio (z) = 0.22752 -0.04902
#
# Static dielectric constant tensor:
#      x y z
#    x 1.660640 0.000000 0.000000 
#    y 0.000000 1.689360 0.000000 
#    z 0.000000 0.000000 1.709980 
# 
# From -- ./inp_files/27302.got.cif
#   From: 2010.05.17/outbox.cif.g08.bks.cpg/sg57_14_cif.got.tgz:27302.got - 2010.06.03 13:58:18.
