data_PCOD9434544
_publ_section_title
;
Structure prediction by ZEFSAII (Michael W. Deem and Ramdas Pophale) SiO2 
 PCOD9434544
Probable space group: P B C M
;
_chemical_formula_sum "Si O2"
_cell_formula_units_Z 64
_cell_length_a 19.329664
_cell_length_b 23.372378
_cell_length_c 8.766703
_cell_angle_alpha 90.000000
_cell_angle_beta 90.000000
_cell_angle_gamma 90.000000
_cell_volume 3960.622954
_symmetry_space_group_name_H-M "P B C M"
_symmetry_group_IT_number 57
_symmetry_cell_setting 'orthorhombic'
loop_
_space_group_symop_operation_xyz
x,y,z
-x,-y,1/2+z
x,1/2-y,-z
-x,1/2+y,1/2-z
-x,-y,-z
x,y,1/2-z
-x,1/2+y,z
x,1/2-y,1/2+z
loop_
_atom_site_type_symbol
_atom_site_label
_atom_site_fract_x
_atom_site_fract_y
_atom_site_fract_z
Si Si1 0.925486 0.012420 0.430397
Si Si2 0.273482 0.810387 0.931771
Si Si3 0.424300 0.987270 0.932750
Si Si4 0.590780 0.363259 0.067140
Si Si5 0.801154 0.541149 0.429474
Si Si6 0.438488 0.186669 0.567181
Si Si7 0.339125 0.407535 0.933443
Si Si8 0.187917 0.585855 0.929494
O O1 0.929353 0.019050 0.250000
O O2 0.871516 0.961713 0.474821
O O3 0.887274 0.067610 0.505333
O O4 0.000000 0.000000 0.500000
O O5 0.276378 0.807480 0.750000
O O6 0.249070 0.750000 0.000000
O O7 0.349637 0.823442 0.998736
O O8 0.224954 0.862911 0.984195
O O9 0.426574 0.986696 0.750000
O O10 0.401137 0.925977 0.995860
O O11 0.500000 0.000000 0.000000
O O12 0.376355 0.038106 0.991858
O O13 0.598205 0.365982 0.250000
O O14 0.513718 0.340673 0.031286
O O15 0.817979 0.547378 0.250000
O O16 0.742073 0.585734 0.471867
O O17 0.772680 0.475535 0.447001
O O18 0.435980 0.250000 0.500000
O O19 0.431696 0.187564 0.750000
O O20 0.378486 0.147728 0.495546
O O21 0.345281 0.410506 0.750000
O O22 0.184497 0.598707 0.750000
#
# Coordination Sequence:
#
# PCOD9434544 Si02
#       8
#     8   8   8   8   8   8   8   8
#     4  10  18  31  53  82 115 146 175 208 254 312
#     4  12  24  37  54  76 104 144 189 231 273 323
#     4  12  23  35  53  77 104 135 175 219 271 328
#     4  11  23  39  56  75 102 136 179 230 279 327
#     4   8  18  33  52  78 108 139 168 208 263 314
#     4  11  24  39  55  73  98 133 180 228 275 323
#     4  11  21  36  56  76 104 135 172 217 268 318
#     4   9  18  35  54  77 110 143 178 220 265 316
#
# _framework density 16.159072999999999
#
# number of rings (size 3 to 8) (size 9 to 14) (size 15 to 20)
#    0.750    0.750    1.250    5.625    0.000    4.500 
#    0.000    0.000    0.000    0.000    0.000    0.875 
#    0.000    4.000    0.000    0.000    0.000    0.000 
#
# Total GULP energy -357011.893025 kJ/mol
# GULP energy per Si atom -5578.310829 kJ/mol
# Density = 1.612229 g / cm^3
# Si number density = 16.159073 Si / 1000 Ang^3
#
#
#
# Elastic Constant Matrix: (Units=GPa)
#
#
# Indices 1 2 3 4 5 6 
#
# 1 93.4053 29.3411 46.3004 0.0000 0.0000 0.0000
# 2 29.3411 77.6706 34.7945 0.0000 0.0000 0.0000
# 3 46.3004 34.7945 95.3601 0.0000 0.0000 0.0000
# 4 0.0000 0.0000 0.0000 25.6055 0.0000 0.0000
# 5 0.0000 0.0000 0.0000 0.0000 26.8984 0.0000
# 6 0.0000 0.0000 0.0000 0.0000 0.0000 12.7857
#
#
#
# Elastic Compliance Matrix: (Units=1/GPa)
#
#
# Indices 1 2 3 4 5 6 
#
# 1 0.014590 -0.002795 -0.006064 0.000000 0.000000 0.000000
# 2 -0.002795 0.015926 -0.004454 0.000000 0.000000 0.000000
# 3 -0.006064 -0.004454 0.015056 0.000000 0.000000 0.000000
# 4 0.000000 0.000000 0.000000 0.039054 0.000000 0.000000
# 5 0.000000 0.000000 0.000000 0.000000 0.037177 0.000000
# 6 0.000000 0.000000 0.000000 0.000000 0.000000 0.078213
#
#
# Mechanical properties :
#
#
# Convention : Reuss Voigt Hill
#
# Bulk Modulus (GPa) = 52.78178 54.14534 53.46356
# Shear Modulus (GPa) = 21.46320 23.45791 22.46055
#
# Velocity S-wave (km/s) = 3.64846 3.81423 3.73227
# Velocity P-wave (km/s) = 7.10515 7.27862 7.19241
#
# Compressibility (1/GPa) = 0.01894593
#
# Stress axis : x y z
#
# Youngs Moduli (GPa) = 68.54046 62.79046 66.41876
#
# Poissons Ratio (x) = 0.17550 0.40277
# Poissons Ratio (y) = 0.19157 0.29582
# Poissons Ratio (z) = 0.41563 0.27966
#
# Static dielectric constant tensor:
#      x y z
#    x 1.549460 0.000000 0.000000 
#    y 0.000000 1.540300 0.000000 
#    z 0.000000 0.000000 1.537540 
# 
# From -- ./inp_files/8759.got.cif
#   From: 2010.05.17/outbox.cif.g08.bks.cpg/sg57_5_cif.got.tgz:8759.got - 2010.06.03 13:58:18.
