data_PCOD9434393
_publ_section_title
;
Structure prediction by ZEFSAII (Michael W. Deem and Ramdas Pophale) SiO2 
 PCOD9434393
Probable space group: P B C M
;
_chemical_formula_sum "Si O2"
_cell_formula_units_Z 64
_cell_length_a 12.046214
_cell_length_b 33.667051
_cell_length_c 9.367201
_cell_angle_alpha 90.000000
_cell_angle_beta 90.000000
_cell_angle_gamma 90.000000
_cell_volume 3798.966731
_symmetry_space_group_name_H-M "P B C M"
_symmetry_group_IT_number 57
_symmetry_cell_setting 'orthorhombic'
loop_
_space_group_symop_operation_xyz
x,y,z
-x,-y,1/2+z
x,1/2-y,-z
-x,1/2+y,1/2-z
-x,-y,-z
x,y,1/2-z
-x,1/2+y,z
x,1/2-y,1/2+z
loop_
_atom_site_type_symbol
_atom_site_label
_atom_site_fract_x
_atom_site_fract_y
_atom_site_fract_z
Si Si1 0.142040 0.622195 0.080759
Si Si2 0.673346 0.336857 0.086289
Si Si3 0.538088 0.709689 0.577866
Si Si4 0.532978 0.419461 0.414978
Si Si5 0.277930 0.959962 0.919494
Si Si6 0.889542 0.513786 0.417081
Si Si7 0.892473 0.891021 0.583420
Si Si8 0.326717 0.130236 0.921700
O O1 0.142130 0.628672 0.250000
O O2 0.199648 0.579073 0.058568
O O3 0.015002 0.621197 0.031165
O O4 0.218700 0.654603 0.005631
O O5 0.703604 0.328776 0.250000
O O6 0.586949 0.303576 0.035879
O O7 0.602371 0.377992 0.085854
O O8 0.569945 0.750000 0.500000
O O9 0.539836 0.714029 0.750000
O O10 0.616451 0.672321 0.541522
O O11 0.528404 0.433412 0.250000
O O12 0.602487 0.449082 0.513944
O O13 0.411001 0.405536 0.464212
O O14 0.284464 0.967601 0.750000
O O15 0.216119 0.994722 0.004271
O O16 0.893829 0.501652 0.250000
O O17 0.886370 0.561267 0.422614
O O18 0.000000 0.500000 0.500000
O O19 0.881966 0.879492 0.750000
O O20 0.791774 0.873931 0.493311
O O21 0.319408 0.128381 0.750000
#
# Coordination Sequence:
#
# PCOD9434393 Si02
#       8
#     8   8   8   8   8   8   8   8
#     4   9  17  30  46  69 100 128 158 203 249 293
#     4   8  15  28  47  73 100 125 155 194 238 289
#     4   9  18  33  54  81 109 130 158 200 243 291
#     4   8  15  30  49  69  95 127 162 205 254 295
#     4  10  18  30  48  72  98 125 165 212 260 308
#     4  11  21  34  49  69  99 132 170 219 265 305
#     4  10  21  35  49  70 102 135 171 214 255 299
#     4   9  19  35  53  75 103 133 171 212 246 299
#
# _framework density 16.846685000000001
#
# number of rings (size 3 to 8) (size 9 to 14) (size 15 to 20)
#    0.000    2.750    1.250    2.250    0.000    3.500 
#    0.000    3.125    0.000    0.750    0.000    0.000 
#    0.000    0.000    0.000    0.000    0.000    0.000 
#
# Total GULP energy -356709.529032 kJ/mol
# GULP energy per Si atom -5573.586391 kJ/mol
# Density = 1.680834 g / cm^3
# Si number density = 16.846685 Si / 1000 Ang^3
#
#
#
# Elastic Constant Matrix: (Units=GPa)
#
#
# Indices 1 2 3 4 5 6 
#
# 1 109.7584 20.4439 38.5089 0.0000 0.0000 0.0000
# 2 20.4439 28.2255 19.9431 0.0000 0.0000 0.0000
# 3 38.5089 19.9431 43.1622 0.0000 0.0000 0.0000
# 4 0.0000 0.0000 0.0000 23.4831 0.0000 0.0000
# 5 0.0000 0.0000 0.0000 0.0000 32.1414 0.0000
# 6 0.0000 0.0000 0.0000 0.0000 0.0000 15.8491
#
#
#
# Elastic Compliance Matrix: (Units=1/GPa)
#
#
# Indices 1 2 3 4 5 6 
#
# 1 0.013328 -0.001858 -0.011032 0.000000 0.000000 0.000000
# 2 -0.001858 0.052861 -0.022766 0.000000 0.000000 0.000000
# 3 -0.011032 -0.022766 0.043530 0.000000 0.000000 0.000000
# 4 0.000000 0.000000 0.000000 0.042584 0.000000 0.000000
# 5 0.000000 0.000000 0.000000 0.000000 0.031113 0.000000
# 6 0.000000 0.000000 0.000000 0.000000 0.000000 0.063095
#
#
# Mechanical properties :
#
#
# Convention : Reuss Voigt Hill
#
# Bulk Modulus (GPa) = 26.03812 37.65976 31.84894
# Shear Modulus (GPa) = 15.12283 21.11139 18.11711
#
# Velocity S-wave (km/s) = 2.99937 3.54382 3.28290
# Velocity P-wave (km/s) = 5.24256 6.25682 5.77201
#
# Compressibility (1/GPa) = 0.03840522
#
# Stress axis : x y z
#
# Youngs Moduli (GPa) = 75.03148 18.91760 22.97247
#
# Poissons Ratio (x) = 0.03516 0.25344
# Poissons Ratio (y) = 0.13944 0.52300
# Poissons Ratio (z) = 0.82776 0.43068
#
# Static dielectric constant tensor:
#      x y z
#    x 1.575810 0.000000 0.000000 
#    y 0.000000 1.561710 0.000000 
#    z 0.000000 0.000000 1.562080 
# 
# From -- ./inp_files/3754.got.cif
#   From: 2010.05.17/outbox.cif.g08.bks.cpg/sg57_2_cif.got.tgz:3754.got - 2010.06.03 13:58:18.
