data_PCOD9434875
_publ_section_title
;
Structure prediction by ZEFSAII (Michael W. Deem and Ramdas Pophale) SiO2 
 PCOD9434875
Probable space group: P B C M
;
_chemical_formula_sum "Si O2"
_cell_formula_units_Z 56
_cell_length_a 21.225809
_cell_length_b 14.057271
_cell_length_c 7.479083
_cell_angle_alpha 90.000000
_cell_angle_beta 90.000000
_cell_angle_gamma 90.000000
_cell_volume 2231.585969
_symmetry_space_group_name_H-M "P B C M"
_symmetry_group_IT_number 57
_symmetry_cell_setting 'orthorhombic'
loop_
_space_group_symop_operation_xyz
x,y,z
-x,-y,1/2+z
x,1/2-y,-z
-x,1/2+y,1/2-z
-x,-y,-z
x,y,1/2-z
-x,1/2+y,z
x,1/2-y,1/2+z
loop_
_atom_site_type_symbol
_atom_site_label
_atom_site_fract_x
_atom_site_fract_y
_atom_site_fract_z
Si Si1 0.310943 0.147710 0.463503
Si Si2 0.875869 0.646188 0.554038
Si Si3 0.853545 0.433771 0.970394
Si Si4 0.553036 0.627938 0.044194
Si Si5 0.716949 0.429870 0.958251
Si Si6 0.012322 0.889108 0.537986
Si Si7 0.421200 0.590912 0.030913
O O1 0.279956 0.250000 0.500000
O O2 0.313824 0.136103 0.250000
O O3 0.381591 0.158122 0.543556
O O4 0.285241 0.046050 0.529956
O O5 0.853531 0.750000 0.500000
O O6 0.849743 0.632376 0.750000
O O7 0.861297 0.544274 0.464016
O O8 0.951846 0.655106 0.554672
O O9 0.855616 0.434216 0.750000
O O10 0.784951 0.399334 0.031086
O O11 0.915769 0.374803 0.024225
O O12 0.552522 0.660039 0.250000
O O13 0.483399 0.647611 0.969616
O O14 0.563716 0.514537 0.038691
O O15 0.717198 0.404756 0.750000
O O16 0.650384 0.389223 0.029796
O O17 0.007998 0.870273 0.750000
O O18 0.000000 0.000000 0.500000
O O19 0.421818 0.589204 0.250000
#
# Coordination Sequence:
#
# PCOD9434875 Si02
#       7
#     8   8   8   8   8   8   8
#     4  10  19  29  39  54  80 111 142 173 205 243
#     4  10  19  31  46  66  90 116 147 182 219 257
#     4   8  16  29  45  65  90 117 144 175 212 259
#     4   8  14  24  37  54  75  98 127 165 203 235
#     4   9  16  28  44  62  84 109 137 166 201 247
#     4   9  16  29  47  66  88 114 145 181 220 258
#     4   8  13  22  39  59  76  96 125 162 200 236
#
# _framework density 25.094259999999998
#
# number of rings (size 3 to 8) (size 9 to 14) (size 15 to 20)
#    0.000    3.143    0.000    2.143    0.000    1.143 
#    0.000    5.714    0.000    0.000    0.000    1.000 
#    0.000    2.286    0.000    0.000    0.000    1.571 
#
# Total GULP energy -311864.353926 kJ/mol
# GULP energy per Si atom -5569.006320 kJ/mol
# Density = 2.503714 g / cm^3
# Si number density = 25.094260 Si / 1000 Ang^3
#
#
#
# Elastic Constant Matrix: (Units=GPa)
#
#
# Indices 1 2 3 4 5 6 
#
# 1 243.7670 -6.3242 2.0784 0.0000 0.0000 0.0000
# 2 -6.3242 35.1056 -8.9600 0.0000 0.0000 0.0000
# 3 2.0784 -8.9600 89.7988 0.0000 0.0000 0.0000
# 4 0.0000 0.0000 0.0000 6.8700 0.0000 0.0000
# 5 0.0000 0.0000 0.0000 0.0000 1277.7360 0.0000
# 6 0.0000 0.0000 0.0000 0.0000 0.0000 -15.7177
#
#
#
# Elastic Compliance Matrix: (Units=1/GPa)
#
#
# Indices 1 2 3 4 5 6 
#
# 1 0.004122 0.000737 -0.000022 0.000000 0.000000 0.000000
# 2 0.000737 0.029362 0.002913 0.000000 0.000000 0.000000
# 3 -0.000022 0.002913 0.011427 0.000000 0.000000 0.000000
# 4 0.000000 0.000000 0.000000 0.145561 0.000000 0.000000
# 5 0.000000 0.000000 0.000000 0.000000 0.000783 0.000000
# 6 0.000000 0.000000 0.000000 0.000000 0.000000 -0.063622
#
#
# Mechanical properties :
#
#
# Convention : Reuss Voigt Hill
#
# Bulk Modulus (GPa) = 19.16970 38.02886 28.59928
# Shear Modulus (GPa) = 36.29370 279.23614 157.76492
#
# Velocity S-wave (km/s) = 3.80714 10.56014 7.93759
# Velocity P-wave (km/s) = 5.19437 12.80140 9.76876
#
# Compressibility (1/GPa) = 0.05216564
#
# Stress axis : x y z
#
# Youngs Moduli (GPa) = 242.62521 34.05809 87.51102
#
# Poissons Ratio (x) = -0.02510 0.00191
# Poissons Ratio (y) = -0.17879 -0.25489
# Poissons Ratio (z) = 0.00531 -0.09920
#
# Static dielectric constant tensor:
#      x y z
#    x 2.071290 0.000000 0.000000 
#    y 0.000000 1.965900 0.000000 
#    z 0.000000 0.000000 1.941720 
# 
# From -- ./inp_files/8320.got.cif
#   From: 2010.05.17/outbox.cif.g08.bks.cpg/sg57_5_cif.got.tgz:8320.got - 2010.06.03 13:58:18.
