data_PCOD9434867
_publ_section_title
;
Structure prediction by ZEFSAII (Michael W. Deem and Ramdas Pophale) SiO2 
 PCOD9434867
Probable space group: P B C M
;
_chemical_formula_sum "Si O2"
_cell_formula_units_Z 52
_cell_length_a 25.422043
_cell_length_b 5.285564
_cell_length_c 22.289398
_cell_angle_alpha 90.000000
_cell_angle_beta 90.000000
_cell_angle_gamma 90.000000
_cell_volume 2995.022738
_symmetry_space_group_name_H-M "P B C M"
_symmetry_group_IT_number 57
_symmetry_cell_setting 'orthorhombic'
loop_
_space_group_symop_operation_xyz
x,y,z
-x,-y,1/2+z
x,1/2-y,-z
-x,1/2+y,1/2-z
-x,-y,-z
x,y,1/2-z
-x,1/2+y,z
x,1/2-y,1/2+z
loop_
_atom_site_type_symbol
_atom_site_label
_atom_site_fract_x
_atom_site_fract_y
_atom_site_fract_z
Si Si1 0.348646 0.706890 0.323504
Si Si2 0.820743 0.747882 0.630880
Si Si3 0.708163 0.793677 0.679525
Si Si4 0.893389 0.251721 0.133557
Si Si5 0.033818 0.790657 0.250000
Si Si6 0.174100 0.250000 0.000000
Si Si7 0.897673 0.250000 0.000000
Si Si8 0.469361 0.711329 0.676947
O O1 0.347801 0.700795 0.250000
O O2 0.323948 0.444434 0.345392
O O3 0.409002 0.749318 0.341354
O O4 0.312506 0.939408 0.344499
O O5 0.770345 0.756978 0.672755
O O6 0.856302 0.497008 0.637856
O O7 0.797248 0.748240 0.563234
O O8 0.857308 0.996013 0.637229
O O9 0.696049 0.800116 0.750000
O O10 0.932195 0.254241 0.189726
O O11 0.921983 0.249191 0.067499
O O12 0.989900 0.572088 0.250000
O O13 0.137664 0.498449 0.999853
O O14 0.469429 0.709818 0.750000
O O15 0.494498 0.446225 0.657704
#
# Coordination Sequence:
#
# PCOD9434867 Si02
#       8
#     8   8   8   8   4   4   4   8
#     4   9  17  28  36  55  89 124 150 196 240 275
#     4  10  19  33  53  77  96 130 165 196 237 287
#     4  10  19  27  41  63  96 124 153 182 232 293
#     4  10  21  36  58  75 103 129 167 205 240 293
#     4  12  26  42  56  80 110 136 162 208 258 282
#     4   8  16  30  50  73 100 120 158 205 236 272
#     4   8  16  34  54  79  96 128 162 201 242 282
#     4   9  15  23  37  52  70 109 164 200 227 272
#
# _framework density 17.362137000000001
#
# number of rings (size 3 to 8) (size 9 to 14) (size 15 to 20)
#    0.000    2.462    0.000    2.769    2.154    3.692 
#    0.000    0.769    0.000    0.000    0.000    0.000 
#    0.000    0.000    0.000   13.846    0.000    6.154 
#
# Total GULP energy -289500.592668 kJ/mol
# GULP energy per Si atom -5567.319090 kJ/mol
# Density = 1.732262 g / cm^3
# Si number density = 17.362137 Si / 1000 Ang^3
#
#
#
# Elastic Constant Matrix: (Units=GPa)
#
#
# Indices 1 2 3 4 5 6 
#
# 1 26.8921 -13.7247 8.9431 0.0000 0.0000 0.0000
# 2 -13.7247 71.8554 -3.4916 0.0000 0.0000 0.0000
# 3 8.9431 -3.4916 39.6742 0.0000 0.0000 0.0000
# 4 0.0000 0.0000 0.0000 13.9459 0.0000 0.0000
# 5 0.0000 0.0000 0.0000 0.0000 -4.1523 0.0000
# 6 0.0000 0.0000 0.0000 0.0000 0.0000 29.5570
#
#
#
# Elastic Compliance Matrix: (Units=1/GPa)
#
#
# Indices 1 2 3 4 5 6 
#
# 1 0.044372 0.008024 -0.009296 0.000000 0.000000 0.000000
# 2 0.008024 0.015427 -0.000451 0.000000 0.000000 0.000000
# 3 -0.009296 -0.000451 0.027261 0.000000 0.000000 0.000000
# 4 0.000000 0.000000 0.000000 0.071706 0.000000 0.000000
# 5 0.000000 0.000000 0.000000 0.000000 -0.240828 0.000000
# 6 0.000000 0.000000 0.000000 0.000000 0.000000 0.033833
#
#
# Mechanical properties :
#
#
# Convention : Reuss Voigt Hill
#
# Bulk Modulus (GPa) = 11.95971 13.54168 12.75069
# Shear Modulus (GPa) = -295.66205 17.64977 -139.00614
#
# Velocity S-wave (km/s) = -13.06373 3.19182 -8.95749
# Velocity P-wave (km/s) = 14.85411 4.62603 9.98109
#
# Compressibility (1/GPa) = 0.08361409
#
# Stress axis : x y z
#
# Youngs Moduli (GPa) = 22.53673 64.81950 36.68239
#
# Poissons Ratio (x) = -0.52008 0.34100
# Poissons Ratio (y) = -0.18082 0.01654
# Poissons Ratio (z) = 0.20950 0.02923
#
# Static dielectric constant tensor:
#      x y z
#    x 1.554220 0.000000 0.000000 
#    y 0.000000 1.604680 0.000000 
#    z 0.000000 0.000000 1.627480 
# 
# From -- ./inp_files/25782.got.cif
#   From: 2010.05.17/outbox.cif.g08.bks.cpg/sg57_13_cif.got.tgz:25782.got - 2010.06.03 13:58:18.
