data_PCOD9434185
_publ_section_title
;
Structure prediction by ZEFSAII (Michael W. Deem and Ramdas Pophale) SiO2 
 PCOD9434185
Probable space group: P B C M
;
_chemical_formula_sum "Si O2"
_cell_formula_units_Z 64
_cell_length_a 20.717299
_cell_length_b 22.959273
_cell_length_c 9.150932
_cell_angle_alpha 90.000000
_cell_angle_beta 90.000000
_cell_angle_gamma 90.000000
_cell_volume 4352.678540
_symmetry_space_group_name_H-M "P B C M"
_symmetry_group_IT_number 57
_symmetry_cell_setting 'orthorhombic'
loop_
_space_group_symop_operation_xyz
x,y,z
-x,-y,1/2+z
x,1/2-y,-z
-x,1/2+y,1/2-z
-x,-y,-z
x,y,1/2-z
-x,1/2+y,z
x,1/2-y,1/2+z
loop_
_atom_site_type_symbol
_atom_site_label
_atom_site_fract_x
_atom_site_fract_y
_atom_site_fract_z
Si Si1 0.518338 0.061159 0.424451
Si Si2 0.657207 0.028106 0.424030
Si Si3 0.825231 0.608375 0.077016
Si Si4 0.209306 0.528243 0.577795
Si Si5 0.717969 0.812622 0.425036
Si Si6 0.601483 0.899375 0.423647
Si Si7 0.954222 0.917939 0.081381
Si Si8 0.918990 0.443857 0.918438
O O1 0.511133 0.056380 0.250000
O O2 0.594523 0.068065 0.455078
O O3 0.465646 0.104921 0.489680
O O4 0.500000 0.000000 0.500000
O O5 0.669963 0.029605 0.250000
O O6 0.721393 0.043282 0.510881
O O7 0.635548 0.961493 0.459730
O O8 0.825810 0.620619 0.250000
O O9 0.801545 0.541460 0.057379
O O10 0.776611 0.650385 0.992588
O O11 0.896800 0.611556 0.009374
O O12 0.206640 0.539944 0.750000
O O13 0.150152 0.559481 0.496154
O O14 0.715552 0.750000 0.500000
O O15 0.725315 0.807965 0.250000
O O16 0.652368 0.848721 0.454614
O O17 0.411942 0.099055 0.750000
O O18 0.954936 0.899037 0.250000
O O19 0.937595 0.987232 0.080845
O O20 0.023734 0.912309 0.005685
O O21 0.916298 0.425276 0.750000
#
# Coordination Sequence:
#
# PCOD9434185 Si02
#       8
#     8   8   8   8   8   8   8   8
#     4   9  17  27  41  60  81 105 136 171 208 252
#     4   9  16  27  40  58  82 109 138 170 209 251
#     4  10  19  30  43  60  79 105 141 176 214 255
#     4  10  18  25  38  59  82 109 141 174 205 245
#     4  11  22  35  48  63  83 108 142 183 225 262
#     4   9  18  31  45  59  79 106 137 175 216 257
#     4   9  16  26  40  56  76 103 136 172 207 243
#     4   9  16  25  37  54  78 107 136 169 204 241
#
# _framework density 14.70359
#
# number of rings (size 3 to 8) (size 9 to 14) (size 15 to 20)
#    0.000    2.500    1.250    3.000    0.000    7.500 
#    0.000    0.000    0.000    0.000    0.000    0.000 
#    0.000    0.000    0.000    1.125    0.000   17.750 
#
# Total GULP energy -356581.949479 kJ/mol
# GULP energy per Si atom -5571.592961 kJ/mol
# Density = 1.467012 g / cm^3
# Si number density = 14.703590 Si / 1000 Ang^3
#
#
#
# Elastic Constant Matrix: (Units=GPa)
#
#
# Indices 1 2 3 4 5 6 
#
# 1 160.0480 32.2830 87.9582 0.0000 0.0000 0.0000
# 2 32.2830 30.6051 29.2468 0.0000 0.0000 0.0000
# 3 87.9582 29.2468 95.6603 0.0000 0.0000 0.0000
# 4 0.0000 0.0000 0.0000 14.2030 0.0000 0.0000
# 5 0.0000 0.0000 0.0000 0.0000 33.1908 0.0000
# 6 0.0000 0.0000 0.0000 0.0000 0.0000 7.1867
#
#
#
# Elastic Compliance Matrix: (Units=1/GPa)
#
#
# Indices 1 2 3 4 5 6 
#
# 1 0.012848 -0.003197 -0.010836 0.000000 0.000000 0.000000
# 2 -0.003197 0.046957 -0.011416 0.000000 0.000000 0.000000
# 3 -0.010836 -0.011416 0.023908 0.000000 0.000000 0.000000
# 4 0.000000 0.000000 0.000000 0.070408 0.000000 0.000000
# 5 0.000000 0.000000 0.000000 0.000000 0.030129 0.000000
# 6 0.000000 0.000000 0.000000 0.000000 0.000000 0.139146
#
#
# Mechanical properties :
#
#
# Convention : Reuss Voigt Hill
#
# Bulk Modulus (GPa) = 30.47600 65.03217 47.75408
# Shear Modulus (GPa) = 12.97914 20.03780 16.50847
#
# Velocity S-wave (km/s) = 2.97428 3.69559 3.35438
# Velocity P-wave (km/s) = 5.70675 7.90789 6.89571
#
# Compressibility (1/GPa) = 0.03281270
#
# Stress axis : x y z
#
# Youngs Moduli (GPa) = 77.83014 21.29623 41.82698
#
# Poissons Ratio (x) = 0.06809 0.45326
# Poissons Ratio (y) = 0.24885 0.47751
# Poissons Ratio (z) = 0.84340 0.24313
#
# Static dielectric constant tensor:
#      x y z
#    x 1.498570 0.000000 0.000000 
#    y 0.000000 1.453870 0.000000 
#    z 0.000000 0.000000 1.488290 
# 
# From -- ./inp_files/7372.got.cif
#   From: 2010.05.17/outbox.cif.g08.bks.cpg/sg57_4_cif.got.tgz:7372.got - 2010.06.03 13:58:18.
