data_PCOD9434182
_publ_section_title
;
Structure prediction by ZEFSAII (Michael W. Deem and Ramdas Pophale) SiO2 
 PCOD9434182
Probable space group: P B C M
;
_chemical_formula_sum "Si O2"
_cell_formula_units_Z 64
_cell_length_a 23.343967
_cell_length_b 9.201159
_cell_length_c 14.192842
_cell_angle_alpha 90.000000
_cell_angle_beta 90.000000
_cell_angle_gamma 90.000000
_cell_volume 3048.502561
_symmetry_space_group_name_H-M "P B C M"
_symmetry_group_IT_number 57
_symmetry_cell_setting 'orthorhombic'
loop_
_space_group_symop_operation_xyz
x,y,z
-x,-y,1/2+z
x,1/2-y,-z
-x,1/2+y,1/2-z
-x,-y,-z
x,y,1/2-z
-x,1/2+y,z
x,1/2-y,1/2+z
loop_
_atom_site_type_symbol
_atom_site_label
_atom_site_fract_x
_atom_site_fract_y
_atom_site_fract_z
Si Si1 0.401003 0.146116 0.141804
Si Si2 0.923550 0.687982 0.098242
Si Si3 0.974641 0.501816 0.859881
Si Si4 0.475375 0.620594 0.429820
Si Si5 0.367777 0.458698 0.063400
Si Si6 0.751994 0.081920 0.473988
Si Si7 0.177879 0.510508 0.644735
Si Si8 0.861749 0.166503 0.362194
O O1 0.385275 0.106022 0.250000
O O2 0.470637 0.155711 0.136075
O O3 0.376822 0.303129 0.111705
O O4 0.380806 0.050532 0.050713
O O5 0.868095 0.618772 0.145969
O O6 0.969253 0.557552 0.088261
O O7 0.957604 0.828266 0.138108
O O8 0.902264 0.750000 0.000000
O O9 0.986104 0.465872 0.750000
O O10 0.920482 0.407340 0.894015
O O11 0.461820 0.750000 0.500000
O O12 0.500000 0.500000 0.500000
O O13 0.415930 0.561705 0.390260
O O14 0.303510 0.513396 0.072359
O O15 0.739198 0.250000 0.500000
O O16 0.772466 0.997583 0.567814
O O17 0.807516 0.087919 0.407596
O O18 0.201159 0.530251 0.750000
O O19 0.144845 0.661490 0.618245
O O20 0.860283 0.148988 0.250000
#
# Coordination Sequence:
#
# PCOD9434182 Si02
#       8
#     8   8   8   8   8   8   8   8
#     4  10  21  38  59  88 124 164 203 246 306 371
#     4  12  24  38  59  90 123 159 205 260 314 377
#     4  11  22  38  59  86 120 158 202 252 315 376
#     4  10  17  36  60  85 120 159 193 246 303 359
#     4  10  21  39  60  89 127 162 205 258 309 362
#     4  10  21  39  64  89 117 161 211 259 313 367
#     4  10  21  40  63  87 121 163 207 256 315 374
#     4   9  20  39  62  88 121 161 205 259 316 374
#
# _framework density 20.993914
#
# number of rings (size 3 to 8) (size 9 to 14) (size 15 to 20)
#    0.000    1.750    2.500    3.375    0.000    4.000 
#    6.750    0.000    0.000    3.000    0.000    0.000 
#    0.000    0.000    0.000    0.000    0.000    0.000 
#
# Total GULP energy -357068.294783 kJ/mol
# GULP energy per Si atom -5579.192106 kJ/mol
# Density = 2.094613 g / cm^3
# Si number density = 20.993914 Si / 1000 Ang^3
#
#
#
# Elastic Constant Matrix: (Units=GPa)
#
#
# Indices 1 2 3 4 5 6 
#
# 1 100.3334 16.0984 12.3446 0.0000 0.0000 0.0000
# 2 16.0984 52.3835 -0.3175 0.0000 0.0000 0.0000
# 3 12.3446 -0.3175 58.5588 0.0000 0.0000 0.0000
# 4 0.0000 0.0000 0.0000 16.3503 0.0000 0.0000
# 5 0.0000 0.0000 0.0000 0.0000 -43.3719 0.0000
# 6 0.0000 0.0000 0.0000 0.0000 0.0000 18.8715
#
#
#
# Elastic Compliance Matrix: (Units=1/GPa)
#
#
# Indices 1 2 3 4 5 6 
#
# 1 0.010783 -0.003328 -0.002291 0.000000 0.000000 0.000000
# 2 -0.003328 0.020118 0.000811 0.000000 0.000000 0.000000
# 3 -0.002291 0.000811 0.017564 0.000000 0.000000 0.000000
# 4 0.000000 0.000000 0.000000 0.061161 0.000000 0.000000
# 5 0.000000 0.000000 0.000000 0.000000 -0.023056 0.000000
# 6 0.000000 0.000000 0.000000 0.000000 0.000000 0.052990
#
#
# Mechanical properties :
#
#
# Convention : Reuss Voigt Hill
#
# Bulk Modulus (GPa) = 25.74129 29.72519 27.73324
# Shear Modulus (GPa) = 30.84054 10.58000 20.71027
#
# Velocity S-wave (km/s) = 3.83694 2.24733 3.14425
# Velocity P-wave (km/s) = 5.64955 4.57424 5.14009
#
# Compressibility (1/GPa) = 0.03884809
#
# Stress axis : x y z
#
# Youngs Moduli (GPa) = 92.74236 49.70796 56.93396
#
# Poissons Ratio (x) = 0.16541 0.13044
# Poissons Ratio (y) = 0.30861 -0.04615
# Poissons Ratio (z) = 0.21248 -0.04029
#
# Static dielectric constant tensor:
#      x y z
#    x 1.749690 0.000000 0.000000 
#    y 0.000000 1.773260 0.000000 
#    z 0.000000 0.000000 1.785010 
# 
# From -- ./inp_files/19516.got.cif
#   From: 2010.05.17/outbox.cif.g08.bks.cpg/sg57_10_cif.got.tgz:19516.got - 2010.06.03 13:58:18.
