data_PCOD9434357
_publ_section_title
;
Structure prediction by ZEFSAII (Michael W. Deem and Ramdas Pophale) SiO2 
 PCOD9434357
Probable space group: P B C M
;
_chemical_formula_sum "Si O2"
_cell_formula_units_Z 56
_cell_length_a 19.783464
_cell_length_b 18.687500
_cell_length_c 8.539956
_cell_angle_alpha 90.000000
_cell_angle_beta 90.000000
_cell_angle_gamma 90.000000
_cell_volume 3157.251482
_symmetry_space_group_name_H-M "P B C M"
_symmetry_group_IT_number 57
_symmetry_cell_setting 'orthorhombic'
loop_
_space_group_symop_operation_xyz
x,y,z
-x,-y,1/2+z
x,1/2-y,-z
-x,1/2+y,1/2-z
-x,-y,-z
x,y,1/2-z
-x,1/2+y,z
x,1/2-y,1/2+z
loop_
_atom_site_type_symbol
_atom_site_label
_atom_site_fract_x
_atom_site_fract_y
_atom_site_fract_z
Si Si1 0.071291 0.526542 0.561877
Si Si2 0.418492 0.924795 0.939192
Si Si3 0.787965 0.537299 0.060575
Si Si4 0.568612 0.913780 0.560677
Si Si5 0.138940 0.673550 0.936649
Si Si6 0.699495 0.671165 0.438533
Si Si7 0.726620 0.391163 0.563365
O O1 0.067993 0.528892 0.750000
O O2 0.133541 0.474131 0.519754
O O3 0.094471 0.605753 0.506824
O O4 0.000000 0.500000 0.500000
O O5 0.417210 0.927161 0.750000
O O6 0.491889 0.895201 0.988114
O O7 0.351118 0.883055 0.990076
O O8 0.415887 0.006399 0.999990
O O9 0.781444 0.529262 0.250000
O O10 0.755516 0.612567 0.014821
O O11 0.747706 0.472102 0.982080
O O12 0.570451 0.916298 0.750000
O O13 0.626736 0.859605 0.507773
O O14 0.136247 0.674111 0.750000
O O15 0.116440 0.750000 0.000000
O O16 0.216251 0.658104 0.986978
O O17 0.712317 0.750000 0.500000
O O18 0.698671 0.673303 0.250000
O O19 0.730084 0.382015 0.750000
#
# Coordination Sequence:
#
# PCOD9434357 Si02
#       7
#     8   8   8   8   8   8   8
#     4   9  19  35  57  82 108 134 167 207 249 302
#     4   9  17  28  46  73  99 125 167 217 259 306
#     4   9  18  34  52  73 100 133 172 212 252 305
#     4   9  17  30  47  67  95 132 170 213 262 309
#     4  10  21  37  56  80 109 141 175 212 256 310
#     4  10  20  33  50  69  97 136 175 217 263 305
#     4  10  18  29  50  78 105 133 167 215 260 305
#
# _framework density 17.736946
#
# number of rings (size 3 to 8) (size 9 to 14) (size 15 to 20)
#    0.000    2.571    1.429    1.714    0.000    4.571 
#    0.000    1.429    0.000    5.143    0.000    0.000 
#    0.000    0.000    0.000    0.000    0.000    0.000 
#
# Total GULP energy -312163.767103 kJ/mol
# GULP energy per Si atom -5574.352984 kJ/mol
# Density = 1.769658 g / cm^3
# Si number density = 17.736946 Si / 1000 Ang^3
#
#
#
# Elastic Constant Matrix: (Units=GPa)
#
#
# Indices 1 2 3 4 5 6 
#
# 1 145.4275 59.0694 22.7495 0.0000 0.0000 0.0000
# 2 59.0694 106.2353 16.5154 0.0000 0.0000 0.0000
# 3 22.7495 16.5154 12.1006 0.0000 0.0000 0.0000
# 4 0.0000 0.0000 0.0000 28.0521 0.0000 0.0000
# 5 0.0000 0.0000 0.0000 0.0000 22.9149 0.0000
# 6 0.0000 0.0000 0.0000 0.0000 0.0000 17.0825
#
#
#
# Elastic Compliance Matrix: (Units=1/GPa)
#
#
# Indices 1 2 3 4 5 6 
#
# 1 0.010721 -0.003589 -0.015257 0.000000 0.000000 0.000000
# 2 -0.003589 0.013150 -0.011200 0.000000 0.000000 0.000000
# 3 -0.015257 -0.011200 0.126609 0.000000 0.000000 0.000000
# 4 0.000000 0.000000 0.000000 0.035648 0.000000 0.000000
# 5 0.000000 0.000000 0.000000 0.000000 0.043640 0.000000
# 6 0.000000 0.000000 0.000000 0.000000 0.000000 0.058540
#
#
# Mechanical properties :
#
#
# Convention : Reuss Voigt Hill
#
# Bulk Modulus (GPa) = 11.06337 51.15911 31.11124
# Shear Modulus (GPa) = 13.20911 24.63850 18.92381
#
# Velocity S-wave (km/s) = 2.73192 3.73111 3.26991
# Velocity P-wave (km/s) = 4.02520 6.88967 5.64224
#
# Compressibility (1/GPa) = 0.09038834
#
# Stress axis : x y z
#
# Youngs Moduli (GPa) = 93.27729 76.04641 7.89836
#
# Poissons Ratio (x) = 0.27295 0.12050
# Poissons Ratio (y) = 0.33479 0.08846
# Poissons Ratio (z) = 1.42309 0.85170
#
# Static dielectric constant tensor:
#      x y z
#    x 1.633150 0.000000 0.000000 
#    y 0.000000 1.581980 0.000000 
#    z 0.000000 0.000000 1.656120 
# 
# From -- ./inp_files/8342.got.cif
#   From: 2010.05.17/outbox.cif.g08.bks.cpg/sg57_5_cif.got.tgz:8342.got - 2010.06.03 13:58:18.
