data_PCOD9434639
_publ_section_title
;
Structure prediction by ZEFSAII (Michael W. Deem and Ramdas Pophale) SiO2 
 PCOD9434639
Probable space group: P B C M
;
_chemical_formula_sum "Si O2"
_cell_formula_units_Z 48
_cell_length_a 9.184353
_cell_length_b 15.509021
_cell_length_c 17.319930
_cell_angle_alpha 90.000000
_cell_angle_beta 90.000000
_cell_angle_gamma 90.000000
_cell_volume 2467.056433
_symmetry_space_group_name_H-M "P B C M"
_symmetry_group_IT_number 57
_symmetry_cell_setting 'orthorhombic'
loop_
_space_group_symop_operation_xyz
x,y,z
-x,-y,1/2+z
x,1/2-y,-z
-x,1/2+y,1/2-z
-x,-y,-z
x,y,1/2-z
-x,1/2+y,z
x,1/2-y,1/2+z
loop_
_atom_site_type_symbol
_atom_site_label
_atom_site_fract_x
_atom_site_fract_y
_atom_site_fract_z
Si Si1 0.195318 0.310714 0.103428
Si Si2 0.596556 0.945123 0.166601
Si Si3 0.143779 0.776606 0.090920
Si Si4 0.314786 0.943623 0.070750
Si Si5 0.658751 0.379901 0.598140
Si Si6 0.323717 0.357872 0.933488
O O1 0.264556 0.384446 0.155761
O O2 0.264698 0.217692 0.120375
O O3 0.024089 0.294348 0.108586
O O4 0.248990 0.338956 0.016797
O O5 0.527434 0.928303 0.250000
O O6 0.481184 0.929278 0.097858
O O7 0.638812 0.044972 0.159749
O O8 0.223872 0.866586 0.107786
O O9 0.234877 0.696260 0.124982
O O10 0.150861 0.750000 0.000000
O O11 0.285637 0.043826 0.088819
O O12 0.288587 0.929082 0.979626
O O13 0.498752 0.347495 0.570999
#
# Coordination Sequence:
#
# PCOD9434639 Si02
#       6
#     8   8   8   8   8   8
#     4  11  20  34  52  91 119 150 182 238 291 352
#     4  11  22  39  60  83 112 157 203 239 290 349
#     4  10  21  32  58  92 122 144 187 237 299 350
#     4  10  19  36  57  86 111 151 192 248 290 335
#     4  10  19  36  58  85 115 152 192 249 288 335
#     4  10  18  32  57  81 118 142 191 235 292 329
#
# _framework density 19.456384
#
# number of rings (size 3 to 8) (size 9 to 14) (size 15 to 20)
#    0.000    1.667    5.000    2.000    4.667    2.000 
#    0.000    9.167    0.000    0.000    0.000    0.000 
#    0.000    0.000    0.000    0.000    0.000    0.000 
#
# Total GULP energy -267327.240137 kJ/mol
# GULP energy per Si atom -5569.317503 kJ/mol
# Density = 1.941210 g / cm^3
# Si number density = 19.456384 Si / 1000 Ang^3
#
#
#
# Elastic Constant Matrix: (Units=GPa)
#
#
# Indices 1 2 3 4 5 6 
#
# 1 111.2501 88.8486 -0.7475 0.0000 0.0000 0.0000
# 2 88.8486 144.7408 7.6827 0.0000 0.0000 0.0000
# 3 -0.7475 7.6827 32.1729 0.0000 0.0000 0.0000
# 4 0.0000 0.0000 0.0000 -2.0635 0.0000 0.0000
# 5 0.0000 0.0000 0.0000 0.0000 -1.9628 0.0000
# 6 0.0000 0.0000 0.0000 0.0000 0.0000 -30.9645
#
#
#
# Elastic Compliance Matrix: (Units=1/GPa)
#
#
# Indices 1 2 3 4 5 6 
#
# 1 0.017930 -0.011170 0.003084 0.000000 0.000000 0.000000
# 2 -0.011170 0.013956 -0.003592 0.000000 0.000000 0.000000
# 3 0.003084 -0.003592 0.032012 0.000000 0.000000 0.000000
# 4 0.000000 0.000000 0.000000 -0.484625 0.000000 0.000000
# 5 0.000000 0.000000 0.000000 0.000000 -0.509485 0.000000
# 6 0.000000 0.000000 0.000000 0.000000 0.000000 -0.032295
#
#
# Mechanical properties :
#
#
# Convention : Reuss Voigt Hill
#
# Bulk Modulus (GPa) = 24.66612 53.30346 38.98479
# Shear Modulus (GPa) = -5.40169 5.82720 0.21275
#
# Velocity S-wave (km/s) = -1.66803 1.73249 0.33104
# Velocity P-wave (km/s) = 2.99923 5.60873 4.49740
#
# Compressibility (1/GPa) = 0.04054144
#
# Stress axis : x y z
#
# Youngs Moduli (GPa) = 55.77105 71.65183 31.23873
#
# Poissons Ratio (x) = 0.80037 -0.09634
# Poissons Ratio (y) = 0.62298 0.11222
# Poissons Ratio (z) = -0.17200 0.25739
#
# Static dielectric constant tensor:
#      x y z
#    x 1.694770 0.000000 0.000000 
#    y 0.000000 1.702310 0.000000 
#    z 0.000000 0.000000 1.786540 
# 
# From -- ./inp_files/24252.got.cif
#   From: 2010.05.17/outbox.cif.g08.bks.cpg/sg57_13_cif.got.tgz:24252.got - 2010.06.03 13:58:18.
