data_PCOD9434855
_publ_section_title
;
Structure prediction by ZEFSAII (Michael W. Deem and Ramdas Pophale) SiO2 
 PCOD9434855
Probable space group: P B C M
;
_chemical_formula_sum "Si O2"
_cell_formula_units_Z 56
_cell_length_a 20.671924
_cell_length_b 9.030820
_cell_length_c 13.172388
_cell_angle_alpha 90.000000
_cell_angle_beta 90.000000
_cell_angle_gamma 90.000000
_cell_volume 2459.079676
_symmetry_space_group_name_H-M "P B C M"
_symmetry_group_IT_number 57
_symmetry_cell_setting 'orthorhombic'
loop_
_space_group_symop_operation_xyz
x,y,z
-x,-y,1/2+z
x,1/2-y,-z
-x,1/2+y,1/2-z
-x,-y,-z
x,y,1/2-z
-x,1/2+y,z
x,1/2-y,1/2+z
loop_
_atom_site_type_symbol
_atom_site_label
_atom_site_fract_x
_atom_site_fract_y
_atom_site_fract_z
Si Si1 0.472499 0.123012 0.575405
Si Si2 0.168624 0.838972 0.367358
Si Si3 0.615285 0.360089 0.361019
Si Si4 0.086367 0.163409 0.627078
Si Si5 0.959972 0.993264 0.627452
Si Si6 0.349927 0.532944 0.417211
Si Si7 0.207323 0.987117 0.937919
O O1 0.449832 0.250000 0.500000
O O2 0.537341 0.168091 0.634566
O O3 0.500000 0.000000 0.500000
O O4 0.409662 0.057765 0.628862
O O5 0.179452 0.875265 0.250000
O O6 0.094809 0.883828 0.394846
O O7 0.210232 0.938301 0.444085
O O8 0.183279 0.666384 0.385491
O O9 0.630910 0.423346 0.250000
O O10 0.635562 0.450966 0.461199
O O11 0.647894 0.199874 0.374886
O O12 0.091161 0.158517 0.750000
O O13 0.064115 0.329317 0.599600
O O14 0.030681 0.046888 0.594538
O O15 0.154573 0.111151 0.583565
O O16 0.964233 0.989326 0.750000
O O17 0.278630 0.471402 0.401517
#
# Coordination Sequence:
#
# PCOD9434855 Si02
#       7
#     8   8   8   8   8   8   8
#     4  10  18  39  62  83 120 156 193 252 300 349
#     4  10  21  39  61  86 117 156 206 257 298 355
#     4  10  19  35  64  90 116 155 202 254 302 357
#     4  10  20  37  61  91 124 159 201 253 308 367
#     4   9  19  37  63  91 123 160 203 258 314 355
#     4  10  22  39  56  90 126 157 201 248 306 362
#     4  11  23  37  61  90 121 163 203 241 307 375
#
# _framework density 22.772748
#
# number of rings (size 3 to 8) (size 9 to 14) (size 15 to 20)
#    0.000    2.000    2.857    3.000    0.000    6.857 
#    2.571    0.000    0.000    0.000    0.000    0.000 
#    0.000    0.000    0.000    0.000    0.000    0.000 
#
# Total GULP energy -312995.225402 kJ/mol
# GULP energy per Si atom -5589.200454 kJ/mol
# Density = 2.272092 g / cm^3
# Si number density = 22.772748 Si / 1000 Ang^3
#
#
#
# Elastic Constant Matrix: (Units=GPa)
#
#
# Indices 1 2 3 4 5 6 
#
# 1 186.9707 48.4337 10.5962 0.0000 0.0000 0.0000
# 2 48.4337 78.9489 13.2618 0.0000 0.0000 0.0000
# 3 10.5962 13.2618 101.3272 0.0000 0.0000 0.0000
# 4 0.0000 0.0000 0.0000 16.2292 0.0000 0.0000
# 5 0.0000 0.0000 0.0000 0.0000 515.0890 0.0000
# 6 0.0000 0.0000 0.0000 0.0000 0.0000 31.9884
#
#
#
# Elastic Compliance Matrix: (Units=1/GPa)
#
#
# Indices 1 2 3 4 5 6 
#
# 1 0.006361 -0.003876 -0.000158 0.000000 0.000000 0.000000
# 2 -0.003876 0.015313 -0.001599 0.000000 0.000000 0.000000
# 3 -0.000158 -0.001599 0.010095 0.000000 0.000000 0.000000
# 4 0.000000 0.000000 0.000000 0.061617 0.000000 0.000000
# 5 0.000000 0.000000 0.000000 0.000000 0.001941 0.000000
# 6 0.000000 0.000000 0.000000 0.000000 0.000000 0.031261
#
#
# Mechanical properties :
#
#
# Convention : Reuss Voigt Hill
#
# Bulk Modulus (GPa) = 48.77235 56.87003 52.82119
# Shear Modulus (GPa) = 34.55675 132.32498 83.44086
#
# Velocity S-wave (km/s) = 3.89969 7.63105 6.05972
# Velocity P-wave (km/s) = 6.46067 10.13266 8.49738
#
# Compressibility (1/GPa) = 0.02050342
#
# Stress axis : x y z
#
# Youngs Moduli (GPa) = 157.19648 65.30439 99.06101
#
# Poissons Ratio (x) = 0.25313 0.01565
# Poissons Ratio (y) = 0.60931 0.15838
# Poissons Ratio (z) = 0.02483 0.10441
#
# Static dielectric constant tensor:
#      x y z
#    x 1.865820 0.000000 0.000000 
#    y 0.000000 1.787840 0.000000 
#    z 0.000000 0.000000 1.936860 
# 
# From -- ./inp_files/19320.got.cif
#   From: 2010.05.17/outbox.cif.g08.bks.cpg/sg57_10_cif.got.tgz:19320.got - 2010.06.03 13:58:18.
