data_PCOD9434059
_publ_section_title
;
Structure prediction by ZEFSAII (Michael W. Deem and Ramdas Pophale) SiO2 
 PCOD9434059
Probable space group: P B C M
;
_chemical_formula_sum "Si O2"
_cell_formula_units_Z 56
_cell_length_a 15.200810
_cell_length_b 27.051877
_cell_length_c 7.639221
_cell_angle_alpha 90.000000
_cell_angle_beta 90.000000
_cell_angle_gamma 90.000000
_cell_volume 3141.327447
_symmetry_space_group_name_H-M "P B C M"
_symmetry_group_IT_number 57
_symmetry_cell_setting 'orthorhombic'
loop_
_space_group_symop_operation_xyz
x,y,z
-x,-y,1/2+z
x,1/2-y,-z
-x,1/2+y,1/2-z
-x,-y,-z
x,y,1/2-z
-x,1/2+y,z
x,1/2-y,1/2+z
loop_
_atom_site_type_symbol
_atom_site_label
_atom_site_fract_x
_atom_site_fract_y
_atom_site_fract_z
Si Si1 0.486943 0.112445 0.964496
Si Si2 0.689416 0.573389 0.548840
Si Si3 0.631364 0.465612 0.038295
Si Si4 0.940556 0.434790 0.544719
Si Si5 0.626917 0.307475 0.459897
Si Si6 0.127260 0.460094 0.454469
Si Si7 0.228501 0.881866 0.460458
O O1 0.485079 0.112572 0.750000
O O2 0.387059 0.107876 0.028667
O O3 0.543697 0.063946 0.014236
O O4 0.543932 0.159732 0.021870
O O5 0.701575 0.589733 0.750000
O O6 0.646941 0.518616 0.544288
O O7 0.786199 0.565705 0.468098
O O8 0.631180 0.470855 0.250000
O O9 0.711839 0.429210 0.989685
O O10 0.954956 0.442657 0.750000
O O11 0.897199 0.485679 0.470672
O O12 0.870226 0.391526 0.521179
O O13 0.037409 0.429184 0.466212
O O14 0.621777 0.250000 0.500000
O O15 0.627284 0.312633 0.250000
O O16 0.716457 0.334320 0.523194
O O17 0.148398 0.468575 0.250000
O O18 0.226171 0.880531 0.250000
#
# Coordination Sequence:
#
# PCOD9434059 Si02
#       7
#     8   8   8   8   8   8   8
#     4   8  16  29  44  62  87 117 146 176 218 264
#     4  10  17  27  42  61  87 119 152 184 211 252
#     4   9  16  26  40  60  87 119 148 176 211 254
#     4  10  18  28  42  62  86 116 154 190 220 253
#     4   9  18  33  50  69  90 115 145 180 225 272
#     4   9  18  28  39  59  88 121 154 185 217 253
#     4   9  17  29  45  63  89 120 147 178 222 271
#
# _framework density 17.826857
#
# number of rings (size 3 to 8) (size 9 to 14) (size 15 to 20)
#    0.000    2.857    1.429    2.571    0.000    1.714 
#    0.000    2.857    0.000    0.000    0.000    1.000 
#    0.000    2.286    0.000    0.000    0.000    0.000 
#
# Total GULP energy -312037.940876 kJ/mol
# GULP energy per Si atom -5572.106087 kJ/mol
# Density = 1.778628 g / cm^3
# Si number density = 17.826857 Si / 1000 Ang^3
#
#
#
# Elastic Constant Matrix: (Units=GPa)
#
#
# Indices 1 2 3 4 5 6 
#
# 1 167.6546 51.6854 0.0372 0.0000 0.0000 0.0000
# 2 51.6854 66.7157 -2.1273 0.0000 0.0000 0.0000
# 3 0.0372 -2.1273 34.4781 0.0000 0.0000 0.0000
# 4 0.0000 0.0000 0.0000 15.4795 0.0000 0.0000
# 5 0.0000 0.0000 0.0000 0.0000 6.2478 0.0000
# 6 0.0000 0.0000 0.0000 0.0000 0.0000 12.5179
#
#
#
# Elastic Compliance Matrix: (Units=1/GPa)
#
#
# Indices 1 2 3 4 5 6 
#
# 1 0.007841 -0.006087 -0.000384 0.000000 0.000000 0.000000
# 2 -0.006087 0.019744 0.001225 0.000000 0.000000 0.000000
# 3 -0.000384 0.001225 0.029080 0.000000 0.000000 0.000000
# 4 0.000000 0.000000 0.000000 0.064602 0.000000 0.000000
# 5 0.000000 0.000000 0.000000 0.000000 0.160058 0.000000
# 6 0.000000 0.000000 0.000000 0.000000 0.000000 0.079885
#
#
# Mechanical properties :
#
#
# Convention : Reuss Voigt Hill
#
# Bulk Modulus (GPa) = 21.65798 40.89322 31.27560
# Shear Modulus (GPa) = 12.91680 21.46591 17.19136
#
# Velocity S-wave (km/s) = 2.69470 3.47383 3.10877
# Velocity P-wave (km/s) = 4.67519 6.25131 5.51979
#
# Compressibility (1/GPa) = 0.04617235
#
# Stress axis : x y z
#
# Youngs Moduli (GPa) = 127.53077 50.64913 34.38802
#
# Poissons Ratio (x) = 0.30830 0.01321
# Poissons Ratio (y) = 0.77627 -0.04212
# Poissons Ratio (z) = 0.04897 -0.06203
#
# Static dielectric constant tensor:
#      x y z
#    x 1.667320 0.000000 0.000000 
#    y 0.000000 1.584700 0.000000 
#    z 0.000000 0.000000 1.662550 
# 
# From -- ./inp_files/5892.got.cif
#   From: 2010.05.17/outbox.cif.g08.bks.cpg/sg57_3_cif.got.tgz:5892.got - 2010.06.03 13:58:18.
