data_PCOD9434146
_publ_section_title
;
Structure prediction by ZEFSAII (Michael W. Deem and Ramdas Pophale) SiO2 
 PCOD9434146
Probable space group: P B C M
;
_chemical_formula_sum "Si O2"
_cell_formula_units_Z 64
_cell_length_a 12.223473
_cell_length_b 32.107179
_cell_length_c 7.787454
_cell_angle_alpha 90.000000
_cell_angle_beta 90.000000
_cell_angle_gamma 90.000000
_cell_volume 3056.273819
_symmetry_space_group_name_H-M "P B C M"
_symmetry_group_IT_number 57
_symmetry_cell_setting 'orthorhombic'
loop_
_space_group_symop_operation_xyz
x,y,z
-x,-y,1/2+z
x,1/2-y,-z
-x,1/2+y,1/2-z
-x,-y,-z
x,y,1/2-z
-x,1/2+y,z
x,1/2-y,1/2+z
loop_
_atom_site_type_symbol
_atom_site_label
_atom_site_fract_x
_atom_site_fract_y
_atom_site_fract_z
Si Si1 0.267427 0.204156 0.956543
Si Si2 0.503126 0.324169 0.459678
Si Si3 0.884072 0.375676 0.952848
Si Si4 0.732901 0.544694 0.539218
Si Si5 0.740183 0.203607 0.545490
Si Si6 0.865000 0.624557 0.547072
Si Si7 0.498357 0.578899 0.957124
Si Si8 0.259538 0.547616 0.045517
O O1 0.270217 0.201475 0.750000
O O2 0.392234 0.197974 0.019093
O O3 0.193868 0.166006 0.022845
O O4 0.226069 0.250000 0.000000
O O5 0.503327 0.323114 0.250000
O O6 0.616247 0.303875 0.520527
O O7 0.499853 0.372696 0.510989
O O8 0.895756 0.381549 0.750000
O O9 0.813652 0.414526 0.024812
O O10 0.817899 0.333126 0.981538
O O11 0.005594 0.373898 0.025795
O O12 0.734140 0.543913 0.750000
O O13 0.811602 0.581907 0.479372
O O14 0.608928 0.555964 0.486679
O O15 0.764836 0.498641 0.478500
O O16 0.777191 0.250000 0.500000
O O17 0.736979 0.199983 0.750000
O O18 0.840518 0.624218 0.750000
O O19 0.497897 0.578664 0.750000
O O20 0.386891 0.557823 0.017113
O O21 0.241641 0.546719 0.250000
#
# Coordination Sequence:
#
# PCOD9434146 Si02
#       8
#     8   8   8   8   8   8   8   8
#     4  10  20  36  58  85 113 143 179 225 277 333
#     4   9  17  32  57  86 114 143 179 221 270 331
#     4  11  24  40  56  79 115 151 189 237 285 329
#     4   9  18  35  60  85 112 147 187 232 285 340
#     4  11  22  38  61  87 115 147 186 228 276 335
#     4  10  21  39  61  80 105 148 198 237 279 336
#     4  10  17  32  59  86 113 147 184 224 275 342
#     4  10  21  36  55  84 118 149 183 232 287 335
#
# _framework density 20.940532999999999
#
# number of rings (size 3 to 8) (size 9 to 14) (size 15 to 20)
#    0.000    2.000    2.500    1.500    0.000    2.000 
#    0.000    3.750    0.000    0.000    0.000    0.000 
#    0.000    0.000    0.000    0.000    0.000    0.000 
#
# Total GULP energy -357542.249674 kJ/mol
# GULP energy per Si atom -5586.597651 kJ/mol
# Density = 2.089287 g / cm^3
# Si number density = 20.940533 Si / 1000 Ang^3
#
#
#
# Elastic Constant Matrix: (Units=GPa)
#
#
# Indices 1 2 3 4 5 6 
#
# 1 123.1176 75.5597 -13.8063 0.0000 0.0000 0.0000
# 2 75.5597 196.5688 -4.5590 0.0000 0.0000 0.0000
# 3 -13.8063 -4.5590 23.6642 0.0000 0.0000 0.0000
# 4 0.0000 0.0000 0.0000 7.0311 0.0000 0.0000
# 5 0.0000 0.0000 0.0000 0.0000 -149.9884 0.0000
# 6 0.0000 0.0000 0.0000 0.0000 0.0000 1.6304
#
#
#
# Elastic Compliance Matrix: (Units=1/GPa)
#
#
# Indices 1 2 3 4 5 6 
#
# 1 0.011376 -0.004238 0.005821 0.000000 0.000000 0.000000
# 2 -0.004238 0.006689 -0.001184 0.000000 0.000000 0.000000
# 3 0.005821 -0.001184 0.045426 0.000000 0.000000 0.000000
# 4 0.000000 0.000000 0.000000 0.142225 0.000000 0.000000
# 5 0.000000 0.000000 0.000000 0.000000 -0.006667 0.000000
# 6 0.000000 0.000000 0.000000 0.000000 0.000000 0.613336
#
#
# Mechanical properties :
#
#
# Convention : Reuss Voigt Hill
#
# Bulk Modulus (GPa) = 15.55499 50.85993 33.20746
# Shear Modulus (GPa) = 6.00229 -9.18830 -1.59300
#
# Velocity S-wave (km/s) = 1.69487 -2.09698 -0.87314
# Velocity P-wave (km/s) = 3.35774 4.29854 3.85693
#
# Compressibility (1/GPa) = 0.06428805
#
# Stress axis : x y z
#
# Youngs Moduli (GPa) = 87.90558 149.50362 22.01402
#
# Poissons Ratio (x) = 0.63357 -0.12813
# Poissons Ratio (y) = 0.37253 0.02606
# Poissons Ratio (z) = -0.51165 0.17698
#
# Static dielectric constant tensor:
#      x y z
#    x 1.716940 0.000000 0.000000 
#    y 0.000000 1.756820 0.000000 
#    z 0.000000 0.000000 1.766490 
# 
# From -- ./inp_files/3914.got.cif
#   From: 2010.05.17/outbox.cif.g08.bks.cpg/sg57_2_cif.got.tgz:3914.got - 2010.06.03 13:58:18.
