data_PCOD9434368
_publ_section_title
;
Structure prediction by ZEFSAII (Michael W. Deem and Ramdas Pophale) SiO2 
 PCOD9434368
Probable space group: P B C M
;
_chemical_formula_sum "Si O2"
_cell_formula_units_Z 40
_cell_length_a 22.511500
_cell_length_b 5.346047
_cell_length_c 14.285442
_cell_angle_alpha 90.000000
_cell_angle_beta 90.000000
_cell_angle_gamma 90.000000
_cell_volume 1719.217760
_symmetry_space_group_name_H-M "P B C M"
_symmetry_group_IT_number 57
_symmetry_cell_setting 'orthorhombic'
loop_
_space_group_symop_operation_xyz
x,y,z
-x,-y,1/2+z
x,1/2-y,-z
-x,1/2+y,1/2-z
-x,-y,-z
x,y,1/2-z
-x,1/2+y,z
x,1/2-y,1/2+z
loop_
_atom_site_type_symbol
_atom_site_label
_atom_site_fract_x
_atom_site_fract_y
_atom_site_fract_z
Si Si1 0.027581 0.705910 0.612301
Si Si2 0.669719 0.484301 0.899621
Si Si3 0.149135 0.000493 0.062319
Si Si4 0.464744 0.598944 0.136458
Si Si5 0.719813 0.982987 0.611237
O O1 0.020689 0.750000 0.500000
O O2 0.092386 0.582323 0.622799
O O3 0.983107 0.488353 0.646602
O O4 0.599834 0.441857 0.907060
O O5 0.684198 0.746387 0.852205
O O6 0.698907 0.246989 0.850806
O O7 0.700799 0.501653 0.001371
O O8 0.209873 0.054545 0.116564
O O9 0.135631 0.250000 0.000000
O O10 0.160983 0.750000 0.000000
O O11 0.457556 0.594832 0.250000
O O12 0.506892 0.365682 0.111261
#
# Coordination Sequence:
#
# PCOD9434368 Si02
#       5
#     8   8   8   8   8
#     4   9  16  23  31  49  73 108 153 186 204 233
#     4  10  18  32  48  65  90 112 142 178 207 258
#     4  11  16  25  39  53  82 114 151 181 207 249
#     4  10  21  37  54  70  87 111 142 175 216 262
#     4  10  18  30  43  68  90 119 148 172 214 260
#
# _framework density 23.266394999999999
#
# number of rings (size 3 to 8) (size 9 to 14) (size 15 to 20)
#    0.000    2.000    4.000    4.200    0.000    0.000 
#    0.000   12.000    0.000    0.000    0.000    0.000 
#    0.000    0.000    0.000    0.000    0.000   34.000 
#
# Total GULP energy -223374.432710 kJ/mol
# GULP energy per Si atom -5584.360818 kJ/mol
# Density = 2.321344 g / cm^3
# Si number density = 23.266395 Si / 1000 Ang^3
#
#
#
# Elastic Constant Matrix: (Units=GPa)
#
#
# Indices 1 2 3 4 5 6 
#
# 1 166.4474 44.5298 3.3183 0.0000 0.0000 0.0000
# 2 44.5298 187.3672 10.5424 0.0000 0.0000 0.0000
# 3 3.3183 10.5424 83.2258 0.0000 0.0000 0.0000
# 4 0.0000 0.0000 0.0000 -19.3285 0.0000 0.0000
# 5 0.0000 0.0000 0.0000 0.0000 -45.6305 0.0000
# 6 0.0000 0.0000 0.0000 0.0000 0.0000 47.6072
#
#
#
# Elastic Compliance Matrix: (Units=1/GPa)
#
#
# Indices 1 2 3 4 5 6 
#
# 1 0.006416 -0.001521 -0.000063 0.000000 0.000000 0.000000
# 2 -0.001521 0.005736 -0.000666 0.000000 0.000000 0.000000
# 3 -0.000063 -0.000666 0.012102 0.000000 0.000000 0.000000
# 4 0.000000 0.000000 0.000000 -0.051737 0.000000 0.000000
# 5 0.000000 0.000000 0.000000 0.000000 -0.021915 0.000000
# 6 0.000000 0.000000 0.000000 0.000000 0.000000 0.021005
#
#
# Mechanical properties :
#
#
# Convention : Reuss Voigt Hill
#
# Bulk Modulus (GPa) = 50.62288 61.53572 56.07930
# Shear Modulus (GPa) = -288.90212 21.77296 -133.56458
#
# Velocity S-wave (km/s) = -11.15531 3.06242 -7.58494
# Velocity P-wave (km/s) = 12.00484 6.24582 7.24934
#
# Compressibility (1/GPa) = 0.01975392
#
# Stress axis : x y z
#
# Youngs Moduli (GPa) = 155.85643 174.33317 82.62836
#
# Poissons Ratio (x) = 0.26522 0.00522
# Poissons Ratio (y) = 0.23711 0.05503
# Poissons Ratio (z) = 0.00984 0.11610
#
# Static dielectric constant tensor:
#      x y z
#    x 1.833730 0.000000 0.000000 
#    y 0.000000 1.935740 0.000000 
#    z 0.000000 0.000000 1.933820 
# 
# From -- ./inp_files/22977.got.cif
#   From: 2010.05.17/outbox.cif.g08.bks.cpg/sg57_12_cif.got.tgz:22977.got - 2010.06.03 13:58:18.
