data_PCOD9434796
_publ_section_title
;
Structure prediction by ZEFSAII (Michael W. Deem and Ramdas Pophale) SiO2 
 PCOD9434796
Probable space group: P B C M
;
_chemical_formula_sum "Si O2"
_cell_formula_units_Z 48
_cell_length_a 9.541048
_cell_length_b 13.970409
_cell_length_c 17.735409
_cell_angle_alpha 90.000000
_cell_angle_beta 90.000000
_cell_angle_gamma 90.000000
_cell_volume 2363.994217
_symmetry_space_group_name_H-M "P B C M"
_symmetry_group_IT_number 57
_symmetry_cell_setting 'orthorhombic'
loop_
_space_group_symop_operation_xyz
x,y,z
-x,-y,1/2+z
x,1/2-y,-z
-x,1/2+y,1/2-z
-x,-y,-z
x,y,1/2-z
-x,1/2+y,z
x,1/2-y,1/2+z
loop_
_atom_site_type_symbol
_atom_site_label
_atom_site_fract_x
_atom_site_fract_y
_atom_site_fract_z
Si Si1 0.504950 0.609794 0.523893
Si Si2 0.176803 0.888839 0.664745
Si Si3 0.939148 0.647136 0.041001
Si Si4 0.751954 0.787508 0.832365
Si Si5 0.436228 0.735015 0.122571
Si Si6 0.199616 0.406325 0.401056
O O1 0.500000 0.500000 0.500000
O O2 0.463048 0.670312 0.451375
O O3 0.414674 0.656237 0.592346
O O4 0.662269 0.625643 0.553018
O O5 0.118884 0.888059 0.750000
O O6 0.304047 0.813351 0.661549
O O7 0.068860 0.865623 0.597376
O O8 0.225942 0.996806 0.644464
O O9 0.807009 0.648104 0.098696
O O10 0.947994 0.750000 0.000000
O O11 0.914138 0.580884 0.967640
O O12 0.789539 0.825115 0.750000
O O13 0.584369 0.772356 0.834838
O O14 0.825442 0.684095 0.846737
#
# Coordination Sequence:
#
# PCOD9434796 Si02
#       6
#     8   8   8   8   8   8
#     4  10  18  35  61  88 113 147 197 250 284 341
#     4  12  24  37  56  89 124 153 188 245 311 359
#     4  10  22  38  59  83 108 153 204 244 290 351
#     4  10  19  37  59  81 113 150 191 243 292 348
#     4  10  21  34  59  88 115 149 196 236 297 356
#     4  10  20  37  59  83 111 155 203 236 284 360
#
# _framework density 20.30462
#
# number of rings (size 3 to 8) (size 9 to 14) (size 15 to 20)
#    0.000    1.667    3.333    2.000    2.333    0.000 
#    0.000    0.000    0.000    0.000    0.000    0.000 
#    0.000    0.000    0.000    0.000    0.000    0.000 
#
# Total GULP energy -267356.613860 kJ/mol
# GULP energy per Si atom -5569.929455 kJ/mol
# Density = 2.025841 g / cm^3
# Si number density = 20.304620 Si / 1000 Ang^3
#
#
#
# Elastic Constant Matrix: (Units=GPa)
#
#
# Indices 1 2 3 4 5 6 
#
# 1 61.8081 0.9739 24.4661 0.0000 0.0000 0.0000
# 2 0.9739 66.8359 14.0276 0.0000 0.0000 0.0000
# 3 24.4661 14.0276 116.8729 0.0000 0.0000 0.0000
# 4 0.0000 0.0000 0.0000 13.6754 0.0000 0.0000
# 5 0.0000 0.0000 0.0000 0.0000 13.8430 0.0000
# 6 0.0000 0.0000 0.0000 0.0000 0.0000 20.6610
#
#
#
# Elastic Compliance Matrix: (Units=1/GPa)
#
#
# Indices 1 2 3 4 5 6 
#
# 1 0.017659 0.000532 -0.003761 0.000000 0.000000 0.000000
# 2 0.000532 0.015365 -0.001955 0.000000 0.000000 0.000000
# 3 -0.003761 -0.001955 0.009578 0.000000 0.000000 0.000000
# 4 0.000000 0.000000 0.000000 0.073124 0.000000 0.000000
# 5 0.000000 0.000000 0.000000 0.000000 0.072239 0.000000
# 6 0.000000 0.000000 0.000000 0.000000 0.000000 0.048400
#
#
# Mechanical properties :
#
#
# Convention : Reuss Voigt Hill
#
# Bulk Modulus (GPa) = 31.02320 36.05024 33.53672
# Shear Modulus (GPa) = 19.41911 23.37250 21.39581
#
# Velocity S-wave (km/s) = 3.09591 3.39646 3.24966
# Velocity P-wave (km/s) = 5.30015 5.75973 5.53471
#
# Compressibility (1/GPa) = 0.03223394
#
# Stress axis : x y z
#
# Youngs Moduli (GPa) = 56.62724 65.08427 104.40306
#
# Poissons Ratio (x) = -0.03462 0.39262
# Poissons Ratio (y) = -0.03012 0.20416
# Poissons Ratio (z) = 0.21296 0.12727
#
# Static dielectric constant tensor:
#      x y z
#    x 1.755560 0.000000 0.000000 
#    y 0.000000 1.774790 0.000000 
#    z 0.000000 0.000000 1.772100 
# 
# From -- ./inp_files/20902.got.cif
#   From: 2010.05.17/outbox.cif.g08.bks.cpg/sg57_11_cif.got.tgz:20902.got - 2010.06.03 13:58:18.
