data_PCOD9434391
_publ_section_title
;
Structure prediction by ZEFSAII (Michael W. Deem and Ramdas Pophale) SiO2 
 PCOD9434391
Probable space group: P B C M
;
_chemical_formula_sum "Si O2"
_cell_formula_units_Z 48
_cell_length_a 10.246667
_cell_length_b 30.550229
_cell_length_c 9.189366
_cell_angle_alpha 90.000000
_cell_angle_beta 90.000000
_cell_angle_gamma 90.000000
_cell_volume 2876.620968
_symmetry_space_group_name_H-M "P B C M"
_symmetry_group_IT_number 57
_symmetry_cell_setting 'orthorhombic'
loop_
_space_group_symop_operation_xyz
x,y,z
-x,-y,1/2+z
x,1/2-y,-z
-x,1/2+y,1/2-z
-x,-y,-z
x,y,1/2-z
-x,1/2+y,z
x,1/2-y,1/2+z
loop_
_atom_site_type_symbol
_atom_site_label
_atom_site_fract_x
_atom_site_fract_y
_atom_site_fract_z
Si Si1 0.966274 0.206030 0.081581
Si Si2 0.278969 0.382995 0.076744
Si Si3 0.284144 0.206177 0.082863
Si Si4 0.620696 0.977085 0.076536
Si Si5 0.033960 0.616302 0.923157
Si Si6 0.111079 0.528956 0.423730
O O1 0.924799 0.204772 0.250000
O O2 0.125191 0.206849 0.081424
O O3 0.922442 0.250000 0.000000
O O4 0.928199 0.162628 0.993732
O O5 0.297322 0.377398 0.250000
O O6 0.351314 0.427158 0.028250
O O7 0.122861 0.389252 0.054568
O O8 0.321592 0.338975 0.995441
O O9 0.326443 0.206794 0.250000
O O10 0.327689 0.250000 0.000000
O O11 0.598954 0.975747 0.250000
O O12 0.751406 0.005157 0.051336
O O13 0.500000 0.000000 0.000000
O O14 0.057260 0.615652 0.750000
O O15 0.104272 0.576606 0.004187
O O16 0.088357 0.531317 0.250000
O O17 0.000000 0.500000 0.500000
#
# Coordination Sequence:
#
# PCOD9434391 Si02
#       6
#     8   8   8   8   8   8
#     4   9  16  26  40  64  97 133 167 204 252 305
#     4   9  17  31  47  67  99 132 164 207 253 297
#     4   9  16  25  40  65  94 127 164 201 247 299
#     4  10  22  38  53  74 103 137 174 215 260 307
#     4  10  18  30  48  72 100 132 169 212 258 304
#     4  11  21  35  53  76 103 133 172 214 257 306
#
# _framework density 16.686245
#
# number of rings (size 3 to 8) (size 9 to 14) (size 15 to 20)
#    0.000    2.333    1.667    2.000    0.000    6.667 
#    0.000    0.000    0.000    0.000    0.000    1.167 
#    0.000    2.667    0.000    0.000    0.000    0.000 
#
# Total GULP energy -267693.904781 kJ/mol
# GULP energy per Si atom -5576.956350 kJ/mol
# Density = 1.664827 g / cm^3
# Si number density = 16.686245 Si / 1000 Ang^3
#
#
#
# Elastic Constant Matrix: (Units=GPa)
#
#
# Indices 1 2 3 4 5 6 
#
# 1 40.6675 45.4223 45.4012 0.0000 0.0000 0.0000
# 2 45.4223 204.7254 98.7468 0.0000 0.0000 0.0000
# 3 45.4012 98.7468 111.3992 0.0000 0.0000 0.0000
# 4 0.0000 0.0000 0.0000 37.9358 0.0000 0.0000
# 5 0.0000 0.0000 0.0000 0.0000 18.8885 0.0000
# 6 0.0000 0.0000 0.0000 0.0000 0.0000 13.1557
#
#
#
# Elastic Compliance Matrix: (Units=1/GPa)
#
#
# Indices 1 2 3 4 5 6 
#
# 1 0.045589 -0.002014 -0.016794 0.000000 0.000000 0.000000
# 2 -0.002014 0.008622 -0.006822 0.000000 0.000000 0.000000
# 3 -0.016794 -0.006822 0.021868 0.000000 0.000000 0.000000
# 4 0.000000 0.000000 0.000000 0.026360 0.000000 0.000000
# 5 0.000000 0.000000 0.000000 0.000000 0.052942 0.000000
# 6 0.000000 0.000000 0.000000 0.000000 0.000000 0.076012
#
#
# Mechanical properties :
#
#
# Convention : Reuss Voigt Hill
#
# Bulk Modulus (GPa) = 40.29317 81.77031 61.03174
# Shear Modulus (GPa) = 17.18643 25.14412 21.16528
#
# Velocity S-wave (km/s) = 3.21281 3.88606 3.56536
# Velocity P-wave (km/s) = 6.16139 8.32144 7.32151
#
# Compressibility (1/GPa) = 0.02481810
#
# Stress axis : x y z
#
# Youngs Moduli (GPa) = 21.93534 115.98447 45.72821
#
# Poissons Ratio (x) = 0.23360 0.76798
# Poissons Ratio (y) = 0.04418 0.31195
# Poissons Ratio (z) = 0.36839 0.79122
#
# Static dielectric constant tensor:
#      x y z
#    x 1.530780 0.000000 0.000000 
#    y 0.000000 1.565150 0.000000 
#    z 0.000000 0.000000 1.550100 
# 
# From -- ./inp_files/2008.got.cif
#   From: 2010.05.17/outbox.cif.g08.bks.cpg/sg57_2_cif.got.tgz:2008.got - 2010.06.03 13:58:18.
