data_PCOD9434209
_publ_section_title
;
Structure prediction by ZEFSAII (Michael W. Deem and Ramdas Pophale) SiO2 
 PCOD9434209
Probable space group: P B C M
;
_chemical_formula_sum "Si O2"
_cell_formula_units_Z 56
_cell_length_a 16.728241
_cell_length_b 25.280370
_cell_length_c 8.684941
_cell_angle_alpha 90.000000
_cell_angle_beta 90.000000
_cell_angle_gamma 90.000000
_cell_volume 3672.827868
_symmetry_space_group_name_H-M "P B C M"
_symmetry_group_IT_number 57
_symmetry_cell_setting 'orthorhombic'
loop_
_space_group_symop_operation_xyz
x,y,z
-x,-y,1/2+z
x,1/2-y,-z
-x,1/2+y,1/2-z
-x,-y,-z
x,y,1/2-z
-x,1/2+y,z
x,1/2-y,1/2+z
loop_
_atom_site_type_symbol
_atom_site_label
_atom_site_fract_x
_atom_site_fract_y
_atom_site_fract_z
Si Si1 0.523323 0.584376 0.065591
Si Si2 0.195074 0.512122 0.063606
Si Si3 0.581284 0.807235 0.065651
Si Si4 0.033764 0.944811 0.935435
Si Si5 0.232363 0.193112 0.565876
Si Si6 0.376495 0.510123 0.435859
Si Si7 0.128146 0.098505 0.434838
O O1 0.526918 0.586823 0.250000
O O2 0.440761 0.555001 0.019954
O O3 0.533195 0.642697 0.997778
O O4 0.592913 0.545295 0.004959
O O5 0.194221 0.508177 0.250000
O O6 0.126961 0.554928 0.017998
O O7 0.286046 0.523006 0.016438
O O8 0.167505 0.455773 0.996194
O O9 0.576696 0.805920 0.250000
O O10 0.674667 0.815547 0.020683
O O11 0.556685 0.750000 0.000000
O O12 0.032278 0.946560 0.750000
O O13 0.966033 0.902682 0.981698
O O14 0.000000 0.000000 0.000000
O O15 0.208330 0.250000 0.500000
O O16 0.228940 0.193834 0.750000
O O17 0.176553 0.147273 0.502042
O O18 0.378599 0.505401 0.250000
O O19 0.132854 0.099108 0.250000
#
# Coordination Sequence:
#
# PCOD9434209 Si02
#       7
#     8   8   8   8   8   8   8
#     4  10  19  30  44  64  90 117 146 180 219 260
#     4   9  16  28  44  61  84 115 148 176 205 244
#     4  10  20  33  48  65  86 113 145 179 215 257
#     4   8  15  26  40  59  83 110 139 170 202 239
#     4  10  20  32  45  62  84 111 142 173 206 247
#     4   9  18  30  44  63  88 119 151 181 214 256
#     4  10  18  27  41  63  89 114 140 172 211 250
#
# _framework density 15.247108000000001
#
# number of rings (size 3 to 8) (size 9 to 14) (size 15 to 20)
#    0.000    2.571    0.000    2.571    0.000    6.857 
#    0.000    0.000    0.000    0.000    0.000    1.000 
#    0.000    0.000    0.000    0.000    0.000    0.000 
#
# Total GULP energy -311953.222026 kJ/mol
# GULP energy per Si atom -5570.593250 kJ/mol
# Density = 1.521240 g / cm^3
# Si number density = 15.247108 Si / 1000 Ang^3
#
#
#
# Elastic Constant Matrix: (Units=GPa)
#
#
# Indices 1 2 3 4 5 6 
#
# 1 100.9978 43.6481 20.4888 0.0000 0.0000 0.0000
# 2 43.6481 95.5434 22.6486 0.0000 0.0000 0.0000
# 3 20.4888 22.6486 18.3246 0.0000 0.0000 0.0000
# 4 0.0000 0.0000 0.0000 25.1947 0.0000 0.0000
# 5 0.0000 0.0000 0.0000 0.0000 17.6415 0.0000
# 6 0.0000 0.0000 0.0000 0.0000 0.0000 22.7308
#
#
#
# Elastic Compliance Matrix: (Units=1/GPa)
#
#
# Indices 1 2 3 4 5 6 
#
# 1 0.013676 -0.003710 -0.010706 0.000000 0.000000 0.000000
# 2 -0.003710 0.015810 -0.015393 0.000000 0.000000 0.000000
# 3 -0.010706 -0.015393 0.085567 0.000000 0.000000 0.000000
# 4 0.000000 0.000000 0.000000 0.039691 0.000000 0.000000
# 5 0.000000 0.000000 0.000000 0.000000 0.056685 0.000000
# 6 0.000000 0.000000 0.000000 0.000000 0.000000 0.043993
#
#
# Mechanical properties :
#
#
# Convention : Reuss Voigt Hill
#
# Bulk Modulus (GPa) = 18.03886 43.15965 30.59925
# Shear Modulus (GPa) = 14.99165 21.65209 18.32187
#
# Velocity S-wave (km/s) = 3.13908 3.77248 3.47026
# Velocity P-wave (km/s) = 4.99951 6.88068 6.01410
#
# Compressibility (1/GPa) = 0.05543589
#
# Stress axis : x y z
#
# Youngs Moduli (GPa) = 73.11822 63.25024 11.68672
#
# Poissons Ratio (x) = 0.23466 0.12512
# Poissons Ratio (y) = 0.27127 0.17989
# Poissons Ratio (z) = 0.78282 0.97359
#
# Static dielectric constant tensor:
#      x y z
#    x 1.543700 0.000000 0.000000 
#    y 0.000000 1.473810 0.000000 
#    z 0.000000 0.000000 1.509040 
# 
# From -- ./inp_files/6983.got.cif
#   From: 2010.05.17/outbox.cif.g08.bks.cpg/sg57_4_cif.got.tgz:6983.got - 2010.06.03 13:58:18.
