data_PCOD9434008
_publ_section_title
;
Structure prediction by ZEFSAII (Michael W. Deem and Ramdas Pophale) SiO2 
 PCOD9434008
Probable space group: P B C M
;
_chemical_formula_sum "Si O2"
_cell_formula_units_Z 48
_cell_length_a 5.264545
_cell_length_b 14.770061
_cell_length_c 28.699285
_cell_angle_alpha 90.000000
_cell_angle_beta 90.000000
_cell_angle_gamma 90.000000
_cell_volume 2231.588981
_symmetry_space_group_name_H-M "P B C M"
_symmetry_group_IT_number 57
_symmetry_cell_setting 'orthorhombic'
loop_
_space_group_symop_operation_xyz
x,y,z
-x,-y,1/2+z
x,1/2-y,-z
-x,1/2+y,1/2-z
-x,-y,-z
x,y,1/2-z
-x,1/2+y,z
x,1/2-y,1/2+z
loop_
_atom_site_type_symbol
_atom_site_label
_atom_site_fract_x
_atom_site_fract_y
_atom_site_fract_z
Si Si1 0.172202 0.461725 0.894378
Si Si2 0.194775 0.935458 0.301559
Si Si3 0.751565 0.055163 0.983902
Si Si4 0.120685 0.805895 0.942346
Si Si5 0.616739 0.778997 0.900337
Si Si6 0.695612 0.686348 0.697580
O O1 0.148629 0.493979 0.842255
O O2 0.229108 0.545185 0.928312
O O3 0.393712 0.388122 0.900220
O O4 0.942824 0.397937 0.912273
O O5 0.186790 0.977073 0.250000
O O6 0.465895 0.885907 0.306868
O O7 0.967796 0.862606 0.304031
O O8 0.786434 0.152338 0.008530
O O9 0.500000 0.000000 0.000000
O O10 0.000000 0.000000 0.000000
O O11 0.344527 0.750258 0.918557
O O12 0.848209 0.756321 0.935918
O O13 0.676128 0.748147 0.848115
O O14 0.669021 0.727371 0.750000
#
# Coordination Sequence:
#
# PCOD9434008 Si02
#       6
#     8   8   8   8   8   8
#     4   9  21  31  59  82 105 136 178 224 260 300
#     4  10  22  38  55  76 107 141 177 217 269 321
#     4  10  16  30  50  81 108 136 168 210 261 321
#     4   9  18  31  52  83 106 132 172 222 260 303
#     4  10  19  33  55  79 104 135 178 221 258 305
#     4  10  22  39  55  73 105 149 178 209 270 334
#
# _framework density 21.509336000000001
#
# number of rings (size 3 to 8) (size 9 to 14) (size 15 to 20)
#    1.000    1.333    1.667    1.000    2.333    0.667 
#    0.000    0.833    0.000    6.000    0.000    0.000 
#    0.000    0.000    0.000    0.000    0.000    0.000 
#
# Total GULP energy -267426.072138 kJ/mol
# GULP energy per Si atom -5571.376503 kJ/mol
# Density = 2.146038 g / cm^3
# Si number density = 21.509336 Si / 1000 Ang^3
#
#
#
# Elastic Constant Matrix: (Units=GPa)
#
#
# Indices 1 2 3 4 5 6 
#
# 1 119.1066 9.1152 9.3725 0.0000 0.0000 0.0000
# 2 9.1152 42.7890 15.0807 0.0000 0.0000 0.0000
# 3 9.3725 15.0807 108.9421 0.0000 0.0000 0.0000
# 4 0.0000 0.0000 0.0000 39.9256 0.0000 0.0000
# 5 0.0000 0.0000 0.0000 0.0000 21.5442 0.0000
# 6 0.0000 0.0000 0.0000 0.0000 0.0000 0.2881
#
#
#
# Elastic Compliance Matrix: (Units=1/GPa)
#
#
# Indices 1 2 3 4 5 6 
#
# 1 0.008562 -0.001645 -0.000509 0.000000 0.000000 0.000000
# 2 -0.001645 0.024885 -0.003303 0.000000 0.000000 0.000000
# 3 -0.000509 -0.003303 0.009680 0.000000 0.000000 0.000000
# 4 0.000000 0.000000 0.000000 0.025047 0.000000 0.000000
# 5 0.000000 0.000000 0.000000 0.000000 0.046416 0.000000
# 6 0.000000 0.000000 0.000000 0.000000 0.000000 3.471459
#
#
# Mechanical properties :
#
#
# Convention : Reuss Voigt Hill
#
# Bulk Modulus (GPa) = 31.04288 37.55271 34.29780
# Shear Modulus (GPa) = 1.38592 28.16955 14.77774
#
# Velocity S-wave (km/s) = 0.80358 3.62282 2.62398
# Velocity P-wave (km/s) = 3.91466 5.91578 5.01603
#
# Compressibility (1/GPa) = 0.03221351
#
# Stress axis : x y z
#
# Youngs Moduli (GPa) = 116.79866 40.18480 103.30321
#
# Poissons Ratio (x) = 0.06608 0.05257
# Poissons Ratio (y) = 0.19208 0.34124
# Poissons Ratio (z) = 0.05944 0.13274
#
# Static dielectric constant tensor:
#      x y z
#    x 1.828240 0.000000 0.000000 
#    y 0.000000 1.790430 0.000000 
#    z 0.000000 0.000000 1.835320 
# 
# From -- ./inp_files/29226.got.cif
#   From: 2010.05.17/outbox.cif.g08.bks.cpg/sg57_15_cif.got.tgz:29226.got - 2010.06.03 13:58:18.
