data_PCOD9434500
_publ_section_title
;
Structure prediction by ZEFSAII (Michael W. Deem and Ramdas Pophale) SiO2 
 PCOD9434500
Probable space group: P B C M
;
_chemical_formula_sum "Si O2"
_cell_formula_units_Z 48
_cell_length_a 16.088219
_cell_length_b 18.345878
_cell_length_c 8.369369
_cell_angle_alpha 90.000000
_cell_angle_beta 90.000000
_cell_angle_gamma 90.000000
_cell_volume 2470.240209
_symmetry_space_group_name_H-M "P B C M"
_symmetry_group_IT_number 57
_symmetry_cell_setting 'orthorhombic'
loop_
_space_group_symop_operation_xyz
x,y,z
-x,-y,1/2+z
x,1/2-y,-z
-x,1/2+y,1/2-z
-x,-y,-z
x,y,1/2-z
-x,1/2+y,z
x,1/2-y,1/2+z
loop_
_atom_site_type_symbol
_atom_site_label
_atom_site_fract_x
_atom_site_fract_y
_atom_site_fract_z
Si Si1 0.024121 0.333851 0.941259
Si Si2 0.356730 0.071476 0.554719
Si Si3 0.800362 0.833300 0.059300
Si Si4 0.157582 0.833563 0.556744
Si Si5 0.490225 0.830394 0.441267
Si Si6 0.327066 0.593304 0.443100
O O1 0.028339 0.334896 0.750000
O O2 0.933632 0.363095 0.992836
O O3 0.023741 0.250000 0.000000
O O4 0.110224 0.365083 0.007068
O O5 0.356831 0.071179 0.750000
O O6 0.277004 0.118496 0.502735
O O7 0.441084 0.111195 0.502455
O O8 0.348436 0.988246 0.500950
O O9 0.798868 0.831307 0.250000
O O10 0.792864 0.750000 0.000000
O O11 0.165525 0.750000 0.500000
O O12 0.158212 0.832930 0.750000
O O13 0.236757 0.879483 0.500955
O O14 0.513037 0.750000 0.500000
O O15 0.489546 0.830559 0.250000
O O16 0.399728 0.852893 0.502777
O O17 0.325506 0.592557 0.250000
#
# Coordination Sequence:
#
# PCOD9434500 Si02
#       6
#     8   8   8   8   8   8
#     4   9  16  28  46  72 100 129 165 209 253 296
#     4   9  20  36  54  75 104 137 170 205 253 308
#     4  10  18  31  51  75 100 133 172 212 253 300
#     4   9  18  31  51  74 100 132 168 207 252 299
#     4  11  22  37  56  80 104 132 169 211 253 301
#     4  10  20  37  56  76 103 137 170 208 254 304
#
# _framework density 19.431308999999999
#
# number of rings (size 3 to 8) (size 9 to 14) (size 15 to 20)
#    0.000    2.333    0.000    4.000    0.000    2.667 
#    0.000    5.833    0.000    0.000    0.000    0.000 
#    0.000    0.000    0.000    0.000    0.000    0.000 
#
# Total GULP energy -267806.877158 kJ/mol
# GULP energy per Si atom -5579.309941 kJ/mol
# Density = 1.938708 g / cm^3
# Si number density = 19.431309 Si / 1000 Ang^3
#
#
#
# Elastic Constant Matrix: (Units=GPa)
#
#
# Indices 1 2 3 4 5 6 
#
# 1 80.2640 -13.3880 4.6430 0.0000 0.0000 0.0000
# 2 -13.3880 33.7867 -2.3744 0.0000 0.0000 0.0000
# 3 4.6430 -2.3744 20.6433 0.0000 0.0000 0.0000
# 4 0.0000 0.0000 0.0000 13.8373 0.0000 0.0000
# 5 0.0000 0.0000 0.0000 0.0000 97.8482 0.0000
# 6 0.0000 0.0000 0.0000 0.0000 0.0000 -5.4876
#
#
#
# Elastic Compliance Matrix: (Units=1/GPa)
#
#
# Indices 1 2 3 4 5 6 
#
# 1 0.013461 0.005163 -0.002434 0.000000 0.000000 0.000000
# 2 0.005163 0.031819 0.002499 0.000000 0.000000 0.000000
# 3 -0.002434 0.002499 0.049277 0.000000 0.000000 0.000000
# 4 0.000000 0.000000 0.000000 0.072268 0.000000 0.000000
# 5 0.000000 0.000000 0.000000 0.000000 0.010220 0.000000
# 6 0.000000 0.000000 0.000000 0.000000 0.000000 -0.182230
#
#
# Mechanical properties :
#
#
# Convention : Reuss Voigt Hill
#
# Bulk Modulus (GPa) = 9.52275 12.49502 11.00888
# Shear Modulus (GPa) = 258.22876 30.96049 144.59462
#
# Velocity S-wave (km/s) = 11.54043 3.99598 8.63567
# Velocity P-wave (km/s) = 13.50877 5.26639 10.25236
#
# Compressibility (1/GPa) = 0.10501171
#
# Stress axis : x y z
#
# Youngs Moduli (GPa) = 74.28966 31.42797 20.29362
#
# Poissons Ratio (x) = -0.16226 0.04939
# Poissons Ratio (y) = -0.38354 -0.05071
# Poissons Ratio (z) = 0.18080 -0.07853
#
# Static dielectric constant tensor:
#      x y z
#    x 1.709680 0.000000 0.000000 
#    y 0.000000 1.647730 0.000000 
#    z 0.000000 0.000000 1.672710 
# 
# From -- ./inp_files/4681.got.cif
#   From: 2010.05.17/outbox.cif.g08.bks.cpg/sg57_3_cif.got.tgz:4681.got - 2010.06.03 13:58:18.
