data_PCOD9434494
_publ_section_title
;
Structure prediction by ZEFSAII (Michael W. Deem and Ramdas Pophale) SiO2 
 PCOD9434494
Probable space group: P B C M
;
_chemical_formula_sum "Si O2"
_cell_formula_units_Z 56
_cell_length_a 17.530274
_cell_length_b 10.180638
_cell_length_c 14.583227
_cell_angle_alpha 90.000000
_cell_angle_beta 90.000000
_cell_angle_gamma 90.000000
_cell_volume 2602.659388
_symmetry_space_group_name_H-M "P B C M"
_symmetry_group_IT_number 57
_symmetry_cell_setting 'orthorhombic'
loop_
_space_group_symop_operation_xyz
x,y,z
-x,-y,1/2+z
x,1/2-y,-z
-x,1/2+y,1/2-z
-x,-y,-z
x,y,1/2-z
-x,1/2+y,z
x,1/2-y,1/2+z
loop_
_atom_site_type_symbol
_atom_site_label
_atom_site_fract_x
_atom_site_fract_y
_atom_site_fract_z
Si Si1 0.508948 0.375497 0.433352
Si Si2 0.827197 0.360497 0.360726
Si Si3 0.654995 0.643858 0.582027
Si Si4 0.891112 0.414478 0.861882
Si Si5 0.180643 0.304915 0.102467
Si Si6 0.327430 0.607339 0.953955
Si Si7 0.062589 0.080254 0.144385
O O1 0.513794 0.250000 0.500000
O O2 0.500000 0.500000 0.500000
O O3 0.430565 0.362796 0.375875
O O4 0.594149 0.392992 0.394575
O O5 0.828405 0.363224 0.250000
O O6 0.841846 0.211256 0.390414
O O7 0.747093 0.414981 0.394360
O O8 0.893766 0.455677 0.396881
O O9 0.648024 0.750000 0.500000
O O10 0.731666 0.681967 0.637050
O O11 0.669051 0.503973 0.532401
O O12 0.889033 0.416849 0.750000
O O13 0.856828 0.551883 0.894088
O O14 0.978564 0.393966 0.893718
O O15 0.120437 0.202852 0.144879
O O16 0.188302 0.250000 0.000000
O O17 0.321193 0.750000 0.000000
O O18 0.048167 0.044588 0.250000
#
# Coordination Sequence:
#
# PCOD9434494 Si02
#       7
#     8   8   8   8   8   8   8
#     4   8  15  27  46  71  95 127 165 197 233 291
#     4  10  20  33  52  76 100 131 172 215 256 299
#     4   9  17  30  48  74 103 128 160 201 246 297
#     4  10  21  38  56  72  97 137 179 211 245 304
#     4  11  21  33  53  81 107 129 159 212 269 303
#     4  10  18  31  51  74 101 132 166 205 250 299
#     4  10  21  38  56  72  96 136 179 209 243 303
#
# _framework density 21.516452999999998
#
# number of rings (size 3 to 8) (size 9 to 14) (size 15 to 20)
#    0.000    2.286    0.000    3.857    0.000    2.857 
#    0.000    2.857    0.000    1.714    0.000   38.000 
#    0.000    0.000    0.000    0.000    0.000    0.000 
#
# Total GULP energy -312287.425723 kJ/mol
# GULP energy per Si atom -5576.561174 kJ/mol
# Density = 2.146748 g / cm^3
# Si number density = 21.516453 Si / 1000 Ang^3
#
#
#
# Elastic Constant Matrix: (Units=GPa)
#
#
# Indices 1 2 3 4 5 6 
#
# 1 183.7372 3.4574 13.8227 0.0000 0.0000 0.0000
# 2 3.4574 101.0336 2.8524 0.0000 0.0000 0.0000
# 3 13.8227 2.8524 33.3207 0.0000 0.0000 0.0000
# 4 0.0000 0.0000 0.0000 14.8380 0.0000 0.0000
# 5 0.0000 0.0000 0.0000 0.0000 -18.2550 0.0000
# 6 0.0000 0.0000 0.0000 0.0000 0.0000 33.8170
#
#
#
# Elastic Compliance Matrix: (Units=1/GPa)
#
#
# Indices 1 2 3 4 5 6 
#
# 1 0.005619 -0.000127 -0.002320 0.000000 0.000000 0.000000
# 2 -0.000127 0.009925 -0.000797 0.000000 0.000000 0.000000
# 3 -0.002320 -0.000797 0.031042 0.000000 0.000000 0.000000
# 4 0.000000 0.000000 0.000000 0.067394 0.000000 0.000000
# 5 0.000000 0.000000 0.000000 0.000000 -0.054779 0.000000
# 6 0.000000 0.000000 0.000000 0.000000 0.000000 0.029571
#
#
# Mechanical properties :
#
#
# Convention : Reuss Voigt Hill
#
# Bulk Modulus (GPa) = 24.93890 39.81739 32.37815
# Shear Modulus (GPa) = 46.02935 25.94393 35.98664
#
# Velocity S-wave (km/s) = 4.63023 3.47619 4.09408
# Velocity P-wave (km/s) = 6.34044 5.88707 6.11796
#
# Compressibility (1/GPa) = 0.04009799
#
# Stress axis : x y z
#
# Youngs Moduli (GPa) = 177.95178 100.76036 32.21423
#
# Poissons Ratio (x) = 0.01278 0.07475
# Poissons Ratio (y) = 0.02256 0.02567
# Poissons Ratio (z) = 0.41291 0.08031
#
# Static dielectric constant tensor:
#      x y z
#    x 1.863550 0.000000 0.000000 
#    y 0.000000 1.755260 0.000000 
#    z 0.000000 0.000000 1.710930 
# 
# From -- ./inp_files/25414.got.cif
#   From: 2010.05.17/outbox.cif.g08.bks.cpg/sg57_13_cif.got.tgz:25414.got - 2010.06.03 13:58:18.
