data_PCOD9434754
_publ_section_title
;
Structure prediction by ZEFSAII (Michael W. Deem and Ramdas Pophale) SiO2 
 PCOD9434754
Probable space group: P B C M
;
_chemical_formula_sum "Si O2"
_cell_formula_units_Z 48
_cell_length_a 15.009319
_cell_length_b 9.980635
_cell_length_c 16.910532
_cell_angle_alpha 90.000000
_cell_angle_beta 90.000000
_cell_angle_gamma 90.000000
_cell_volume 2533.240554
_symmetry_space_group_name_H-M "P B C M"
_symmetry_group_IT_number 57
_symmetry_cell_setting 'orthorhombic'
loop_
_space_group_symop_operation_xyz
x,y,z
-x,-y,1/2+z
x,1/2-y,-z
-x,1/2+y,1/2-z
-x,-y,-z
x,y,1/2-z
-x,1/2+y,z
x,1/2-y,1/2+z
loop_
_atom_site_type_symbol
_atom_site_label
_atom_site_fract_x
_atom_site_fract_y
_atom_site_fract_z
Si Si1 0.872609 0.260803 0.341793
Si Si2 0.450562 0.687376 0.654099
Si Si3 0.800512 0.503254 0.577153
Si Si4 0.607558 0.491012 0.844208
Si Si5 0.281287 0.627140 0.564208
Si Si6 0.975913 0.625117 0.943770
O O1 0.881747 0.230430 0.250000
O O2 0.856864 0.124977 0.391576
O O3 0.781399 0.336709 0.362404
O O4 0.953929 0.349558 0.373885
O O5 0.437494 0.674404 0.750000
O O6 0.435090 0.845244 0.633664
O O7 0.544234 0.616293 0.634671
O O8 0.377541 0.608410 0.601948
O O9 0.707192 0.507062 0.623014
O O10 0.768615 0.485125 0.486693
O O11 0.873845 0.617630 0.584785
O O12 0.613826 0.487989 0.750000
O O13 0.285622 0.750000 0.500000
O O14 0.986798 0.750000 0.000000
O O15 0.000000 0.500000 0.000000
#
# Coordination Sequence:
#
# PCOD9434754 Si02
#       6
#     8   8   8   8   8   8
#     4  11  21  36  65  94 119 160 211 256 307 377
#     4  10  20  37  59  86 118 157 200 249 307 365
#     4  11  22  40  64  89 122 163 208 255 311 370
#     4  10  21  38  61  87 121 160 201 252 307 364
#     4  10  18  34  59  88 115 156 205 246 296 370
#     4  12  23  44  65  90 126 166 206 260 316 367
#
# _framework density 18.948062
#
# number of rings (size 3 to 8) (size 9 to 14) (size 15 to 20)
#    0.000    1.333    6.667    1.500    0.000    2.000 
#    3.000    0.000    0.000    0.000    0.000    0.000 
#    0.000    0.000    0.000    0.000    0.000    0.000 
#
# Total GULP energy -267410.935190 kJ/mol
# GULP energy per Si atom -5571.061150 kJ/mol
# Density = 1.890494 g / cm^3
# Si number density = 18.948062 Si / 1000 Ang^3
#
#
#
# Elastic Constant Matrix: (Units=GPa)
#
#
# Indices 1 2 3 4 5 6 
#
# 1 126.1339 30.4279 36.9856 0.0000 0.0000 0.0000
# 2 30.4279 44.3767 23.0856 0.0000 0.0000 0.0000
# 3 36.9856 23.0856 47.6811 0.0000 0.0000 0.0000
# 4 0.0000 0.0000 0.0000 11.2468 0.0000 0.0000
# 5 0.0000 0.0000 0.0000 0.0000 40.1904 0.0000
# 6 0.0000 0.0000 0.0000 0.0000 0.0000 32.7893
#
#
#
# Elastic Compliance Matrix: (Units=1/GPa)
#
#
# Indices 1 2 3 4 5 6 
#
# 1 0.010785 -0.004067 -0.006396 0.000000 0.000000 0.000000
# 2 -0.004067 0.031655 -0.012171 0.000000 0.000000 0.000000
# 3 -0.006396 -0.012171 0.031827 0.000000 0.000000 0.000000
# 4 0.000000 0.000000 0.000000 0.088915 0.000000 0.000000
# 5 0.000000 0.000000 0.000000 0.000000 0.024882 0.000000
# 6 0.000000 0.000000 0.000000 0.000000 0.000000 0.030498
#
#
# Mechanical properties :
#
#
# Convention : Reuss Voigt Hill
#
# Bulk Modulus (GPa) = 34.48638 44.35443 39.42041
# Shear Modulus (GPa) = 18.28179 25.35814 21.81996
#
# Velocity S-wave (km/s) = 3.10955 3.66224 3.39716
# Velocity P-wave (km/s) = 5.57964 6.42977 6.01973
#
# Compressibility (1/GPa) = 0.02899695
#
# Stress axis : x y z
#
# Youngs Moduli (GPa) = 92.72269 31.59069 31.41976
#
# Poissons Ratio (x) = 0.12849 0.20097
# Poissons Ratio (y) = 0.37714 0.38242
# Poissons Ratio (z) = 0.59309 0.38450
#
# Static dielectric constant tensor:
#      x y z
#    x 2.157850 0.000000 0.000000 
#    y 0.000000 1.710500 0.000000 
#    z 0.000000 0.000000 1.683050 
# 
# From -- ./inp_files/22464.got.cif
#   From: 2010.05.17/outbox.cif.g08.bks.cpg/sg57_12_cif.got.tgz:22464.got - 2010.06.03 13:58:18.
