data_PCOD9434831
_publ_section_title
;
Structure prediction by ZEFSAII (Michael W. Deem and Ramdas Pophale) SiO2 
 PCOD9434831
Probable space group: P B C M
;
_chemical_formula_sum "Si O2"
_cell_formula_units_Z 40
_cell_length_a 13.385881
_cell_length_b 10.186712
_cell_length_c 16.742680
_cell_angle_alpha 90.000000
_cell_angle_beta 90.000000
_cell_angle_gamma 90.000000
_cell_volume 2283.000278
_symmetry_space_group_name_H-M "P B C M"
_symmetry_group_IT_number 57
_symmetry_cell_setting 'orthorhombic'
loop_
_space_group_symop_operation_xyz
x,y,z
-x,-y,1/2+z
x,1/2-y,-z
-x,1/2+y,1/2-z
-x,-y,-z
x,y,1/2-z
-x,1/2+y,z
x,1/2-y,1/2+z
loop_
_atom_site_type_symbol
_atom_site_label
_atom_site_fract_x
_atom_site_fract_y
_atom_site_fract_z
Si Si1 0.121791 0.381393 0.448182
Si Si2 0.693286 0.530968 0.844224
Si Si3 0.505879 0.625216 0.558110
Si Si4 0.699217 0.267906 0.403630
Si Si5 0.900768 0.130507 0.937152
O O1 0.135850 0.250000 0.500000
O O2 0.210136 0.407998 0.386985
O O3 0.120823 0.500573 0.511697
O O4 0.013399 0.380918 0.404661
O O5 0.696471 0.548155 0.750000
O O6 0.596633 0.599391 0.882513
O O7 0.690648 0.375286 0.865053
O O8 0.522341 0.750000 0.500000
O O9 0.500000 0.500000 0.500000
O O10 0.402177 0.649220 0.605797
O O11 0.703421 0.250000 0.500000
O O12 0.804829 0.336442 0.382784
O O13 0.909391 0.250000 0.000000
#
# Coordination Sequence:
#
# PCOD9434831 Si02
#       5
#     8   8   8   8   8
#     4  10  19  33  61  94 113 152 200 246 279 344
#     4  12  24  38  58  91 126 154 187 250 310 343
#     4  11  20  38  65  89 114 155 205 242 279 354
#     4  10  18  37  63  84 115 153 203 232 283 356
#     4   9  16  33  64  89 111 145 209 239 274 343
#
# _framework density 17.520803999999998
#
# number of rings (size 3 to 8) (size 9 to 14) (size 15 to 20)
#    0.000    1.600    8.000    0.600    0.000    0.800 
#    0.000    1.000    0.000    1.200    0.000    0.000 
#    0.000    0.000    0.000    0.000    0.000    0.000 
#
# Total GULP energy -222939.525808 kJ/mol
# GULP energy per Si atom -5573.488145 kJ/mol
# Density = 1.748093 g / cm^3
# Si number density = 17.520804 Si / 1000 Ang^3
#
#
#
# Elastic Constant Matrix: (Units=GPa)
#
#
# Indices 1 2 3 4 5 6 
#
# 1 220.2632 52.1848 58.7822 0.0000 0.0000 0.0000
# 2 52.1848 132.1991 34.6396 0.0000 0.0000 0.0000
# 3 58.7822 34.6396 75.0537 0.0000 0.0000 0.0000
# 4 0.0000 0.0000 0.0000 16.9225 0.0000 0.0000
# 5 0.0000 0.0000 0.0000 0.0000 -0.9695 0.0000
# 6 0.0000 0.0000 0.0000 0.0000 0.0000 27.8497
#
#
#
# Elastic Compliance Matrix: (Units=1/GPa)
#
#
# Indices 1 2 3 4 5 6 
#
# 1 0.005923 -0.001277 -0.004050 0.000000 0.000000 0.000000
# 2 -0.001277 0.008880 -0.003098 0.000000 0.000000 0.000000
# 3 -0.004050 -0.003098 0.017926 0.000000 0.000000 0.000000
# 4 0.000000 0.000000 0.000000 0.059093 0.000000 0.000000
# 5 0.000000 0.000000 0.000000 0.000000 -1.031427 0.000000
# 6 0.000000 0.000000 0.000000 0.000000 0.000000 0.035907
#
#
# Mechanical properties :
#
#
# Convention : Reuss Voigt Hill
#
# Bulk Modulus (GPa) = 62.97679 79.85880 71.41780
# Shear Modulus (GPa) = -5.67180 27.55449 10.94135
#
# Velocity S-wave (km/s) = -1.80117 3.97000 2.50167
# Velocity P-wave (km/s) = 5.62996 8.16657 7.01389
#
# Compressibility (1/GPa) = 0.01587886
#
# Stress axis : x y z
#
# Youngs Moduli (GPa) = 168.82308 112.60867 55.78621
#
# Poissons Ratio (x) = 0.14381 0.22592
# Poissons Ratio (y) = 0.21560 0.17285
# Poissons Ratio (z) = 0.68370 0.34890
#
# Static dielectric constant tensor:
#      x y z
#    x 1.685230 0.000000 0.000000 
#    y 0.000000 1.731920 0.000000 
#    z 0.000000 0.000000 2.400020 
# 
# From -- ./inp_files/18226.got.cif
#   From: 2010.05.17/outbox.cif.g08.bks.cpg/sg57_10_cif.got.tgz:18226.got - 2010.06.03 13:58:18.
