data_PCOD9434253
_publ_section_title
;
Structure prediction by ZEFSAII (Michael W. Deem and Ramdas Pophale) SiO2 
 PCOD9434253
Probable space group: P B C M
;
_chemical_formula_sum "Si O2"
_cell_formula_units_Z 48
_cell_length_a 9.529144
_cell_length_b 17.305206
_cell_length_c 14.480268
_cell_angle_alpha 90.000000
_cell_angle_beta 90.000000
_cell_angle_gamma 90.000000
_cell_volume 2387.851217
_symmetry_space_group_name_H-M "P B C M"
_symmetry_group_IT_number 57
_symmetry_cell_setting 'orthorhombic'
loop_
_space_group_symop_operation_xyz
x,y,z
-x,-y,1/2+z
x,1/2-y,-z
-x,1/2+y,1/2-z
-x,-y,-z
x,y,1/2-z
-x,1/2+y,z
x,1/2-y,1/2+z
loop_
_atom_site_type_symbol
_atom_site_label
_atom_site_fract_x
_atom_site_fract_y
_atom_site_fract_z
Si Si1 0.047484 0.980585 0.602613
Si Si2 0.111950 0.868283 0.352410
Si Si3 0.643552 0.029588 0.636099
Si Si4 0.804055 0.876897 0.641504
Si Si5 0.674623 0.553345 0.638621
Si Si6 0.839161 0.706921 0.864095
O O1 0.965762 0.904135 0.631882
O O2 0.213319 0.987270 0.612676
O O3 0.000000 0.000000 0.500000
O O4 0.979209 0.052684 0.656834
O O5 0.145985 0.838242 0.250000
O O6 0.255670 0.899957 0.395616
O O7 0.998560 0.811101 0.396526
O O8 0.650296 0.030374 0.750000
O O9 0.483538 0.039427 0.607150
O O10 0.710770 0.948050 0.604323
O O11 0.770520 0.872826 0.750000
O O12 0.788189 0.790736 0.604208
O O13 0.670235 0.555418 0.750000
O O14 0.740817 0.635318 0.608054
O O15 0.843811 0.706906 0.750000
#
# Coordination Sequence:
#
# PCOD9434253 Si02
#       6
#     8   8   8   8   8   8
#     4  10  18  28  43  64  85 113 150 182 215 265
#     4   8  14  28  45  61  83 116 149 179 218 270
#     4   8  14  25  45  66  87 115 148 182 225 272
#     4   9  16  29  46  66  89 115 147 189 227 262
#     4   9  16  29  46  65  88 118 149 184 228 276
#     4   8  14  25  45  66  85 111 149 188 223 261
#
# _framework density 20.101756000000002
#
# number of rings (size 3 to 8) (size 9 to 14) (size 15 to 20)
#    0.000    3.333    0.000    3.500    0.000    0.000 
#    0.000    8.333    0.000    8.000    0.000    4.667 
#    0.000    0.000    0.000    0.000    0.000    0.000 
#
# Total GULP energy -267344.504022 kJ/mol
# GULP energy per Si atom -5569.677167 kJ/mol
# Density = 2.005600 g / cm^3
# Si number density = 20.101756 Si / 1000 Ang^3
#
#
#
# Elastic Constant Matrix: (Units=GPa)
#
#
# Indices 1 2 3 4 5 6 
#
# 1 187.0556 55.8027 -1.3444 0.0000 0.0000 0.0000
# 2 55.8027 95.3762 0.3997 0.0000 0.0000 0.0000
# 3 -1.3444 0.3997 37.4321 0.0000 0.0000 0.0000
# 4 0.0000 0.0000 0.0000 12.4105 0.0000 0.0000
# 5 0.0000 0.0000 0.0000 0.0000 7.0956 0.0000
# 6 0.0000 0.0000 0.0000 0.0000 0.0000 18.6497
#
#
#
# Elastic Compliance Matrix: (Units=1/GPa)
#
#
# Indices 1 2 3 4 5 6 
#
# 1 0.006479 -0.003792 0.000273 0.000000 0.000000 0.000000
# 2 -0.003792 0.012705 -0.000272 0.000000 0.000000 0.000000
# 3 0.000273 -0.000272 0.026728 0.000000 0.000000 0.000000
# 4 0.000000 0.000000 0.000000 0.080577 0.000000 0.000000
# 5 0.000000 0.000000 0.000000 0.000000 0.140931 0.000000
# 6 0.000000 0.000000 0.000000 0.000000 0.000000 0.053620
#
#
# Mechanical properties :
#
#
# Convention : Reuss Voigt Hill
#
# Bulk Modulus (GPa) = 26.08908 47.73107 36.91008
# Shear Modulus (GPa) = 14.64565 25.29822 19.97193
#
# Velocity S-wave (km/s) = 2.70214 3.55139 3.15547
# Velocity P-wave (km/s) = 4.76887 6.37282 5.62827
#
# Compressibility (1/GPa) = 0.03833022
#
# Stress axis : x y z
#
# Youngs Moduli (GPa) = 154.33997 78.71189 37.41433
#
# Poissons Ratio (x) = 0.29848 -0.01022
# Poissons Ratio (y) = 0.58526 0.01017
# Poissons Ratio (z) = -0.04217 0.02140
#
# Static dielectric constant tensor:
#      x y z
#    x 1.724980 0.000000 0.000000 
#    y 0.000000 1.718730 0.000000 
#    z 0.000000 0.000000 1.800300 
# 
# From -- ./inp_files/16379.got.cif
#   From: 2010.05.17/outbox.cif.g08.bks.cpg/sg57_9_cif.got.tgz:16379.got - 2010.06.03 13:58:18.
