data_PCOD9434173
_publ_section_title
;
Structure prediction by ZEFSAII (Michael W. Deem and Ramdas Pophale) SiO2 
 PCOD9434173
Probable space group: P B C M
;
_chemical_formula_sum "Si O2"
_cell_formula_units_Z 40
_cell_length_a 13.001841
_cell_length_b 10.018251
_cell_length_c 17.384931
_cell_angle_alpha 90.000000
_cell_angle_beta 90.000000
_cell_angle_gamma 90.000000
_cell_volume 2264.486472
_symmetry_space_group_name_H-M "P B C M"
_symmetry_group_IT_number 57
_symmetry_cell_setting 'orthorhombic'
loop_
_space_group_symop_operation_xyz
x,y,z
-x,-y,1/2+z
x,1/2-y,-z
-x,1/2+y,1/2-z
-x,-y,-z
x,y,1/2-z
-x,1/2+y,z
x,1/2-y,1/2+z
loop_
_atom_site_type_symbol
_atom_site_label
_atom_site_fract_x
_atom_site_fract_y
_atom_site_fract_z
Si Si1 0.255237 0.104991 0.037470
Si Si2 0.477137 0.376516 0.555785
Si Si3 0.098005 0.786222 0.659613
Si Si4 0.043187 0.993785 0.086839
Si Si5 0.699046 0.143905 0.070461
O O1 0.156990 0.057018 0.084510
O O2 0.237410 0.250000 0.000000
O O3 0.361631 0.105560 0.086616
O O4 0.272525 0.997598 0.968780
O O5 0.468813 0.250000 0.500000
O O6 0.500000 0.500000 0.500000
O O7 0.582442 0.360346 0.603327
O O8 0.097035 0.760819 0.750000
O O9 0.052599 0.657960 0.615092
O O10 0.213125 0.813152 0.629017
O O11 0.030506 0.915568 0.638547
O O12 0.000000 0.000000 0.000000
O O13 0.699107 0.250000 0.000000
#
# Coordination Sequence:
#
# PCOD9434173 Si02
#       5
#     8   8   8   8   8
#     4  10  18  31  55  91 111 137 187 243 281 319
#     4   8  16  27  50  84 114 132 174 240 282 317
#     4  12  25  39  56  83 117 152 186 237 297 347
#     4  12  22  39  61  84 111 150 200 236 281 343
#     4  10  17  35  57  84 111 146 189 231 280 338
#
# _framework density 17.664048999999999
#
# number of rings (size 3 to 8) (size 9 to 14) (size 15 to 20)
#    0.000    1.600    4.000    2.400    0.000    0.000 
#    0.000    0.000    0.000    2.400    0.000    0.000 
#    0.000    0.000    0.000    0.000    0.000    0.000 
#
# Total GULP energy -222978.125082 kJ/mol
# GULP energy per Si atom -5574.453127 kJ/mol
# Density = 1.762384 g / cm^3
# Si number density = 17.664049 Si / 1000 Ang^3
#
#
#
# Elastic Constant Matrix: (Units=GPa)
#
#
# Indices 1 2 3 4 5 6 
#
# 1 143.4237 4.5632 23.3931 0.0000 0.0000 0.0000
# 2 4.5632 106.7816 10.9431 0.0000 0.0000 0.0000
# 3 23.3931 10.9431 63.3730 0.0000 0.0000 0.0000
# 4 0.0000 0.0000 0.0000 16.2300 0.0000 0.0000
# 5 0.0000 0.0000 0.0000 0.0000 5.5509 0.0000
# 6 0.0000 0.0000 0.0000 0.0000 0.0000 28.4787
#
#
#
# Elastic Compliance Matrix: (Units=1/GPa)
#
#
# Indices 1 2 3 4 5 6 
#
# 1 0.007419 -0.000037 -0.002732 0.000000 0.000000 0.000000
# 2 -0.000037 0.009534 -0.001633 0.000000 0.000000 0.000000
# 3 -0.002732 -0.001633 0.017070 0.000000 0.000000 0.000000
# 4 0.000000 0.000000 0.000000 0.061614 0.000000 0.000000
# 5 0.000000 0.000000 0.000000 0.000000 0.180152 0.000000
# 6 0.000000 0.000000 0.000000 0.000000 0.000000 0.035114
#
#
# Mechanical properties :
#
#
# Convention : Reuss Voigt Hill
#
# Bulk Modulus (GPa) = 39.65228 43.48634 41.56931
# Shear Modulus (GPa) = 15.23865 28.36385 21.80125
#
# Velocity S-wave (km/s) = 2.94035 4.01151 3.51695
# Velocity P-wave (km/s) = 5.83303 6.79178 6.33059
#
# Compressibility (1/GPa) = 0.02521923
#
# Stress axis : x y z
#
# Youngs Moduli (GPa) = 134.78589 104.88991 58.58203
#
# Poissons Ratio (x) = 0.00389 0.16006
# Poissons Ratio (y) = 0.00499 0.09564
# Poissons Ratio (z) = 0.36827 0.17124
#
# Static dielectric constant tensor:
#      x y z
#    x 1.684940 0.000000 0.000000 
#    y 0.000000 1.608410 0.000000 
#    z 0.000000 0.000000 1.551460 
# 
# From -- ./inp_files/17413.got.cif
#   From: 2010.05.17/outbox.cif.g08.bks.cpg/sg57_9_cif.got.tgz:17413.got - 2010.06.03 13:58:18.
