data_PCOD9434708
_publ_section_title
;
Structure prediction by ZEFSAII (Michael W. Deem and Ramdas Pophale) SiO2 
 PCOD9434708
Probable space group: P B C M
;
_chemical_formula_sum "Si O2"
_cell_formula_units_Z 64
_cell_length_a 11.525249
_cell_length_b 16.950076
_cell_length_c 16.885027
_cell_angle_alpha 90.000000
_cell_angle_beta 90.000000
_cell_angle_gamma 90.000000
_cell_volume 3298.554972
_symmetry_space_group_name_H-M "P B C M"
_symmetry_group_IT_number 57
_symmetry_cell_setting 'orthorhombic'
loop_
_space_group_symop_operation_xyz
x,y,z
-x,-y,1/2+z
x,1/2-y,-z
-x,1/2+y,1/2-z
-x,-y,-z
x,y,1/2-z
-x,1/2+y,z
x,1/2-y,1/2+z
loop_
_atom_site_type_symbol
_atom_site_label
_atom_site_fract_x
_atom_site_fract_y
_atom_site_fract_z
Si Si1 0.474845 0.339225 0.516569
Si Si2 0.997874 0.158566 0.494723
Si Si3 0.471710 0.439251 0.837163
Si Si4 0.330559 0.038167 0.587499
Si Si5 0.261653 0.941474 0.334897
Si Si6 0.056292 0.068870 0.338656
Si Si7 0.738173 0.384882 0.498951
Si Si8 0.094352 0.419475 0.157646
O O1 0.440173 0.250000 0.500000
O O2 0.436087 0.373264 0.600684
O O3 0.417829 0.400508 0.454516
O O4 0.615347 0.345671 0.519556
O O5 0.027735 0.250000 0.500000
O O6 0.060812 0.120003 0.418399
O O7 0.860881 0.148782 0.473619
O O8 0.029480 0.119767 0.580872
O O9 0.473827 0.405492 0.750000
O O10 0.593510 0.479413 0.858974
O O11 0.380501 0.510436 0.840477
O O12 0.230070 0.081872 0.635563
O O13 0.273584 0.977391 0.523919
O O14 0.252064 0.901969 0.250000
O O15 0.162146 0.007141 0.340404
O O16 0.253647 0.880872 0.404737
O O17 0.057513 0.107057 0.250000
O O18 0.945158 0.011073 0.343052
O O19 0.072596 0.392170 0.250000
#
# Coordination Sequence:
#
# PCOD9434708 Si02
#       8
#     8   8   8   8   8   8   8   8
#     4  11  23  38  58  88 126 162 193 245 312 372
#     4  12  25  39  62  89 127 166 197 251 316 369
#     4  10  20  37  60  87 114 152 206 251 295 352
#     4  11  20  38  64  86 115 160 206 250 298 353
#     4  10  18  33  62  88 109 145 206 259 289 334
#     4  10  21  39  62  89 117 157 206 254 297 355
#     4  11  19  39  61  88 115 156 212 249 293 357
#     4  11  23  39  63  90 118 155 206 253 297 358
#
# _framework density 19.402436000000002
#
# number of rings (size 3 to 8) (size 9 to 14) (size 15 to 20)
#    0.000    1.250    5.000    2.625    0.000    1.000 
#    0.000    1.875    0.000    1.500    0.000    0.000 
#    0.000    0.000    0.000    0.000    0.000    0.000 
#
# Total GULP energy -356704.946298 kJ/mol
# GULP energy per Si atom -5573.514786 kJ/mol
# Density = 1.935828 g / cm^3
# Si number density = 19.402436 Si / 1000 Ang^3
#
#
#
# Elastic Constant Matrix: (Units=GPa)
#
#
# Indices 1 2 3 4 5 6 
#
# 1 51.5347 -20.0540 -3.9903 0.0000 0.0000 0.0000
# 2 -20.0540 51.7861 18.4339 0.0000 0.0000 0.0000
# 3 -3.9903 18.4339 115.6772 0.0000 0.0000 0.0000
# 4 0.0000 0.0000 0.0000 6.7811 0.0000 0.0000
# 5 0.0000 0.0000 0.0000 0.0000 69.1340 0.0000
# 6 0.0000 0.0000 0.0000 0.0000 0.0000 9.0340
#
#
#
# Elastic Compliance Matrix: (Units=1/GPa)
#
#
# Indices 1 2 3 4 5 6 
#
# 1 0.022895 0.009101 -0.000661 0.000000 0.000000 0.000000
# 2 0.009101 0.024089 -0.003525 0.000000 0.000000 0.000000
# 3 -0.000661 -0.003525 0.009184 0.000000 0.000000 0.000000
# 4 0.000000 0.000000 0.000000 0.147469 0.000000 0.000000
# 5 0.000000 0.000000 0.000000 0.000000 0.014465 0.000000
# 6 0.000000 0.000000 0.000000 0.000000 0.000000 0.110693
#
#
# Mechanical properties :
#
#
# Convention : Reuss Voigt Hill
#
# Bulk Modulus (GPa) = 15.15173 23.08636 19.11905
# Shear Modulus (GPa) = 14.66435 31.96371 23.31403
#
# Velocity S-wave (km/s) = 2.75216 4.06323 3.47018
# Velocity P-wave (km/s) = 4.23383 5.82560 5.09230
#
# Compressibility (1/GPa) = 0.06599908
#
# Stress axis : x y z
#
# Youngs Moduli (GPa) = 43.67806 41.51224 108.88900
#
# Poissons Ratio (x) = -0.37781 0.07193
# Poissons Ratio (y) = -0.39752 0.38382
# Poissons Ratio (z) = 0.02885 0.14632
#
# Static dielectric constant tensor:
#      x y z
#    x 1.745130 0.000000 0.000000 
#    y 0.000000 1.644660 0.000000 
#    z 0.000000 0.000000 1.599240 
# 
# From -- ./inp_files/18013.got.cif
#   From: 2010.05.17/outbox.cif.g08.bks.cpg/sg57_10_cif.got.tgz:18013.got - 2010.06.03 13:58:18.
