data_PCOD9434713
_publ_section_title
;
Structure prediction by ZEFSAII (Michael W. Deem and Ramdas Pophale) SiO2 
 PCOD9434713
Probable space group: P B C M
;
_chemical_formula_sum "Si O2"
_cell_formula_units_Z 48
_cell_length_a 14.988265
_cell_length_b 18.003112
_cell_length_c 10.158502
_cell_angle_alpha 90.000000
_cell_angle_beta 90.000000
_cell_angle_gamma 90.000000
_cell_volume 2741.123588
_symmetry_space_group_name_H-M "P B C M"
_symmetry_group_IT_number 57
_symmetry_cell_setting 'orthorhombic'
loop_
_space_group_symop_operation_xyz
x,y,z
-x,-y,1/2+z
x,1/2-y,-z
-x,1/2+y,1/2-z
-x,-y,-z
x,y,1/2-z
-x,1/2+y,z
x,1/2-y,1/2+z
loop_
_atom_site_type_symbol
_atom_site_label
_atom_site_fract_x
_atom_site_fract_y
_atom_site_fract_z
Si Si1 0.284607 0.179083 0.250000
Si Si2 0.590556 0.963995 0.750000
Si Si3 0.705819 0.465861 0.025377
Si Si4 0.693509 0.650882 0.750000
Si Si5 0.385035 0.996577 0.750000
Si Si6 0.188887 0.388659 0.504333
Si Si7 0.015231 0.178570 0.905714
Si Si8 0.808126 0.181383 0.902164
O O1 0.362625 0.116994 0.250000
O O2 0.325572 0.261466 0.250000
O O3 0.221979 0.163471 0.376355
O O4 0.628428 0.007025 0.623275
O O5 0.484529 0.965212 0.750000
O O6 0.667939 0.470004 0.878526
O O7 0.783658 0.527567 0.039923
O O8 0.743740 0.386315 0.063405
O O9 0.617121 0.587424 0.750000
O O10 0.752477 0.634388 0.621584
O O11 0.086878 0.379011 0.462457
O O12 0.033496 0.193601 0.750000
O O13 0.911627 0.156297 0.915959
O O14 0.026241 0.250000 0.000000
O O15 0.795763 0.204043 0.750000
O O16 0.794099 0.250000 0.000000
#
# Coordination Sequence:
#
# PCOD9434713 Si02
#       8
#     4   4   8   4   4   8   8   8
#     4  10  20  32  55  81 113 145 183 229 279 338
#     4  10  20  40  59  83 113 147 189 234 286 346
#     4  10  21  39  59  82 113 149 187 231 290 342
#     4  10  18  34  51  81 113 143 181 229 281 330
#     4  10  22  36  61  85 113 147 187 234 286 344
#     4  10  20  32  54  82 111 149 185 225 277 334
#     4  10  20  34  53  81 116 152 190 231 273 323
#     4  10  22  40  60  82 113 152 193 235 276 325
#
# _framework density 17.511068000000002
#
# number of rings (size 3 to 8) (size 9 to 14) (size 15 to 20)
#    0.000    2.000    1.667    2.000    2.333    0.667 
#    0.000    1.667    0.000    0.000    0.000    0.000 
#    0.000    0.000    0.000    0.000    0.000    0.000 
#
# Total GULP energy -267762.478696 kJ/mol
# GULP energy per Si atom -5578.384973 kJ/mol
# Density = 1.747121 g / cm^3
# Si number density = 17.511068 Si / 1000 Ang^3
#
#
#
# Elastic Constant Matrix: (Units=GPa)
#
#
# Indices 1 2 3 4 5 6 
#
# 1 55.2786 34.6484 15.8570 0.0000 0.0000 0.0000
# 2 34.6484 75.0832 17.1671 0.0000 0.0000 0.0000
# 3 15.8570 17.1671 108.5682 0.0000 0.0000 0.0000
# 4 0.0000 0.0000 0.0000 25.5228 0.0000 0.0000
# 5 0.0000 0.0000 0.0000 0.0000 40.3804 0.0000
# 6 0.0000 0.0000 0.0000 0.0000 0.0000 18.2180
#
#
#
# Elastic Compliance Matrix: (Units=1/GPa)
#
#
# Indices 1 2 3 4 5 6 
#
# 1 0.025848 -0.011480 -0.001960 0.000000 0.000000 0.000000
# 2 -0.011480 0.018917 -0.001314 0.000000 0.000000 0.000000
# 3 -0.001960 -0.001314 0.009705 0.000000 0.000000 0.000000
# 4 0.000000 0.000000 0.000000 0.039181 0.000000 0.000000
# 5 0.000000 0.000000 0.000000 0.000000 0.024764 0.000000
# 6 0.000000 0.000000 0.000000 0.000000 0.000000 0.054891
#
#
# Mechanical properties :
#
#
# Convention : Reuss Voigt Hill
#
# Bulk Modulus (GPa) = 40.06264 41.58611 40.82437
# Shear Modulus (GPa) = 23.68161 28.24140 25.96150
#
# Velocity S-wave (km/s) = 3.68146 4.02029 3.85460
# Velocity P-wave (km/s) = 6.40305 6.73427 6.57074
#
# Compressibility (1/GPa) = 0.02496091
#
# Stress axis : x y z
#
# Youngs Moduli (GPa) = 38.68778 52.86342 103.04053
#
# Poissons Ratio (x) = 0.60686 0.20196
# Poissons Ratio (y) = 0.44413 0.13544
# Poissons Ratio (z) = 0.07583 0.06949
#
# Static dielectric constant tensor:
#      x y z
#    x 1.573240 0.000000 0.000000 
#    y 0.000000 1.588670 0.000000 
#    z 0.000000 0.000000 1.600390 
# 
# From -- ./inp_files/4773.got.cif
#   From: 2010.05.17/outbox.cif.g08.bks.cpg/sg57_3_cif.got.tgz:4773.got - 2010.06.03 13:58:18.
