data_PCOD9434451
_publ_section_title
;
Structure prediction by ZEFSAII (Michael W. Deem and Ramdas Pophale) SiO2 
 PCOD9434451
Probable space group: P B C M
;
_chemical_formula_sum "Si O2"
_cell_formula_units_Z 48
_cell_length_a 14.806863
_cell_length_b 7.917554
_cell_length_c 15.929180
_cell_angle_alpha 90.000000
_cell_angle_beta 90.000000
_cell_angle_gamma 90.000000
_cell_volume 1867.443676
_symmetry_space_group_name_H-M "P B C M"
_symmetry_group_IT_number 57
_symmetry_cell_setting 'orthorhombic'
loop_
_space_group_symop_operation_xyz
x,y,z
-x,-y,1/2+z
x,1/2-y,-z
-x,1/2+y,1/2-z
-x,-y,-z
x,y,1/2-z
-x,1/2+y,z
x,1/2-y,1/2+z
loop_
_atom_site_type_symbol
_atom_site_label
_atom_site_fract_x
_atom_site_fract_y
_atom_site_fract_z
Si Si1 0.721532 0.369450 0.352077
Si Si2 0.179543 0.165749 0.416863
Si Si3 0.971220 0.143951 0.434054
Si Si4 0.578833 0.833088 0.851462
Si Si5 0.619072 0.456789 0.647487
Si Si6 0.856515 0.764545 0.750000
Si Si7 0.031507 0.938918 0.750000
O O1 0.736136 0.371436 0.250000
O O2 0.800177 0.470245 0.400676
O O3 0.639318 0.501807 0.370297
O O4 0.696396 0.178555 0.377782
O O5 0.216079 0.250000 0.500000
O O6 0.207527 0.249497 0.329382
O O7 0.072717 0.209978 0.414529
O O8 0.914487 0.250000 0.500000
O O9 0.932997 0.123894 0.340836
O O10 0.000000 0.000000 0.500000
O O11 0.576922 0.821306 0.750000
O O12 0.476112 0.870517 0.877265
O O13 0.612979 0.650379 0.883496
O O14 0.622579 0.460292 0.750000
O O15 0.935253 0.628869 0.750000
O O16 0.921829 0.930059 0.750000
#
# Coordination Sequence:
#
# PCOD9434451 Si02
#       7
#     8   8   8   8   8   4   4
#     4  10  18  30  53  76 114 155 189 244 300 349
#     4  10  20  35  57  79 114 155 190 234 297 365
#     4  10  20  35  59  85 113 150 195 244 300 365
#     4   9  15  25  46  79 109 145 196 243 291 348
#     4   9  15  25  46  79 111 144 195 246 286 347
#     4  10  20  36  60  88 112 146 190 232 298 358
#     4  10  18  32  58  84 110 142 186 240 284 356
#
# _framework density 25.703588
#
# number of rings (size 3 to 8) (size 9 to 14) (size 15 to 20)
#    0.000    2.333    2.500    3.000    0.000    0.000 
#    0.000    0.000   18.333    1.000    0.000    0.000 
#    0.000    0.000    0.000    0.000    0.000    0.000 
#
# Total GULP energy -267412.633069 kJ/mol
# GULP energy per Si atom -5571.096522 kJ/mol
# Density = 2.564509 g / cm^3
# Si number density = 25.703588 Si / 1000 Ang^3
#
#
#
# Elastic Constant Matrix: (Units=GPa)
#
#
# Indices 1 2 3 4 5 6 
#
# 1 73.5038 15.0642 11.7597 0.0000 0.0000 0.0000
# 2 15.0642 94.7587 39.5127 0.0000 0.0000 0.0000
# 3 11.7597 39.5127 172.7904 0.0000 0.0000 0.0000
# 4 0.0000 0.0000 0.0000 15.5432 0.0000 0.0000
# 5 0.0000 0.0000 0.0000 0.0000 14.0272 0.0000
# 6 0.0000 0.0000 0.0000 0.0000 0.0000 30.7677
#
#
#
# Elastic Compliance Matrix: (Units=1/GPa)
#
#
# Indices 1 2 3 4 5 6 
#
# 1 0.014101 -0.002036 -0.000494 0.000000 0.000000 0.000000
# 2 -0.002036 0.011959 -0.002596 0.000000 0.000000 0.000000
# 3 -0.000494 -0.002596 0.006415 0.000000 0.000000 0.000000
# 4 0.000000 0.000000 0.000000 0.064337 0.000000 0.000000
# 5 0.000000 0.000000 0.000000 0.000000 0.071290 0.000000
# 6 0.000000 0.000000 0.000000 0.000000 0.000000 0.032502
#
#
# Mechanical properties :
#
#
# Convention : Reuss Voigt Hill
#
# Bulk Modulus (GPa) = 44.99867 52.63623 48.81745
# Shear Modulus (GPa) = 22.90809 30.38204 26.64507
#
# Velocity S-wave (km/s) = 2.98860 3.44177 3.22316
# Velocity P-wave (km/s) = 5.42713 6.02636 5.73458
#
# Compressibility (1/GPa) = 0.02222288
#
# Stress axis : x y z
#
# Youngs Moduli (GPa) = 70.91701 83.61676 155.89231
#
# Poissons Ratio (x) = 0.17021 0.07704
# Poissons Ratio (y) = 0.14436 0.40473
# Poissons Ratio (z) = 0.03505 0.21709
#
# Static dielectric constant tensor:
#      x y z
#    x 2.118010 0.000000 0.000000 
#    y 0.000000 2.192580 0.000000 
#    z 0.000000 0.000000 2.080720 
# 
# From -- ./inp_files/22523.got.cif
#   From: 2010.05.17/outbox.cif.g08.bks.cpg/sg57_12_cif.got.tgz:22523.got - 2010.06.03 13:58:18.
