data_PCOD9434217
_publ_section_title
;
Structure prediction by ZEFSAII (Michael W. Deem and Ramdas Pophale) SiO2 
 PCOD9434217
Probable space group: P B C M
;
_chemical_formula_sum "Si O2"
_cell_formula_units_Z 64
_cell_length_a 16.225624
_cell_length_b 22.443030
_cell_length_c 9.313296
_cell_angle_alpha 90.000000
_cell_angle_beta 90.000000
_cell_angle_gamma 90.000000
_cell_volume 3391.456913
_symmetry_space_group_name_H-M "P B C M"
_symmetry_group_IT_number 57
_symmetry_cell_setting 'orthorhombic'
loop_
_space_group_symop_operation_xyz
x,y,z
-x,-y,1/2+z
x,1/2-y,-z
-x,1/2+y,1/2-z
-x,-y,-z
x,y,1/2-z
-x,1/2+y,z
x,1/2-y,1/2+z
loop_
_atom_site_type_symbol
_atom_site_label
_atom_site_fract_x
_atom_site_fract_y
_atom_site_fract_z
Si Si1 0.078098 0.974675 0.084000
Si Si2 0.689418 0.192017 0.584772
Si Si3 0.452855 0.908684 0.084098
Si Si4 0.194228 0.890374 0.915221
Si Si5 0.575635 0.689891 0.918084
Si Si6 0.774143 0.809702 0.417652
Si Si7 0.221229 0.074218 0.085407
Si Si8 0.661539 0.008557 0.085840
O O1 0.058856 0.960285 0.250000
O O2 0.148787 0.025440 0.085095
O O3 0.118210 0.919441 0.999381
O O4 0.000000 0.000000 0.000000
O O5 0.660674 0.250000 0.500000
O O6 0.708295 0.206105 0.750000
O O7 0.619058 0.141574 0.584046
O O8 0.767423 0.164479 0.501973
O O9 0.463560 0.928274 0.250000
O O10 0.532010 0.871156 0.032564
O O11 0.418306 0.961362 0.985287
O O12 0.174678 0.876164 0.750000
O O13 0.267092 0.940439 0.912385
O O14 0.553404 0.696219 0.750000
O O15 0.674276 0.686240 0.928883
O O16 0.549440 0.750000 0.000000
O O17 0.799816 0.750000 0.500000
O O18 0.795503 0.807789 0.250000
O O19 0.806045 0.868422 0.496115
O O20 0.240300 0.090273 0.250000
O O21 0.299557 0.043695 0.009059
O O22 0.647575 0.989440 0.250000
#
# Coordination Sequence:
#
# PCOD9434217 Si02
#       8
#     8   8   8   8   8   8   8   8
#     4  10  20  34  55  82 107 129 155 190 236 289
#     4  10  18  27  42  65  94 130 170 207 244 288
#     4   9  17  29  44  65  96 131 168 213 260 302
#     4   9  17  30  47  68  97 129 161 198 237 280
#     4   9  18  31  47  68  95 129 170 217 265 307
#     4  10  20  35  55  77 101 131 170 213 255 300
#     4  10  20  35  55  78 104 133 165 202 245 296
#     4   9  17  29  47  71  97 128 166 206 249 296
#
# _framework density 18.870944999999999
#
# number of rings (size 3 to 8) (size 9 to 14) (size 15 to 20)
#    0.000    2.500    0.000    2.625    0.000    6.000 
#    0.000    0.625    0.000    0.750    0.000    1.750 
#    0.000    0.000    0.000    0.000    0.000    0.000 
#
# Total GULP energy -357250.419595 kJ/mol
# GULP energy per Si atom -5582.037806 kJ/mol
# Density = 1.882799 g / cm^3
# Si number density = 18.870945 Si / 1000 Ang^3
#
#
#
# Elastic Constant Matrix: (Units=GPa)
#
#
# Indices 1 2 3 4 5 6 
#
# 1 40.9908 -4.7250 19.8490 0.0000 0.0000 0.0000
# 2 -4.7250 38.7338 29.9064 0.0000 0.0000 0.0000
# 3 19.8490 29.9064 139.1941 0.0000 0.0000 0.0000
# 4 0.0000 0.0000 0.0000 31.3343 0.0000 0.0000
# 5 0.0000 0.0000 0.0000 0.0000 18.6006 0.0000
# 6 0.0000 0.0000 0.0000 0.0000 0.0000 21.6802
#
#
#
# Elastic Compliance Matrix: (Units=1/GPa)
#
#
# Indices 1 2 3 4 5 6 
#
# 1 0.028043 0.007803 -0.005675 0.000000 0.000000 0.000000
# 2 0.007803 0.033123 -0.008229 0.000000 0.000000 0.000000
# 3 -0.005675 -0.008229 0.009762 0.000000 0.000000 0.000000
# 4 0.000000 0.000000 0.000000 0.031914 0.000000 0.000000
# 5 0.000000 0.000000 0.000000 0.000000 0.053762 0.000000
# 6 0.000000 0.000000 0.000000 0.000000 0.000000 0.046125
#
#
# Mechanical properties :
#
#
# Convention : Reuss Voigt Hill
#
# Bulk Modulus (GPa) = 17.02869 34.33105 25.67987
# Shear Modulus (GPa) = 21.32130 25.91556 23.61843
#
# Velocity S-wave (km/s) = 3.36497 3.70983 3.54160
# Velocity P-wave (km/s) = 4.91332 6.04835 5.51014
#
# Compressibility (1/GPa) = 0.05872443
#
# Stress axis : x y z
#
# Youngs Moduli (GPa) = 35.65903 30.19048 102.44182
#
# Poissons Ratio (x) = -0.23558 0.58141
# Poissons Ratio (y) = -0.27825 0.84303
# Poissons Ratio (z) = 0.20238 0.24845
#
# Static dielectric constant tensor:
#      x y z
#    x 1.654120 0.000000 0.000000 
#    y 0.000000 1.659540 0.000000 
#    z 0.000000 0.000000 1.641200 
# 
# From -- ./inp_files/5646.got.cif
#   From: 2010.05.17/outbox.cif.g08.bks.cpg/sg57_3_cif.got.tgz:5646.got - 2010.06.03 13:58:18.
