data_PCOD9434656
_publ_section_title
;
Structure prediction by ZEFSAII (Michael W. Deem and Ramdas Pophale) SiO2 
 PCOD9434656
Probable space group: P B C M
;
_chemical_formula_sum "Si O2"
_cell_formula_units_Z 64
_cell_length_a 12.025478
_cell_length_b 20.798981
_cell_length_c 13.872890
_cell_angle_alpha 90.000000
_cell_angle_beta 90.000000
_cell_angle_gamma 90.000000
_cell_volume 3469.855179
_symmetry_space_group_name_H-M "P B C M"
_symmetry_group_IT_number 57
_symmetry_cell_setting 'orthorhombic'
loop_
_space_group_symop_operation_xyz
x,y,z
-x,-y,1/2+z
x,1/2-y,-z
-x,1/2+y,1/2-z
-x,-y,-z
x,y,1/2-z
-x,1/2+y,z
x,1/2-y,1/2+z
loop_
_atom_site_type_symbol
_atom_site_label
_atom_site_fract_x
_atom_site_fract_y
_atom_site_fract_z
Si Si1 0.833848 0.353043 0.037937
Si Si2 0.079804 0.172676 0.514594
Si Si3 0.745043 0.270834 0.861945
Si Si4 0.760685 0.638045 0.141369
Si Si5 0.624335 0.426602 0.037560
Si Si6 0.531650 0.201639 0.866668
Si Si7 0.717036 0.709523 0.640856
Si Si8 0.458222 0.056908 0.365649
O O1 0.796437 0.299817 0.117119
O O2 0.757234 0.416146 0.039483
O O3 0.965489 0.359281 0.046801
O O4 0.803257 0.318935 0.935735
O O5 0.055266 0.250000 0.500000
O O6 0.130072 0.134304 0.423884
O O7 0.184701 0.174328 0.585981
O O8 0.756906 0.287877 0.750000
O O9 0.614184 0.261268 0.887293
O O10 0.781992 0.615413 0.250000
O O11 0.741303 0.714688 0.142305
O O12 0.645364 0.604466 0.110400
O O13 0.580708 0.362267 0.088096
O O14 0.584515 0.487097 0.099946
O O15 0.566460 0.429887 0.932058
O O16 0.531153 0.197732 0.750000
O O17 0.405734 0.205076 0.901773
O O18 0.713641 0.685455 0.750000
O O19 0.478889 0.060415 0.250000
#
# Coordination Sequence:
#
# PCOD9434656 Si02
#       8
#     8   8   8   8   8   8   8   8
#     4  10  20  34  48  78 108 140 179 205 254 324
#     4  10  18  33  49  73 109 141 171 209 255 305
#     4   9  18  31  49  74 108 142 166 204 255 313
#     4   9  19  33  51  73  99 136 179 219 257 301
#     4  10  21  35  55  78 105 139 172 218 272 317
#     4   9  17  31  52  80 109 135 167 209 264 320
#     4   9  18  30  49  78 106 135 172 212 258 310
#     4  10  21  38  56  76 101 134 181 226 268 316
#
# _framework density 18.444572999999998
#
# number of rings (size 3 to 8) (size 9 to 14) (size 15 to 20)
#    0.000    2.500    1.250    1.125    1.750    2.000 
#    4.500    0.625    0.000    0.000    0.000    3.500 
#    0.000    0.000    0.000    0.000    0.000    0.000 
#
# Total GULP energy -356593.240357 kJ/mol
# GULP energy per Si atom -5571.769381 kJ/mol
# Density = 1.840259 g / cm^3
# Si number density = 18.444573 Si / 1000 Ang^3
#
#
#
# Elastic Constant Matrix: (Units=GPa)
#
#
# Indices 1 2 3 4 5 6 
#
# 1 115.3636 -5.9137 11.3881 0.0000 0.0000 0.0000
# 2 -5.9137 14.7777 1.0760 0.0000 0.0000 0.0000
# 3 11.3881 1.0760 50.1300 0.0000 0.0000 0.0000
# 4 0.0000 0.0000 0.0000 14.2603 0.0000 0.0000
# 5 0.0000 0.0000 0.0000 0.0000 10.6690 0.0000
# 6 0.0000 0.0000 0.0000 0.0000 0.0000 20.0026
#
#
#
# Elastic Compliance Matrix: (Units=1/GPa)
#
#
# Indices 1 2 3 4 5 6 
#
# 1 0.009074 0.003787 -0.002143 0.000000 0.000000 0.000000
# 2 0.003787 0.069356 -0.002349 0.000000 0.000000 0.000000
# 3 -0.002143 -0.002349 0.020485 0.000000 0.000000 0.000000
# 4 0.000000 0.000000 0.000000 0.070125 0.000000 0.000000
# 5 0.000000 0.000000 0.000000 0.000000 0.093730 0.000000
# 6 0.000000 0.000000 0.000000 0.000000 0.000000 0.049994
#
#
# Mechanical properties :
#
#
# Convention : Reuss Voigt Hill
#
# Bulk Modulus (GPa) = 10.25572 21.48579 15.87076
# Shear Modulus (GPa) = 14.42275 20.56776 17.49525
#
# Velocity S-wave (km/s) = 2.79937 3.34295 3.08316
# Velocity P-wave (km/s) = 4.00263 5.15505 4.61495
#
# Compressibility (1/GPa) = 0.09750656
#
# Stress axis : x y z
#
# Youngs Moduli (GPa) = 110.20633 14.41831 48.81546
#
# Poissons Ratio (x) = -0.05460 0.10459
# Poissons Ratio (y) = -0.41737 0.11467
# Poissons Ratio (z) = 0.23613 0.03387
#
# Static dielectric constant tensor:
#      x y z
#    x 1.678080 0.000000 0.000000 
#    y 0.000000 1.619180 0.000000 
#    z 0.000000 0.000000 1.703840 
# 
# From -- ./inp_files/17953.got.cif
#   From: 2010.05.17/outbox.cif.g08.bks.cpg/sg57_9_cif.got.tgz:17953.got - 2010.06.03 13:58:18.
