data_PCOD9434572
_publ_section_title
;
Structure prediction by ZEFSAII (Michael W. Deem and Ramdas Pophale) SiO2 
 PCOD9434572
Probable space group: P B C M
;
_chemical_formula_sum "Si O2"
_cell_formula_units_Z 64
_cell_length_a 15.365396
_cell_length_b 30.554059
_cell_length_c 8.592876
_cell_angle_alpha 90.000000
_cell_angle_beta 90.000000
_cell_angle_gamma 90.000000
_cell_volume 4034.142316
_symmetry_space_group_name_H-M "P B C M"
_symmetry_group_IT_number 57
_symmetry_cell_setting 'orthorhombic'
loop_
_space_group_symop_operation_xyz
x,y,z
-x,-y,1/2+z
x,1/2-y,-z
-x,1/2+y,1/2-z
-x,-y,-z
x,y,1/2-z
-x,1/2+y,z
x,1/2-y,1/2+z
loop_
_atom_site_type_symbol
_atom_site_label
_atom_site_fract_x
_atom_site_fract_y
_atom_site_fract_z
Si Si1 0.135414 0.944176 0.562309
Si Si2 0.705477 0.381216 0.935486
Si Si3 0.621446 0.532349 0.437459
Si Si4 0.820498 0.961258 0.561869
Si Si5 0.209295 0.795961 0.065455
Si Si6 0.013649 0.796922 0.563477
Si Si7 0.038095 0.391730 0.560326
Si Si8 0.446874 0.935300 0.064559
O O1 0.133751 0.947036 0.750000
O O2 0.221828 0.917249 0.516769
O O3 0.050317 0.916894 0.512454
O O4 0.139862 0.992829 0.494990
O O5 0.711761 0.375908 0.750000
O O6 0.731009 0.336215 0.016948
O O7 0.611531 0.398822 0.983640
O O8 0.617114 0.535943 0.250000
O O9 0.719881 0.541660 0.488895
O O10 0.595804 0.482374 0.478738
O O11 0.546624 0.562329 0.510609
O O12 0.820758 0.961946 0.750000
O O13 0.879964 0.920724 0.509585
O O14 0.199293 0.793321 0.250000
O O15 0.243470 0.750000 0.000000
O O16 0.113766 0.802339 0.990288
O O17 0.982453 0.750000 0.500000
O O18 0.012072 0.795184 0.750000
O O19 0.964604 0.841048 0.510560
O O20 0.037790 0.391304 0.750000
O O21 0.441798 0.930763 0.250000
#
# Coordination Sequence:
#
# PCOD9434572 Si02
#       8
#     8   8   8   8   8   8   8   8
#     4  10  19  31  45  66  98 133 164 194 235 283
#     4  11  20  32  50  71  99 132 163 197 240 291
#     4   9  18  31  46  68  94 123 161 204 244 287
#     4  10  19  32  49  68  94 128 167 206 241 284
#     4  11  21  33  50  72  98 128 163 201 243 288
#     4  10  18  32  49  69  95 125 161 200 245 287
#     4   9  18  32  48  67  95 130 163 198 242 288
#     4  10  19  31  48  70  94 124 160 201 244 288
#
# _framework density 15.864585999999999
#
# number of rings (size 3 to 8) (size 9 to 14) (size 15 to 20)
#    0.000    2.000    2.500    3.375    0.000    1.500 
#    0.000    1.250    0.000    0.000    0.000    0.875 
#    0.000    4.000    0.000    0.000    0.000    0.000 
#
# Total GULP energy -357089.128587 kJ/mol
# GULP energy per Si atom -5579.517634 kJ/mol
# Density = 1.582848 g / cm^3
# Si number density = 15.864586 Si / 1000 Ang^3
#
#
#
# Elastic Constant Matrix: (Units=GPa)
#
#
# Indices 1 2 3 4 5 6 
#
# 1 85.6377 58.9080 15.7119 0.0000 0.0000 0.0000
# 2 58.9080 132.5655 29.8795 0.0000 0.0000 0.0000
# 3 15.7119 29.8795 31.8132 0.0000 0.0000 0.0000
# 4 0.0000 0.0000 0.0000 24.6268 0.0000 0.0000
# 5 0.0000 0.0000 0.0000 0.0000 15.2409 0.0000
# 6 0.0000 0.0000 0.0000 0.0000 0.0000 18.4217
#
#
#
# Elastic Compliance Matrix: (Units=1/GPa)
#
#
# Indices 1 2 3 4 5 6 
#
# 1 0.016885 -0.007134 -0.001639 0.000000 0.000000 0.000000
# 2 -0.007134 0.012583 -0.008295 0.000000 0.000000 0.000000
# 3 -0.001639 -0.008295 0.040034 0.000000 0.000000 0.000000
# 4 0.000000 0.000000 0.000000 0.040606 0.000000 0.000000
# 5 0.000000 0.000000 0.000000 0.000000 0.065613 0.000000
# 6 0.000000 0.000000 0.000000 0.000000 0.000000 0.054284
#
#
# Mechanical properties :
#
#
# Convention : Reuss Voigt Hill
#
# Bulk Modulus (GPa) = 28.27551 51.00166 39.63859
# Shear Modulus (GPa) = 18.12060 21.35902 19.73981
#
# Velocity S-wave (km/s) = 3.38332 3.67322 3.53125
# Velocity P-wave (km/s) = 5.75536 7.08576 6.45493
#
# Compressibility (1/GPa) = 0.03536629
#
# Stress axis : x y z
#
# Youngs Moduli (GPa) = 59.22450 79.47175 24.97884
#
# Poissons Ratio (x) = 0.56693 0.04094
# Poissons Ratio (y) = 0.42249 0.20720
# Poissons Ratio (z) = 0.09707 0.65922
#
# Static dielectric constant tensor:
#      x y z
#    x 1.518910 0.000000 0.000000 
#    y 0.000000 1.535060 0.000000 
#    z 0.000000 0.000000 1.532920 
# 
# From -- ./inp_files/6081.got.cif
#   From: 2010.05.17/outbox.cif.g08.bks.cpg/sg57_4_cif.got.tgz:6081.got - 2010.06.03 13:58:18.
