data_PCOD9434424
_publ_section_title
;
Structure prediction by ZEFSAII (Michael W. Deem and Ramdas Pophale) SiO2 
 PCOD9434424
Probable space group: P B C M
;
_chemical_formula_sum "Si O2"
_cell_formula_units_Z 40
_cell_length_a 11.796339
_cell_length_b 22.117492
_cell_length_c 8.685815
_cell_angle_alpha 90.000000
_cell_angle_beta 90.000000
_cell_angle_gamma 90.000000
_cell_volume 2266.176328
_symmetry_space_group_name_H-M "P B C M"
_symmetry_group_IT_number 57
_symmetry_cell_setting 'orthorhombic'
loop_
_space_group_symop_operation_xyz
x,y,z
-x,-y,1/2+z
x,1/2-y,-z
-x,1/2+y,1/2-z
-x,-y,-z
x,y,1/2-z
-x,1/2+y,z
x,1/2-y,1/2+z
loop_
_atom_site_type_symbol
_atom_site_label
_atom_site_fract_x
_atom_site_fract_y
_atom_site_fract_z
Si Si1 0.833201 0.012629 0.430488
Si Si2 0.576028 0.445473 0.566937
Si Si3 0.878979 0.187226 0.072376
Si Si4 0.019054 0.406415 0.424055
Si Si5 0.367306 0.681912 0.933845
O O1 0.860531 0.028444 0.250000
O O2 0.705495 0.032174 0.457661
O O3 0.917968 0.045390 0.547567
O O4 0.863882 0.941985 0.445110
O O5 0.500000 0.500000 0.500000
O O6 0.557005 0.440562 0.750000
O O7 0.565821 0.377652 0.495247
O O8 0.848485 0.192056 0.250000
O O9 0.912907 0.250000 0.000000
O O10 0.983873 0.143425 0.045235
O O11 0.763425 0.169292 0.984314
O O12 0.012691 0.382825 0.250000
O O13 0.375615 0.684687 0.750000
O O14 0.394156 0.750000 0.000000
#
# Coordination Sequence:
#
# PCOD9434424 Si02
#       5
#     8   8   8   8   8
#     4   9  19  33  50  73 104 138 173 213 259 311
#     4  11  22  37  56  81 112 146 185 231 276 325
#     4  11  20  31  48  74 106 140 174 216 265 320
#     4  10  18  30  50  75 103 136 171 210 258 314
#     4  11  21  35  55  80 108 142 179 225 277 330
#
# _framework density 17.650877999999999
#
# number of rings (size 3 to 8) (size 9 to 14) (size 15 to 20)
#    0.000    1.600    2.000    6.000    0.000    1.600 
#    0.000    0.000    0.000    1.200    0.000    5.600 
#    0.000    0.000    0.000    0.000    0.000    0.000 
#
# Total GULP energy -222804.015299 kJ/mol
# GULP energy per Si atom -5570.100382 kJ/mol
# Density = 1.761070 g / cm^3
# Si number density = 17.650878 Si / 1000 Ang^3
#
#
#
# Elastic Constant Matrix: (Units=GPa)
#
#
# Indices 1 2 3 4 5 6 
#
# 1 34.4917 41.9446 26.2903 0.0000 0.0000 0.0000
# 2 41.9446 131.0620 55.8786 0.0000 0.0000 0.0000
# 3 26.2903 55.8786 110.6030 0.0000 0.0000 0.0000
# 4 0.0000 0.0000 0.0000 32.3914 0.0000 0.0000
# 5 0.0000 0.0000 0.0000 0.0000 18.6599 0.0000
# 6 0.0000 0.0000 0.0000 0.0000 0.0000 32.1437
#
#
#
# Elastic Compliance Matrix: (Units=1/GPa)
#
#
# Indices 1 2 3 4 5 6 
#
# 1 0.049374 -0.013762 -0.004783 0.000000 0.000000 0.000000
# 2 -0.013762 0.013561 -0.003580 0.000000 0.000000 0.000000
# 3 -0.004783 -0.003580 0.011987 0.000000 0.000000 0.000000
# 4 0.000000 0.000000 0.000000 0.030872 0.000000 0.000000
# 5 0.000000 0.000000 0.000000 0.000000 0.053591 0.000000
# 6 0.000000 0.000000 0.000000 0.000000 0.000000 0.031110
#
#
# Mechanical properties :
#
#
# Convention : Reuss Voigt Hill
#
# Bulk Modulus (GPa) = 32.60382 58.26487 45.43434
# Shear Modulus (GPa) = 20.41064 26.77521 23.59293
#
# Velocity S-wave (km/s) = 3.40421 3.89901 3.65998
# Velocity P-wave (km/s) = 5.82779 7.30417 6.60735
#
# Compressibility (1/GPa) = 0.03067125
#
# Stress axis : x y z
#
# Youngs Moduli (GPa) = 20.25338 73.74274 83.42416
#
# Poissons Ratio (x) = 1.01487 0.39905
# Poissons Ratio (y) = 0.27873 0.29864
# Poissons Ratio (z) = 0.09688 0.26399
#
# Static dielectric constant tensor:
#      x y z
#    x 1.573870 0.000000 0.000000 
#    y 0.000000 1.683840 0.000000 
#    z 0.000000 0.000000 1.611230 
# 
# From -- ./inp_files/2909.got.cif
#   From: 2010.05.17/outbox.cif.g08.bks.cpg/sg57_2_cif.got.tgz:2909.got - 2010.06.03 13:58:18.
