data_PCOD9434683
_publ_section_title
;
Structure prediction by ZEFSAII (Michael W. Deem and Ramdas Pophale) SiO2 
 PCOD9434683
Probable space group: P B C M
;
_chemical_formula_sum "Si O2"
_cell_formula_units_Z 64
_cell_length_a 11.643855
_cell_length_b 12.054355
_cell_length_c 21.345009
_cell_angle_alpha 90.000000
_cell_angle_beta 90.000000
_cell_angle_gamma 90.000000
_cell_volume 2995.967571
_symmetry_space_group_name_H-M "P B C M"
_symmetry_group_IT_number 57
_symmetry_cell_setting 'orthorhombic'
loop_
_space_group_symop_operation_xyz
x,y,z
-x,-y,1/2+z
x,1/2-y,-z
-x,1/2+y,1/2-z
-x,-y,-z
x,y,1/2-z
-x,1/2+y,z
x,1/2-y,1/2+z
loop_
_atom_site_type_symbol
_atom_site_label
_atom_site_fract_x
_atom_site_fract_y
_atom_site_fract_z
Si Si1 0.638501 0.898190 0.518590
Si Si2 0.275327 0.157048 0.822139
Si Si3 0.068226 0.518816 0.820803
Si Si4 0.809933 0.422552 0.820780
Si Si5 0.322077 0.849971 0.044861
Si Si6 0.857747 0.675274 0.410953
Si Si7 0.529861 0.775725 0.398771
Si Si8 0.897896 0.230388 0.901815
O O1 0.767548 0.855645 0.534902
O O2 0.591861 0.850789 0.453198
O O3 0.558090 0.846595 0.573781
O O4 0.643750 0.030037 0.520548
O O5 0.239100 0.170617 0.750000
O O6 0.194640 0.226322 0.868674
O O7 0.401037 0.204458 0.835627
O O8 0.270968 0.026014 0.836441
O O9 0.113634 0.514608 0.750000
O O10 0.132548 0.433498 0.866747
O O11 0.069866 0.642747 0.847708
O O12 0.937394 0.476129 0.819453
O O13 0.784999 0.382134 0.750000
O O14 0.819623 0.326888 0.871768
O O15 0.400247 0.819281 0.104736
O O16 0.185963 0.838381 0.053226
O O17 0.358004 0.750000 0.000000
O O18 0.986309 0.714340 0.428294
#
# Coordination Sequence:
#
# PCOD9434683 Si02
#       8
#     8   8   8   8   8   8   8   8
#     4  10  21  43  67  91 118 164 212 253 312 369
#     4  10  20  37  63  91 120 161 210 257 305 369
#     4  10  18  33  56  85 124 166 203 250 307 380
#     4   9  19  33  55  85 121 164 203 244 308 374
#     4  12  25  42  63  92 123 165 210 257 310 370
#     4  10  20  38  60  92 129 158 206 256 316 370
#     4  10  23  41  69  89 118 163 211 260 304 366
#     4  11  22  36  56  92 126 163 203 259 315 377
#
# _framework density 21.362045999999999
#
# number of rings (size 3 to 8) (size 9 to 14) (size 15 to 20)
#    0.000    1.750    3.750    1.125    1.750    1.000 
#    4.500    1.875    0.000    1.500    0.000    0.000 
#    0.000    0.000    0.000    0.000    0.000    0.000 
#
# Total GULP energy -357264.296450 kJ/mol
# GULP energy per Si atom -5582.254632 kJ/mol
# Density = 2.131342 g / cm^3
# Si number density = 21.362046 Si / 1000 Ang^3
#
#
#
# Elastic Constant Matrix: (Units=GPa)
#
#
# Indices 1 2 3 4 5 6 
#
# 1 84.6707 8.4274 5.4612 0.0000 0.0000 0.0000
# 2 8.4274 122.9453 20.6411 0.0000 0.0000 0.0000
# 3 5.4612 20.6411 37.2517 0.0000 0.0000 0.0000
# 4 0.0000 0.0000 0.0000 19.7000 0.0000 0.0000
# 5 0.0000 0.0000 0.0000 0.0000 16.1953 0.0000
# 6 0.0000 0.0000 0.0000 0.0000 0.0000 20.0197
#
#
#
# Elastic Compliance Matrix: (Units=1/GPa)
#
#
# Indices 1 2 3 4 5 6 
#
# 1 0.011961 -0.000579 -0.001432 0.000000 0.000000 0.000000
# 2 -0.000579 0.008996 -0.004900 0.000000 0.000000 0.000000
# 3 -0.001432 -0.004900 0.029769 0.000000 0.000000 0.000000
# 4 0.000000 0.000000 0.000000 0.050761 0.000000 0.000000
# 5 0.000000 0.000000 0.000000 0.000000 0.061746 0.000000
# 6 0.000000 0.000000 0.000000 0.000000 0.000000 0.049951
#
#
# Mechanical properties :
#
#
# Convention : Reuss Voigt Hill
#
# Bulk Modulus (GPa) = 27.09818 34.88077 30.98947
# Shear Modulus (GPa) = 20.89355 25.20555 23.04955
#
# Velocity S-wave (km/s) = 3.13080 3.43873 3.28837
# Velocity P-wave (km/s) = 5.07759 5.66836 5.38109
#
# Compressibility (1/GPa) = 0.03690285
#
# Stress axis : x y z
#
# Youngs Moduli (GPa) = 83.60844 111.16025 33.59161
#
# Poissons Ratio (x) = 0.06440 0.04812
# Poissons Ratio (y) = 0.04844 0.16459
# Poissons Ratio (z) = 0.11976 0.54466
#
# Static dielectric constant tensor:
#      x y z
#    x 1.819590 0.000000 0.000000 
#    y 0.000000 1.776650 0.000000 
#    z 0.000000 0.000000 1.793780 
# 
# From -- ./inp_files/27311.got.cif
#   From: 2010.05.17/outbox.cif.g08.bks.cpg/sg57_14_cif.got.tgz:27311.got - 2010.06.03 13:58:18.
