data_PCOD9434243
_publ_section_title
;
Structure prediction by ZEFSAII (Michael W. Deem and Ramdas Pophale) SiO2 
 PCOD9434243
Probable space group: P B C M
;
_chemical_formula_sum "Si O2"
_cell_formula_units_Z 64
_cell_length_a 18.973060
_cell_length_b 27.363211
_cell_length_c 8.683934
_cell_angle_alpha 90.000000
_cell_angle_beta 90.000000
_cell_angle_gamma 90.000000
_cell_volume 4508.384557
_symmetry_space_group_name_H-M "P B C M"
_symmetry_group_IT_number 57
_symmetry_cell_setting 'orthorhombic'
loop_
_space_group_symop_operation_xyz
x,y,z
-x,-y,1/2+z
x,1/2-y,-z
-x,1/2+y,1/2-z
-x,-y,-z
x,y,1/2-z
-x,1/2+y,z
x,1/2-y,1/2+z
loop_
_atom_site_type_symbol
_atom_site_label
_atom_site_fract_x
_atom_site_fract_y
_atom_site_fract_z
Si Si1 0.543354 0.546088 0.434735
Si Si2 0.829595 0.302704 0.064013
Si Si3 0.827904 0.003790 0.565196
Si Si4 0.911622 0.102066 0.563026
Si Si5 0.956382 0.953842 0.435111
Si Si6 0.333991 0.697233 0.565980
Si Si7 0.671376 0.004433 0.065451
Si Si8 0.411482 0.896198 0.564781
O O1 0.500000 0.500000 0.500000
O O2 0.546666 0.543173 0.250000
O O3 0.620647 0.538623 0.503687
O O4 0.492813 0.591531 0.476113
O O5 0.831958 0.301247 0.250000
O O6 0.877836 0.347441 0.008829
O O7 0.747854 0.311326 0.018773
O O8 0.850979 0.250000 0.000000
O O9 0.826993 0.002845 0.750000
O O10 0.863753 0.055517 0.515882
O O11 0.749547 0.000810 0.500380
O O12 0.878988 0.960881 0.504027
O O13 0.909438 0.102554 0.750000
O O14 0.992886 0.091337 0.520484
O O15 0.952957 0.956387 0.250000
O O16 0.000000 0.000000 0.500000
O O17 0.355188 0.750000 0.500000
O O18 0.336182 0.699074 0.750000
O O19 0.381091 0.652784 0.507111
O O20 0.672197 0.003085 0.250000
O O21 0.635926 0.056559 0.018605
O O22 0.407456 0.892868 0.750000
#
# Coordination Sequence:
#
# PCOD9434243 Si02
#       8
#     8   8   8   8   8   8   8   8
#     4   9  17  29  43  60  83 110 138 172 208 246
#     4   9  17  29  41  57  79 105 137 171 204 238
#     4  10  18  28  42  60  82 110 141 173 206 245
#     4   8  15  27  42  57  78 108 139 167 202 246
#     4   9  16  27  41  58  80 107 136 169 206 245
#     4  10  19  29  43  60  82 111 142 176 211 245
#     4  10  19  29  42  62  86 112 141 174 207 247
#     4   9  18  30  43  60  83 109 140 174 208 244
#
# _framework density 14.195772
#
# number of rings (size 3 to 8) (size 9 to 14) (size 15 to 20)
#    0.000    2.750    0.000    4.125    0.000    4.500 
#    0.000    3.750    0.000    0.000    0.000    0.000 
#    0.000    1.000    0.000    9.250    0.000    3.875 
#
# Total GULP energy -356361.821588 kJ/mol
# GULP energy per Si atom -5568.153462 kJ/mol
# Density = 1.416346 g / cm^3
# Si number density = 14.195772 Si / 1000 Ang^3
#
#
#
# Elastic Constant Matrix: (Units=GPa)
#
#
# Indices 1 2 3 4 5 6 
#
# 1 123.2115 66.0171 35.4035 0.0000 0.0000 0.0000
# 2 66.0171 96.5087 27.6373 0.0000 0.0000 0.0000
# 3 35.4035 27.6373 36.0699 0.0000 0.0000 0.0000
# 4 0.0000 0.0000 0.0000 19.8044 0.0000 0.0000
# 5 0.0000 0.0000 0.0000 0.0000 22.9501 0.0000
# 6 0.0000 0.0000 0.0000 0.0000 0.0000 26.6003
#
#
#
# Elastic Compliance Matrix: (Units=1/GPa)
#
#
# Indices 1 2 3 4 5 6 
#
# 1 0.014623 -0.007549 -0.008569 0.000000 0.000000 0.000000
# 2 -0.007549 0.017172 -0.005748 0.000000 0.000000 0.000000
# 3 -0.008569 -0.005748 0.040538 0.000000 0.000000 0.000000
# 4 0.000000 0.000000 0.000000 0.050494 0.000000 0.000000
# 5 0.000000 0.000000 0.000000 0.000000 0.043573 0.000000
# 6 0.000000 0.000000 0.000000 0.000000 0.000000 0.037594
#
#
# Mechanical properties :
#
#
# Convention : Reuss Voigt Hill
#
# Bulk Modulus (GPa) = 34.96224 57.10066 46.03145
# Shear Modulus (GPa) = 19.43574 22.31977 20.87775
#
# Velocity S-wave (km/s) = 3.70418 3.96950 3.83913
# Velocity P-wave (km/s) = 6.55566 7.83073 7.22139
#
# Compressibility (1/GPa) = 0.02860228
#
# Stress axis : x y z
#
# Youngs Moduli (GPa) = 68.38488 58.23525 24.66809
#
# Poissons Ratio (x) = 0.43963 0.21137
# Poissons Ratio (y) = 0.51625 0.14178
# Poissons Ratio (z) = 0.58597 0.33471
#
# Static dielectric constant tensor:
#      x y z
#    x 1.476370 0.000000 0.000000 
#    y 0.000000 1.455130 0.000000 
#    z 0.000000 0.000000 1.476790 
# 
# From -- ./inp_files/7447.got.cif
#   From: 2010.05.17/outbox.cif.g08.bks.cpg/sg57_4_cif.got.tgz:7447.got - 2010.06.03 13:58:18.
