data_PCOD9434721
_publ_section_title
;
Structure prediction by ZEFSAII (Michael W. Deem and Ramdas Pophale) SiO2 
 PCOD9434721
Probable space group: P B C M
;
_chemical_formula_sum "Si O2"
_cell_formula_units_Z 64
_cell_length_a 11.498877
_cell_length_b 17.735171
_cell_length_c 14.983085
_cell_angle_alpha 90.000000
_cell_angle_beta 90.000000
_cell_angle_gamma 90.000000
_cell_volume 3055.568696
_symmetry_space_group_name_H-M "P B C M"
_symmetry_group_IT_number 57
_symmetry_cell_setting 'orthorhombic'
loop_
_space_group_symop_operation_xyz
x,y,z
-x,-y,1/2+z
x,1/2-y,-z
-x,1/2+y,1/2-z
-x,-y,-z
x,y,1/2-z
-x,1/2+y,z
x,1/2-y,1/2+z
loop_
_atom_site_type_symbol
_atom_site_label
_atom_site_fract_x
_atom_site_fract_y
_atom_site_fract_z
Si Si1 0.881978 0.369708 0.995521
Si Si2 0.145840 0.158331 0.501876
Si Si3 0.794549 0.244605 0.855979
Si Si4 0.677573 0.659310 0.153144
Si Si5 0.670934 0.455380 0.996778
Si Si6 0.559502 0.190177 0.931599
Si Si7 0.672253 0.658889 0.651151
Si Si8 0.485755 0.030217 0.354189
O O1 0.839430 0.317521 0.911549
O O2 0.808815 0.447060 0.993390
O O3 0.853273 0.323955 0.087673
O O4 0.019949 0.377242 0.992951
O O5 0.129583 0.250000 0.500000
O O6 0.231679 0.137902 0.421845
O O7 0.221324 0.137541 0.588442
O O8 0.820681 0.246692 0.750000
O O9 0.655578 0.230414 0.869574
O O10 0.722279 0.634920 0.250000
O O11 0.669278 0.749391 0.153056
O O12 0.553815 0.618288 0.143029
O O13 0.605613 0.482201 0.907594
O O14 0.631335 0.368889 0.010224
O O15 0.615384 0.494591 0.083630
O O16 0.457355 0.144251 0.884334
O O17 0.505406 0.250000 0.000000
O O18 0.687971 0.629561 0.750000
O O19 0.487118 0.007715 0.250000
#
# Coordination Sequence:
#
# PCOD9434721 Si02
#       8
#     8   8   8   8   8   8   8   8
#     4  10  20  36  49  79 111 147 182 214 272 337
#     4  10  18  34  53  74 112 146 178 225 270 326
#     4  10  19  31  50  77 113 146 172 211 262 329
#     4   9  19  34  53  76 100 139 189 231 271 315
#     4  10  21  36  56  80 109 145 180 224 280 335
#     4  11  18  34  54  81 116 140 170 220 280 344
#     4  10  20  30  50  82 109 141 179 221 274 327
#     4  10  21  38  57  78 105 140 189 237 277 322
#
# _framework density 20.945364999999999
#
# number of rings (size 3 to 8) (size 9 to 14) (size 15 to 20)
#    0.000    2.000    3.750    3.000    0.000    4.000 
#    0.000    0.625    0.000    0.000    0.000    0.000 
#    0.000    0.000    0.000    0.000    0.000    0.000 
#
# Total GULP energy -357114.919436 kJ/mol
# GULP energy per Si atom -5579.920616 kJ/mol
# Density = 2.089769 g / cm^3
# Si number density = 20.945365 Si / 1000 Ang^3
#
#
#
# Elastic Constant Matrix: (Units=GPa)
#
#
# Indices 1 2 3 4 5 6 
#
# 1 132.9284 9.7590 49.1799 0.0000 0.0000 0.0000
# 2 9.7590 35.1705 16.8155 0.0000 0.0000 0.0000
# 3 49.1799 16.8155 164.5059 0.0000 0.0000 0.0000
# 4 0.0000 0.0000 0.0000 12.6788 0.0000 0.0000
# 5 0.0000 0.0000 0.0000 0.0000 4.6859 0.0000
# 6 0.0000 0.0000 0.0000 0.0000 0.0000 29.6080
#
#
#
# Elastic Compliance Matrix: (Units=1/GPa)
#
#
# Indices 1 2 3 4 5 6 
#
# 1 0.008507 -0.001203 -0.002420 0.000000 0.000000 0.000000
# 2 -0.001203 0.030064 -0.002713 0.000000 0.000000 0.000000
# 3 -0.002420 -0.002713 0.007080 0.000000 0.000000 0.000000
# 4 0.000000 0.000000 0.000000 0.078872 0.000000 0.000000
# 5 0.000000 0.000000 0.000000 0.000000 0.213405 0.000000
# 6 0.000000 0.000000 0.000000 0.000000 0.000000 0.033775
#
#
# Mechanical properties :
#
#
# Convention : Reuss Voigt Hill
#
# Bulk Modulus (GPa) = 30.32435 53.79041 42.05738
# Shear Modulus (GPa) = 12.64646 26.51791 19.58219
#
# Velocity S-wave (km/s) = 2.45987 3.56202 3.06096
# Velocity P-wave (km/s) = 4.75155 6.53103 5.71102
#
# Compressibility (1/GPa) = 0.03297680
#
# Stress axis : x y z
#
# Youngs Moduli (GPa) = 117.55650 33.26230 141.24983
#
# Poissons Ratio (x) = 0.04002 0.34184
# Poissons Ratio (y) = 0.14146 0.38326
# Poissons Ratio (z) = 0.28450 0.09025
#
# Static dielectric constant tensor:
#      x y z
#    x 1.757410 0.000000 0.000000 
#    y 0.000000 1.831100 0.000000 
#    z 0.000000 0.000000 1.753520 
# 
# From -- ./inp_files/17954.got.cif
#   From: 2010.05.17/outbox.cif.g08.bks.cpg/sg57_9_cif.got.tgz:17954.got - 2010.06.03 13:58:18.
