data_PCOD9434088
_publ_section_title
;
Structure prediction by ZEFSAII (Michael W. Deem and Ramdas Pophale) SiO2 
 PCOD9434088
Probable space group: P B C M
;
_chemical_formula_sum "Si O2"
_cell_formula_units_Z 52
_cell_length_a 8.569474
_cell_length_b 21.548273
_cell_length_c 14.487889
_cell_angle_alpha 90.000000
_cell_angle_beta 90.000000
_cell_angle_gamma 90.000000
_cell_volume 2675.295410
_symmetry_space_group_name_H-M "P B C M"
_symmetry_group_IT_number 57
_symmetry_cell_setting 'orthorhombic'
loop_
_space_group_symop_operation_xyz
x,y,z
-x,-y,1/2+z
x,1/2-y,-z
-x,1/2+y,1/2-z
-x,-y,-z
x,y,1/2-z
-x,1/2+y,z
x,1/2-y,1/2+z
loop_
_atom_site_type_symbol
_atom_site_label
_atom_site_fract_x
_atom_site_fract_y
_atom_site_fract_z
Si Si1 0.384443 0.555737 0.144887
Si Si2 0.062662 0.164416 0.641681
Si Si3 0.217548 0.447483 0.041700
Si Si4 0.265523 0.997876 0.353825
Si Si5 0.295485 0.849734 0.354169
Si Si6 0.517771 0.851264 0.988711
Si Si7 0.247901 0.250000 0.500000
O O1 0.340325 0.566913 0.250000
O O2 0.265308 0.508838 0.096730
O O3 0.556998 0.523946 0.143917
O O4 0.407516 0.618234 0.087193
O O5 0.110319 0.164431 0.750000
O O6 0.100121 0.097078 0.596346
O O7 0.149943 0.214315 0.577834
O O8 0.878275 0.176263 0.638041
O O9 0.375185 0.406159 0.031534
O O10 0.175510 0.468552 0.937478
O O11 0.202986 0.008443 0.250000
O O12 0.278349 0.924172 0.368942
O O13 0.354023 0.840650 0.250000
O O14 0.413463 0.824311 0.429375
O O15 0.640454 0.801180 0.953391
#
# Coordination Sequence:
#
# PCOD9434088 Si02
#       7
#     8   8   8   8   8   8   4
#     4  10  17  28  51  82 117 147 177 230 284 331
#     4  10  23  39  57  82 112 149 188 229 286 345
#     4  10  17  32  55  84 116 148 181 224 278 337
#     4   9  16  28  50  83 117 148 181 221 272 327
#     4  10  19  34  57  84 112 143 184 231 280 336
#     4  10  19  35  54  82 106 145 193 236 276 330
#     4  10  24  40  60  78 106 146 196 244 286 332
#
# _framework density 19.437107000000001
#
# number of rings (size 3 to 8) (size 9 to 14) (size 15 to 20)
#    0.000    2.154    3.077    1.385    0.000    4.308 
#    0.000    2.308    0.000    0.923    0.000    0.000 
#    0.000    0.000    0.000    0.000    0.000    0.000 
#
# Total GULP energy -290145.436379 kJ/mol
# GULP energy per Si atom -5579.719930 kJ/mol
# Density = 1.939287 g / cm^3
# Si number density = 19.437107 Si / 1000 Ang^3
#
#
#
# Elastic Constant Matrix: (Units=GPa)
#
#
# Indices 1 2 3 4 5 6 
#
# 1 30.9141 13.8867 29.3975 0.0000 0.0000 0.0000
# 2 13.8867 49.3259 30.2117 0.0000 0.0000 0.0000
# 3 29.3975 30.2117 113.2482 0.0000 0.0000 0.0000
# 4 0.0000 0.0000 0.0000 18.4519 0.0000 0.0000
# 5 0.0000 0.0000 0.0000 0.0000 23.7013 0.0000
# 6 0.0000 0.0000 0.0000 0.0000 0.0000 18.3875
#
#
#
# Elastic Compliance Matrix: (Units=1/GPa)
#
#
# Indices 1 2 3 4 5 6 
#
# 1 0.044647 -0.006539 -0.009845 0.000000 0.000000 0.000000
# 2 -0.006539 0.025191 -0.005023 0.000000 0.000000 0.000000
# 3 -0.009845 -0.005023 0.012726 0.000000 0.000000 0.000000
# 4 0.000000 0.000000 0.000000 0.054195 0.000000 0.000000
# 5 0.000000 0.000000 0.000000 0.000000 0.042192 0.000000
# 6 0.000000 0.000000 0.000000 0.000000 0.000000 0.054385
#
#
# Mechanical properties :
#
#
# Convention : Reuss Voigt Hill
#
# Bulk Modulus (GPa) = 25.15775 37.83112 31.49443
# Shear Modulus (GPa) = 17.27713 20.10763 18.69238
#
# Velocity S-wave (km/s) = 2.98463 3.21985 3.10447
# Velocity P-wave (km/s) = 4.98484 5.77311 5.39340
#
# Compressibility (1/GPa) = 0.03974919
#
# Stress axis : x y z
#
# Youngs Moduli (GPa) = 22.39770 39.69719 78.58068
#
# Poissons Ratio (x) = 0.25960 0.77365
# Poissons Ratio (y) = 0.14647 0.39469
# Poissons Ratio (z) = 0.22051 0.19939
#
# Static dielectric constant tensor:
#      x y z
#    x 1.682890 0.000000 0.000000 
#    y 0.000000 1.679940 0.000000 
#    z 0.000000 0.000000 1.684540 
# 
# From -- ./inp_files/16835.got.cif
#   From: 2010.05.17/outbox.cif.g08.bks.cpg/sg57_9_cif.got.tgz:16835.got - 2010.06.03 13:58:18.
