data_PCOD9434971
_publ_section_title
;
Structure prediction by ZEFSAII (Michael W. Deem and Ramdas Pophale) SiO2 
 PCOD9434971
Probable space group: P B C M
;
_chemical_formula_sum "Si O2"
_cell_formula_units_Z 40
_cell_length_a 15.927029
_cell_length_b 13.146592
_cell_length_c 7.499721
_cell_angle_alpha 90.000000
_cell_angle_beta 90.000000
_cell_angle_gamma 90.000000
_cell_volume 1570.337722
_symmetry_space_group_name_H-M "P B C M"
_symmetry_group_IT_number 57
_symmetry_cell_setting 'orthorhombic'
loop_
_space_group_symop_operation_xyz
x,y,z
-x,-y,1/2+z
x,1/2-y,-z
-x,1/2+y,1/2-z
-x,-y,-z
x,y,1/2-z
-x,1/2+y,z
x,1/2-y,1/2+z
loop_
_atom_site_type_symbol
_atom_site_label
_atom_site_fract_x
_atom_site_fract_y
_atom_site_fract_z
Si Si1 0.120797 0.583911 0.542317
Si Si2 0.937528 0.636397 0.537679
Si Si3 0.662942 0.857023 0.037040
Si Si4 0.300503 0.589715 0.540921
Si Si5 0.481872 0.617065 0.963005
O O1 0.121752 0.612933 0.750000
O O2 0.112691 0.460887 0.533510
O O3 0.209859 0.617893 0.462639
O O4 0.033442 0.625942 0.466147
O O5 0.907136 0.750000 0.500000
O O6 0.938810 0.622272 0.750000
O O7 0.659193 0.869048 0.250000
O O8 0.568793 0.842406 0.958310
O O9 0.708640 0.750000 0.000000
O O10 0.694360 0.966040 0.969321
O O11 0.300214 0.615850 0.750000
O O12 0.387802 0.634507 0.464876
O O13 0.479820 0.636716 0.750000
O O14 0.500000 0.500000 0.000000
#
# Coordination Sequence:
#
# PCOD9434971 Si02
#       5
#     8   8   8   8   8
#     4   9  19  35  55  78 102 131 168 209 254 303
#     4  10  20  35  55  77 103 134 167 205 251 305
#     4  10  19  30  45  68  97 128 162 198 239 286
#     4   9  17  32  52  71  93 122 158 201 246 288
#     4   8  15  28  46  65  87 118 153 188 227 273
#
# _framework density 25.472228999999999
#
# number of rings (size 3 to 8) (size 9 to 14) (size 15 to 20)
#    0.000    2.800    0.000    1.200    0.000    3.200 
#    0.000    1.000    0.000    0.000    0.000    0.000 
#    0.000    0.000    0.000    0.000    0.000    0.000 
#
# Total GULP energy -223075.041423 kJ/mol
# GULP energy per Si atom -5576.876036 kJ/mol
# Density = 2.541425 g / cm^3
# Si number density = 25.472229 Si / 1000 Ang^3
#
#
#
# Elastic Constant Matrix: (Units=GPa)
#
#
# Indices 1 2 3 4 5 6 
#
# 1 182.0277 -11.8687 9.7990 0.0000 0.0000 0.0000
# 2 -11.8687 96.9756 -25.0224 0.0000 0.0000 0.0000
# 3 9.7990 -25.0224 98.8889 0.0000 0.0000 0.0000
# 4 0.0000 0.0000 0.0000 8.1366 0.0000 0.0000
# 5 0.0000 0.0000 0.0000 0.0000 1.1755 0.0000
# 6 0.0000 0.0000 0.0000 0.0000 0.0000 -15.1703
#
#
#
# Elastic Compliance Matrix: (Units=1/GPa)
#
#
# Indices 1 2 3 4 5 6 
#
# 1 0.005553 0.000575 -0.000405 0.000000 0.000000 0.000000
# 2 0.000575 0.011092 0.002750 0.000000 0.000000 0.000000
# 3 -0.000405 0.002750 0.010848 0.000000 0.000000 0.000000
# 4 0.000000 0.000000 0.000000 0.122901 0.000000 0.000000
# 5 0.000000 0.000000 0.000000 0.000000 0.850714 0.000000
# 6 0.000000 0.000000 0.000000 0.000000 0.000000 -0.065918
#
#
# Mechanical properties :
#
#
# Convention : Reuss Voigt Hill
#
# Bulk Modulus (GPa) = 30.00021 35.96756 32.98388
# Shear Modulus (GPa) = 5.31654 25.82731 15.57192
#
# Velocity S-wave (km/s) = 1.44628 3.18770 2.47519
# Velocity P-wave (km/s) = 3.81997 5.26303 4.59846
#
# Compressibility (1/GPa) = 0.03333310
#
# Stress axis : x y z
#
# Youngs Moduli (GPa) = 180.08414 90.15713 92.18112
#
# Poissons Ratio (x) = -0.05186 0.03731
# Poissons Ratio (y) = -0.10358 -0.25346
# Poissons Ratio (z) = 0.07288 -0.24790
#
# Static dielectric constant tensor:
#      x y z
#    x 2.092220 0.000000 0.000000 
#    y 0.000000 1.978340 0.000000 
#    z 0.000000 0.000000 1.935160 
# 
# From -- ./inp_files/6251.got.cif
#   From: 2010.05.17/outbox.cif.g08.bks.cpg/sg57_4_cif.got.tgz:6251.got - 2010.06.03 13:58:18.
