data_PCOD9434768
_publ_section_title
;
Structure prediction by ZEFSAII (Michael W. Deem and Ramdas Pophale) SiO2 
 PCOD9434768
Probable space group: P B C M
;
_chemical_formula_sum "Si O2"
_cell_formula_units_Z 28
_cell_length_a 4.875357
_cell_length_b 13.925982
_cell_length_c 14.731600
_cell_angle_alpha 90.000000
_cell_angle_beta 90.000000
_cell_angle_gamma 90.000000
_cell_volume 1000.189222
_symmetry_space_group_name_H-M "P B C M"
_symmetry_group_IT_number 57
_symmetry_cell_setting 'orthorhombic'
loop_
_space_group_symop_operation_xyz
x,y,z
-x,-y,1/2+z
x,1/2-y,-z
-x,1/2+y,1/2-z
-x,-y,-z
x,y,1/2-z
-x,1/2+y,z
x,1/2-y,1/2+z
loop_
_atom_site_type_symbol
_atom_site_label
_atom_site_fract_x
_atom_site_fract_y
_atom_site_fract_z
Si Si1 0.791637 0.616002 0.250000
Si Si2 0.020497 0.750000 0.000000
Si Si3 0.129110 0.943937 0.917505
Si Si4 0.660435 0.628518 0.645804
Si Si5 0.716857 0.247114 0.750000
O O1 0.901774 0.563582 0.161252
O O2 0.986927 0.709678 0.250000
O O3 0.487063 0.659231 0.250000
O O4 0.825546 0.805913 0.073661
O O5 0.187997 0.663856 0.048795
O O6 0.359600 0.018750 0.885963
O O7 0.000000 0.000000 0.000000
O O8 0.774703 0.620035 0.750000
O O9 0.372814 0.680903 0.665625
#
# Coordination Sequence:
#
# PCOD9434768 Si02
#       5
#     4   4   8   8   4
#     4  12  21  46  71 101 141 188 229 292 355 429
#     4  10  18  34  68  98 140 184 234 300 368 436
#     4  10  20  37  71 103 144 185 245 295 371 434
#     4   9  18  37  62  99 136 185 236 297 356 436
#     4  10  23  40  73  95 137 186 227 284 359 415
#
# _framework density 27.994702
#
# number of rings (size 3 to 8) (size 9 to 14) (size 15 to 20)
#    0.857    1.143    4.286    0.000    0.000    0.000 
#    0.000    8.571    0.000    0.000    0.000    0.000 
#    0.000    0.000    0.000    0.000    0.000    0.000 
#
# Total GULP energy -156759.249101 kJ/mol
# GULP energy per Si atom -5598.544611 kJ/mol
# Density = 2.793099 g / cm^3
# Si number density = 27.994702 Si / 1000 Ang^3
#
#
#
# Elastic Constant Matrix: (Units=GPa)
#
#
# Indices 1 2 3 4 5 6 
#
# 1 49.7699 47.8529 21.2481 0.0000 0.0000 0.0000
# 2 47.8529 241.5430 80.6059 0.0000 0.0000 0.0000
# 3 21.2481 80.6059 176.3447 0.0000 0.0000 0.0000
# 4 0.0000 0.0000 0.0000 85.5081 0.0000 0.0000
# 5 0.0000 0.0000 0.0000 0.0000 25.1075 0.0000
# 6 0.0000 0.0000 0.0000 0.0000 0.0000 40.5220
#
#
#
# Elastic Compliance Matrix: (Units=1/GPa)
#
#
# Indices 1 2 3 4 5 6 
#
# 1 0.024936 -0.004646 -0.000881 0.000000 0.000000 0.000000
# 2 -0.004646 0.005751 -0.002069 0.000000 0.000000 0.000000
# 3 -0.000881 -0.002069 0.006723 0.000000 0.000000 0.000000
# 4 0.000000 0.000000 0.000000 0.011695 0.000000 0.000000
# 5 0.000000 0.000000 0.000000 0.000000 0.039829 0.000000
# 6 0.000000 0.000000 0.000000 0.000000 0.000000 0.024678
#
#
# Mechanical properties :
#
#
# Convention : Reuss Voigt Hill
#
# Bulk Modulus (GPa) = 45.00976 85.23016 65.11996
# Shear Modulus (GPa) = 36.70852 51.42423 44.06637
#
# Velocity S-wave (km/s) = 3.62507 4.29059 3.97179
# Velocity P-wave (km/s) = 5.79951 7.42002 6.65925
#
# Compressibility (1/GPa) = 0.02221740
#
# Stress axis : x y z
#
# Youngs Moduli (GPa) = 40.10316 173.88500 148.75389
#
# Poissons Ratio (x) = 0.80790 0.13103
# Poissons Ratio (y) = 0.18633 0.30775
# Poissons Ratio (z) = 0.03532 0.35975
#
# Static dielectric constant tensor:
#      x y z
#    x 2.166880 0.000000 0.000000 
#    y 0.000000 2.193590 0.000000 
#    z 0.000000 0.000000 2.046580 
# 
# From -- ./inp_files/19810.got.cif
#   From: 2010.05.17/outbox.cif.g08.bks.cpg/sg57_10_cif.got.tgz:19810.got - 2010.06.03 13:58:18.
