data_PCOD9434585
_publ_section_title
;
Structure prediction by ZEFSAII (Michael W. Deem and Ramdas Pophale) SiO2 
 PCOD9434585
Probable space group: P B C M
;
_chemical_formula_sum "Si O2"
_cell_formula_units_Z 48
_cell_length_a 7.319062
_cell_length_b 20.635390
_cell_length_c 12.128408
_cell_angle_alpha 90.000000
_cell_angle_beta 90.000000
_cell_angle_gamma 90.000000
_cell_volume 1831.774064
_symmetry_space_group_name_H-M "P B C M"
_symmetry_group_IT_number 57
_symmetry_cell_setting 'orthorhombic'
loop_
_space_group_symop_operation_xyz
x,y,z
-x,-y,1/2+z
x,1/2-y,-z
-x,1/2+y,1/2-z
-x,-y,-z
x,y,1/2-z
-x,1/2+y,z
x,1/2-y,1/2+z
loop_
_atom_site_type_symbol
_atom_site_label
_atom_site_fract_x
_atom_site_fract_y
_atom_site_fract_z
Si Si1 0.563437 0.525977 0.629814
Si Si2 0.877218 0.738461 0.627192
Si Si3 0.997500 0.601229 0.574088
Si Si4 0.631778 0.396412 0.967587
Si Si5 0.694699 0.229773 0.373100
Si Si6 0.152449 0.466614 0.635352
O O1 0.619237 0.546411 0.750000
O O2 0.533208 0.586057 0.549132
O O3 0.681746 0.466266 0.585315
O O4 0.361745 0.492225 0.634306
O O5 0.802279 0.750000 0.500000
O O6 0.798741 0.757609 0.750000
O O7 0.900453 0.660623 0.630541
O O8 0.083450 0.768339 0.624630
O O9 0.201263 0.625180 0.544456
O O10 0.035009 0.532691 0.631549
O O11 0.899920 0.580637 0.461738
O O12 0.613254 0.343020 0.875431
O O13 0.636390 0.250000 0.500000
O O14 0.647696 0.259052 0.250000
O O15 0.119577 0.431778 0.750000
#
# Coordination Sequence:
#
# PCOD9434585 Si02
#       6
#     8   8   8   8   8   8
#     4   9  19  33  50  74 108 148 181 221 278 332
#     4  10  19  32  50  80 113 142 175 226 282 323
#     4  10  18  32  51  77 105 139 181 229 272 324
#     4  10  18  32  52  78 105 139 182 228 268 325
#     4  10  19  31  48  78 108 136 171 222 274 313
#     4   9  19  32  49  73 105 144 179 218 275 332
#
# _framework density 26.204104000000001
#
# number of rings (size 3 to 8) (size 9 to 14) (size 15 to 20)
#    0.000    2.333    3.333    1.000    0.000    3.333 
#    0.000    0.000    0.000    2.000    0.000    2.333 
#    0.000    0.000    0.000    0.000    0.000    0.000 
#
# Total GULP energy -267595.561552 kJ/mol
# GULP energy per Si atom -5574.907532 kJ/mol
# Density = 2.614446 g / cm^3
# Si number density = 26.204104 Si / 1000 Ang^3
#
#
#
# Elastic Constant Matrix: (Units=GPa)
#
#
# Indices 1 2 3 4 5 6 
#
# 1 50.3648 14.7386 24.8710 0.0000 0.0000 0.0000
# 2 14.7386 75.9046 24.2599 0.0000 0.0000 0.0000
# 3 24.8710 24.2599 225.3324 0.0000 0.0000 0.0000
# 4 0.0000 0.0000 0.0000 22.9469 0.0000 0.0000
# 5 0.0000 0.0000 0.0000 0.0000 0.7089 0.0000
# 6 0.0000 0.0000 0.0000 0.0000 0.0000 17.0608
#
#
#
# Elastic Compliance Matrix: (Units=1/GPa)
#
#
# Indices 1 2 3 4 5 6 
#
# 1 0.021913 -0.003606 -0.002030 0.000000 0.000000 0.000000
# 2 -0.003606 0.014237 -0.001135 0.000000 0.000000 0.000000
# 3 -0.002030 -0.001135 0.004784 0.000000 0.000000 0.000000
# 4 0.000000 0.000000 0.000000 0.043579 0.000000 0.000000
# 5 0.000000 0.000000 0.000000 0.000000 1.410607 0.000000
# 6 0.000000 0.000000 0.000000 0.000000 0.000000 0.058614
#
#
# Mechanical properties :
#
#
# Convention : Reuss Voigt Hill
#
# Bulk Modulus (GPa) = 36.50687 53.26008 44.88348
# Shear Modulus (GPa) = 3.17177 27.32547 15.24862
#
# Velocity S-wave (km/s) = 1.10138 3.23273 2.41491
# Velocity P-wave (km/s) = 3.94707 5.85690 4.99413
#
# Compressibility (1/GPa) = 0.02739210
#
# Stress axis : x y z
#
# Youngs Moduli (GPa) = 45.63499 70.23797 209.02258
#
# Poissons Ratio (x) = 0.25328 0.42440
# Poissons Ratio (y) = 0.16456 0.23720
# Poissons Ratio (z) = 0.09266 0.07971
#
# Static dielectric constant tensor:
#      x y z
#    x 2.076530 0.000000 0.000000 
#    y 0.000000 2.053940 0.000000 
#    z 0.000000 0.000000 2.201750 
# 
# From -- ./inp_files/13043.got.cif
#   From: 2010.05.17/outbox.cif.g08.bks.cpg/sg57_7_cif.got.tgz:13043.got - 2010.06.03 13:58:18.
