data_PCOD9434193
_publ_section_title
;
Structure prediction by ZEFSAII (Michael W. Deem and Ramdas Pophale) SiO2 
 PCOD9434193
Probable space group: P B C M
;
_chemical_formula_sum "Si O2"
_cell_formula_units_Z 56
_cell_length_a 13.921630
_cell_length_b 28.559653
_cell_length_c 9.355096
_cell_angle_alpha 90.000000
_cell_angle_beta 90.000000
_cell_angle_gamma 90.000000
_cell_volume 3719.557375
_symmetry_space_group_name_H-M "P B C M"
_symmetry_group_IT_number 57
_symmetry_cell_setting 'orthorhombic'
loop_
_space_group_symop_operation_xyz
x,y,z
-x,-y,1/2+z
x,1/2-y,-z
-x,1/2+y,1/2-z
-x,-y,-z
x,y,1/2-z
-x,1/2+y,z
x,1/2-y,1/2+z
loop_
_atom_site_type_symbol
_atom_site_label
_atom_site_fract_x
_atom_site_fract_y
_atom_site_fract_z
Si Si1 0.599358 0.008432 0.419688
Si Si2 0.746276 0.296438 0.580823
Si Si3 0.772956 0.538692 0.082349
Si Si4 0.973638 0.297443 0.579220
Si Si5 0.285275 0.601791 0.419222
Si Si6 0.061128 0.102949 0.078204
Si Si7 0.889794 0.056086 0.582453
O O1 0.590653 0.000640 0.250000
O O2 0.634793 0.062144 0.441660
O O3 0.500000 0.000000 0.500000
O O4 0.682742 0.975657 0.486313
O O5 0.714460 0.250000 0.500000
O O6 0.739552 0.288346 0.750000
O O7 0.691107 0.344475 0.546147
O O8 0.859838 0.304622 0.547697
O O9 0.744332 0.540016 0.250000
O O10 0.831129 0.585727 0.045086
O O11 0.851025 0.496799 0.067687
O O12 0.003874 0.250000 0.500000
O O13 0.982131 0.291351 0.750000
O O14 0.032520 0.343975 0.538708
O O15 0.258691 0.600502 0.250000
O O16 0.194361 0.586904 0.512596
O O17 0.048779 0.098433 0.250000
O O18 0.986082 0.068933 0.000352
O O19 0.901107 0.066017 0.750000
#
# Coordination Sequence:
#
# PCOD9434193 Si02
#       7
#     8   8   8   8   8   8   8
#     4  10  20  34  53  71  92 118 148 187 232 279
#     4   9  16  27  42  62  89 120 156 187 218 261
#     4   9  19  32  46  66  91 118 152 187 222 268
#     4   9  17  28  42  60  86 122 159 191 221 258
#     4   9  17  31  47  64  89 125 156 181 221 276
#     4  10  18  30  45  61  89 127 157 184 222 268
#     4  10  18  26  40  65  93 120 152 189 220 253
#
# _framework density 15.055555999999999
#
# number of rings (size 3 to 8) (size 9 to 14) (size 15 to 20)
#    0.000    2.571    1.429    1.286    0.000    2.857 
#    0.000    0.000    0.000    0.000    0.000    1.000 
#    0.000    0.000    0.000    0.000    0.000    0.000 
#
# Total GULP energy -311978.113511 kJ/mol
# GULP energy per Si atom -5571.037741 kJ/mol
# Density = 1.502129 g / cm^3
# Si number density = 15.055556 Si / 1000 Ang^3
#
#
#
# Elastic Constant Matrix: (Units=GPa)
#
#
# Indices 1 2 3 4 5 6 
#
# 1 83.2284 43.6222 52.2806 0.0000 0.0000 0.0000
# 2 43.6222 65.9368 42.8105 0.0000 0.0000 0.0000
# 3 52.2806 42.8105 49.9984 0.0000 0.0000 0.0000
# 4 0.0000 0.0000 0.0000 22.6912 0.0000 0.0000
# 5 0.0000 0.0000 0.0000 0.0000 21.3807 0.0000
# 6 0.0000 0.0000 0.0000 0.0000 0.0000 10.6550
#
#
#
# Elastic Compliance Matrix: (Units=1/GPa)
#
#
# Indices 1 2 3 4 5 6 
#
# 1 0.035067 0.001368 -0.037839 0.000000 0.000000 0.000000
# 2 0.001368 0.034205 -0.030719 0.000000 0.000000 0.000000
# 3 -0.037839 -0.030719 0.085869 0.000000 0.000000 0.000000
# 4 0.000000 0.000000 0.000000 0.044070 0.000000 0.000000
# 5 0.000000 0.000000 0.000000 0.000000 0.046771 0.000000
# 6 0.000000 0.000000 0.000000 0.000000 0.000000 0.093853
#
#
# Mechanical properties :
#
#
# Convention : Reuss Voigt Hill
#
# Bulk Modulus (GPa) = 48.16335 52.95448 50.55891
# Shear Modulus (GPa) = 10.39209 14.97540 12.68375
#
# Velocity S-wave (km/s) = 2.63011 3.15727 2.90567
# Velocity P-wave (km/s) = 6.42520 6.96708 6.70162
#
# Compressibility (1/GPa) = 0.02076268
#
# Stress axis : x y z
#
# Youngs Moduli (GPa) = 28.51686 29.23516 11.64562
#
# Poissons Ratio (x) = -0.04000 0.44066
# Poissons Ratio (y) = -0.03902 0.35774
# Poissons Ratio (z) = 1.07905 0.89806
#
# Static dielectric constant tensor:
#      x y z
#    x 1.472910 0.000000 0.000000 
#    y 0.000000 1.525790 0.000000 
#    z 0.000000 0.000000 1.499470 
# 
# From -- ./inp_files/5913.got.cif
#   From: 2010.05.17/outbox.cif.g08.bks.cpg/sg57_3_cif.got.tgz:5913.got - 2010.06.03 13:58:18.
