data_PCOD9434409
_publ_section_title
;
Structure prediction by ZEFSAII (Michael W. Deem and Ramdas Pophale) SiO2 
 PCOD9434409
Probable space group: P B C M
;
_chemical_formula_sum "Si O2"
_cell_formula_units_Z 64
_cell_length_a 20.807757
_cell_length_b 20.830330
_cell_length_c 9.326313
_cell_angle_alpha 90.000000
_cell_angle_beta 90.000000
_cell_angle_gamma 90.000000
_cell_volume 4042.326645
_symmetry_space_group_name_H-M "P B C M"
_symmetry_group_IT_number 57
_symmetry_cell_setting 'orthorhombic'
loop_
_space_group_symop_operation_xyz
x,y,z
-x,-y,1/2+z
x,1/2-y,-z
-x,1/2+y,1/2-z
-x,-y,-z
x,y,1/2-z
-x,1/2+y,z
x,1/2-y,1/2+z
loop_
_atom_site_type_symbol
_atom_site_label
_atom_site_fract_x
_atom_site_fract_y
_atom_site_fract_z
Si Si1 0.845124 0.349190 0.416835
Si Si2 0.278049 0.834563 0.910518
Si Si3 0.444990 0.540182 0.423153
Si Si4 0.950589 0.951447 0.421990
Si Si5 0.174346 0.003259 0.082022
Si Si6 0.423165 0.812493 0.576936
Si Si7 0.700350 0.487561 0.587344
Si Si8 0.987511 0.186697 0.578393
O O1 0.841198 0.332880 0.250000
O O2 0.783946 0.320932 0.496659
O O3 0.840742 0.426740 0.427765
O O4 0.914131 0.326292 0.471881
O O5 0.270266 0.808903 0.750000
O O6 0.347825 0.815041 0.966161
O O7 0.283227 0.911869 0.902287
O O8 0.500000 0.500000 0.500000
O O9 0.449650 0.536033 0.250000
O O10 0.448960 0.616307 0.459783
O O11 0.374001 0.512578 0.461148
O O12 0.951396 0.962755 0.250000
O O13 0.880543 0.962937 0.488790
O O14 0.973678 0.878664 0.448420
O O15 0.000000 0.000000 0.500000
O O16 0.171073 0.020483 0.250000
O O17 0.245221 0.015275 0.016806
O O18 0.452249 0.750000 0.500000
O O19 0.426171 0.806043 0.750000
O O20 0.704889 0.513851 0.750000
O O21 0.012449 0.250000 0.500000
O O22 0.986561 0.196600 0.750000
#
# Coordination Sequence:
#
# PCOD9434409 Si02
#       8
#     8   8   8   8   8   8   8   8
#     4   9  17  30  44  63  93 123 157 199 235 276
#     4   8  15  27  42  61  87 122 162 195 229 273
#     4   9  18  32  50  73 103 134 168 205 243 291
#     4  11  21  35  53  73  97 125 163 208 252 297
#     4  10  18  30  49  74  99 123 160 207 247 289
#     4   9  18  31  45  65  95 128 165 205 237 280
#     4   8  15  29  46  68  97 128 160 197 242 290
#     4  10  22  37  48  65  94 125 160 203 248 299
#
# _framework density 15.832466
#
# number of rings (size 3 to 8) (size 9 to 14) (size 15 to 20)
#    0.000    2.750    1.250    2.250    0.000    4.000 
#    0.000    5.000    0.000    0.000    0.000    0.875 
#    0.000    6.000    0.000    0.000    0.000    0.000 
#
# Total GULP energy -356524.717150 kJ/mol
# GULP energy per Si atom -5570.698705 kJ/mol
# Density = 1.579643 g / cm^3
# Si number density = 15.832466 Si / 1000 Ang^3
#
#
#
# Elastic Constant Matrix: (Units=GPa)
#
#
# Indices 1 2 3 4 5 6 
#
# 1 105.5008 54.3576 53.5011 0.0000 0.0000 0.0000
# 2 54.3576 88.1955 50.0370 0.0000 0.0000 0.0000
# 3 53.5011 50.0370 56.0579 0.0000 0.0000 0.0000
# 4 0.0000 0.0000 0.0000 19.0850 0.0000 0.0000
# 5 0.0000 0.0000 0.0000 0.0000 26.5153 0.0000
# 6 0.0000 0.0000 0.0000 0.0000 0.0000 8.9538
#
#
#
# Elastic Compliance Matrix: (Units=1/GPa)
#
#
# Indices 1 2 3 4 5 6 
#
# 1 0.018713 -0.002838 -0.015326 0.000000 0.000000 0.000000
# 2 -0.002838 0.023402 -0.018179 0.000000 0.000000 0.000000
# 3 -0.015326 -0.018179 0.048693 0.000000 0.000000 0.000000
# 4 0.000000 0.000000 0.000000 0.052397 0.000000 0.000000
# 5 0.000000 0.000000 0.000000 0.000000 0.037714 0.000000
# 6 0.000000 0.000000 0.000000 0.000000 0.000000 0.111684
#
#
# Mechanical properties :
#
#
# Convention : Reuss Voigt Hill
#
# Bulk Modulus (GPa) = 55.18830 62.83839 59.01334
# Shear Modulus (GPa) = 13.46511 17.03473 15.24992
#
# Velocity S-wave (km/s) = 2.91945 3.28371 3.10692
# Velocity P-wave (km/s) = 6.80424 7.35885 7.08697
#
# Compressibility (1/GPa) = 0.01811978
#
# Stress axis : x y z
#
# Youngs Moduli (GPa) = 53.43845 42.73193 20.53702
#
# Poissons Ratio (x) = 0.12129 0.31475
# Poissons Ratio (y) = 0.15168 0.37335
# Poissons Ratio (z) = 0.81900 0.77684
#
# Static dielectric constant tensor:
#      x y z
#    x 1.524580 0.000000 0.000000 
#    y 0.000000 1.539150 0.000000 
#    z 0.000000 0.000000 1.548120 
# 
# From -- ./inp_files/8736.got.cif
#   From: 2010.05.17/outbox.cif.g08.bks.cpg/sg57_5_cif.got.tgz:8736.got - 2010.06.03 13:58:18.
