data_PCOD9434351
_publ_section_title
;
Structure prediction by ZEFSAII (Michael W. Deem and Ramdas Pophale) SiO2 
 PCOD9434351
Probable space group: P B C M
;
_chemical_formula_sum "Si O2"
_cell_formula_units_Z 64
_cell_length_a 20.716186
_cell_length_b 19.726118
_cell_length_c 8.715772
_cell_angle_alpha 90.000000
_cell_angle_beta 90.000000
_cell_angle_gamma 90.000000
_cell_volume 3561.699614
_symmetry_space_group_name_H-M "P B C M"
_symmetry_group_IT_number 57
_symmetry_cell_setting 'orthorhombic'
loop_
_space_group_symop_operation_xyz
x,y,z
-x,-y,1/2+z
x,1/2-y,-z
-x,1/2+y,1/2-z
-x,-y,-z
x,y,1/2-z
-x,1/2+y,z
x,1/2-y,1/2+z
loop_
_atom_site_type_symbol
_atom_site_label
_atom_site_fract_x
_atom_site_fract_y
_atom_site_fract_z
Si Si1 0.149637 0.429944 0.934127
Si Si2 0.484170 0.925730 0.065376
Si Si3 0.378444 0.106697 0.934002
Si Si4 0.346334 0.957484 0.064320
Si Si5 0.202390 0.920301 0.065279
Si Si6 0.012090 0.425162 0.432351
Si Si7 0.095924 0.674680 0.432798
Si Si8 0.258654 0.178768 0.067205
O O1 0.138993 0.426266 0.750000
O O2 0.168807 0.507384 0.970532
O O3 0.209056 0.381133 0.973642
O O4 0.085206 0.408143 0.020665
O O5 0.485385 0.928578 0.250000
O O6 0.546575 0.882087 0.018488
O O7 0.409680 0.913186 0.021538
O O8 0.500000 0.000000 0.000000
O O9 0.374621 0.107359 0.750000
O O10 0.328606 0.159866 0.002109
O O11 0.356813 0.032181 0.993693
O O12 0.345025 0.965536 0.250000
O O13 0.277473 0.926640 0.019556
O O14 0.199320 0.911480 0.250000
O O15 0.162178 0.861393 0.985494
O O16 0.003935 0.427007 0.250000
O O17 0.000000 0.500000 0.500000
O O18 0.961637 0.372261 0.502603
O O19 0.091480 0.750000 0.500000
O O20 0.092261 0.676814 0.250000
O O21 0.261910 0.182454 0.250000
O O22 0.236301 0.250000 0.000000
#
# Coordination Sequence:
#
# PCOD9434351 Si02
#       8
#     8   8   8   8   8   8   8   8
#     4  10  21  38  60  85 116 151 192 237 287 341
#     4   8  15  26  44  73 107 141 180 226 278 330
#     4  10  18  29  48  76 110 146 187 236 283 337
#     4   9  16  30  52  79 111 148 186 231 284 334
#     4  10  19  35  60  87 117 153 191 235 285 341
#     4  12  24  40  64  92 121 155 194 236 282 335
#     4  12  26  44  65  90 120 154 190 235 286 344
#     4  11  23  39  56  78 110 152 194 239 289 346
#
# _framework density 17.96895
#
# number of rings (size 3 to 8) (size 9 to 14) (size 15 to 20)
#    0.000    1.750    2.500    3.000    0.000    2.500 
#    0.000    1.250    0.000    0.750    0.000    0.000 
#    0.000    0.000    0.000    0.000    0.000    0.000 
#
# Total GULP energy -357155.438804 kJ/mol
# GULP energy per Si atom -5580.553731 kJ/mol
# Density = 1.792805 g / cm^3
# Si number density = 17.968950 Si / 1000 Ang^3
#
#
#
# Elastic Constant Matrix: (Units=GPa)
#
#
# Indices 1 2 3 4 5 6 
#
# 1 144.2323 47.3378 51.1737 0.0000 0.0000 0.0000
# 2 47.3378 99.3636 41.0944 0.0000 0.0000 0.0000
# 3 51.1737 41.0944 61.9405 0.0000 0.0000 0.0000
# 4 0.0000 0.0000 0.0000 26.6361 0.0000 0.0000
# 5 0.0000 0.0000 0.0000 0.0000 25.4713 0.0000
# 6 0.0000 0.0000 0.0000 0.0000 0.0000 21.3735
#
#
#
# Elastic Compliance Matrix: (Units=1/GPa)
#
#
# Indices 1 2 3 4 5 6 
#
# 1 0.010053 -0.001867 -0.007067 0.000000 0.000000 0.000000
# 2 -0.001867 0.014216 -0.007890 0.000000 0.000000 0.000000
# 3 -0.007067 -0.007890 0.027218 0.000000 0.000000 0.000000
# 4 0.000000 0.000000 0.000000 0.037543 0.000000 0.000000
# 5 0.000000 0.000000 0.000000 0.000000 0.039260 0.000000
# 6 0.000000 0.000000 0.000000 0.000000 0.000000 0.046787
#
#
# Mechanical properties :
#
#
# Convention : Reuss Voigt Hill
#
# Bulk Modulus (GPa) = 56.05344 64.97201 60.51273
# Shear Modulus (GPa) = 23.29139 25.75821 24.52480
#
# Velocity S-wave (km/s) = 3.60419 3.79025 3.69839
# Velocity P-wave (km/s) = 6.97012 7.44252 7.21019
#
# Compressibility (1/GPa) = 0.01784012
#
# Stress axis : x y z
#
# Youngs Moduli (GPa) = 99.46842 70.34190 36.74062
#
# Poissons Ratio (x) = 0.13130 0.25966
# Poissons Ratio (y) = 0.18567 0.28987
# Poissons Ratio (z) = 0.70299 0.55497
#
# Static dielectric constant tensor:
#      x y z
#    x 1.657680 0.000000 0.000000 
#    y 0.000000 1.584810 0.000000 
#    z 0.000000 0.000000 1.601260 
# 
# From -- ./inp_files/8502.got.cif
#   From: 2010.05.17/outbox.cif.g08.bks.cpg/sg57_5_cif.got.tgz:8502.got - 2010.06.03 13:58:18.
