data_PCOD9434915
_publ_section_title
;
Structure prediction by ZEFSAII (Michael W. Deem and Ramdas Pophale) SiO2 
 PCOD9434915
Probable space group: P B C M
;
_chemical_formula_sum "Si O2"
_cell_formula_units_Z 52
_cell_length_a 14.775561
_cell_length_b 23.629854
_cell_length_c 9.116179
_cell_angle_alpha 90.000000
_cell_angle_beta 90.000000
_cell_angle_gamma 90.000000
_cell_volume 3182.862384
_symmetry_space_group_name_H-M "P B C M"
_symmetry_group_IT_number 57
_symmetry_cell_setting 'orthorhombic'
loop_
_space_group_symop_operation_xyz
x,y,z
-x,-y,1/2+z
x,1/2-y,-z
-x,1/2+y,1/2-z
-x,-y,-z
x,y,1/2-z
-x,1/2+y,z
x,1/2-y,1/2+z
loop_
_atom_site_type_symbol
_atom_site_label
_atom_site_fract_x
_atom_site_fract_y
_atom_site_fract_z
Si Si1 0.635390 0.345928 0.910754
Si Si2 0.513716 0.559707 0.078010
Si Si3 0.997100 0.812481 0.426636
Si Si4 0.495036 0.250000 0.000000
Si Si5 0.361127 0.350082 0.418903
Si Si6 0.804307 0.189275 0.577479
Si Si7 0.818720 0.812207 0.926324
O O1 0.678153 0.343156 0.750000
O O2 0.577369 0.402657 0.925549
O O3 0.564425 0.293408 0.921100
O O4 0.714979 0.342951 0.027462
O O5 0.539113 0.553701 0.250000
O O6 0.500000 0.500000 0.000000
O O7 0.584625 0.597756 0.988217
O O8 0.002593 0.750000 0.500000
O O9 0.983344 0.808468 0.250000
O O10 0.909987 0.839419 0.505354
O O11 0.097047 0.837635 0.455235
O O12 0.426555 0.294356 0.077378
O O13 0.336008 0.359891 0.250000
O O14 0.273104 0.340609 0.518282
O O15 0.799031 0.250000 0.500000
O O16 0.801940 0.198724 0.750000
O O17 0.823209 0.808672 0.750000
O O18 0.814630 0.750000 0.000000
#
# Coordination Sequence:
#
# PCOD9434915 Si02
#       7
#     8   8   8   4   8   8   8
#     4  10  20  32  49  73 101 130 165 205 246 295
#     4  10  22  39  55  74  99 130 172 213 253 299
#     4   9  17  29  43  63  94 132 168 201 239 289
#     4  10  20  30  48  72 102 132 166 200 246 300
#     4  11  21  33  52  74 102 135 167 207 254 298
#     4  10  19  29  45  69  99 133 168 202 243 294
#     4  11  20  30  46  70 100 133 169 205 246 297
#
# _framework density 16.337496999999999
#
# number of rings (size 3 to 8) (size 9 to 14) (size 15 to 20)
#    0.000    1.846    1.538    4.615    0.000    6.154 
#    0.000    0.000    0.000    0.000    0.000    1.077 
#    0.000    0.000    0.000    0.000    0.000    0.000 
#
# Total GULP energy -289616.216873 kJ/mol
# GULP energy per Si atom -5569.542632 kJ/mol
# Density = 1.630031 g / cm^3
# Si number density = 16.337497 Si / 1000 Ang^3
#
#
#
# Elastic Constant Matrix: (Units=GPa)
#
#
# Indices 1 2 3 4 5 6 
#
# 1 106.3109 19.7737 50.1258 0.0000 0.0000 0.0000
# 2 19.7737 73.1860 28.7412 0.0000 0.0000 0.0000
# 3 50.1258 28.7412 125.8716 0.0000 0.0000 0.0000
# 4 0.0000 0.0000 0.0000 15.0701 0.0000 0.0000
# 5 0.0000 0.0000 0.0000 0.0000 21.0927 0.0000
# 6 0.0000 0.0000 0.0000 0.0000 0.0000 8.4042
#
#
#
# Elastic Compliance Matrix: (Units=1/GPa)
#
#
# Indices 1 2 3 4 5 6 
#
# 1 0.011722 -0.001465 -0.004334 0.000000 0.000000 0.000000
# 2 -0.001465 0.015193 -0.002886 0.000000 0.000000 0.000000
# 3 -0.004334 -0.002886 0.010329 0.000000 0.000000 0.000000
# 4 0.000000 0.000000 0.000000 0.066357 0.000000 0.000000
# 5 0.000000 0.000000 0.000000 0.000000 0.047410 0.000000
# 6 0.000000 0.000000 0.000000 0.000000 0.000000 0.118988
#
#
# Mechanical properties :
#
#
# Convention : Reuss Voigt Hill
#
# Bulk Modulus (GPa) = 50.31323 55.84999 53.08161
# Shear Modulus (GPa) = 17.00724 22.69525 19.85124
#
# Velocity S-wave (km/s) = 3.22994 3.73118 3.48957
# Velocity P-wave (km/s) = 6.69127 7.26785 6.98551
#
# Compressibility (1/GPa) = 0.01987549
#
# Stress axis : x y z
#
# Youngs Moduli (GPa) = 85.30831 65.82008 96.81262
#
# Poissons Ratio (x) = 0.09645 0.41954
# Poissons Ratio (y) = 0.12500 0.27936
# Poissons Ratio (z) = 0.36969 0.18993
#
# Static dielectric constant tensor:
#      x y z
#    x 1.604390 0.000000 0.000000 
#    y 0.000000 1.513000 0.000000 
#    z 0.000000 0.000000 1.562140 
# 
# From -- ./inp_files/5018.got.cif
#   From: 2010.05.17/outbox.cif.g08.bks.cpg/sg57_3_cif.got.tgz:5018.got - 2010.06.03 13:58:18.
