data_PCOD9434650
_publ_section_title
;
Structure prediction by ZEFSAII (Michael W. Deem and Ramdas Pophale) SiO2 
 PCOD9434650
Probable space group: P B C M
;
_chemical_formula_sum "Si O2"
_cell_formula_units_Z 48
_cell_length_a 10.175403
_cell_length_b 18.243492
_cell_length_c 14.196459
_cell_angle_alpha 90.000000
_cell_angle_beta 90.000000
_cell_angle_gamma 90.000000
_cell_volume 2635.358009
_symmetry_space_group_name_H-M "P B C M"
_symmetry_group_IT_number 57
_symmetry_cell_setting 'orthorhombic'
loop_
_space_group_symop_operation_xyz
x,y,z
-x,-y,1/2+z
x,1/2-y,-z
-x,1/2+y,1/2-z
-x,-y,-z
x,y,1/2-z
-x,1/2+y,z
x,1/2-y,1/2+z
loop_
_atom_site_type_symbol
_atom_site_label
_atom_site_fract_x
_atom_site_fract_y
_atom_site_fract_z
Si Si1 0.876054 0.206350 0.639874
Si Si2 0.391413 0.829362 0.470779
Si Si3 0.868890 0.834545 0.028503
Si Si4 0.374423 0.098177 0.639942
Si Si5 0.694652 0.429627 0.641724
Si Si6 0.027018 0.874595 0.642228
O O1 0.860574 0.189644 0.750000
O O2 0.746476 0.185527 0.582250
O O3 0.907184 0.293449 0.631389
O O4 0.002785 0.167136 0.595460
O O5 0.446086 0.750000 0.500000
O O6 0.491441 0.871446 0.403468
O O7 0.366149 0.876119 0.564726
O O8 0.745967 0.868009 0.081614
O O9 0.842395 0.750000 0.000000
O O10 0.912854 0.877566 0.934452
O O11 0.363190 0.117991 0.750000
O O12 0.364136 0.010377 0.632745
O O13 0.675630 0.403558 0.750000
O O14 0.852649 0.430147 0.626676
O O15 0.980436 0.880968 0.750000
#
# Coordination Sequence:
#
# PCOD9434650 Si02
#       6
#     8   8   8   8   8   8
#     4  10  18  32  59  86 112 141 191 241 277 322
#     4  12  21  38  60  88 108 146 196 243 278 325
#     4  10  19  37  57  85 112 150 190 233 282 332
#     4  11  25  39  55  81 122 156 182 225 294 351
#     4  10  21  39  59  83 115 154 187 228 286 344
#     4   9  17  33  58  85 109 143 189 234 273 323
#
# _framework density 18.213844000000002
#
# number of rings (size 3 to 8) (size 9 to 14) (size 15 to 20)
#    0.000    1.667    3.333    2.500    0.000    2.000 
#    0.000    0.833    0.000    1.000    0.000    0.000 
#    0.000    0.000    0.000    0.000    0.000    0.000 
#
# Total GULP energy -268076.924947 kJ/mol
# GULP energy per Si atom -5584.935936 kJ/mol
# Density = 1.817239 g / cm^3
# Si number density = 18.213844 Si / 1000 Ang^3
#
#
#
# Elastic Constant Matrix: (Units=GPa)
#
#
# Indices 1 2 3 4 5 6 
#
# 1 65.3238 13.4777 48.4447 0.0000 0.0000 0.0000
# 2 13.4777 35.3764 42.8869 0.0000 0.0000 0.0000
# 3 48.4447 42.8869 147.5937 0.0000 0.0000 0.0000
# 4 0.0000 0.0000 0.0000 24.1346 0.0000 0.0000
# 5 0.0000 0.0000 0.0000 0.0000 29.0229 0.0000
# 6 0.0000 0.0000 0.0000 0.0000 0.0000 5.3079
#
#
#
# Elastic Compliance Matrix: (Units=1/GPa)
#
#
# Indices 1 2 3 4 5 6 
#
# 1 0.020240 0.000529 -0.006797 0.000000 0.000000 0.000000
# 2 0.000529 0.043654 -0.012858 0.000000 0.000000 0.000000
# 3 -0.006797 -0.012858 0.012743 0.000000 0.000000 0.000000
# 4 0.000000 0.000000 0.000000 0.041434 0.000000 0.000000
# 5 0.000000 0.000000 0.000000 0.000000 0.034456 0.000000
# 6 0.000000 0.000000 0.000000 0.000000 0.000000 0.188397
#
#
# Mechanical properties :
#
#
# Convention : Reuss Voigt Hill
#
# Bulk Modulus (GPa) = 26.05256 50.87916 38.46586
# Shear Modulus (GPa) = 12.75604 21.25873 17.00739
#
# Velocity S-wave (km/s) = 2.64928 3.42010 3.05907
# Velocity P-wave (km/s) = 4.86755 6.60235 5.80018
#
# Compressibility (1/GPa) = 0.03838395
#
# Stress axis : x y z
#
# Youngs Moduli (GPa) = 49.40713 22.90735 78.47640
#
# Poissons Ratio (x) = -0.01212 0.53341
# Poissons Ratio (y) = -0.02614 1.00908
# Poissons Ratio (z) = 0.33583 0.29455
#
# Static dielectric constant tensor:
#      x y z
#    x 1.601730 0.000000 0.000000 
#    y 0.000000 1.625080 0.000000 
#    z 0.000000 0.000000 1.631430 
# 
# From -- ./inp_files/16360.got.cif
#   From: 2010.05.17/outbox.cif.g08.bks.cpg/sg57_9_cif.got.tgz:16360.got - 2010.06.03 13:58:18.
