data_PCOD9435417
_publ_section_title
;
Structure prediction by ZEFSAII (Michael W. Deem and Ramdas Pophale) SiO2 
 PCOD9435417
Probable space group: P B C M
;
_chemical_formula_sum "Si O2"
_cell_formula_units_Z 56
_cell_length_a 19.893666
_cell_length_b 18.449829
_cell_length_c 8.718481
_cell_angle_alpha 90.000000
_cell_angle_beta 90.000000
_cell_angle_gamma 90.000000
_cell_volume 3199.985371
_symmetry_space_group_name_H-M "P B C M"
_symmetry_group_IT_number 57
_symmetry_cell_setting 'orthorhombic'
loop_
_space_group_symop_operation_xyz
x,y,z
-x,-y,1/2+z
x,1/2-y,-z
-x,1/2+y,1/2-z
-x,-y,-z
x,y,1/2-z
-x,1/2+y,z
x,1/2-y,1/2+z
loop_
_atom_site_type_symbol
_atom_site_label
_atom_site_fract_x
_atom_site_fract_y
_atom_site_fract_z
Si Si1 0.639668 0.326727 0.566524
Si Si2 0.911660 0.331305 0.064975
Si Si3 0.571346 0.022933 0.066661
Si Si4 0.058832 0.168056 0.565798
Si Si5 0.298443 0.045997 0.434259
Si Si6 0.228871 0.604534 0.934669
Si Si7 0.197283 0.330895 0.934002
O O1 0.616721 0.250000 0.500000
O O2 0.639763 0.323614 0.750000
O O3 0.594797 0.396002 0.517501
O O4 0.715058 0.343633 0.508151
O O5 0.910674 0.326705 0.250000
O O6 0.846390 0.375977 0.015183
O O7 0.985331 0.362706 0.023326
O O8 0.906259 0.250000 0.000000
O O9 0.568452 0.022415 0.250000
O O10 0.630121 0.969197 0.010738
O O11 0.500000 0.000000 0.000000
O O12 0.057162 0.250000 0.500000
O O13 0.064921 0.169928 0.750000
O O14 0.126758 0.136198 0.494825
O O15 0.307242 0.046821 0.250000
O O16 0.259365 0.118429 0.479972
O O17 0.251360 0.977037 0.472544
O O18 0.232432 0.612537 0.750000
O O19 0.194044 0.327434 0.750000
O O20 0.204214 0.250000 0.000000
#
# Coordination Sequence:
#
# PCOD9435417 Si02
#       7
#     8   8   8   8   8   8   8
#     4  10  20  33  51  78 106 134 168 203 238 284
#     4   9  17  27  42  65  93 126 164 203 244 288
#     4  10  21  37  58  81 106 134 165 199 240 290
#     4   9  16  27  43  64  91 124 162 204 248 293
#     4   9  19  35  54  74  98 128 162 198 243 298
#     4   9  17  31  49  69  97 132 165 202 246 292
#     4  10  19  32  51  73  95 124 164 209 252 297
#
# _framework density 17.500078999999999
#
# number of rings (size 3 to 8) (size 9 to 14) (size 15 to 20)
#    0.000    2.571    0.000    3.000    0.000    5.143 
#    0.000    1.429    0.000    0.000    0.000    0.000 
#    0.000    0.000    0.000    0.000    0.000    0.000 
#
# Total GULP energy -312148.432950 kJ/mol
# GULP energy per Si atom -5574.079160 kJ/mol
# Density = 1.746025 g / cm^3
# Si number density = 17.500079 Si / 1000 Ang^3
#
#
#
# Elastic Constant Matrix: (Units=GPa)
#
#
# Indices 1 2 3 4 5 6 
#
# 1 178.0354 74.0836 44.4294 0.0000 0.0000 0.0000
# 2 74.0836 71.0638 26.7894 0.0000 0.0000 0.0000
# 3 44.4294 26.7894 33.6604 0.0000 0.0000 0.0000
# 4 0.0000 0.0000 0.0000 20.0827 0.0000 0.0000
# 5 0.0000 0.0000 0.0000 0.0000 27.9843 0.0000
# 6 0.0000 0.0000 0.0000 0.0000 0.0000 19.8464
#
#
#
# Elastic Compliance Matrix: (Units=1/GPa)
#
#
# Indices 1 2 3 4 5 6 
#
# 1 0.011205 -0.008723 -0.007848 0.000000 0.000000 0.000000
# 2 -0.008723 0.026894 -0.009891 0.000000 0.000000 0.000000
# 3 -0.007848 -0.009891 0.047938 0.000000 0.000000 0.000000
# 4 0.000000 0.000000 0.000000 0.049794 0.000000 0.000000
# 5 0.000000 0.000000 0.000000 0.000000 0.035734 0.000000
# 6 0.000000 0.000000 0.000000 0.000000 0.000000 0.050387
#
#
# Mechanical properties :
#
#
# Convention : Reuss Voigt Hill
#
# Bulk Modulus (GPa) = 30.19754 63.70715 46.95235
# Shear Modulus (GPa) = 17.48786 22.74650 20.11718
#
# Velocity S-wave (km/s) = 3.16460 3.60918 3.39418
# Velocity P-wave (km/s) = 5.53589 7.33834 6.49989
#
# Compressibility (1/GPa) = 0.03311527
#
# Stress axis : x y z
#
# Youngs Moduli (GPa) = 89.24654 37.18329 20.86012
#
# Poissons Ratio (x) = 0.32434 0.16370
# Poissons Ratio (y) = 0.77847 0.20632
# Poissons Ratio (z) = 0.70036 0.36777
#
# Static dielectric constant tensor:
#      x y z
#    x 1.608610 0.000000 0.000000 
#    y 0.000000 1.591430 0.000000 
#    z 0.000000 0.000000 1.587460 
# 
# From -- ./inp_files/8195.got.cif
#   From: 2010.05.17/outbox.cif.g08.bks.cpg/sg57_5_cif.got.tgz:8195.got - 2010.06.03 13:58:18.
