data_PCOD9435596
_publ_section_title
;
Structure prediction by ZEFSAII (Michael W. Deem and Ramdas Pophale) SiO2 
 PCOD9435596
Probable space group: P B C M
;
_chemical_formula_sum "Si O2"
_cell_formula_units_Z 56
_cell_length_a 10.418859
_cell_length_b 21.066361
_cell_length_c 13.587322
_cell_angle_alpha 90.000000
_cell_angle_beta 90.000000
_cell_angle_gamma 90.000000
_cell_volume 2982.246589
_symmetry_space_group_name_H-M "P B C M"
_symmetry_group_IT_number 57
_symmetry_cell_setting 'orthorhombic'
loop_
_space_group_symop_operation_xyz
x,y,z
-x,-y,1/2+z
x,1/2-y,-z
-x,1/2+y,1/2-z
-x,-y,-z
x,y,1/2-z
-x,1/2+y,z
x,1/2-y,1/2+z
loop_
_atom_site_type_symbol
_atom_site_label
_atom_site_fract_x
_atom_site_fract_y
_atom_site_fract_z
Si Si1 0.519759 0.354463 0.867641
Si Si2 0.282908 0.682203 0.971184
Si Si3 0.099210 0.003881 0.637120
Si Si4 0.841025 0.441540 0.440144
Si Si5 0.419637 0.004967 0.368379
Si Si6 0.545492 0.716009 0.867140
Si Si7 0.656468 0.586085 0.631256
O O1 0.547016 0.352218 0.750000
O O2 0.449261 0.420923 0.886824
O O3 0.441397 0.290086 0.895392
O O4 0.647930 0.349391 0.933425
O O5 0.188349 0.632059 0.923886
O O6 0.401574 0.697253 0.898918
O O7 0.225218 0.750000 0.000000
O O8 0.122097 0.983930 0.750000
O O9 0.118774 0.951097 0.553918
O O10 0.205319 0.056887 0.609266
O O11 0.957165 0.031632 0.624216
O O12 0.709847 0.479107 0.416900
O O13 0.405959 0.997891 0.250000
O O14 0.541310 0.961481 0.399253
O O15 0.556262 0.715609 0.750000
O O16 0.632894 0.657874 0.903978
O O17 0.648620 0.587339 0.750000
#
# Coordination Sequence:
#
# PCOD9435596 Si02
#       7
#     8   8   8   8   8   8   8
#     4   9  19  32  48  80 120 146 172 225 284 325
#     4  10  20  33  55  83 114 142 183 225 274 325
#     4  10  23  39  55  78 111 145 182 230 281 329
#     4  11  22  36  59  81 108 147 184 228 279 328
#     4  10  19  32  56  87 111 139 185 230 268 324
#     4   9  17  31  51  79 111 144 179 222 275 324
#     4   9  17  31  54  80 106 139 180 223 266 320
#
# _framework density 18.77779
#
# number of rings (size 3 to 8) (size 9 to 14) (size 15 to 20)
#    0.000    2.286    1.429    1.286    2.000    3.429 
#    0.000    0.000    6.286    0.000    0.000    0.000 
#    0.000    0.000    0.000    0.000    0.000    0.000 
#
# Total GULP energy -312391.133033 kJ/mol
# GULP energy per Si atom -5578.413090 kJ/mol
# Density = 1.873505 g / cm^3
# Si number density = 18.777790 Si / 1000 Ang^3
#
#
#
# Elastic Constant Matrix: (Units=GPa)
#
#
# Indices 1 2 3 4 5 6 
#
# 1 82.0467 30.7295 7.6325 0.0000 0.0000 0.0000
# 2 30.7295 97.6242 8.0962 0.0000 0.0000 0.0000
# 3 7.6325 8.0962 56.4956 0.0000 0.0000 0.0000
# 4 0.0000 0.0000 0.0000 24.4231 0.0000 0.0000
# 5 0.0000 0.0000 0.0000 0.0000 10.8524 0.0000
# 6 0.0000 0.0000 0.0000 0.0000 0.0000 14.5050
#
#
#
# Elastic Compliance Matrix: (Units=1/GPa)
#
#
# Indices 1 2 3 4 5 6 
#
# 1 0.013906 -0.004272 -0.001266 0.000000 0.000000 0.000000
# 2 -0.004272 0.011679 -0.001097 0.000000 0.000000 0.000000
# 3 -0.001266 -0.001097 0.018029 0.000000 0.000000 0.000000
# 4 0.000000 0.000000 0.000000 0.040945 0.000000 0.000000
# 5 0.000000 0.000000 0.000000 0.000000 0.092146 0.000000
# 6 0.000000 0.000000 0.000000 0.000000 0.000000 0.068942
#
#
# Mechanical properties :
#
#
# Convention : Reuss Voigt Hill
#
# Bulk Modulus (GPa) = 32.95599 36.56476 34.76038
# Shear Modulus (GPa) = 18.58520 22.60331 20.59426
#
# Velocity S-wave (km/s) = 3.14943 3.47324 3.31529
# Velocity P-wave (km/s) = 5.55102 5.96650 5.76251
#
# Compressibility (1/GPa) = 0.03034349
#
# Stress axis : x y z
#
# Youngs Moduli (GPa) = 71.91082 85.62312 55.46705
#
# Poissons Ratio (x) = 0.36580 0.07025
# Poissons Ratio (y) = 0.30722 0.06082
# Poissons Ratio (z) = 0.09107 0.09389
#
# Static dielectric constant tensor:
#      x y z
#    x 1.610440 0.000000 0.000000 
#    y 0.000000 1.677690 0.000000 
#    z 0.000000 0.000000 1.696530 
# 
# From -- ./inp_files/16759.got.cif
#   From: 2010.05.17/outbox.cif.g08.bks.cpg/sg57_9_cif.got.tgz:16759.got - 2010.06.03 13:58:18.
