data_PCOD9435066
_publ_section_title
;
Structure prediction by ZEFSAII (Michael W. Deem and Ramdas Pophale) SiO2 
 PCOD9435066
Probable space group: P B C M
;
_chemical_formula_sum "Si O2"
_cell_formula_units_Z 40
_cell_length_a 15.809147
_cell_length_b 5.202657
_cell_length_c 31.450804
_cell_angle_alpha 90.000000
_cell_angle_beta 90.000000
_cell_angle_gamma 90.000000
_cell_volume 2586.815083
_symmetry_space_group_name_H-M "P B C M"
_symmetry_group_IT_number 57
_symmetry_cell_setting 'orthorhombic'
loop_
_space_group_symop_operation_xyz
x,y,z
-x,-y,1/2+z
x,1/2-y,-z
-x,1/2+y,1/2-z
-x,-y,-z
x,y,1/2-z
-x,1/2+y,z
x,1/2-y,1/2+z
loop_
_atom_site_type_symbol
_atom_site_label
_atom_site_fract_x
_atom_site_fract_y
_atom_site_fract_z
Si Si1 0.440434 0.168215 0.656330
Si Si2 0.773833 0.250396 0.450414
Si Si3 0.965944 0.055787 0.951844
Si Si4 0.315544 0.248793 0.920820
Si Si5 0.446054 0.247117 0.250000
Si Si6 0.557969 0.750000 0.500000
O O1 0.508017 0.401771 0.651180
O O2 0.366356 0.196109 0.622234
O O3 0.405047 0.192189 0.704557
O O4 0.745189 0.250000 0.500000
O O5 0.871904 0.333112 0.451417
O O6 0.725164 0.469884 0.424391
O O7 0.753055 0.972290 0.431246
O O8 0.025202 0.274569 0.931839
O O9 0.000000 0.000000 0.000000
O O10 0.383723 0.238088 0.958652
O O11 0.524947 0.449746 0.250000
O O12 0.500000 0.500000 0.500000
#
# Coordination Sequence:
#
# PCOD9435066 Si02
#       6
#     8   8   8   8   4   4
#     4  10  19  35  52  70  92 121 162 201 243 281
#     4  12  21  34  46  66  92 125 162 189 230 279
#     4  10  19  30  50  66  83 114 161 192 231 267
#     4  12  23  33  46  64  95 127 156 198 233 273
#     4   8  16  30  54  74  86 110 152 204 246 288
#     4  12  22  32  42  56  80 124 168 190 210 248
#
# _framework density 15.463029000000001
#
# number of rings (size 3 to 8) (size 9 to 14) (size 15 to 20)
#    0.000    1.200    4.000    4.800    2.800    0.000 
#    0.000    0.000    0.000    0.000    0.000    0.000 
#    0.000    0.000    0.000   18.000    0.000    0.000 
#
# Total GULP energy -223030.497808 kJ/mol
# GULP energy per Si atom -5575.762445 kJ/mol
# Density = 1.542783 g / cm^3
# Si number density = 15.463029 Si / 1000 Ang^3
#
#
#
# Elastic Constant Matrix: (Units=GPa)
#
#
# Indices 1 2 3 4 5 6 
#
# 1 62.3803 15.3518 22.3190 0.0000 0.0000 0.0000
# 2 15.3518 107.6201 -3.2469 0.0000 0.0000 0.0000
# 3 22.3190 -3.2469 88.1375 0.0000 0.0000 0.0000
# 4 0.0000 0.0000 0.0000 14.1166 0.0000 0.0000
# 5 0.0000 0.0000 0.0000 0.0000 -17.8636 0.0000
# 6 0.0000 0.0000 0.0000 0.0000 0.0000 32.1797
#
#
#
# Elastic Compliance Matrix: (Units=1/GPa)
#
#
# Indices 1 2 3 4 5 6 
#
# 1 0.018418 -0.002771 -0.004766 0.000000 0.000000 0.000000
# 2 -0.002771 0.009719 0.001060 0.000000 0.000000 0.000000
# 3 -0.004766 0.001060 0.012592 0.000000 0.000000 0.000000
# 4 0.000000 0.000000 0.000000 0.070839 0.000000 0.000000
# 5 0.000000 0.000000 0.000000 0.000000 -0.055980 0.000000
# 6 0.000000 0.000000 0.000000 0.000000 0.000000 0.031076
#
#
# Mechanical properties :
#
#
# Convention : Reuss Voigt Hill
#
# Bulk Modulus (GPa) = 36.00455 36.33174 36.16814
# Shear Modulus (GPa) = 45.92363 20.60078 33.26221
#
# Velocity S-wave (km/s) = 5.45559 3.65397 4.64300
# Velocity P-wave (km/s) = 7.93848 6.43031 7.22386
#
# Compressibility (1/GPa) = 0.02777427
#
# Stress axis : x y z
#
# Youngs Moduli (GPa) = 54.29501 102.88903 79.41642
#
# Poissons Ratio (x) = 0.28511 0.37850
# Poissons Ratio (y) = 0.15046 -0.08416
# Poissons Ratio (z) = 0.25877 -0.10904
#
# Static dielectric constant tensor:
#      x y z
#    x 1.515790 0.000000 0.000000 
#    y 0.000000 1.614900 0.000000 
#    z 0.000000 0.000000 1.558450 
# 
# From -- ./inp_files/29810.got.cif
#   From: 2010.05.17/outbox.cif.g08.bks.cpg/sg57_15_cif.got.tgz:29810.got - 2010.06.03 13:58:18.
