data_PCOD9435738
_publ_section_title
;
Structure prediction by ZEFSAII (Michael W. Deem and Ramdas Pophale) SiO2 
 PCOD9435738
Probable space group: P B C M
;
_chemical_formula_sum "Si O2"
_cell_formula_units_Z 56
_cell_length_a 15.098438
_cell_length_b 23.176121
_cell_length_c 8.469442
_cell_angle_alpha 90.000000
_cell_angle_beta 90.000000
_cell_angle_gamma 90.000000
_cell_volume 2963.654467
_symmetry_space_group_name_H-M "P B C M"
_symmetry_group_IT_number 57
_symmetry_cell_setting 'orthorhombic'
loop_
_space_group_symop_operation_xyz
x,y,z
-x,-y,1/2+z
x,1/2-y,-z
-x,1/2+y,1/2-z
-x,-y,-z
x,y,1/2-z
-x,1/2+y,z
x,1/2-y,1/2+z
loop_
_atom_site_type_symbol
_atom_site_label
_atom_site_fract_x
_atom_site_fract_y
_atom_site_fract_z
Si Si1 0.920987 0.687418 0.560425
Si Si2 0.096115 0.981339 0.059616
Si Si3 0.607097 0.553476 0.938782
Si Si4 0.413360 0.577543 0.438232
Si Si5 0.116571 0.649892 0.557629
Si Si6 0.692305 0.188550 0.561216
Si Si7 0.210816 0.089255 0.439333
O O1 0.893998 0.750000 0.500000
O O2 0.920034 0.685214 0.750000
O O3 0.854661 0.639356 0.495382
O O4 0.022320 0.675500 0.505921
O O5 0.094132 0.981103 0.250000
O O6 0.119013 0.916924 0.007079
O O7 0.166286 0.029017 0.007811
O O8 0.000000 0.000000 0.000000
O O9 0.597150 0.553450 0.750000
O O10 0.620128 0.486290 0.990812
O O11 0.516649 0.576718 0.014251
O O12 0.691491 0.590457 0.989350
O O13 0.404666 0.580661 0.250000
O O14 0.362240 0.631984 0.510099
O O15 0.116839 0.651305 0.750000
O O16 0.205990 0.680727 0.502776
O O17 0.657323 0.250000 0.500000
O O18 0.693206 0.190180 0.750000
O O19 0.216260 0.089926 0.250000
#
# Coordination Sequence:
#
# PCOD9435738 Si02
#       7
#     8   8   8   8   8   8   8
#     4  11  22  38  57  77 110 152 198 242 284 335
#     4  10  19  33  53  81 114 149 188 233 285 334
#     4  10  21  38  63  91 118 151 189 234 291 348
#     4  10  21  39  62  90 120 150 189 236 289 349
#     4   9  19  35  56  81 114 153 192 236 286 339
#     4  11  22  38  59  85 119 158 199 243 292 347
#     4  11  22  36  57  86 118 152 191 235 286 342
#
# _framework density 18.895591
#
# number of rings (size 3 to 8) (size 9 to 14) (size 15 to 20)
#    0.000    1.714    1.429    3.429    0.000    3.429 
#    0.000    4.286    0.000    0.000    0.000    0.000 
#    0.000    0.000    0.000    0.000    0.000    0.000 
#
# Total GULP energy -312825.333551 kJ/mol
# GULP energy per Si atom -5586.166671 kJ/mol
# Density = 1.885258 g / cm^3
# Si number density = 18.895591 Si / 1000 Ang^3
#
#
#
# Elastic Constant Matrix: (Units=GPa)
#
#
# Indices 1 2 3 4 5 6 
#
# 1 103.0546 43.0785 10.7211 0.0000 0.0000 0.0000
# 2 43.0785 104.5784 14.8142 0.0000 0.0000 0.0000
# 3 10.7211 14.8142 30.4989 0.0000 0.0000 0.0000
# 4 0.0000 0.0000 0.0000 23.5757 0.0000 0.0000
# 5 0.0000 0.0000 0.0000 0.0000 26.0368 0.0000
# 6 0.0000 0.0000 0.0000 0.0000 0.0000 23.0037
#
#
#
# Elastic Compliance Matrix: (Units=1/GPa)
#
#
# Indices 1 2 3 4 5 6 
#
# 1 0.011826 -0.004599 -0.001923 0.000000 0.000000 0.000000
# 2 -0.004599 0.012057 -0.004240 0.000000 0.000000 0.000000
# 3 -0.001923 -0.004240 0.035524 0.000000 0.000000 0.000000
# 4 0.000000 0.000000 0.000000 0.042416 0.000000 0.000000
# 5 0.000000 0.000000 0.000000 0.000000 0.038407 0.000000
# 6 0.000000 0.000000 0.000000 0.000000 0.000000 0.043471
#
#
# Mechanical properties :
#
#
# Convention : Reuss Voigt Hill
#
# Bulk Modulus (GPa) = 26.39740 41.70663 34.05201
# Shear Modulus (GPa) = 22.95116 25.82445 24.38781
#
# Velocity S-wave (km/s) = 3.48894 3.70089 3.59648
# Velocity P-wave (km/s) = 5.49825 6.35470 5.94192
#
# Compressibility (1/GPa) = 0.03788252
#
# Stress axis : x y z
#
# Youngs Moduli (GPa) = 84.55828 82.93754 28.15035
#
# Poissons Ratio (x) = 0.38143 0.05414
# Poissons Ratio (y) = 0.38889 0.11935
# Poissons Ratio (z) = 0.16263 0.35164
#
# Static dielectric constant tensor:
#      x y z
#    x 1.642830 0.000000 0.000000 
#    y 0.000000 1.628460 0.000000 
#    z 0.000000 0.000000 1.646240 
# 
# From -- ./inp_files/5209.got.cif
#   From: 2010.05.17/outbox.cif.g08.bks.cpg/sg57_3_cif.got.tgz:5209.got - 2010.06.03 13:58:18.
