data_PCOD9435892
_publ_section_title
;
Structure prediction by ZEFSAII (Michael W. Deem and Ramdas Pophale) SiO2 
 PCOD9435892
Probable space group: P B C M
;
_chemical_formula_sum "Si O2"
_cell_formula_units_Z 64
_cell_length_a 15.967408
_cell_length_b 24.424550
_cell_length_c 8.576383
_cell_angle_alpha 90.000000
_cell_angle_beta 90.000000
_cell_angle_gamma 90.000000
_cell_volume 3344.761540
_symmetry_space_group_name_H-M "P B C M"
_symmetry_group_IT_number 57
_symmetry_cell_setting 'orthorhombic'
loop_
_space_group_symop_operation_xyz
x,y,z
-x,-y,1/2+z
x,1/2-y,-z
-x,1/2+y,1/2-z
-x,-y,-z
x,y,1/2-z
-x,1/2+y,z
x,1/2-y,1/2+z
loop_
_atom_site_type_symbol
_atom_site_label
_atom_site_fract_x
_atom_site_fract_y
_atom_site_fract_z
Si Si1 0.595466 0.881135 0.438720
Si Si2 0.848103 0.002230 0.437679
Si Si3 0.095468 0.381143 0.438720
Si Si4 0.249998 0.311277 0.935259
Si Si5 0.408834 0.882988 0.437801
Si Si6 0.908836 0.117020 0.562200
Si Si7 0.348098 0.997777 0.562322
Si Si8 0.250002 0.811562 0.060957
O O1 0.600520 0.878766 0.250000
O O2 0.668050 0.843404 0.505913
O O3 0.501636 0.865165 0.488336
O O4 0.612447 0.944244 0.485011
O O5 0.852982 0.005767 0.250000
O O6 0.887564 0.944253 0.485013
O O7 0.891867 0.055094 0.509024
O O8 0.750002 0.002532 0.481809
O O9 0.100524 0.378775 0.250000
O O10 0.168057 0.343416 0.505912
O O11 0.001641 0.365163 0.488334
O O12 0.249997 0.309973 0.750000
O O13 0.249988 0.250000 0.000000
O O14 0.407970 0.882271 0.250000
O O15 0.391871 0.944915 0.490978
O O16 0.332804 0.844508 0.492098
O O17 0.907970 0.117739 0.750000
O O18 0.832808 0.155502 0.507899
O O19 0.352977 0.994240 0.750000
O O20 0.250002 0.810918 0.250000
O O21 0.250010 0.750000 0.000000
#
# Coordination Sequence:
#
# PCOD9435892 Si02
#       8
#     8   8   8   8   8   8   8   8
#     4  10  21  40  62  87 121 156 192 240 296 349
#     4  10  19  33  57  87 121 158 191 234 292 349
#     4  10  21  40  62  87 121 156 192 240 296 349
#     4  12  26  43  64  87 115 154 198 248 297 350
#     4  10  21  37  60  87 119 155 193 241 291 349
#     4  10  21  37  60  87 119 155 193 241 291 349
#     4  10  19  33  57  87 121 158 191 234 292 349
#     4  10  22  39  56  81 111 148 196 240 287 336
#
# _framework density 19.134398000000001
#
# number of rings (size 3 to 8) (size 9 to 14) (size 15 to 20)
#    0.000    1.750    2.500    1.875    0.000    4.000 
#    0.000    2.500    0.000    0.000    0.000    0.000 
#    0.000    0.000    0.000    0.000    0.000    0.000 
#
# Total GULP energy -357578.015497 kJ/mol
# GULP energy per Si atom -5587.156492 kJ/mol
# Density = 1.909085 g / cm^3
# Si number density = 19.134398 Si / 1000 Ang^3
#
#
#
# Elastic Constant Matrix: (Units=GPa)
#
#
# Indices 1 2 3 4 5 6 
#
# 1 212.8781 102.2911 41.4603 0.0000 0.0000 0.0000
# 2 102.2911 162.7276 29.6252 0.0000 0.0000 0.0000
# 3 41.4603 29.6252 14.0541 0.0000 0.0000 0.0000
# 4 0.0000 0.0000 0.0000 35.1894 0.0000 0.0000
# 5 0.0000 0.0000 0.0000 0.0000 13.3056 0.0000
# 6 0.0000 0.0000 0.0000 0.0000 0.0000 -1.7238
#
#
#
# Elastic Compliance Matrix: (Units=1/GPa)
#
#
# Indices 1 2 3 4 5 6 
#
# 1 0.011318 -0.001681 -0.029844 0.000000 0.000000 0.000000
# 2 -0.001681 0.010222 -0.016588 0.000000 0.000000 0.000000
# 3 -0.029844 -0.016588 0.194161 0.000000 0.000000 0.000000
# 4 0.000000 0.000000 0.000000 0.028418 0.000000 0.000000
# 5 0.000000 0.000000 0.000000 0.000000 0.075156 0.000000
# 6 0.000000 0.000000 0.000000 0.000000 0.000000 -0.580122
#
#
# Mechanical properties :
#
#
# Convention : Reuss Voigt Hill
#
# Bulk Modulus (GPa) = 8.36997 81.82366 45.09681
# Shear Modulus (GPa) = -40.06540 23.77312 -8.14614
#
# Velocity S-wave (km/s) = -4.58087 3.52863 -2.06557
# Velocity P-wave (km/s) = 4.85751 7.71084 4.23448
#
# Compressibility (1/GPa) = 0.11947479
#
# Stress axis : x y z
#
# Youngs Moduli (GPa) = 88.35597 97.82967 5.15036
#
# Poissons Ratio (x) = 0.16447 0.15371
# Poissons Ratio (y) = 0.14854 0.08543
# Poissons Ratio (z) = 2.63693 1.62276
#
# Static dielectric constant tensor:
#      x y z
#    x 1.679480 0.000000 0.000000 
#    y 0.000000 1.620200 0.000000 
#    z 0.000000 0.000000 1.646410 
# 
# From -- ./inp_files/5720.got.cif
#   From: 2010.05.17/outbox.cif.g08.bks.cpg/sg57_3_cif.got.tgz:5720.got - 2010.06.03 13:58:18.
