data_PCOD9435413
_publ_section_title
;
Structure prediction by ZEFSAII (Michael W. Deem and Ramdas Pophale) SiO2 
 PCOD9435413
Probable space group: P B C M
;
_chemical_formula_sum "Si O2"
_cell_formula_units_Z 56
_cell_length_a 17.316581
_cell_length_b 22.628982
_cell_length_c 8.361151
_cell_angle_alpha 90.000000
_cell_angle_beta 90.000000
_cell_angle_gamma 90.000000
_cell_volume 3276.372201
_symmetry_space_group_name_H-M "P B C M"
_symmetry_group_IT_number 57
_symmetry_cell_setting 'orthorhombic'
loop_
_space_group_symop_operation_xyz
x,y,z
-x,-y,1/2+z
x,1/2-y,-z
-x,1/2+y,1/2-z
-x,-y,-z
x,y,1/2-z
-x,1/2+y,z
x,1/2-y,1/2+z
loop_
_atom_site_type_symbol
_atom_site_label
_atom_site_fract_x
_atom_site_fract_y
_atom_site_fract_z
Si Si1 0.508140 0.077423 0.934828
Si Si2 0.629603 0.521486 0.438822
Si Si3 0.745433 0.163964 0.564588
Si Si4 0.918780 0.315162 0.558019
Si Si5 0.230155 0.961796 0.562417
Si Si6 0.941806 0.448221 0.057402
Si Si7 0.415128 0.688877 0.433960
O O1 0.494401 0.063002 0.750000
O O2 0.571901 0.030773 0.998441
O O3 0.426261 0.076187 0.024129
O O4 0.549783 0.138880 0.955716
O O5 0.641991 0.515636 0.250000
O O6 0.711247 0.514999 0.525599
O O7 0.734870 0.320001 0.250000
O O8 0.830580 0.181463 0.506350
O O9 0.740297 0.093314 0.542339
O O10 0.677275 0.188598 0.456305
O O11 0.949260 0.250000 0.500000
O O12 0.919467 0.315495 0.750000
O O13 0.954381 0.379158 0.500176
O O14 0.233559 0.946665 0.750000
O O15 0.141581 0.968087 0.511238
O O16 0.939877 0.446770 0.250000
O O17 0.000000 0.500000 0.000000
O O18 0.445543 0.750000 0.500000
O O19 0.434021 0.678049 0.250000
#
# Coordination Sequence:
#
# PCOD9435413 Si02
#       7
#     8   8   8   8   8   8   8
#     4  10  20  33  49  70  98 129 168 212 256 300
#     4  10  19  32  51  73 100 131 166 210 256 300
#     4  11  20  32  47  69 100 135 174 214 253 303
#     4  11  21  35  53  77 106 142 181 219 262 316
#     4  11  20  32  52  77 104 137 174 213 259 311
#     4  11  22  38  57  81 112 145 180 223 272 325
#     4  12  23  34  47  65  94 132 172 213 257 307
#
# _framework density 17.092075000000001
#
# number of rings (size 3 to 8) (size 9 to 14) (size 15 to 20)
#    0.000    1.143    1.429    9.429    0.000    1.143 
#    0.000    0.000    0.000    0.000    0.000    1.000 
#    0.000    0.000    0.000    0.000    0.000    0.000 
#
# Total GULP energy -312277.710360 kJ/mol
# GULP energy per Si atom -5576.387685 kJ/mol
# Density = 1.705317 g / cm^3
# Si number density = 17.092075 Si / 1000 Ang^3
#
#
#
# Elastic Constant Matrix: (Units=GPa)
#
#
# Indices 1 2 3 4 5 6 
#
# 1 61.0938 30.6754 12.0246 0.0000 0.0000 0.0000
# 2 30.6754 73.3306 11.0962 0.0000 0.0000 0.0000
# 3 12.0246 11.0962 106.5511 0.0000 0.0000 0.0000
# 4 0.0000 0.0000 0.0000 26.5599 0.0000 0.0000
# 5 0.0000 0.0000 0.0000 0.0000 24.6700 0.0000
# 6 0.0000 0.0000 0.0000 0.0000 0.0000 26.9063
#
#
#
# Elastic Compliance Matrix: (Units=1/GPa)
#
#
# Indices 1 2 3 4 5 6 
#
# 1 0.020946 -0.008539 -0.001475 0.000000 0.000000 0.000000
# 2 -0.008539 0.017336 -0.000842 0.000000 0.000000 0.000000
# 3 -0.001475 -0.000842 0.009639 0.000000 0.000000 0.000000
# 4 0.000000 0.000000 0.000000 0.037651 0.000000 0.000000
# 5 0.000000 0.000000 0.000000 0.000000 0.040535 0.000000
# 6 0.000000 0.000000 0.000000 0.000000 0.000000 0.037166
#
#
# Mechanical properties :
#
#
# Convention : Reuss Voigt Hill
#
# Bulk Modulus (GPa) = 38.15203 38.72977 38.44090
# Shear Modulus (GPa) = 25.81038 28.10586 26.95812
#
# Velocity S-wave (km/s) = 3.89019 4.05949 3.97574
# Velocity P-wave (km/s) = 6.52288 6.68441 6.60414
#
# Compressibility (1/GPa) = 0.02621093
#
# Stress axis : x y z
#
# Youngs Moduli (GPa) = 47.74210 57.68285 103.74262
#
# Poissons Ratio (x) = 0.49255 0.15298
# Poissons Ratio (y) = 0.40766 0.08733
# Poissons Ratio (z) = 0.07040 0.04855
#
# Static dielectric constant tensor:
#      x y z
#    x 1.585210 0.000000 0.000000 
#    y 0.000000 1.635370 0.000000 
#    z 0.000000 0.000000 1.569590 
# 
# From -- ./inp_files/5208.got.cif
#   From: 2010.05.17/outbox.cif.g08.bks.cpg/sg57_3_cif.got.tgz:5208.got - 2010.06.03 13:58:18.
