data_PCOD9435779
_publ_section_title
;
Structure prediction by ZEFSAII (Michael W. Deem and Ramdas Pophale) SiO2 
 PCOD9435779
Probable space group: P B C M
;
_chemical_formula_sum "Si O2"
_cell_formula_units_Z 40
_cell_length_a 11.928516
_cell_length_b 21.491572
_cell_length_c 8.637534
_cell_angle_alpha 90.000000
_cell_angle_beta 90.000000
_cell_angle_gamma 90.000000
_cell_volume 2214.340332
_symmetry_space_group_name_H-M "P B C M"
_symmetry_group_IT_number 57
_symmetry_cell_setting 'orthorhombic'
loop_
_space_group_symop_operation_xyz
x,y,z
-x,-y,1/2+z
x,1/2-y,-z
-x,1/2+y,1/2-z
-x,-y,-z
x,y,1/2-z
-x,1/2+y,z
x,1/2-y,1/2+z
loop_
_atom_site_type_symbol
_atom_site_label
_atom_site_fract_x
_atom_site_fract_y
_atom_site_fract_z
Si Si1 0.078146 0.055826 0.065871
Si Si2 0.464042 0.587440 0.434777
Si Si3 0.323566 0.463474 0.066534
Si Si4 0.031609 0.820756 0.065229
Si Si5 0.271040 0.818378 0.935194
O O1 0.063653 0.057456 0.250000
O O2 0.206876 0.042461 0.021058
O O3 0.046424 0.123812 0.997642
O O4 0.000000 0.000000 0.000000
O O5 0.484853 0.585174 0.250000
O O6 0.582515 0.587039 0.520609
O O7 0.388302 0.527274 0.474684
O O8 0.382248 0.643774 0.471704
O O9 0.302081 0.463071 0.250000
O O10 0.024604 0.817305 0.250000
O O11 0.013032 0.750000 0.000000
O O12 0.156538 0.841569 0.013132
O O13 0.254428 0.818992 0.750000
O O14 0.285570 0.750000 0.000000
#
# Coordination Sequence:
#
# PCOD9435779 Si02
#       5
#     8   8   8   8   8
#     4  12  24  39  59  85 116 149 190 236 283 335
#     4   9  19  35  54  77 108 142 176 221 275 327
#     4  10  20  35  56  81 108 140 180 225 277 331
#     4  11  22  38  59  84 115 151 190 232 283 337
#     4  10  19  33  54  80 110 143 182 225 270 322
#
# _framework density 18.064070000000001
#
# number of rings (size 3 to 8) (size 9 to 14) (size 15 to 20)
#    0.000    1.600    0.000    7.200    0.000    4.000 
#    0.000    1.000    0.000    2.400    0.000    0.000 
#    0.000    0.000    0.000    0.000    0.000    0.000 
#
# Total GULP energy -223254.418700 kJ/mol
# GULP energy per Si atom -5581.360468 kJ/mol
# Density = 1.802296 g / cm^3
# Si number density = 18.064070 Si / 1000 Ang^3
#
#
#
# Elastic Constant Matrix: (Units=GPa)
#
#
# Indices 1 2 3 4 5 6 
#
# 1 111.8062 39.0438 48.9310 0.0000 0.0000 0.0000
# 2 39.0438 38.8480 27.0925 0.0000 0.0000 0.0000
# 3 48.9310 27.0925 105.5634 0.0000 0.0000 0.0000
# 4 0.0000 0.0000 0.0000 28.2328 0.0000 0.0000
# 5 0.0000 0.0000 0.0000 0.0000 36.2228 0.0000
# 6 0.0000 0.0000 0.0000 0.0000 0.0000 27.5802
#
#
#
# Elastic Compliance Matrix: (Units=1/GPa)
#
#
# Indices 1 2 3 4 5 6 
#
# 1 0.014896 -0.012370 -0.003730 0.000000 0.000000 0.000000
# 2 -0.012370 0.041625 -0.004949 0.000000 0.000000 0.000000
# 3 -0.003730 -0.004949 0.012472 0.000000 0.000000 0.000000
# 4 0.000000 0.000000 0.000000 0.035420 0.000000 0.000000
# 5 0.000000 0.000000 0.000000 0.000000 0.027607 0.000000
# 6 0.000000 0.000000 0.000000 0.000000 0.000000 0.036258
#
#
# Mechanical properties :
#
#
# Convention : Reuss Voigt Hill
#
# Bulk Modulus (GPa) = 37.18144 54.03913 45.61029
# Shear Modulus (GPa) = 22.79551 27.81717 25.30634
#
# Velocity S-wave (km/s) = 3.55621 3.92844 3.74695
# Velocity P-wave (km/s) = 6.12291 7.11034 6.63502
#
# Compressibility (1/GPa) = 0.02689514
#
# Stress axis : x y z
#
# Youngs Moduli (GPa) = 67.13154 24.02391 80.17878
#
# Poissons Ratio (x) = 0.29717 0.29907
# Poissons Ratio (y) = 0.83041 0.39683
# Poissons Ratio (z) = 0.25040 0.11890
#
# Static dielectric constant tensor:
#      x y z
#    x 1.635310 0.000000 0.000000 
#    y 0.000000 1.643220 0.000000 
#    z 0.000000 0.000000 1.618930 
# 
# From -- ./inp_files/2882.got.cif
#   From: 2010.05.17/outbox.cif.g08.bks.cpg/sg57_2_cif.got.tgz:2882.got - 2010.06.03 13:58:18.
