data_PCOD9435673
_publ_section_title
;
Structure prediction by ZEFSAII (Michael W. Deem and Ramdas Pophale) SiO2 
 PCOD9435673
Probable space group: P B C M
;
_chemical_formula_sum "Si O2"
_cell_formula_units_Z 48
_cell_length_a 9.315115
_cell_length_b 16.875532
_cell_length_c 15.731282
_cell_angle_alpha 90.000000
_cell_angle_beta 90.000000
_cell_angle_gamma 90.000000
_cell_volume 2472.918537
_symmetry_space_group_name_H-M "P B C M"
_symmetry_group_IT_number 57
_symmetry_cell_setting 'orthorhombic'
loop_
_space_group_symop_operation_xyz
x,y,z
-x,-y,1/2+z
x,1/2-y,-z
-x,1/2+y,1/2-z
-x,-y,-z
x,y,1/2-z
-x,1/2+y,z
x,1/2-y,1/2+z
loop_
_atom_site_type_symbol
_atom_site_label
_atom_site_fract_x
_atom_site_fract_y
_atom_site_fract_z
Si Si1 0.022893 0.097921 0.919197
Si Si2 0.933936 0.768996 0.846439
Si Si3 0.808799 0.328098 0.555215
Si Si4 0.750612 0.472966 0.348620
Si Si5 0.262794 0.377710 0.959479
Si Si6 0.442433 0.589653 0.990694
O O1 0.057543 0.175315 0.863626
O O2 0.921042 0.039603 0.866855
O O3 0.168506 0.076615 0.968367
O O4 0.919834 0.124073 0.996412
O O5 0.891037 0.786573 0.750000
O O6 0.827336 0.806950 0.916633
O O7 0.094457 0.801931 0.865537
O O8 0.770200 0.250000 0.500000
O O9 0.667551 0.380908 0.563210
O O10 0.722175 0.463149 0.250000
O O11 0.714227 0.559908 0.383414
O O12 0.653142 0.412733 0.404767
O O13 0.414582 0.357833 0.002193
O O14 0.500000 0.500000 0.000000
#
# Coordination Sequence:
#
# PCOD9435673 Si02
#       6
#     8   8   8   8   8   8
#     4   9  18  33  54  75 102 136 171 207 258 319
#     4  10  19  33  52  78 105 132 173 225 262 296
#     4   8  16  31  51  71  94 133 174 203 246 312
#     4  10  19  34  54  77 103 136 177 220 255 297
#     4  10  19  33  53  77 105 140 172 208 263 322
#     4   9  19  34  52  72 101 139 172 203 251 314
#
# _framework density 19.410263
#
# number of rings (size 3 to 8) (size 9 to 14) (size 15 to 20)
#    0.000    2.667    0.000    3.000    0.000    2.667 
#    0.000    5.833    0.000    0.000    0.000    0.000 
#    0.000    0.000    0.000    0.000    0.000    0.000 
#
# Total GULP energy -267221.828109 kJ/mol
# GULP energy per Si atom -5567.121419 kJ/mol
# Density = 1.936608 g / cm^3
# Si number density = 19.410263 Si / 1000 Ang^3
#
#
#
# Elastic Constant Matrix: (Units=GPa)
#
#
# Indices 1 2 3 4 5 6 
#
# 1 103.3905 5.7171 29.1671 0.0000 0.0000 0.0000
# 2 5.7171 23.6377 -2.3738 0.0000 0.0000 0.0000
# 3 29.1671 -2.3738 93.3485 0.0000 0.0000 0.0000
# 4 0.0000 0.0000 0.0000 13.8884 0.0000 0.0000
# 5 0.0000 0.0000 0.0000 0.0000 15.2941 0.0000
# 6 0.0000 0.0000 0.0000 0.0000 0.0000 21.9138
#
#
#
# Elastic Compliance Matrix: (Units=1/GPa)
#
#
# Indices 1 2 3 4 5 6 
#
# 1 0.010810 -0.002961 -0.003453 0.000000 0.000000 0.000000
# 2 -0.002961 0.043225 0.002024 0.000000 0.000000 0.000000
# 3 -0.003453 0.002024 0.011843 0.000000 0.000000 0.000000
# 4 0.000000 0.000000 0.000000 0.072003 0.000000 0.000000
# 5 0.000000 0.000000 0.000000 0.000000 0.065385 0.000000
# 6 0.000000 0.000000 0.000000 0.000000 0.000000 0.045633
#
#
# Mechanical properties :
#
#
# Convention : Reuss Voigt Hill
#
# Bulk Modulus (GPa) = 17.51366 31.71082 24.61224
# Shear Modulus (GPa) = 18.06941 22.74367 20.40654
#
# Velocity S-wave (km/s) = 3.05441 3.42677 3.24594
# Velocity P-wave (km/s) = 4.63484 5.65947 5.17259
#
# Compressibility (1/GPa) = 0.05709827
#
# Stress axis : x y z
#
# Youngs Moduli (GPa) = 92.50780 23.13482 84.43882
#
# Poissons Ratio (x) = 0.06851 0.29156
# Poissons Ratio (y) = 0.27394 -0.17094
# Poissons Ratio (z) = 0.31942 -0.04684
#
# Static dielectric constant tensor:
#      x y z
#    x 1.747180 0.000000 0.000000 
#    y 0.000000 1.759800 0.000000 
#    z 0.000000 0.000000 1.670280 
# 
# From -- ./inp_files/16294.got.cif
#   From: 2010.05.17/outbox.cif.g08.bks.cpg/sg57_9_cif.got.tgz:16294.got - 2010.06.03 13:58:18.
