data_PCOD9435958
_publ_section_title
;
Structure prediction by ZEFSAII (Michael W. Deem and Ramdas Pophale) SiO2 
 PCOD9435958
Probable space group: P B C M
;
_chemical_formula_sum "Si O2"
_cell_formula_units_Z 64
_cell_length_a 15.707275
_cell_length_b 25.224691
_cell_length_c 9.131049
_cell_angle_alpha 90.000000
_cell_angle_beta 90.000000
_cell_angle_gamma 90.000000
_cell_volume 3617.823501
_symmetry_space_group_name_H-M "P B C M"
_symmetry_group_IT_number 57
_symmetry_cell_setting 'orthorhombic'
loop_
_space_group_symop_operation_xyz
x,y,z
-x,-y,1/2+z
x,1/2-y,-z
-x,1/2+y,1/2-z
-x,-y,-z
x,y,1/2-z
-x,1/2+y,z
x,1/2-y,1/2+z
loop_
_atom_site_type_symbol
_atom_site_label
_atom_site_fract_x
_atom_site_fract_y
_atom_site_fract_z
Si Si1 0.300283 0.976205 0.574314
Si Si2 0.021203 0.447516 0.412135
Si Si3 0.830159 0.094086 0.584700
Si Si4 0.110741 0.694291 0.424874
Si Si5 0.078527 0.150750 0.076454
Si Si6 0.261164 0.304899 0.925224
Si Si7 0.465723 0.553544 0.925076
Si Si8 0.645536 0.597220 0.575984
O O1 0.300660 0.971780 0.750000
O O2 0.215471 0.953002 0.502745
O O3 0.375441 0.940204 0.503849
O O4 0.317774 0.038326 0.538344
O O5 0.054194 0.459689 0.250000
O O6 0.080403 0.405316 0.493340
O O7 0.000000 0.500000 0.500000
O O8 0.929467 0.419695 0.401596
O O9 0.795310 0.099229 0.750000
O O10 0.830478 0.148473 0.493851
O O11 0.129304 0.750000 0.500000
O O12 0.120744 0.696357 0.250000
O O13 0.011099 0.679686 0.455341
O O14 0.079747 0.140096 0.250000
O O15 0.161410 0.184683 0.039082
O O16 0.269840 0.301515 0.750000
O O17 0.288409 0.250000 0.000000
O O18 0.311725 0.355659 0.986524
O O19 0.455293 0.546768 0.750000
O O20 0.543229 0.594389 0.947884
O O21 0.500000 0.500000 0.000000
O O22 0.660215 0.604732 0.750000
#
# Coordination Sequence:
#
# PCOD9435958 Si02
#       8
#     8   8   8   8   8   8   8   8
#     4  10  20  34  55  83 113 142 175 219 271 323
#     4  10  21  34  50  72 103 142 179 220 267 319
#     4  10  21  35  51  76 106 139 178 217 263 317
#     4  10  19  34  55  75 101 135 176 224 269 316
#     4   9  20  36  52  74 101 136 181 225 269 316
#     4  11  23  37  55  78 107 142 184 230 272 320
#     4   9  17  32  54  80 108 138 171 209 255 310
#     4   9  20  36  54  79 109 141 177 216 266 321
#
# _framework density 17.690194999999999
#
# number of rings (size 3 to 8) (size 9 to 14) (size 15 to 20)
#    0.000    2.250    0.000    3.375    1.750    6.000 
#    0.000    0.000    0.000    0.750    0.000    1.750 
#    0.000    0.000    0.000    0.000    0.000    0.000 
#
# Total GULP energy -356841.001733 kJ/mol
# GULP energy per Si atom -5575.640652 kJ/mol
# Density = 1.764993 g / cm^3
# Si number density = 17.690195 Si / 1000 Ang^3
#
#
#
# Elastic Constant Matrix: (Units=GPa)
#
#
# Indices 1 2 3 4 5 6 
#
# 1 46.2712 20.3528 29.8170 0.0000 0.0000 0.0000
# 2 20.3528 116.1553 63.1945 0.0000 0.0000 0.0000
# 3 29.8170 63.1945 79.3455 0.0000 0.0000 0.0000
# 4 0.0000 0.0000 0.0000 31.8658 0.0000 0.0000
# 5 0.0000 0.0000 0.0000 0.0000 27.7970 0.0000
# 6 0.0000 0.0000 0.0000 0.0000 0.0000 16.4450
#
#
#
# Elastic Compliance Matrix: (Units=1/GPa)
#
#
# Indices 1 2 3 4 5 6 
#
# 1 0.028660 0.001478 -0.011948 0.000000 0.000000 0.000000
# 2 0.001478 0.015268 -0.012716 0.000000 0.000000 0.000000
# 3 -0.011948 -0.012716 0.027220 0.000000 0.000000 0.000000
# 4 0.000000 0.000000 0.000000 0.031382 0.000000 0.000000
# 5 0.000000 0.000000 0.000000 0.000000 0.035975 0.000000
# 6 0.000000 0.000000 0.000000 0.000000 0.000000 0.060809
#
#
# Mechanical properties :
#
#
# Convention : Reuss Voigt Hill
#
# Bulk Modulus (GPa) = 40.35726 52.05563 46.20644
# Shear Modulus (GPa) = 19.68936 23.78208 21.73572
#
# Velocity S-wave (km/s) = 3.33980 3.67054 3.50907
# Velocity P-wave (km/s) = 6.14290 6.88868 6.52645
#
# Compressibility (1/GPa) = 0.02477869
#
# Stress axis : x y z
#
# Youngs Moduli (GPa) = 34.89123 65.49549 36.73727
#
# Poissons Ratio (x) = -0.09681 0.43892
# Poissons Ratio (y) = -0.05158 0.46714
# Poissons Ratio (z) = 0.41686 0.83283
#
# Static dielectric constant tensor:
#      x y z
#    x 1.663650 0.000000 0.000000 
#    y 0.000000 1.585800 0.000000 
#    z 0.000000 0.000000 1.609850 
# 
# From -- ./inp_files/5733.got.cif
#   From: 2010.05.17/outbox.cif.g08.bks.cpg/sg57_3_cif.got.tgz:5733.got - 2010.06.03 13:58:18.
