data_PCOD9435763
_publ_section_title
;
Structure prediction by ZEFSAII (Michael W. Deem and Ramdas Pophale) SiO2 
 PCOD9435763
Probable space group: P B C M
;
_chemical_formula_sum "Si O2"
_cell_formula_units_Z 40
_cell_length_a 13.105344
_cell_length_b 15.686214
_cell_length_c 9.339232
_cell_angle_alpha 90.000000
_cell_angle_beta 90.000000
_cell_angle_gamma 90.000000
_cell_volume 1919.896093
_symmetry_space_group_name_H-M "P B C M"
_symmetry_group_IT_number 57
_symmetry_cell_setting 'orthorhombic'
loop_
_space_group_symop_operation_xyz
x,y,z
-x,-y,1/2+z
x,1/2-y,-z
-x,1/2+y,1/2-z
-x,-y,-z
x,y,1/2-z
-x,1/2+y,z
x,1/2-y,1/2+z
loop_
_atom_site_type_symbol
_atom_site_label
_atom_site_fract_x
_atom_site_fract_y
_atom_site_fract_z
Si Si1 0.007952 0.332538 0.920542
Si Si2 0.586828 0.612892 0.414373
Si Si3 0.612319 0.405191 0.413407
Si Si4 0.214701 0.126969 0.913251
Si Si5 0.194251 0.576822 0.410887
O O1 0.019788 0.321519 0.750000
O O2 0.923288 0.404821 0.946620
O O3 0.964121 0.250000 0.000000
O O4 0.116586 0.348097 0.994165
O O5 0.410229 0.358520 0.750000
O O6 0.599654 0.509006 0.413114
O O7 0.479122 0.630069 0.489788
O O8 0.680604 0.648646 0.506509
O O9 0.603615 0.376446 0.250000
O O10 0.722659 0.386495 0.480507
O O11 0.210004 0.159954 0.750000
O O12 0.211152 0.024275 0.906000
O O13 0.212628 0.610794 0.250000
#
# Coordination Sequence:
#
# PCOD9435763 Si02
#       5
#     8   8   8   8   8
#     4  11  23  38  54  74 102 137 175 214 259 308
#     4   9  16  27  45  72 106 138 167 204 252 304
#     4   9  16  26  45  74 105 135 168 207 252 302
#     4  10  19  33  54  79 105 134 171 214 258 305
#     4   9  19  34  53  77 105 136 171 212 257 307
#
# _framework density 20.83446
#
# number of rings (size 3 to 8) (size 9 to 14) (size 15 to 20)
#    0.000    2.400    0.000    3.000    0.000    7.200 
#    0.000    0.000    0.000    1.200    0.000    5.600 
#    0.000    0.000    0.000    0.000    0.000    0.000 
#
# Total GULP energy -223340.388178 kJ/mol
# GULP energy per Si atom -5583.509704 kJ/mol
# Density = 2.078704 g / cm^3
# Si number density = 20.834460 Si / 1000 Ang^3
#
#
#
# Elastic Constant Matrix: (Units=GPa)
#
#
# Indices 1 2 3 4 5 6 
#
# 1 135.7526 15.9062 93.2887 0.0000 0.0000 0.0000
# 2 15.9062 15.8480 18.7835 0.0000 0.0000 0.0000
# 3 93.2887 18.7835 175.4113 0.0000 0.0000 0.0000
# 4 0.0000 0.0000 0.0000 12.7511 0.0000 0.0000
# 5 0.0000 0.0000 0.0000 0.0000 52.1713 0.0000
# 6 0.0000 0.0000 0.0000 0.0000 0.0000 -9.8240
#
#
#
# Elastic Compliance Matrix: (Units=1/GPa)
#
#
# Indices 1 2 3 4 5 6 
#
# 1 0.011960 -0.005114 -0.005813 0.000000 0.000000 0.000000
# 2 -0.005114 0.074459 -0.005253 0.000000 0.000000 0.000000
# 3 -0.005813 -0.005253 0.009355 0.000000 0.000000 0.000000
# 4 0.000000 0.000000 0.000000 0.078424 0.000000 0.000000
# 5 0.000000 0.000000 0.000000 0.000000 0.019168 0.000000
# 6 0.000000 0.000000 0.000000 0.000000 0.000000 -0.101792
#
#
# Mechanical properties :
#
#
# Convention : Reuss Voigt Hill
#
# Bulk Modulus (GPa) = 15.76970 64.77429 40.27200
# Shear Modulus (GPa) = 34.46508 24.28859 29.37684
#
# Velocity S-wave (km/s) = 4.07164 3.41807 3.75909
# Velocity P-wave (km/s) = 5.44884 6.83631 6.18162
#
# Compressibility (1/GPa) = 0.06341275
#
# Stress axis : x y z
#
# Youngs Moduli (GPa) = 83.60915 13.43020 106.89391
#
# Poissons Ratio (x) = 0.06869 0.62140
# Poissons Ratio (y) = 0.42760 0.56155
# Poissons Ratio (z) = 0.48604 0.07055
#
# Static dielectric constant tensor:
#      x y z
#    x 1.713000 0.000000 0.000000 
#    y 0.000000 2.063630 0.000000 
#    z 0.000000 0.000000 1.716670 
# 
# From -- ./inp_files/2643.got.cif
#   From: 2010.05.17/outbox.cif.g08.bks.cpg/sg57_2_cif.got.tgz:2643.got - 2010.06.03 13:58:18.
