data_PCOD9435823
_publ_section_title
;
Structure prediction by ZEFSAII (Michael W. Deem and Ramdas Pophale) SiO2 
 PCOD9435823
Probable space group: P B C M
;
_chemical_formula_sum "Si O2"
_cell_formula_units_Z 64
_cell_length_a 29.092612
_cell_length_b 12.927557
_cell_length_c 8.189636
_cell_angle_alpha 90.000000
_cell_angle_beta 90.000000
_cell_angle_gamma 90.000000
_cell_volume 3080.092616
_symmetry_space_group_name_H-M "P B C M"
_symmetry_group_IT_number 57
_symmetry_cell_setting 'orthorhombic'
loop_
_space_group_symop_operation_xyz
x,y,z
-x,-y,1/2+z
x,1/2-y,-z
-x,1/2+y,1/2-z
-x,-y,-z
x,y,1/2-z
-x,1/2+y,z
x,1/2-y,1/2+z
loop_
_atom_site_type_symbol
_atom_site_label
_atom_site_fract_x
_atom_site_fract_y
_atom_site_fract_z
Si Si1 0.232284 0.918228 0.556338
Si Si2 0.008063 0.372862 0.937461
Si Si3 0.422312 0.537623 0.942947
Si Si4 0.105432 0.082252 0.557575
Si Si5 0.206741 0.358581 0.445055
Si Si6 0.866784 0.362108 0.060394
Si Si7 0.516843 0.635652 0.944980
Si Si8 0.332224 0.639177 0.945376
O O1 0.222416 0.588901 0.250000
O O2 0.188373 0.869493 0.466859
O O3 0.281855 0.872721 0.520645
O O4 0.233197 0.038495 0.504057
O O5 0.992963 0.375372 0.750000
O O6 0.994493 0.250000 0.000000
O O7 0.062873 0.372706 0.960564
O O8 0.000000 0.500000 0.000000
O O9 0.419878 0.559500 0.750000
O O10 0.466308 0.601191 0.008724
O O11 0.371459 0.560628 0.005822
O O12 0.440943 0.424817 0.976463
O O13 0.099467 0.103722 0.750000
O O14 0.154107 0.127569 0.497176
O O15 0.110758 0.958279 0.533810
O O16 0.226307 0.250000 0.500000
O O17 0.204902 0.359559 0.250000
O O18 0.877599 0.374587 0.250000
O O19 0.881987 0.250000 0.000000
O O20 0.517558 0.620451 0.750000
O O21 0.522266 0.750000 0.000000
O O22 0.326873 0.633644 0.750000
O O23 0.350867 0.750000 0.000000
#
# Coordination Sequence:
#
# PCOD9435823 Si02
#       8
#     8   8   8   8   8   8   8   8
#     4  10  21  37  53  76 110 147 187 231 279 335
#     4  12  26  46  70  99 133 174 219 268 323 383
#     4   9  20  36  53  77 106 136 175 218 263 319
#     4  10  21  39  61  90 123 157 199 250 303 361
#     4   9  19  34  56  82 110 142 180 227 277 328
#     4  11  21  35  56  84 117 156 199 247 302 359
#     4  10  19  33  55  79 105 136 170 215 268 319
#     4  11  22  36  55  78 105 139 176 218 267 323
#
# _framework density 20.778596
#
# number of rings (size 3 to 8) (size 9 to 14) (size 15 to 20)
#    0.000    1.750    0.000    5.625    0.000    6.000 
#    0.000    3.125    0.000    1.500    0.000    0.000 
#    0.000    0.000    0.000    0.000    0.000    0.000 
#
# Total GULP energy -356543.261983 kJ/mol
# GULP energy per Si atom -5570.988468 kJ/mol
# Density = 2.073130 g / cm^3
# Si number density = 20.778596 Si / 1000 Ang^3
#
#
#
# Elastic Constant Matrix: (Units=GPa)
#
#
# Indices 1 2 3 4 5 6 
#
# 1 69.8524 12.2633 -3.2066 0.0000 0.0000 0.0000
# 2 12.2633 122.6748 -6.3133 0.0000 0.0000 0.0000
# 3 -3.2066 -6.3133 35.8705 0.0000 0.0000 0.0000
# 4 0.0000 0.0000 0.0000 33.4948 0.0000 0.0000
# 5 0.0000 0.0000 0.0000 0.0000 16.6144 0.0000
# 6 0.0000 0.0000 0.0000 0.0000 0.0000 5.1875
#
#
#
# Elastic Compliance Matrix: (Units=1/GPa)
#
#
# Indices 1 2 3 4 5 6 
#
# 1 0.014611 -0.001406 0.001059 0.000000 0.000000 0.000000
# 2 -0.001406 0.008361 0.001346 0.000000 0.000000 0.000000
# 3 0.001059 0.001346 0.028210 0.000000 0.000000 0.000000
# 4 0.000000 0.000000 0.000000 0.029855 0.000000 0.000000
# 5 0.000000 0.000000 0.000000 0.000000 0.060189 0.000000
# 6 0.000000 0.000000 0.000000 0.000000 0.000000 0.192770
#
#
# Mechanical properties :
#
#
# Convention : Reuss Voigt Hill
#
# Bulk Modulus (GPa) = 18.80431 25.98718 22.39575
# Shear Modulus (GPa) = 14.29692 26.10297 20.19994
#
# Velocity S-wave (km/s) = 2.62594 3.54820 3.12132
# Velocity P-wave (km/s) = 4.27359 5.41481 4.87769
#
# Compressibility (1/GPa) = 0.05317931
#
# Stress axis : x y z
#
# Youngs Moduli (GPa) = 68.43986 119.59624 35.44894
#
# Poissons Ratio (x) = 0.16817 -0.03753
# Poissons Ratio (y) = 0.09624 -0.04771
# Poissons Ratio (z) = -0.07245 -0.16097
#
# Static dielectric constant tensor:
#      x y z
#    x 1.723650 0.000000 0.000000 
#    y 0.000000 1.814810 0.000000 
#    z 0.000000 0.000000 1.754070 
# 
# From -- ./inp_files/10278.got.cif
#   From: 2010.05.17/outbox.cif.g08.bks.cpg/sg57_6_cif.got.tgz:10278.got - 2010.06.03 13:58:18.
