data_PCOD9435293
_publ_section_title
;
Structure prediction by ZEFSAII (Michael W. Deem and Ramdas Pophale) SiO2 
 PCOD9435293
Probable space group: P B C M
;
_chemical_formula_sum "Si O2"
_cell_formula_units_Z 56
_cell_length_a 22.194722
_cell_length_b 14.994025
_cell_length_c 8.784053
_cell_angle_alpha 90.000000
_cell_angle_beta 90.000000
_cell_angle_gamma 90.000000
_cell_volume 2923.229332
_symmetry_space_group_name_H-M "P B C M"
_symmetry_group_IT_number 57
_symmetry_cell_setting 'orthorhombic'
loop_
_space_group_symop_operation_xyz
x,y,z
-x,-y,1/2+z
x,1/2-y,-z
-x,1/2+y,1/2-z
-x,-y,-z
x,y,1/2-z
-x,1/2+y,z
x,1/2-y,1/2+z
loop_
_atom_site_type_symbol
_atom_site_label
_atom_site_fract_x
_atom_site_fract_y
_atom_site_fract_z
Si Si1 0.102913 0.655838 0.567330
Si Si2 0.531013 0.844819 0.567850
Si Si3 0.749839 0.651301 0.932140
Si Si4 0.633593 0.962203 0.433901
Si Si5 0.969623 0.843911 0.932302
Si Si6 0.610340 0.156659 0.432346
Si Si7 0.856811 0.965035 0.932627
O O1 0.124313 0.750000 0.500000
O O2 0.100566 0.661452 0.750000
O O3 0.034999 0.641384 0.505600
O O4 0.141249 0.568978 0.523849
O O5 0.551959 0.750000 0.500000
O O6 0.535620 0.843211 0.750000
O O7 0.572304 0.922215 0.500917
O O8 0.460540 0.854131 0.526295
O O9 0.750041 0.657418 0.750000
O O10 0.688744 0.600687 0.980643
O O11 0.752936 0.750000 0.000000
O O12 0.805686 0.591894 0.986711
O O13 0.629254 0.960840 0.250000
O O14 0.642139 0.065140 0.481173
O O15 0.975976 0.836341 0.750000
O O16 0.921701 0.920745 0.967017
O O17 0.946593 0.750000 0.000000
O O18 0.632324 0.250000 0.500000
O O19 0.613595 0.163117 0.250000
O O20 0.848540 0.958986 0.750000
#
# Coordination Sequence:
#
# PCOD9435293 Si02
#       7
#     8   8   8   8   8   8   8
#     4  10  20  35  55  81 111 142 177 219 265 317
#     4  10  19  31  52  81 110 143 177 216 267 321
#     4  11  24  40  59  80 106 140 178 220 266 314
#     4  10  21  37  55  78 108 142 180 223 266 314
#     4  10  19  32  52  80 111 142 175 216 267 320
#     4   9  19  35  54  79 111 141 176 220 266 317
#     4  10  22  38  56  79 108 142 182 224 266 313
#
# _framework density 19.156896
#
# number of rings (size 3 to 8) (size 9 to 14) (size 15 to 20)
#    0.000    2.000    0.000    4.286    0.000    6.857 
#    0.000    0.714    0.000    3.429    0.000    0.000 
#    0.000    0.000    0.000    0.000    0.000    0.000 
#
# Total GULP energy -312777.460897 kJ/mol
# GULP energy per Si atom -5585.311802 kJ/mol
# Density = 1.911329 g / cm^3
# Si number density = 19.156896 Si / 1000 Ang^3
#
#
#
# Elastic Constant Matrix: (Units=GPa)
#
#
# Indices 1 2 3 4 5 6 
#
# 1 40.7644 52.6278 22.4167 0.0000 0.0000 0.0000
# 2 52.6278 182.9376 47.4385 0.0000 0.0000 0.0000
# 3 22.4167 47.4385 32.1086 0.0000 0.0000 0.0000
# 4 0.0000 0.0000 0.0000 27.4407 0.0000 0.0000
# 5 0.0000 0.0000 0.0000 0.0000 13.6155 0.0000
# 6 0.0000 0.0000 0.0000 0.0000 0.0000 30.5264
#
#
#
# Elastic Compliance Matrix: (Units=1/GPa)
#
#
# Indices 1 2 3 4 5 6 
#
# 1 0.045995 -0.007951 -0.020364 0.000000 0.000000 0.000000
# 2 -0.007951 0.010236 -0.009572 0.000000 0.000000 0.000000
# 3 -0.020364 -0.009572 0.059503 0.000000 0.000000 0.000000
# 4 0.000000 0.000000 0.000000 0.036442 0.000000 0.000000
# 5 0.000000 0.000000 0.000000 0.000000 0.073446 0.000000
# 6 0.000000 0.000000 0.000000 0.000000 0.000000 0.032759
#
#
# Mechanical properties :
#
#
# Convention : Reuss Voigt Hill
#
# Bulk Modulus (GPa) = 25.02508 55.64186 40.33347
# Shear Modulus (GPa) = 14.38959 23.20502 18.79730
#
# Velocity S-wave (km/s) = 2.74367 3.48417 3.13586
# Velocity P-wave (km/s) = 4.80922 6.73010 5.84906
#
# Compressibility (1/GPa) = 0.03995991
#
# Stress axis : x y z
#
# Youngs Moduli (GPa) = 21.74162 97.69596 16.80589
#
# Poissons Ratio (x) = 0.77680 0.34223
# Poissons Ratio (y) = 0.17287 0.16086
# Poissons Ratio (z) = 0.44275 0.93511
#
# Static dielectric constant tensor:
#      x y z
#    x 1.647240 0.000000 0.000000 
#    y 0.000000 1.680770 0.000000 
#    z 0.000000 0.000000 1.649740 
# 
# From -- ./inp_files/8123.got.cif
#   From: 2010.05.17/outbox.cif.g08.bks.cpg/sg57_5_cif.got.tgz:8123.got - 2010.06.03 13:58:18.
