data_PCOD9435084
_publ_section_title
;
Structure prediction by ZEFSAII (Michael W. Deem and Ramdas Pophale) SiO2 
 PCOD9435084
Probable space group: P B C M
;
_chemical_formula_sum "Si O2"
_cell_formula_units_Z 64
_cell_length_a 16.276050
_cell_length_b 29.669686
_cell_length_c 8.120667
_cell_angle_alpha 90.000000
_cell_angle_beta 90.000000
_cell_angle_gamma 90.000000
_cell_volume 3921.513076
_symmetry_space_group_name_H-M "P B C M"
_symmetry_group_IT_number 57
_symmetry_cell_setting 'orthorhombic'
loop_
_space_group_symop_operation_xyz
x,y,z
-x,-y,1/2+z
x,1/2-y,-z
-x,1/2+y,1/2-z
-x,-y,-z
x,y,1/2-z
-x,1/2+y,z
x,1/2-y,1/2+z
loop_
_atom_site_type_symbol
_atom_site_label
_atom_site_fract_x
_atom_site_fract_y
_atom_site_fract_z
Si Si1 0.660308 0.644003 0.548363
Si Si2 0.594702 0.549793 0.551037
Si Si3 0.662663 0.143603 0.446006
Si Si4 0.498284 0.698174 0.553087
Si Si5 0.999437 0.697656 0.948567
Si Si6 0.594645 0.449532 0.949023
Si Si7 0.821691 0.302018 0.053693
Si Si8 0.179928 0.197728 0.550705
O O1 0.660907 0.644456 0.750000
O O2 0.648196 0.592298 0.495061
O O3 0.580109 0.672195 0.494699
O O4 0.743609 0.668026 0.491877
O O5 0.596480 0.549462 0.750000
O O6 0.500287 0.557404 0.498809
O O7 0.619149 0.499687 0.492884
O O8 0.665660 0.141118 0.250000
O O9 0.583729 0.173497 0.492790
O O10 0.646963 0.092894 0.510865
O O11 0.745770 0.167353 0.502639
O O12 0.499667 0.750000 0.500000
O O13 0.498014 0.696265 0.750000
O O14 0.999139 0.694299 0.750000
O O15 0.088618 0.680890 0.008264
O O16 0.910218 0.680546 0.006305
O O17 0.999302 0.750000 0.000000
O O18 0.598184 0.449771 0.750000
O O19 0.824915 0.301520 0.250000
O O20 0.809693 0.250000 0.000000
O O21 0.189783 0.250000 0.500000
O O22 0.180299 0.196701 0.750000
#
# Coordination Sequence:
#
# PCOD9435084 Si02
#       8
#     8   8   8   8   8   8   8   8
#     4   9  17  28  45  66  88 115 146 175 211 255
#     4   9  16  30  48  65  85 111 143 181 221 260
#     4  11  21  32  44  63  87 115 147 182 218 257
#     4  11  21  32  43  60  87 122 152 177 207 249
#     4   8  15  27  44  63  85 110 141 178 216 253
#     4   9  18  30  46  65  85 109 143 185 224 256
#     4  10  19  31  46  65  87 115 146 180 218 258
#     4   9  16  28  44  65  90 116 144 176 211 253
#
# _framework density 16.320231
#
# number of rings (size 3 to 8) (size 9 to 14) (size 15 to 20)
#    0.000    2.500    1.250    1.875    0.000    1.000 
#    0.000    1.250    0.000    0.000    0.000    0.875 
#    0.000    0.000    0.000    0.000    0.000    0.000 
#
# Total GULP energy -356570.003131 kJ/mol
# GULP energy per Si atom -5571.406299 kJ/mol
# Density = 1.628309 g / cm^3
# Si number density = 16.320231 Si / 1000 Ang^3
#
#
#
# Elastic Constant Matrix: (Units=GPa)
#
#
# Indices 1 2 3 4 5 6 
#
# 1 168.4048 89.4182 12.9718 0.0000 0.0000 0.0000
# 2 89.4182 130.7837 9.8048 0.0000 0.0000 0.0000
# 3 12.9718 9.8048 13.8141 0.0000 0.0000 0.0000
# 4 0.0000 0.0000 0.0000 3.9106 0.0000 0.0000
# 5 0.0000 0.0000 0.0000 0.0000 -0.3974 0.0000
# 6 0.0000 0.0000 0.0000 0.0000 0.0000 7.8597
#
#
#
# Elastic Compliance Matrix: (Units=1/GPa)
#
#
# Indices 1 2 3 4 5 6 
#
# 1 0.009591 -0.006213 -0.004596 0.000000 0.000000 0.000000
# 2 -0.006213 0.012101 -0.002755 0.000000 0.000000 0.000000
# 3 -0.004596 -0.002755 0.078661 0.000000 0.000000 0.000000
# 4 0.000000 0.000000 0.000000 0.255715 0.000000 0.000000
# 5 0.000000 0.000000 0.000000 0.000000 -2.516327 0.000000
# 6 0.000000 0.000000 0.000000 0.000000 0.000000 0.127231
#
#
# Mechanical properties :
#
#
# Convention : Reuss Voigt Hill
#
# Bulk Modulus (GPa) = 13.65652 59.71021 36.68337
# Shear Modulus (GPa) = -2.52335 15.66177 6.56921
#
# Velocity S-wave (km/s) = -1.24479 3.10119 2.00847
# Velocity P-wave (km/s) = 2.51396 7.03486 5.28248
#
# Compressibility (1/GPa) = 0.07322508
#
# Stress axis : x y z
#
# Youngs Moduli (GPa) = 104.26471 82.64115 12.71273
#
# Poissons Ratio (x) = 0.51344 0.05843
# Poissons Ratio (y) = 0.64778 0.03502
# Poissons Ratio (z) = 0.47925 0.22764
#
# Static dielectric constant tensor:
#      x y z
#    x 1.576350 0.000000 0.000000 
#    y 0.000000 1.552310 0.000000 
#    z 0.000000 0.000000 1.570750 
# 
# From -- ./inp_files/5977.got.cif
#   From: 2010.05.17/outbox.cif.g08.bks.cpg/sg57_3_cif.got.tgz:5977.got - 2010.06.03 13:58:18.
