data_PCOD9435130
_publ_section_title
;
Structure prediction by ZEFSAII (Michael W. Deem and Ramdas Pophale) SiO2 
 PCOD9435130
Probable space group: P B C M
;
_chemical_formula_sum "Si O2"
_cell_formula_units_Z 48
_cell_length_a 18.853374
_cell_length_b 14.829574
_cell_length_c 7.745146
_cell_angle_alpha 90.000000
_cell_angle_beta 90.000000
_cell_angle_gamma 90.000000
_cell_volume 2165.446045
_symmetry_space_group_name_H-M "P B C M"
_symmetry_group_IT_number 57
_symmetry_cell_setting 'orthorhombic'
loop_
_space_group_symop_operation_xyz
x,y,z
-x,-y,1/2+z
x,1/2-y,-z
-x,1/2+y,1/2-z
-x,-y,-z
x,y,1/2-z
-x,1/2+y,z
x,1/2-y,1/2+z
loop_
_atom_site_type_symbol
_atom_site_label
_atom_site_fract_x
_atom_site_fract_y
_atom_site_fract_z
Si Si1 0.175628 0.964296 0.463101
Si Si2 0.038020 0.854641 0.456124
Si Si3 0.522400 0.398002 0.042674
Si Si4 0.120958 0.146579 0.052295
Si Si5 0.670770 0.450197 0.044774
Si Si6 0.372552 0.346726 0.043845
O O1 0.175583 0.963006 0.250000
O O2 0.105928 0.910037 0.517167
O O3 0.166539 0.066838 0.529153
O O4 0.251248 0.926633 0.521846
O O5 0.048901 0.750000 0.500000
O O6 0.031254 0.864367 0.250000
O O7 0.961818 0.880512 0.533548
O O8 0.524885 0.384983 0.250000
O O9 0.603002 0.394696 0.974216
O O10 0.454239 0.344413 0.974497
O O11 0.500000 0.500000 0.000000
O O12 0.141023 0.145830 0.250000
O O13 0.128130 0.250000 0.000000
O O14 0.670742 0.434959 0.250000
O O15 0.659588 0.558506 0.020753
O O16 0.373967 0.354306 0.250000
O O17 0.338171 0.250000 0.000000
#
# Coordination Sequence:
#
# PCOD9435130 Si02
#       6
#     8   8   8   8   8   8
#     4   9  19  33  52  75 102 133 166 201 250 304
#     4  10  19  34  53  74  98 129 167 210 250 294
#     4   8  15  28  48  67  87 116 153 189 226 271
#     4  10  19  33  51  74 100 130 166 207 248 295
#     4   9  17  33  52  70  94 127 159 196 243 292
#     4  10  19  31  47  72  98 125 160 199 239 286
#
# _framework density 22.166332000000001
#
# number of rings (size 3 to 8) (size 9 to 14) (size 15 to 20)
#    0.000    2.667    0.000    3.000    0.000    1.333 
#    0.000    8.333    0.000    0.000    0.000    0.000 
#    0.000    0.000    0.000    0.000    0.000    0.000 
#
# Total GULP energy -267525.019754 kJ/mol
# GULP energy per Si atom -5573.437912 kJ/mol
# Density = 2.211588 g / cm^3
# Si number density = 22.166332 Si / 1000 Ang^3
#
#
#
# Elastic Constant Matrix: (Units=GPa)
#
#
# Indices 1 2 3 4 5 6 
#
# 1 61.0033 -3.0995 -15.3925 0.0000 0.0000 0.0000
# 2 -3.0995 14.7526 -12.6854 0.0000 0.0000 0.0000
# 3 -15.3925 -12.6854 30.6621 0.0000 0.0000 0.0000
# 4 0.0000 0.0000 0.0000 9.0227 0.0000 0.0000
# 5 0.0000 0.0000 0.0000 0.0000 3.4825 0.0000
# 6 0.0000 0.0000 0.0000 0.0000 0.0000 13.5648
#
#
#
# Elastic Compliance Matrix: (Units=1/GPa)
#
#
# Indices 1 2 3 4 5 6 
#
# 1 0.022807 0.022719 0.020849 0.000000 0.000000 0.000000
# 2 0.022719 0.127845 0.064297 0.000000 0.000000 0.000000
# 3 0.020849 0.064297 0.069680 0.000000 0.000000 0.000000
# 4 0.000000 0.000000 0.000000 0.110831 0.000000 0.000000
# 5 0.000000 0.000000 0.000000 0.000000 0.287149 0.000000
# 6 0.000000 0.000000 0.000000 0.000000 0.000000 0.073720
#
#
# Mechanical properties :
#
#
# Convention : Reuss Voigt Hill
#
# Bulk Modulus (GPa) = 2.29325 4.89591 3.59458
# Shear Modulus (GPa) = 8.04301 14.38704 11.21502
#
# Velocity S-wave (km/s) = 1.90692 2.55041 2.25177
# Velocity P-wave (km/s) = 2.42596 3.29944 2.89582
#
# Compressibility (1/GPa) = 0.43606198
#
# Stress axis : x y z
#
# Youngs Moduli (GPa) = 43.84527 7.82195 14.35129
#
# Poissons Ratio (x) = -0.17771 -0.29921
# Poissons Ratio (y) = -0.99613 -0.92274
# Poissons Ratio (z) = -0.91412 -0.50293
#
# Static dielectric constant tensor:
#      x y z
#    x 1.864760 0.000000 0.000000 
#    y 0.000000 1.825260 0.000000 
#    z 0.000000 0.000000 1.773300 
# 
# From -- ./inp_files/6579.got.cif
#   From: 2010.05.17/outbox.cif.g08.bks.cpg/sg57_4_cif.got.tgz:6579.got - 2010.06.03 13:58:18.
