data_PCOD9435076
_publ_section_title
;
Structure prediction by ZEFSAII (Michael W. Deem and Ramdas Pophale) SiO2 
 PCOD9435076
Probable space group: P B C M
;
_chemical_formula_sum "Si O2"
_cell_formula_units_Z 60
_cell_length_a 24.893316
_cell_length_b 5.480924
_cell_length_c 18.850156
_cell_angle_alpha 90.000000
_cell_angle_beta 90.000000
_cell_angle_gamma 90.000000
_cell_volume 2571.884617
_symmetry_space_group_name_H-M "P B C M"
_symmetry_group_IT_number 57
_symmetry_cell_setting 'orthorhombic'
loop_
_space_group_symop_operation_xyz
x,y,z
-x,-y,1/2+z
x,1/2-y,-z
-x,1/2+y,1/2-z
-x,-y,-z
x,y,1/2-z
-x,1/2+y,z
x,1/2-y,1/2+z
loop_
_atom_site_type_symbol
_atom_site_label
_atom_site_fract_x
_atom_site_fract_y
_atom_site_fract_z
Si Si1 0.359042 0.034690 0.619527
Si Si2 0.323453 0.960439 0.359769
Si Si3 0.152681 0.154283 0.836604
Si Si4 0.028510 0.079090 0.836323
Si Si5 0.733120 0.499533 0.508535
Si Si6 0.798461 0.154061 0.831107
Si Si7 0.532427 0.594178 0.912849
Si Si8 0.472690 0.339610 0.250000
O O1 0.349402 0.283915 0.662575
O O2 0.406886 0.060377 0.561651
O O3 0.361916 0.768421 0.655498
O O4 0.301998 0.007812 0.578936
O O5 0.310923 0.988227 0.444228
O O6 0.264600 0.907878 0.329603
O O7 0.157090 0.167488 0.750000
O O8 0.091016 0.104654 0.854990
O O9 0.172875 0.416969 0.863427
O O10 0.187996 0.921868 0.860585
O O11 0.025866 0.077125 0.750000
O O12 0.996664 0.321632 0.860132
O O13 0.764520 0.250000 0.500000
O O14 0.763688 0.750000 0.500000
O O15 0.818132 0.168795 0.750000
O O16 0.496135 0.354456 0.927798
O O17 0.547954 0.597607 0.828474
O O18 0.479860 0.047043 0.250000
#
# Coordination Sequence:
#
# PCOD9435076 Si02
#       8
#     8   8   8   8   8   8   8   4
#     4  10  19  33  52  73  90 117 148 185 226 278
#     4  10  19  33  49  67  90 121 151 190 225 273
#     4   9  17  28  42  59  88 127 158 198 239 268
#     4   9  15  23  37  58  82 113 161 205 231 262
#     4   8  16  30  50  66  86 112 146 176 223 271
#     4  10  19  31  44  63  92 123 160 193 230 276
#     4  10  19  33  51  70  94 120 147 179 219 271
#     4   8  16  30  46  64  88 118 146 170 206 252
#
# _framework density 23.329197000000001
#
# number of rings (size 3 to 8) (size 9 to 14) (size 15 to 20)
#    0.000    2.667    0.000    2.400    0.000    3.200 
#    2.400    0.000    0.000   21.600    0.000    0.000 
#    0.000    0.000    0.000    0.000    0.000  420.000 
#
# Total GULP energy -334350.716526 kJ/mol
# GULP energy per Si atom -5572.511942 kJ/mol
# Density = 2.327610 g / cm^3
# Si number density = 23.329197 Si / 1000 Ang^3
#
#
#
# Elastic Constant Matrix: (Units=GPa)
#
#
# Indices 1 2 3 4 5 6 
#
# 1 87.9122 47.2864 -9.2172 0.0000 0.0000 0.0000
# 2 47.2864 230.9573 -2.4302 0.0000 0.0000 0.0000
# 3 -9.2172 -2.4302 41.0469 0.0000 0.0000 0.0000
# 4 0.0000 0.0000 0.0000 11.3053 0.0000 0.0000
# 5 0.0000 0.0000 0.0000 0.0000 -66.9219 0.0000
# 6 0.0000 0.0000 0.0000 0.0000 0.0000 42.4910
#
#
#
# Elastic Compliance Matrix: (Units=1/GPa)
#
#
# Indices 1 2 3 4 5 6 
#
# 1 0.013093 -0.002651 0.002783 0.000000 0.000000 0.000000
# 2 -0.002651 0.004869 -0.000307 0.000000 0.000000 0.000000
# 3 0.002783 -0.000307 0.024969 0.000000 0.000000 0.000000
# 4 0.000000 0.000000 0.000000 0.088454 0.000000 0.000000
# 5 0.000000 0.000000 0.000000 0.000000 -0.014943 0.000000
# 6 0.000000 0.000000 0.000000 0.000000 0.000000 0.023534
#
#
# Mechanical properties :
#
#
# Convention : Reuss Voigt Hill
#
# Bulk Modulus (GPa) = 23.48478 47.91049 35.69763
# Shear Modulus (GPa) = 32.35799 18.99337 25.67568
#
# Velocity S-wave (km/s) = 3.72831 2.85642 3.32110
# Velocity P-wave (km/s) = 5.34998 5.60893 5.48098
#
# Compressibility (1/GPa) = 0.04258077
#
# Stress axis : x y z
#
# Youngs Moduli (GPa) = 76.37724 205.36335 40.04938
#
# Poissons Ratio (x) = 0.54449 -0.11146
# Poissons Ratio (y) = 0.20250 0.01230
# Poissons Ratio (z) = -0.21256 0.06306
#
# Static dielectric constant tensor:
#      x y z
#    x 1.925930 0.000000 0.000000 
#    y 0.000000 2.033290 0.000000 
#    z 0.000000 0.000000 2.025240 
# 
# From -- ./inp_files/27674.got.cif
#   From: 2010.05.17/outbox.cif.g08.bks.cpg/sg57_14_cif.got.tgz:27674.got - 2010.06.03 13:58:18.
