data_PCOD9435641
_publ_section_title
;
Structure prediction by ZEFSAII (Michael W. Deem and Ramdas Pophale) SiO2 
 PCOD9435641
Probable space group: P B C M
;
_chemical_formula_sum "Si O2"
_cell_formula_units_Z 56
_cell_length_a 22.231832
_cell_length_b 14.612676
_cell_length_c 7.719883
_cell_angle_alpha 90.000000
_cell_angle_beta 90.000000
_cell_angle_gamma 90.000000
_cell_volume 2507.931818
_symmetry_space_group_name_H-M "P B C M"
_symmetry_group_IT_number 57
_symmetry_cell_setting 'orthorhombic'
loop_
_space_group_symop_operation_xyz
x,y,z
-x,-y,1/2+z
x,1/2-y,-z
-x,1/2+y,1/2-z
-x,-y,-z
x,y,1/2-z
-x,1/2+y,z
x,1/2-y,1/2+z
loop_
_atom_site_type_symbol
_atom_site_label
_atom_site_fract_x
_atom_site_fract_y
_atom_site_fract_z
Si Si1 0.161395 0.355738 0.051097
Si Si2 0.970793 0.858690 0.543177
Si Si3 0.599423 0.644543 0.043061
Si Si4 0.217931 0.534423 0.464259
Si Si5 0.536106 0.144122 0.458120
Si Si6 0.899397 0.357512 0.958095
Si Si7 0.348587 0.539534 0.451964
O O1 0.176958 0.355203 0.250000
O O2 0.204629 0.431449 0.970698
O O3 0.164391 0.250000 0.000000
O O4 0.092558 0.391150 0.031863
O O5 0.972067 0.750000 0.500000
O O6 0.967247 0.868741 0.750000
O O7 0.035436 0.894479 0.478007
O O8 0.600458 0.635027 0.250000
O O9 0.531341 0.623362 0.976923
O O10 0.612742 0.750000 0.000000
O O11 0.643571 0.569536 0.965514
O O12 0.218606 0.535911 0.250000
O O13 0.160826 0.593900 0.521083
O O14 0.283523 0.566466 0.523828
O O15 0.547749 0.250000 0.500000
O O16 0.533257 0.133090 0.250000
O O17 0.591200 0.084480 0.529029
O O18 0.901071 0.367073 0.750000
O O19 0.896419 0.250000 0.000000
O O20 0.348267 0.565839 0.250000
#
# Coordination Sequence:
#
# PCOD9435641 Si02
#       7
#     8   8   8   8   8   8   8
#     4  10  19  33  52  72  97 130 166 208 255 301
#     4   9  16  28  49  74  98 125 161 207 256 302
#     4  10  20  35  55  81 108 135 170 213 259 305
#     4   9  20  36  52  72 102 139 172 202 248 305
#     4   9  19  34  55  81 108 137 170 211 258 305
#     4   9  18  34  53  74 101 132 166 206 253 302
#     4  10  20  36  55  76 105 141 176 211 254 303
#
# _framework density 22.329156999999999
#
# number of rings (size 3 to 8) (size 9 to 14) (size 15 to 20)
#    0.000    2.571    0.000    2.571    0.000    3.429 
#    0.000    5.000    0.000    0.000    0.000    0.000 
#    0.000    0.000    0.000    0.000    0.000    0.000 
#
# Total GULP energy -312487.259212 kJ/mol
# GULP energy per Si atom -5580.129629 kJ/mol
# Density = 2.227833 g / cm^3
# Si number density = 22.329157 Si / 1000 Ang^3
#
#
#
# Elastic Constant Matrix: (Units=GPa)
#
#
# Indices 1 2 3 4 5 6 
#
# 1 51.6047 13.9791 -15.9954 0.0000 0.0000 0.0000
# 2 13.9791 33.6946 -13.4533 0.0000 0.0000 0.0000
# 3 -15.9954 -13.4533 35.8676 0.0000 0.0000 0.0000
# 4 0.0000 0.0000 0.0000 13.0884 0.0000 0.0000
# 5 0.0000 0.0000 0.0000 0.0000 22.9510 0.0000
# 6 0.0000 0.0000 0.0000 0.0000 0.0000 9.0652
#
#
#
# Elastic Compliance Matrix: (Units=1/GPa)
#
#
# Indices 1 2 3 4 5 6 
#
# 1 0.023669 -0.006593 0.008083 0.000000 0.000000 0.000000
# 2 -0.006593 0.036742 0.010841 0.000000 0.000000 0.000000
# 3 0.008083 0.010841 0.035551 0.000000 0.000000 0.000000
# 4 0.000000 0.000000 0.000000 0.076404 0.000000 0.000000
# 5 0.000000 0.000000 0.000000 0.000000 0.043571 0.000000
# 6 0.000000 0.000000 0.000000 0.000000 0.000000 0.110312
#
#
# Mechanical properties :
#
#
# Convention : Reuss Voigt Hill
#
# Bulk Modulus (GPa) = 8.29015 10.02531 9.15773
# Shear Modulus (GPa) = 14.62864 18.13001 16.37932
#
# Velocity S-wave (km/s) = 2.56234 2.85255 2.71133
# Velocity P-wave (km/s) = 3.53198 3.91777 3.72987
#
# Compressibility (1/GPa) = 0.12062503
#
# Stress axis : x y z
#
# Youngs Moduli (GPa) = 42.24891 27.21672 28.12849
#
# Poissons Ratio (x) = 0.17943 -0.22735
# Poissons Ratio (y) = 0.27853 -0.30495
# Poissons Ratio (z) = -0.34148 -0.29506
#
# Static dielectric constant tensor:
#      x y z
#    x 1.855250 0.000000 0.000000 
#    y 0.000000 1.885480 0.000000 
#    z 0.000000 0.000000 1.805080 
# 
# From -- ./inp_files/8057.got.cif
#   From: 2010.05.17/outbox.cif.g08.bks.cpg/sg57_5_cif.got.tgz:8057.got - 2010.06.03 13:58:18.
