data_PCOD9435488
_publ_section_title
;
Structure prediction by ZEFSAII (Michael W. Deem and Ramdas Pophale) SiO2 
 PCOD9435488
Probable space group: P B C M
;
_chemical_formula_sum "Si O2"
_cell_formula_units_Z 64
_cell_length_a 15.121126
_cell_length_b 30.159676
_cell_length_c 8.694808
_cell_angle_alpha 90.000000
_cell_angle_beta 90.000000
_cell_angle_gamma 90.000000
_cell_volume 3965.252067
_symmetry_space_group_name_H-M "P B C M"
_symmetry_group_IT_number 57
_symmetry_cell_setting 'orthorhombic'
loop_
_space_group_symop_operation_xyz
x,y,z
-x,-y,1/2+z
x,1/2-y,-z
-x,1/2+y,1/2-z
-x,-y,-z
x,y,1/2-z
-x,1/2+y,z
x,1/2-y,1/2+z
loop_
_atom_site_type_symbol
_atom_site_label
_atom_site_fract_x
_atom_site_fract_y
_atom_site_fract_z
Si Si1 0.006058 0.202404 0.933819
Si Si2 0.796458 0.796070 0.932314
Si Si3 0.171931 0.961592 0.434970
Si Si4 0.960687 0.390183 0.933759
Si Si5 0.294721 0.119959 0.568236
Si Si6 0.551281 0.933790 0.932771
Si Si7 0.377436 0.532172 0.934229
Si Si8 0.871371 0.942929 0.433846
O O1 0.002985 0.203089 0.750000
O O2 0.975892 0.250000 0.000000
O O3 0.107892 0.196978 0.988779
O O4 0.956408 0.159423 0.998747
O O5 0.809272 0.792681 0.750000
O O6 0.760954 0.750000 0.000000
O O7 0.734803 0.836856 0.975958
O O8 0.164451 0.960526 0.250000
O O9 0.118670 0.921045 0.507595
O O10 0.275791 0.960103 0.477007
O O11 0.132493 0.008062 0.495460
O O12 0.963118 0.388409 0.750000
O O13 0.050128 0.413755 0.994974
O O14 0.291224 0.129014 0.750000
O O15 0.390006 0.102410 0.518255
O O16 0.221347 0.081994 0.535083
O O17 0.557552 0.927830 0.750000
O O18 0.594882 0.981627 0.972245
O O19 0.449781 0.936939 0.985020
O O20 0.385673 0.537093 0.750000
O O21 0.883793 0.945663 0.250000
#
# Coordination Sequence:
#
# PCOD9435488 Si02
#       8
#     8   8   8   8   8   8   8   8
#     4  11  21  36  55  77 103 134 172 215 264 310
#     4  11  21  34  53  76 105 137 173 214 261 311
#     4  11  22  37  54  73 104 141 181 223 264 311
#     4  12  24  37  53  75 104 140 180 219 262 313
#     4  11  21  33  52  76 106 140 177 215 258 311
#     4  10  19  32  52  76 102 133 171 214 259 308
#     4   9  19  34  51  73 101 134 171 214 260 306
#     4  11  22  35  51  73 104 142 182 219 257 308
#
# _framework density 16.14021
#
# number of rings (size 3 to 8) (size 9 to 14) (size 15 to 20)
#    0.000    1.250    2.500    6.000    0.000    2.500 
#    0.000    0.000    0.000    0.000    0.000    0.875 
#    0.000    6.000    0.000    0.000    0.000    0.000 
#
# Total GULP energy -357618.679811 kJ/mol
# GULP energy per Si atom -5587.791872 kJ/mol
# Density = 1.610347 g / cm^3
# Si number density = 16.140210 Si / 1000 Ang^3
#
#
#
# Elastic Constant Matrix: (Units=GPa)
#
#
# Indices 1 2 3 4 5 6 
#
# 1 64.6866 43.5788 35.2821 0.0000 0.0000 0.0000
# 2 43.5788 120.8937 58.3739 0.0000 0.0000 0.0000
# 3 35.2821 58.3739 98.8815 0.0000 0.0000 0.0000
# 4 0.0000 0.0000 0.0000 29.0892 0.0000 0.0000
# 5 0.0000 0.0000 0.0000 0.0000 23.0128 0.0000
# 6 0.0000 0.0000 0.0000 0.0000 0.0000 17.0465
#
#
#
# Elastic Compliance Matrix: (Units=1/GPa)
#
#
# Indices 1 2 3 4 5 6 
#
# 1 0.021688 -0.005708 -0.004368 0.000000 0.000000 0.000000
# 2 -0.005708 0.013072 -0.005680 0.000000 0.000000 0.000000
# 3 -0.004368 -0.005680 0.015025 0.000000 0.000000 0.000000
# 4 0.000000 0.000000 0.000000 0.034377 0.000000 0.000000
# 5 0.000000 0.000000 0.000000 0.000000 0.043454 0.000000
# 6 0.000000 0.000000 0.000000 0.000000 0.000000 0.058663
#
#
# Mechanical properties :
#
#
# Convention : Reuss Voigt Hill
#
# Bulk Modulus (GPa) = 54.73264 62.10348 58.41806
# Shear Modulus (GPa) = 22.33307 23.64484 22.98895
#
# Velocity S-wave (km/s) = 3.72384 3.83164 3.77812
# Velocity P-wave (km/s) = 7.24387 7.62472 7.43673
#
# Compressibility (1/GPa) = 0.01827063
#
# Stress axis : x y z
#
# Youngs Moduli (GPa) = 46.10933 76.49836 66.55524
#
# Poissons Ratio (x) = 0.43669 0.29074
# Poissons Ratio (y) = 0.26321 0.37805
# Poissons Ratio (z) = 0.20143 0.43453
#
# Static dielectric constant tensor:
#      x y z
#    x 1.524680 0.000000 0.000000 
#    y 0.000000 1.536800 0.000000 
#    z 0.000000 0.000000 1.537260 
# 
# From -- ./inp_files/6033.got.cif
#   From: 2010.05.17/outbox.cif.g08.bks.cpg/sg57_4_cif.got.tgz:6033.got - 2010.06.03 13:58:18.
