data_PCOD9435514
_publ_section_title
;
Structure prediction by ZEFSAII (Michael W. Deem and Ramdas Pophale) SiO2 
 PCOD9435514
Probable space group: P B C M
;
_chemical_formula_sum "Si O2"
_cell_formula_units_Z 56
_cell_length_a 21.554529
_cell_length_b 15.807243
_cell_length_c 8.572104
_cell_angle_alpha 90.000000
_cell_angle_beta 90.000000
_cell_angle_gamma 90.000000
_cell_volume 2920.667367
_symmetry_space_group_name_H-M "P B C M"
_symmetry_group_IT_number 57
_symmetry_cell_setting 'orthorhombic'
loop_
_space_group_symop_operation_xyz
x,y,z
-x,-y,1/2+z
x,1/2-y,-z
-x,1/2+y,1/2-z
-x,-y,-z
x,y,1/2-z
-x,1/2+y,z
x,1/2-y,1/2+z
loop_
_atom_site_type_symbol
_atom_site_label
_atom_site_fract_x
_atom_site_fract_y
_atom_site_fract_z
Si Si1 0.472908 0.911331 0.062488
Si Si2 0.881867 0.161155 0.937386
Si Si3 0.407760 0.337063 0.935996
Si Si4 0.348358 0.515191 0.560299
Si Si5 0.990347 0.905008 0.563591
Si Si6 0.141500 0.342226 0.435889
Si Si7 0.791834 0.493061 0.438806
O O1 0.476306 0.908277 0.250000
O O2 0.400619 0.916126 0.014300
O O3 0.520999 0.845126 0.992523
O O4 0.500000 0.000000 0.000000
O O5 0.886168 0.162990 0.750000
O O6 0.839217 0.081475 0.983293
O O7 0.856501 0.250000 0.000000
O O8 0.949765 0.146962 0.009234
O O9 0.406749 0.336227 0.750000
O O10 0.371893 0.421776 0.989600
O O11 0.380546 0.250000 0.000000
O O12 0.348603 0.514601 0.750000
O O13 0.278050 0.528568 0.509619
O O14 0.986240 0.907253 0.750000
O O15 0.927347 0.865732 0.496561
O O16 0.000000 0.000000 0.500000
O O17 0.159148 0.250000 0.500000
O O18 0.141052 0.340212 0.250000
O O19 0.185728 0.417493 0.494768
O O20 0.792682 0.498893 0.250000
#
# Coordination Sequence:
#
# PCOD9435514 Si02
#       7
#     8   8   8   8   8   8   8
#     4   9  16  30  52  77 105 137 177 220 270 322
#     4  11  23  39  62  87 116 152 194 242 296 350
#     4  10  19  32  52  80 112 144 184 231 284 338
#     4   8  17  34  56  79 107 146 187 230 280 338
#     4  12  23  39  63  90 120 150 190 240 297 354
#     4  12  25  41  61  87 120 156 197 242 293 351
#     4  10  21  40  62  84 115 155 198 242 293 347
#
# _framework density 19.173701000000001
#
# number of rings (size 3 to 8) (size 9 to 14) (size 15 to 20)
#    0.000    1.714    1.429    5.143    0.000    1.143 
#    0.000    6.429    0.000    1.714    0.000    0.000 
#    0.000    0.000    0.000    0.000    0.000    0.000 
#
# Total GULP energy -312656.933231 kJ/mol
# GULP energy per Si atom -5583.159522 kJ/mol
# Density = 1.913006 g / cm^3
# Si number density = 19.173701 Si / 1000 Ang^3
#
#
#
# Elastic Constant Matrix: (Units=GPa)
#
#
# Indices 1 2 3 4 5 6 
#
# 1 87.0182 -6.2046 8.8376 0.0000 0.0000 0.0000
# 2 -6.2046 69.7930 12.2082 0.0000 0.0000 0.0000
# 3 8.8376 12.2082 65.6568 0.0000 0.0000 0.0000
# 4 0.0000 0.0000 0.0000 31.5758 0.0000 0.0000
# 5 0.0000 0.0000 0.0000 0.0000 19.6418 0.0000
# 6 0.0000 0.0000 0.0000 0.0000 0.0000 9.5120
#
#
#
# Elastic Compliance Matrix: (Units=1/GPa)
#
#
# Indices 1 2 3 4 5 6 
#
# 1 0.011776 0.001369 -0.001840 0.000000 0.000000 0.000000
# 2 0.001369 0.014969 -0.002968 0.000000 0.000000 0.000000
# 3 -0.001840 -0.002968 0.016030 0.000000 0.000000 0.000000
# 4 0.000000 0.000000 0.000000 0.031670 0.000000 0.000000
# 5 0.000000 0.000000 0.000000 0.000000 0.050912 0.000000
# 6 0.000000 0.000000 0.000000 0.000000 0.000000 0.105130
#
#
# Mechanical properties :
#
#
# Convention : Reuss Voigt Hill
#
# Bulk Modulus (GPa) = 27.85646 28.01672 27.93659
# Shear Modulus (GPa) = 20.05373 25.98771 23.02072
#
# Velocity S-wave (km/s) = 3.23754 3.68555 3.46879
# Velocity P-wave (km/s) = 5.34187 5.72318 5.53581
#
# Compressibility (1/GPa) = 0.03589832
#
# Stress axis : x y z
#
# Youngs Moduli (GPa) = 84.91649 66.80545 62.38254
#
# Poissons Ratio (x) = -0.09144 0.11476
# Poissons Ratio (y) = -0.11623 0.18512
# Poissons Ratio (z) = 0.15621 0.19825
#
# Static dielectric constant tensor:
#      x y z
#    x 1.681680 0.000000 0.000000 
#    y 0.000000 1.687150 0.000000 
#    z 0.000000 0.000000 1.641300 
# 
# From -- ./inp_files/8037.got.cif
#   From: 2010.05.17/outbox.cif.g08.bks.cpg/sg57_5_cif.got.tgz:8037.got - 2010.06.03 13:58:18.
