data_PCOD9435151
_publ_section_title
;
Structure prediction by ZEFSAII (Michael W. Deem and Ramdas Pophale) SiO2 
 PCOD9435151
Probable space group: P B C M
;
_chemical_formula_sum "Si O2"
_cell_formula_units_Z 64
_cell_length_a 31.469475
_cell_length_b 14.217893
_cell_length_c 8.730880
_cell_angle_alpha 90.000000
_cell_angle_beta 90.000000
_cell_angle_gamma 90.000000
_cell_volume 3906.454393
_symmetry_space_group_name_H-M "P B C M"
_symmetry_group_IT_number 57
_symmetry_cell_setting 'orthorhombic'
loop_
_space_group_symop_operation_xyz
x,y,z
-x,-y,1/2+z
x,1/2-y,-z
-x,1/2+y,1/2-z
-x,-y,-z
x,y,1/2-z
-x,1/2+y,z
x,1/2-y,1/2+z
loop_
_atom_site_type_symbol
_atom_site_label
_atom_site_fract_x
_atom_site_fract_y
_atom_site_fract_z
Si Si1 0.124522 0.145529 0.564767
Si Si2 0.353814 0.850637 0.934243
Si Si3 0.259823 0.647012 0.933068
Si Si4 0.483414 0.147789 0.566958
Si Si5 0.187961 0.521797 0.434800
Si Si6 0.046821 0.485991 0.434799
Si Si7 0.890618 0.148822 0.432977
Si Si8 0.563235 0.460236 0.934244
O O1 0.129126 0.250000 0.500000
O O2 0.124520 0.147918 0.750000
O O3 0.163584 0.075226 0.520791
O O4 0.078975 0.098757 0.518074
O O5 0.349709 0.844740 0.750000
O O6 0.389357 0.927710 0.973415
O O7 0.368553 0.750000 0.000000
O O8 0.307753 0.868261 0.006852
O O9 0.258990 0.653391 0.750000
O O10 0.246143 0.750000 0.000000
O O11 0.230804 0.560233 0.989557
O O12 0.474202 0.250000 0.500000
O O13 0.484254 0.153572 0.750000
O O14 0.528785 0.109420 0.508303
O O15 0.449867 0.066219 0.521359
O O16 0.193215 0.519350 0.250000
O O17 0.153794 0.602011 0.476385
O O18 0.044181 0.481471 0.250000
O O19 0.072556 0.578680 0.481910
O O20 0.000000 0.500000 0.500000
O O21 0.896044 0.250000 0.500000
O O22 0.891400 0.152688 0.250000
O O23 0.558811 0.453008 0.750000
#
# Coordination Sequence:
#
# PCOD9435151 Si02
#       8
#     8   8   8   8   8   8   8   8
#     4   9  19  35  54  74  98 127 162 203 245 286
#     4  10  19  32  49  70  98 130 163 198 240 290
#     4  11  21  32  49  75 103 130 160 194 238 293
#     4  10  19  31  48  71  98 128 164 205 249 293
#     4   9  18  34  52  71  97 126 155 194 238 280
#     4   9  19  34  48  67  95 126 157 192 232 276
#     4   9  18  31  47  67  92 120 151 184 224 271
#     4   9  19  33  49  70  96 129 167 205 245 290
#
# _framework density 16.383141999999999
#
# number of rings (size 3 to 8) (size 9 to 14) (size 15 to 20)
#    0.000    2.500    0.000    4.875    0.000    6.000 
#    0.000    5.000    0.000    0.750    0.000    1.750 
#    0.000    0.000    0.000    0.000    0.000    0.000 
#
# Total GULP energy -356627.882365 kJ/mol
# GULP energy per Si atom -5572.310662 kJ/mol
# Density = 1.634585 g / cm^3
# Si number density = 16.383142 Si / 1000 Ang^3
#
#
#
# Elastic Constant Matrix: (Units=GPa)
#
#
# Indices 1 2 3 4 5 6 
#
# 1 103.7122 74.1102 37.3923 0.0000 0.0000 0.0000
# 2 74.1102 131.7619 37.1344 0.0000 0.0000 0.0000
# 3 37.3923 37.1344 38.9770 0.0000 0.0000 0.0000
# 4 0.0000 0.0000 0.0000 29.8525 0.0000 0.0000
# 5 0.0000 0.0000 0.0000 0.0000 42.9896 0.0000
# 6 0.0000 0.0000 0.0000 0.0000 0.0000 13.8893
#
#
#
# Elastic Compliance Matrix: (Units=1/GPa)
#
#
# Indices 1 2 3 4 5 6 
#
# 1 0.019057 -0.007610 -0.011033 0.000000 0.000000 0.000000
# 2 -0.007610 0.013414 -0.005479 0.000000 0.000000 0.000000
# 3 -0.011033 -0.005479 0.041461 0.000000 0.000000 0.000000
# 4 0.000000 0.000000 0.000000 0.033498 0.000000 0.000000
# 5 0.000000 0.000000 0.000000 0.000000 0.023261 0.000000
# 6 0.000000 0.000000 0.000000 0.000000 0.000000 0.071998
#
#
# Mechanical properties :
#
#
# Convention : Reuss Voigt Hill
#
# Bulk Modulus (GPa) = 38.92814 63.52500 51.22657
# Shear Modulus (GPa) = 19.26816 25.73391 22.50103
#
# Velocity S-wave (km/s) = 3.43315 3.96758 3.71000
# Velocity P-wave (km/s) = 6.28713 7.73613 7.04896
#
# Compressibility (1/GPa) = 0.02568836
#
# Stress axis : x y z
#
# Youngs Moduli (GPa) = 52.47302 74.55021 24.11925
#
# Poissons Ratio (x) = 0.56730 0.26610
# Poissons Ratio (y) = 0.39930 0.13216
# Poissons Ratio (z) = 0.57892 0.40849
#
# Static dielectric constant tensor:
#      x y z
#    x 1.563200 0.000000 0.000000 
#    y 0.000000 1.538950 0.000000 
#    z 0.000000 0.000000 1.552950 
# 
# From -- ./inp_files/10333.got.cif
#   From: 2010.05.17/outbox.cif.g08.bks.cpg/sg57_6_cif.got.tgz:10333.got - 2010.06.03 13:58:18.
