data_PCOD9435013
_publ_section_title
;
Structure prediction by ZEFSAII (Michael W. Deem and Ramdas Pophale) SiO2 
 PCOD9435013
Probable space group: P B C M
;
_chemical_formula_sum "Si O2"
_cell_formula_units_Z 64
_cell_length_a 24.039429
_cell_length_b 17.685666
_cell_length_c 8.653724
_cell_angle_alpha 90.000000
_cell_angle_beta 90.000000
_cell_angle_gamma 90.000000
_cell_volume 3679.159421
_symmetry_space_group_name_H-M "P B C M"
_symmetry_group_IT_number 57
_symmetry_cell_setting 'orthorhombic'
loop_
_space_group_symop_operation_xyz
x,y,z
-x,-y,1/2+z
x,1/2-y,-z
-x,1/2+y,1/2-z
-x,-y,-z
x,y,1/2-z
-x,1/2+y,z
x,1/2-y,1/2+z
loop_
_atom_site_type_symbol
_atom_site_label
_atom_site_fract_x
_atom_site_fract_y
_atom_site_fract_z
Si Si1 0.570109 0.597216 0.434921
Si Si2 0.633479 0.443326 0.064367
Si Si3 0.067878 0.332813 0.935843
Si Si4 0.865652 0.978310 0.062458
Si Si5 0.738712 0.517676 0.564195
Si Si6 0.033241 0.571947 0.435879
Si Si7 0.323126 0.171561 0.565030
Si Si8 0.459914 0.666460 0.564926
O O1 0.566408 0.600994 0.250000
O O2 0.595485 0.515839 0.479749
O O3 0.615836 0.656640 0.495204
O O4 0.510713 0.614952 0.507052
O O5 0.637570 0.443443 0.250000
O O6 0.598687 0.370269 0.014811
O O7 0.694495 0.456975 0.997249
O O8 0.071082 0.331554 0.750000
O O9 0.004401 0.356661 0.983939
O O10 0.081891 0.250000 0.000000
O O11 0.107190 0.400948 0.996973
O O12 0.866515 0.972033 0.250000
O O13 0.802180 0.989008 0.011394
O O14 0.903852 0.050775 0.017956
O O15 0.738239 0.514172 0.750000
O O16 0.714491 0.599955 0.518955
O O17 0.031952 0.571392 0.250000
O O18 0.000000 0.500000 0.500000
O O19 0.300673 0.250000 0.500000
O O20 0.326621 0.174139 0.750000
O O21 0.467189 0.750000 0.500000
O O22 0.461310 0.668118 0.750000
#
# Coordination Sequence:
#
# PCOD9435013 Si02
#       8
#     8   8   8   8   8   8   8   8
#     4  10  19  33  52  73  95 123 156 194 240 290
#     4   9  20  36  53  72  97 127 161 199 240 285
#     4  10  19  30  46  72 102 133 161 193 238 285
#     4   9  17  32  51  72  96 125 162 203 239 281
#     4   9  19  33  51  72  94 124 163 200 239 281
#     4   8  15  28  47  68  93 123 157 192 230 273
#     4  10  19  31  45  65  94 127 159 193 232 281
#     4  11  22  35  51  74  99 124 155 196 244 294
#
# _framework density 17.395278000000001
#
# number of rings (size 3 to 8) (size 9 to 14) (size 15 to 20)
#    0.000    2.500    0.000    2.250    0.000    3.500 
#    0.000    1.250    0.000    0.750    0.000    3.500 
#    0.000    0.000    0.000    0.000    0.000    0.000 
#
# Total GULP energy -356675.822289 kJ/mol
# GULP energy per Si atom -5573.059723 kJ/mol
# Density = 1.735569 g / cm^3
# Si number density = 17.395278 Si / 1000 Ang^3
#
#
#
# Elastic Constant Matrix: (Units=GPa)
#
#
# Indices 1 2 3 4 5 6 
#
# 1 140.6603 26.4590 21.7682 0.0000 0.0000 0.0000
# 2 26.4590 26.1575 9.5765 0.0000 0.0000 0.0000
# 3 21.7682 9.5765 24.1681 0.0000 0.0000 0.0000
# 4 0.0000 0.0000 0.0000 14.9168 0.0000 0.0000
# 5 0.0000 0.0000 0.0000 0.0000 20.8992 0.0000
# 6 0.0000 0.0000 0.0000 0.0000 0.0000 14.3432
#
#
#
# Elastic Compliance Matrix: (Units=1/GPa)
#
#
# Indices 1 2 3 4 5 6 
#
# 1 0.009360 -0.007465 -0.005473 0.000000 0.000000 0.000000
# 2 -0.007465 0.050670 -0.013354 0.000000 0.000000 0.000000
# 3 -0.005473 -0.013354 0.051598 0.000000 0.000000 0.000000
# 4 0.000000 0.000000 0.000000 0.067038 0.000000 0.000000
# 5 0.000000 0.000000 0.000000 0.000000 0.047849 0.000000
# 6 0.000000 0.000000 0.000000 0.000000 0.000000 0.069720
#
#
# Mechanical properties :
#
#
# Convention : Reuss Voigt Hill
#
# Bulk Modulus (GPa) = 16.93646 34.06591 25.50119
# Shear Modulus (GPa) = 13.56850 18.91066 16.23958
#
# Velocity S-wave (km/s) = 2.79590 3.30072 3.05874
# Velocity P-wave (km/s) = 4.49223 5.84399 5.21212
#
# Compressibility (1/GPa) = 0.05904421
#
# Stress axis : x y z
#
# Youngs Moduli (GPa) = 106.83231 19.73561 19.38052
#
# Poissons Ratio (x) = 0.14732 0.10607
# Poissons Ratio (y) = 0.79746 0.25882
# Poissons Ratio (z) = 0.58471 0.26356
#
# Static dielectric constant tensor:
#      x y z
#    x 1.612180 0.000000 0.000000 
#    y 0.000000 1.592800 0.000000 
#    z 0.000000 0.000000 1.594690 
# 
# From -- ./inp_files/9487.got.cif
#   From: 2010.05.17/outbox.cif.g08.bks.cpg/sg57_5_cif.got.tgz:9487.got - 2010.06.03 13:58:18.
