data_PCOD9435420
_publ_section_title
;
Structure prediction by ZEFSAII (Michael W. Deem and Ramdas Pophale) SiO2 
 PCOD9435420
Probable space group: P B C M
;
_chemical_formula_sum "Si O2"
_cell_formula_units_Z 40
_cell_length_a 19.024651
_cell_length_b 13.808033
_cell_length_c 8.965545
_cell_angle_alpha 90.000000
_cell_angle_beta 90.000000
_cell_angle_gamma 90.000000
_cell_volume 2355.185992
_symmetry_space_group_name_H-M "P B C M"
_symmetry_group_IT_number 57
_symmetry_cell_setting 'orthorhombic'
loop_
_space_group_symop_operation_xyz
x,y,z
-x,-y,1/2+z
x,1/2-y,-z
-x,1/2+y,1/2-z
-x,-y,-z
x,y,1/2-z
-x,1/2+y,z
x,1/2-y,1/2+z
loop_
_atom_site_type_symbol
_atom_site_label
_atom_site_fract_x
_atom_site_fract_y
_atom_site_fract_z
Si Si1 0.465199 0.851125 0.072050
Si Si2 0.601031 0.555018 0.070903
Si Si3 0.893425 0.963556 0.570873
Si Si4 0.962542 0.354003 0.572103
Si Si5 0.750824 0.856137 0.570147
O O1 0.468511 0.841262 0.250000
O O2 0.415302 0.942698 0.035451
O O3 0.442938 0.750000 0.000000
O O4 0.541696 0.881087 0.009287
O O5 0.592742 0.566368 0.250000
O O6 0.678742 0.589323 0.029181
O O7 0.892962 0.977709 0.750000
O O8 0.819952 0.916003 0.525107
O O9 0.958604 0.892115 0.535692
O O10 0.910500 0.064725 0.492271
O O11 0.950737 0.250000 0.500000
O O12 0.956343 0.348477 0.750000
O O13 0.751815 0.750000 0.500000
O O14 0.752336 0.847431 0.750000
#
# Coordination Sequence:
#
# PCOD9435420 Si02
#       5
#     8   8   8   8   8
#     4  10  19  32  51  73  98 129 165 204 244 287
#     4   9  19  34  51  73 100 130 164 201 242 290
#     4   9  19  34  51  73 101 131 164 202 243 291
#     4  10  19  32  52  75  99 130 166 204 245 289
#     4  10  20  34  52  74 101 130 160 199 246 292
#
# _framework density 16.983796999999999
#
# number of rings (size 3 to 8) (size 9 to 14) (size 15 to 20)
#    0.000    2.400    0.000    2.400    0.000    4.800 
#    0.000    1.000    0.000    2.400    0.000    0.000 
#    0.000    0.000    0.000    0.000    0.000    0.000 
#
# Total GULP energy -223222.016549 kJ/mol
# GULP energy per Si atom -5580.550414 kJ/mol
# Density = 1.694514 g / cm^3
# Si number density = 16.983797 Si / 1000 Ang^3
#
#
#
# Elastic Constant Matrix: (Units=GPa)
#
#
# Indices 1 2 3 4 5 6 
#
# 1 140.8634 87.8866 40.7006 0.0000 0.0000 0.0000
# 2 87.8866 165.5327 55.1308 0.0000 0.0000 0.0000
# 3 40.7006 55.1308 29.3089 0.0000 0.0000 0.0000
# 4 0.0000 0.0000 0.0000 35.4680 0.0000 0.0000
# 5 0.0000 0.0000 0.0000 0.0000 20.8826 0.0000
# 6 0.0000 0.0000 0.0000 0.0000 0.0000 14.7711
#
#
#
# Elastic Compliance Matrix: (Units=1/GPa)
#
#
# Indices 1 2 3 4 5 6 
#
# 1 0.012155 -0.002227 -0.012691 0.000000 0.000000 0.000000
# 2 -0.002227 0.016581 -0.028098 0.000000 0.000000 0.000000
# 3 -0.012691 -0.028098 0.104595 0.000000 0.000000 0.000000
# 4 0.000000 0.000000 0.000000 0.028194 0.000000 0.000000
# 5 0.000000 0.000000 0.000000 0.000000 0.047887 0.000000
# 6 0.000000 0.000000 0.000000 0.000000 0.000000 0.067700
#
#
# Mechanical properties :
#
#
# Convention : Reuss Voigt Hill
#
# Bulk Modulus (GPa) = 21.14112 78.12677 49.63394
# Shear Modulus (GPa) = 13.19570 24.35680 18.77625
#
# Velocity S-wave (km/s) = 2.79042 3.79109 3.32857
# Velocity P-wave (km/s) = 4.78088 8.07860 6.63779
#
# Compressibility (1/GPa) = 0.04730119
#
# Stress axis : x y z
#
# Youngs Moduli (GPa) = 82.26816 60.30862 9.56065
#
# Poissons Ratio (x) = 0.13430 0.12133
# Poissons Ratio (y) = 0.18321 0.26863
# Poissons Ratio (z) = 1.04406 1.69453
#
# Static dielectric constant tensor:
#      x y z
#    x 1.559430 0.000000 0.000000 
#    y 0.000000 1.550980 0.000000 
#    z 0.000000 0.000000 1.564660 
# 
# From -- ./inp_files/6214.got.cif
#   From: 2010.05.17/outbox.cif.g08.bks.cpg/sg57_4_cif.got.tgz:6214.got - 2010.06.03 13:58:18.
