data_PCOD9435686
_publ_section_title
;
Structure prediction by ZEFSAII (Michael W. Deem and Ramdas Pophale) SiO2 
 PCOD9435686
Probable space group: P B C M
;
_chemical_formula_sum "Si O2"
_cell_formula_units_Z 64
_cell_length_a 20.297626
_cell_length_b 20.777300
_cell_length_c 8.724847
_cell_angle_alpha 90.000000
_cell_angle_beta 90.000000
_cell_angle_gamma 90.000000
_cell_volume 3679.528545
_symmetry_space_group_name_H-M "P B C M"
_symmetry_group_IT_number 57
_symmetry_cell_setting 'orthorhombic'
loop_
_space_group_symop_operation_xyz
x,y,z
-x,-y,1/2+z
x,1/2-y,-z
-x,1/2+y,1/2-z
-x,-y,-z
x,y,1/2-z
-x,1/2+y,z
x,1/2-y,1/2+z
loop_
_atom_site_type_symbol
_atom_site_label
_atom_site_fract_x
_atom_site_fract_y
_atom_site_fract_z
Si Si1 0.312260 0.897833 0.933677
Si Si2 0.527784 0.933097 0.433646
Si Si3 0.944940 0.180205 0.435027
Si Si4 0.187150 0.061871 0.065273
Si Si5 0.162784 0.922686 0.934450
Si Si6 0.572242 0.180728 0.933595
Si Si7 0.902862 0.680294 0.064993
Si Si8 0.663798 0.538460 0.433837
O O1 0.318651 0.899693 0.750000
O O2 0.234827 0.893866 0.973163
O O3 0.357347 0.842027 0.001458
O O4 0.337061 0.965430 0.003534
O O5 0.528366 0.937524 0.250000
O O6 0.480441 0.874203 0.478483
O O7 0.601700 0.925183 0.495722
O O8 0.500000 0.000000 0.500000
O O9 0.926230 0.250000 0.500000
O O10 0.942340 0.182954 0.250000
O O11 0.895341 0.124416 0.486781
O O12 0.020956 0.167582 0.479704
O O13 0.184158 0.059327 0.250000
O O14 0.144532 0.122749 0.012982
O O15 0.264425 0.066092 0.022779
O O16 0.160266 0.994282 0.002132
O O17 0.159618 0.927743 0.750000
O O18 0.575007 0.183287 0.750000
O O19 0.554453 0.250000 0.000000
O O20 0.900443 0.683087 0.250000
O O21 0.884105 0.750000 0.000000
O O22 0.658415 0.537066 0.250000
#
# Coordination Sequence:
#
# PCOD9435686 Si02
#       8
#     8   8   8   8   8   8   8   8
#     4  10  19  33  53  75 104 139 175 214 260 313
#     4  11  22  36  58  83 106 137 177 218 262 315
#     4   9  18  33  51  72 102 137 177 220 262 315
#     4   9  19  34  52  77 107 137 173 218 265 313
#     4   9  19  33  50  77 108 138 173 216 263 310
#     4  11  24  39  55  78 108 140 177 218 264 314
#     4   9  18  34  54  75 101 137 178 220 267 318
#     4  10  19  33  54  79 106 136 174 216 259 312
#
# _framework density 17.393532
#
# number of rings (size 3 to 8) (size 9 to 14) (size 15 to 20)
#    0.000    2.250    1.250    1.500    0.000    4.500 
#    0.000    1.875    0.000    3.000    0.000    0.000 
#    0.000    0.000    0.000    0.000    0.000    0.000 
#
# Total GULP energy -357124.363678 kJ/mol
# GULP energy per Si atom -5580.068182 kJ/mol
# Density = 1.735394 g / cm^3
# Si number density = 17.393532 Si / 1000 Ang^3
#
#
#
# Elastic Constant Matrix: (Units=GPa)
#
#
# Indices 1 2 3 4 5 6 
#
# 1 116.8409 101.1329 31.5534 0.0000 0.0000 0.0000
# 2 101.1329 148.2722 37.5761 0.0000 0.0000 0.0000
# 3 31.5534 37.5761 25.8488 0.0000 0.0000 0.0000
# 4 0.0000 0.0000 0.0000 29.9815 0.0000 0.0000
# 5 0.0000 0.0000 0.0000 0.0000 22.7714 0.0000
# 6 0.0000 0.0000 0.0000 0.0000 0.0000 32.3842
#
#
#
# Elastic Compliance Matrix: (Units=1/GPa)
#
#
# Indices 1 2 3 4 5 6 
#
# 1 0.021876 -0.012910 -0.007937 0.000000 0.000000 0.000000
# 2 -0.012910 0.018297 -0.010839 0.000000 0.000000 0.000000
# 3 -0.007937 -0.010839 0.064132 0.000000 0.000000 0.000000
# 4 0.000000 0.000000 0.000000 0.033354 0.000000 0.000000
# 5 0.000000 0.000000 0.000000 0.000000 0.043915 0.000000
# 6 0.000000 0.000000 0.000000 0.000000 0.000000 0.030879
#
#
# Mechanical properties :
#
#
# Convention : Reuss Voigt Hill
#
# Bulk Modulus (GPa) = 24.43017 70.16519 47.29768
# Shear Modulus (GPa) = 17.27296 25.07404 21.17350
#
# Velocity S-wave (km/s) = 3.15472 3.80092 3.49280
# Velocity P-wave (km/s) = 5.22931 7.72594 6.59681
#
# Compressibility (1/GPa) = 0.04093299
#
# Stress axis : x y z
#
# Youngs Moduli (GPa) = 45.71129 54.65471 15.59280
#
# Poissons Ratio (x) = 0.70558 0.12377
# Poissons Ratio (y) = 0.59012 0.16901
# Poissons Ratio (z) = 0.36283 0.59239
#
# Static dielectric constant tensor:
#      x y z
#    x 1.607020 0.000000 0.000000 
#    y 0.000000 1.562950 0.000000 
#    z 0.000000 0.000000 1.584790 
# 
# From -- ./inp_files/8477.got.cif
#   From: 2010.05.17/outbox.cif.g08.bks.cpg/sg57_5_cif.got.tgz:8477.got - 2010.06.03 13:58:18.
