data_PCOD9435523
_publ_section_title
;
Structure prediction by ZEFSAII (Michael W. Deem and Ramdas Pophale) SiO2 
 PCOD9435523
Probable space group: P B C M
;
_chemical_formula_sum "Si O2"
_cell_formula_units_Z 48
_cell_length_a 32.116082
_cell_length_b 9.602540
_cell_length_c 8.728850
_cell_angle_alpha 90.000000
_cell_angle_beta 90.000000
_cell_angle_gamma 90.000000
_cell_volume 2691.942093
_symmetry_space_group_name_H-M "P B C M"
_symmetry_group_IT_number 57
_symmetry_cell_setting 'orthorhombic'
loop_
_space_group_symop_operation_xyz
x,y,z
-x,-y,1/2+z
x,1/2-y,-z
-x,1/2+y,1/2-z
-x,-y,-z
x,y,1/2-z
-x,1/2+y,z
x,1/2-y,1/2+z
loop_
_atom_site_type_symbol
_atom_site_label
_atom_site_fract_x
_atom_site_fract_y
_atom_site_fract_z
Si Si1 0.369830 0.404548 0.434645
Si Si2 0.128662 0.093384 0.066548
Si Si3 0.293171 0.595133 0.065016
Si Si4 0.464008 0.404212 0.066416
Si Si5 0.785631 0.906474 0.433715
Si Si6 0.963465 0.593898 0.066417
O O1 0.362442 0.250000 0.500000
O O2 0.367979 0.395135 0.250000
O O3 0.334562 0.512213 0.485755
O O4 0.416864 0.449262 0.476635
O O5 0.132880 0.402134 0.750000
O O6 0.170572 0.032051 0.994578
O O7 0.127623 0.250000 0.000000
O O8 0.082873 0.035026 0.028498
O O9 0.293796 0.602494 0.250000
O O10 0.252973 0.503358 0.020960
O O11 0.291499 0.750000 0.000000
O O12 0.466590 0.401337 0.250000
O O13 0.469222 0.250000 0.000000
O O14 0.500000 0.500000 0.000000
O O15 0.780530 0.750000 0.500000
O O16 0.787243 0.896270 0.250000
O O17 0.966451 0.601009 0.250000
O O18 0.966442 0.750000 0.000000
O O19 0.000000 0.500000 0.000000
#
# Coordination Sequence:
#
# PCOD9435523 Si02
#       6
#     8   8   8   8   8   8
#     4   9  19  36  56  78 103 134 174 215 254 302
#     4   9  17  30  50  75 101 131 168 208 251 299
#     4  10  22  37  52  75 105 135 169 208 254 305
#     4  10  20  35  55  79 108 140 175 216 261 309
#     4  10  19  32  53  78 101 129 167 209 251 299
#     4  10  20  34  53  77 105 137 173 214 258 306
#
# _framework density 17.830994
#
# number of rings (size 3 to 8) (size 9 to 14) (size 15 to 20)
#    0.000    2.333    0.000    3.500    0.000    5.333 
#    0.000    2.500    0.000    2.000    0.000    0.000 
#    0.000    0.000    0.000    0.000    0.000    0.000 
#
# Total GULP energy -267704.893722 kJ/mol
# GULP energy per Si atom -5577.185286 kJ/mol
# Density = 1.779041 g / cm^3
# Si number density = 17.830994 Si / 1000 Ang^3
#
#
#
# Elastic Constant Matrix: (Units=GPa)
#
#
# Indices 1 2 3 4 5 6 
#
# 1 216.9615 103.1749 61.2099 0.0000 0.0000 0.0000
# 2 103.1749 87.0247 32.5632 0.0000 0.0000 0.0000
# 3 61.2099 32.5632 49.3627 0.0000 0.0000 0.0000
# 4 0.0000 0.0000 0.0000 31.3497 0.0000 0.0000
# 5 0.0000 0.0000 0.0000 0.0000 28.6510 0.0000
# 6 0.0000 0.0000 0.0000 0.0000 0.0000 29.7092
#
#
#
# Elastic Compliance Matrix: (Units=1/GPa)
#
#
# Indices 1 2 3 4 5 6 
#
# 1 0.012361 -0.011843 -0.007516 0.000000 0.000000 0.000000
# 2 -0.011843 0.026604 -0.002864 0.000000 0.000000 0.000000
# 3 -0.007516 -0.002864 0.031467 0.000000 0.000000 0.000000
# 4 0.000000 0.000000 0.000000 0.031898 0.000000 0.000000
# 5 0.000000 0.000000 0.000000 0.000000 0.034903 0.000000
# 6 0.000000 0.000000 0.000000 0.000000 0.000000 0.033660
#
#
# Mechanical properties :
#
#
# Convention : Reuss Voigt Hill
#
# Bulk Modulus (GPa) = 38.48177 83.02720 60.75448
# Shear Modulus (GPa) = 22.32134 28.36870 25.34502
#
# Velocity S-wave (km/s) = 3.54196 3.99303 3.77424
# Velocity P-wave (km/s) = 6.19318 8.24158 7.28969
#
# Compressibility (1/GPa) = 0.02598633
#
# Stress axis : x y z
#
# Youngs Moduli (GPa) = 80.89670 37.58849 31.77944
#
# Poissons Ratio (x) = 0.44517 0.23884
# Poissons Ratio (y) = 0.95808 0.09102
# Poissons Ratio (z) = 0.60798 0.10766
#
# Static dielectric constant tensor:
#      x y z
#    x 1.650420 0.000000 0.000000 
#    y 0.000000 1.561060 0.000000 
#    z 0.000000 0.000000 1.601300 
# 
# From -- ./inp_files/9981.got.cif
#   From: 2010.05.17/outbox.cif.g08.bks.cpg/sg57_5_cif.got.tgz:9981.got - 2010.06.03 13:58:18.
