data_PCOD9435274
_publ_section_title
;
Structure prediction by ZEFSAII (Michael W. Deem and Ramdas Pophale) SiO2 
 PCOD9435274
Probable space group: P B C M
;
_chemical_formula_sum "Si O2"
_cell_formula_units_Z 64
_cell_length_a 37.815362
_cell_length_b 5.358024
_cell_length_c 14.155909
_cell_angle_alpha 90.000000
_cell_angle_beta 90.000000
_cell_angle_gamma 90.000000
_cell_volume 2868.208239
_symmetry_space_group_name_H-M "P B C M"
_symmetry_group_IT_number 57
_symmetry_cell_setting 'orthorhombic'
loop_
_space_group_symop_operation_xyz
x,y,z
-x,-y,1/2+z
x,1/2-y,-z
-x,1/2+y,1/2-z
-x,-y,-z
x,y,1/2-z
-x,1/2+y,z
x,1/2-y,1/2+z
loop_
_atom_site_type_symbol
_atom_site_label
_atom_site_fract_x
_atom_site_fract_y
_atom_site_fract_z
Si Si1 0.245286 0.092917 0.361511
Si Si2 0.282277 0.907137 0.633891
Si Si3 0.016327 0.595558 0.638768
Si Si4 0.169160 0.499389 0.936799
Si Si5 0.596985 0.904736 0.864792
Si Si6 0.908305 0.000232 0.563456
Si Si7 0.515100 0.515383 0.105758
Si Si8 0.636648 0.406160 0.865412
O O1 0.252226 0.103538 0.250000
O O2 0.257433 0.363792 0.397938
O O3 0.268057 0.860893 0.398635
O O4 0.204280 0.028922 0.375881
O O5 0.281582 0.902751 0.750000
O O6 0.322835 0.944596 0.605237
O O7 0.008297 0.617429 0.750000
O O8 0.056937 0.518534 0.626482
O O9 0.992462 0.369848 0.599010
O O10 0.130460 0.502807 0.888261
O O11 0.172043 0.750000 0.000000
O O12 0.168698 0.250000 0.000000
O O13 0.596787 0.903756 0.750000
O O14 0.612589 0.638871 0.895582
O O15 0.556839 0.945144 0.895717
O O16 0.621047 0.138971 0.894785
O O17 0.908852 0.250000 0.500000
O O18 0.910772 0.750000 0.500000
O O19 0.495847 0.753157 0.149726
O O20 0.500000 0.500000 0.000000
O O21 0.636584 0.405879 0.750000
#
# Coordination Sequence:
#
# PCOD9435274 Si02
#       8
#     8   8   8   8   8   8   8   8
#     4  10  19  32  54  83 107 139 183 220 258 320
#     4   9  17  30  50  80 112 135 168 215 259 310
#     4  10  21  36  54  79 110 143 178 223 285 339
#     4  10  21  37  54  78 107 149 181 224 281 322
#     4  10  19  31  51  79 105 130 165 208 253 299
#     4  10  21  36  55  78 106 138 189 230 269 330
#     4  10  21  36  52  73  95 132 172 200 245 301
#     4   9  17  30  49  78 110 134 160 204 260 303
#
# _framework density 22.313580999999999
#
# number of rings (size 3 to 8) (size 9 to 14) (size 15 to 20)
#    0.000    2.250    0.000    3.000    0.000    5.500 
#    0.000    0.000    0.000    9.000   65.000    0.000 
#    0.000    0.000    0.000    0.000    0.000    0.000 
#
# Total GULP energy -357717.138803 kJ/mol
# GULP energy per Si atom -5589.330294 kJ/mol
# Density = 2.226279 g / cm^3
# Si number density = 22.313581 Si / 1000 Ang^3
#
#
#
# Elastic Constant Matrix: (Units=GPa)
#
#
# Indices 1 2 3 4 5 6 
#
# 1 132.6325 50.0270 -13.3923 0.0000 0.0000 0.0000
# 2 50.0270 190.6991 12.2163 0.0000 0.0000 0.0000
# 3 -13.3923 12.2163 47.5915 0.0000 0.0000 0.0000
# 4 0.0000 0.0000 0.0000 12.2097 0.0000 0.0000
# 5 0.0000 0.0000 0.0000 0.0000 31.6384 0.0000
# 6 0.0000 0.0000 0.0000 0.0000 0.0000 44.5031
#
#
#
# Elastic Compliance Matrix: (Units=1/GPa)
#
#
# Indices 1 2 3 4 5 6 
#
# 1 0.008801 -0.002509 0.003121 0.000000 0.000000 0.000000
# 2 -0.002509 0.006047 -0.002258 0.000000 0.000000 0.000000
# 3 0.003121 -0.002258 0.022470 0.000000 0.000000 0.000000
# 4 0.000000 0.000000 0.000000 0.081902 0.000000 0.000000
# 5 0.000000 0.000000 0.000000 0.000000 0.031607 0.000000
# 6 0.000000 0.000000 0.000000 0.000000 0.000000 0.022470
#
#
# Mechanical properties :
#
#
# Convention : Reuss Voigt Hill
#
# Bulk Modulus (GPa) = 29.39008 52.06946 40.72977
# Shear Modulus (GPa) = 26.60548 39.14172 32.87360
#
# Velocity S-wave (km/s) = 3.45678 4.19282 3.84246
# Velocity P-wave (km/s) = 5.39745 6.84293 6.16271
#
# Compressibility (1/GPa) = 0.03402508
#
# Stress axis : x y z
#
# Youngs Moduli (GPa) = 113.62389 165.38124 44.50399
#
# Poissons Ratio (x) = 0.41489 -0.13888
# Poissons Ratio (y) = 0.28505 0.10049
# Poissons Ratio (z) = -0.35457 0.37344
#
# Static dielectric constant tensor:
#      x y z
#    x 1.776560 0.000000 0.000000 
#    y 0.000000 1.916850 0.000000 
#    z 0.000000 0.000000 1.849910 
# 
# From -- ./inp_files/23199.got.cif
#   From: 2010.05.17/outbox.cif.g08.bks.cpg/sg57_12_cif.got.tgz:23199.got - 2010.06.03 13:58:18.
