data_PCOD9435219
_publ_section_title
;
Structure prediction by ZEFSAII (Michael W. Deem and Ramdas Pophale) SiO2 
 PCOD9435219
Probable space group: P B C M
;
_chemical_formula_sum "Si O2"
_cell_formula_units_Z 56
_cell_length_a 20.092076
_cell_length_b 18.362142
_cell_length_c 8.843804
_cell_angle_alpha 90.000000
_cell_angle_beta 90.000000
_cell_angle_gamma 90.000000
_cell_volume 3262.776028
_symmetry_space_group_name_H-M "P B C M"
_symmetry_group_IT_number 57
_symmetry_cell_setting 'orthorhombic'
loop_
_space_group_symop_operation_xyz
x,y,z
-x,-y,1/2+z
x,1/2-y,-z
-x,1/2+y,1/2-z
-x,-y,-z
x,y,1/2-z
-x,1/2+y,z
x,1/2-y,1/2+z
loop_
_atom_site_type_symbol
_atom_site_label
_atom_site_fract_x
_atom_site_fract_y
_atom_site_fract_z
Si Si1 0.958232 0.432971 0.568369
Si Si2 0.292293 0.518114 0.567619
Si Si3 0.564734 0.535821 0.427315
Si Si4 0.656773 0.329225 0.431033
Si Si5 0.485226 0.673642 0.427466
Si Si6 0.841931 0.534996 0.931051
Si Si7 0.061307 0.330107 0.067612
O O1 0.965602 0.429522 0.750000
O O2 0.883952 0.461198 0.533255
O O3 0.000000 0.500000 0.500000
O O4 0.990903 0.361739 0.494464
O O5 0.290307 0.513322 0.750000
O O6 0.363131 0.485907 0.513211
O O7 0.294758 0.604139 0.527221
O O8 0.230034 0.474852 0.502640
O O9 0.500000 0.500000 0.500000
O O10 0.564163 0.516542 0.250000
O O11 0.547213 0.620347 0.443757
O O12 0.672404 0.250000 0.500000
O O13 0.654756 0.323309 0.250000
O O14 0.582823 0.350598 0.489588
O O15 0.502086 0.750000 0.500000
O O16 0.469302 0.680182 0.250000
O O17 0.836680 0.538818 0.750000
O O18 0.883738 0.607696 0.976790
O O19 0.059576 0.326894 0.250000
O O20 0.074536 0.250000 0.000000
#
# Coordination Sequence:
#
# PCOD9435219 Si02
#       7
#     8   8   8   8   8   8   8
#     4   9  17  32  54  80 108 138 175 218 259 309
#     4  10  21  35  52  75 105 141 179 221 270 323
#     4  10  20  34  51  74 100 131 174 223 271 320
#     4  10  19  32  50  72  98 127 165 213 264 319
#     4  10  19  31  50  72  96 127 163 211 269 319
#     4   9  20  36  54  79 110 143 181 219 261 317
#     4  10  20  35  57  86 114 144 182 222 266 316
#
# _framework density 17.163298999999999
#
# number of rings (size 3 to 8) (size 9 to 14) (size 15 to 20)
#    0.000    2.286    1.429    3.429    0.000    5.714 
#    0.000    1.429    0.000    5.143    0.000    0.000 
#    0.000    0.000    0.000    0.000    0.000    0.000 
#
# Total GULP energy -311875.931224 kJ/mol
# GULP energy per Si atom -5569.213058 kJ/mol
# Density = 1.712423 g / cm^3
# Si number density = 17.163299 Si / 1000 Ang^3
#
#
#
# Elastic Constant Matrix: (Units=GPa)
#
#
# Indices 1 2 3 4 5 6 
#
# 1 110.2325 58.6918 32.0906 0.0000 0.0000 0.0000
# 2 58.6918 105.1108 41.1778 0.0000 0.0000 0.0000
# 3 32.0906 41.1778 39.9538 0.0000 0.0000 0.0000
# 4 0.0000 0.0000 0.0000 25.8785 0.0000 0.0000
# 5 0.0000 0.0000 0.0000 0.0000 27.8385 0.0000
# 6 0.0000 0.0000 0.0000 0.0000 0.0000 26.5054
#
#
#
# Elastic Compliance Matrix: (Units=1/GPa)
#
#
# Indices 1 2 3 4 5 6 
#
# 1 0.013516 -0.005525 -0.005162 0.000000 0.000000 0.000000
# 2 -0.005525 0.018215 -0.014335 0.000000 0.000000 0.000000
# 3 -0.005162 -0.014335 0.043949 0.000000 0.000000 0.000000
# 4 0.000000 0.000000 0.000000 0.038642 0.000000 0.000000
# 5 0.000000 0.000000 0.000000 0.000000 0.035921 0.000000
# 6 0.000000 0.000000 0.000000 0.000000 0.000000 0.037728
#
#
# Mechanical properties :
#
#
# Convention : Reuss Voigt Hill
#
# Bulk Modulus (GPa) = 39.00741 57.69084 48.34913
# Shear Modulus (GPa) = 20.27898 24.26694 22.27296
#
# Velocity S-wave (km/s) = 3.44107 3.76425 3.60628
# Velocity P-wave (km/s) = 6.21003 7.25111 6.75067
#
# Compressibility (1/GPa) = 0.02563616
#
# Stress axis : x y z
#
# Youngs Moduli (GPa) = 73.98572 54.90082 22.75360
#
# Poissons Ratio (x) = 0.30333 0.11745
# Poissons Ratio (y) = 0.40877 0.32617
# Poissons Ratio (z) = 0.38190 0.78701
#
# Static dielectric constant tensor:
#      x y z
#    x 1.584120 0.000000 0.000000 
#    y 0.000000 1.574520 0.000000 
#    z 0.000000 0.000000 1.574400 
# 
# From -- ./inp_files/8311.got.cif
#   From: 2010.05.17/outbox.cif.g08.bks.cpg/sg57_5_cif.got.tgz:8311.got - 2010.06.03 13:58:18.
