data_PCOD9435676
_publ_section_title
;
Structure prediction by ZEFSAII (Michael W. Deem and Ramdas Pophale) SiO2 
 PCOD9435676
Probable space group: P B C M
;
_chemical_formula_sum "Si O2"
_cell_formula_units_Z 64
_cell_length_a 6.795833
_cell_length_b 22.988398
_cell_length_c 21.904384
_cell_angle_alpha 90.000000
_cell_angle_beta 90.000000
_cell_angle_gamma 90.000000
_cell_volume 3422.019263
_symmetry_space_group_name_H-M "P B C M"
_symmetry_group_IT_number 57
_symmetry_cell_setting 'orthorhombic'
loop_
_space_group_symop_operation_xyz
x,y,z
-x,-y,1/2+z
x,1/2-y,-z
-x,1/2+y,1/2-z
-x,-y,-z
x,y,1/2-z
-x,1/2+y,z
x,1/2-y,1/2+z
loop_
_atom_site_type_symbol
_atom_site_label
_atom_site_fract_x
_atom_site_fract_y
_atom_site_fract_z
Si Si1 0.514219 0.493672 0.080545
Si Si2 0.342613 0.118463 0.107704
Si Si3 0.894782 0.075874 0.895510
Si Si4 0.644821 0.173894 0.943574
Si Si5 0.957207 0.381108 0.678344
Si Si6 0.299212 0.691018 0.415652
Si Si7 0.198361 0.487701 0.179966
Si Si8 0.272900 0.102502 0.524997
O O1 0.522857 0.561786 0.095709
O O2 0.739109 0.472418 0.082660
O O3 0.382241 0.470740 0.137804
O O4 0.399586 0.457898 0.027385
O O5 0.491714 0.171320 0.112114
O O6 0.187780 0.113659 0.161618
O O7 0.229104 0.122526 0.043436
O O8 0.763363 0.133433 0.896810
O O9 0.009855 0.051827 0.837056
O O10 0.070860 0.088926 0.942103
O O11 0.687503 0.239980 0.925653
O O12 0.418472 0.150962 0.945644
O O13 0.712992 0.165545 0.014756
O O14 0.928917 0.366308 0.750000
O O15 0.860287 0.335244 0.631082
O O16 0.864643 0.445275 0.668022
O O17 0.251045 0.481961 0.250000
#
# Coordination Sequence:
#
# PCOD9435676 Si02
#       8
#     8   8   8   8   8   8   8   8
#     4  10  19  33  52  82 114 150 186 227 287 342
#     4  11  20  34  54  83 116 151 184 227 291 343
#     4  10  19  36  57  84 115 147 183 237 289 338
#     4   9  20  38  61  84 110 148 193 235 293 353
#     4  11  23  37  56  85 116 152 196 236 282 343
#     4  10  21  39  59  83 114 150 191 241 288 342
#     4  10  21  36  54  80 115 153 197 237 279 342
#     4   9  20  33  54  83 115 145 183 233 286 350
#
# _framework density 18.702407999999998
#
# number of rings (size 3 to 8) (size 9 to 14) (size 15 to 20)
#    0.000    2.000    2.500    1.125    0.000    3.000 
#    0.000    3.125    0.000    3.000    0.000    0.000 
#    0.000    0.000    0.000    0.000    0.000    0.000 
#
# Total GULP energy -356439.784299 kJ/mol
# GULP energy per Si atom -5569.371630 kJ/mol
# Density = 1.865984 g / cm^3
# Si number density = 18.702408 Si / 1000 Ang^3
#
#
#
# Elastic Constant Matrix: (Units=GPa)
#
#
# Indices 1 2 3 4 5 6 
#
# 1 70.0612 13.4724 34.5517 0.0000 0.0000 0.0000
# 2 13.4724 77.6732 27.9745 0.0000 0.0000 0.0000
# 3 34.5517 27.9745 56.2341 0.0000 0.0000 0.0000
# 4 0.0000 0.0000 0.0000 23.7121 0.0000 0.0000
# 5 0.0000 0.0000 0.0000 0.0000 12.8853 0.0000
# 6 0.0000 0.0000 0.0000 0.0000 0.0000 21.0703
#
#
#
# Elastic Compliance Matrix: (Units=1/GPa)
#
#
# Indices 1 2 3 4 5 6 
#
# 1 0.020570 0.001199 -0.013235 0.000000 0.000000 0.000000
# 2 0.001199 0.015754 -0.008574 0.000000 0.000000 0.000000
# 3 -0.013235 -0.008574 0.030180 0.000000 0.000000 0.000000
# 4 0.000000 0.000000 0.000000 0.042173 0.000000 0.000000
# 5 0.000000 0.000000 0.000000 0.000000 0.077608 0.000000
# 6 0.000000 0.000000 0.000000 0.000000 0.000000 0.047460
#
#
# Mechanical properties :
#
#
# Convention : Reuss Voigt Hill
#
# Bulk Modulus (GPa) = 39.55057 39.55174 39.55115
# Shear Modulus (GPa) = 17.64336 20.06486 18.85411
#
# Velocity S-wave (km/s) = 3.07477 3.27899 3.17852
# Velocity P-wave (km/s) = 5.81368 5.96067 5.88763
#
# Compressibility (1/GPa) = 0.02528409
#
# Stress axis : x y z
#
# Youngs Moduli (GPa) = 48.61515 63.47418 33.13461
#
# Poissons Ratio (x) = -0.07609 0.43854
# Poissons Ratio (y) = -0.05828 0.28409
# Poissons Ratio (z) = 0.64342 0.54422
#
# Static dielectric constant tensor:
#      x y z
#    x 1.656700 0.000000 0.000000 
#    y 0.000000 1.676680 0.000000 
#    z 0.000000 0.000000 1.675040 
# 
# From -- ./inp_files/26381.got.cif
#   From: 2010.05.17/outbox.cif.g08.bks.cpg/sg57_14_cif.got.tgz:26381.got - 2010.06.03 13:58:18.
