data_PCOD9435075
_publ_section_title
;
Structure prediction by ZEFSAII (Michael W. Deem and Ramdas Pophale) SiO2 
 PCOD9435075
Probable space group: P B C M
;
_chemical_formula_sum "Si O2"
_cell_formula_units_Z 64
_cell_length_a 15.042686
_cell_length_b 8.384538
_cell_length_c 26.139168
_cell_angle_alpha 90.000000
_cell_angle_beta 90.000000
_cell_angle_gamma 90.000000
_cell_volume 3296.827981
_symmetry_space_group_name_H-M "P B C M"
_symmetry_group_IT_number 57
_symmetry_cell_setting 'orthorhombic'
loop_
_space_group_symop_operation_xyz
x,y,z
-x,-y,1/2+z
x,1/2-y,-z
-x,1/2+y,1/2-z
-x,-y,-z
x,y,1/2-z
-x,1/2+y,z
x,1/2-y,1/2+z
loop_
_atom_site_type_symbol
_atom_site_label
_atom_site_fract_x
_atom_site_fract_y
_atom_site_fract_z
Si Si1 0.366144 0.868336 0.657183
Si Si2 0.794890 0.210954 0.808805
Si Si3 0.957849 0.402635 0.687475
Si Si4 0.561496 0.616497 0.464272
Si Si5 0.129114 0.269184 0.187993
Si Si6 0.612832 0.289163 0.441295
Si Si7 0.697829 0.896861 0.687793
Si Si8 0.462515 0.312720 0.311309
O O1 0.275959 0.856024 0.689557
O O2 0.337971 0.817888 0.600064
O O3 0.436639 0.734123 0.676246
O O4 0.418445 0.033644 0.662357
O O5 0.813703 0.168127 0.750000
O O6 0.889015 0.266213 0.830330
O O7 0.740639 0.061801 0.830857
O O8 0.956218 0.402945 0.750000
O O9 0.915606 0.567981 0.670387
O O10 0.059120 0.368472 0.673078
O O11 0.608408 0.750000 0.500000
O O12 0.500000 0.500000 0.500000
O O13 0.616063 0.480801 0.434903
O O14 0.489096 0.722521 0.434233
O O15 0.131276 0.272945 0.250000
O O16 0.229202 0.234588 0.171774
O O17 0.637701 0.250000 0.500000
O O18 0.694987 0.906001 0.750000
O O19 0.600303 0.836856 0.674047
O O20 0.457064 0.340330 0.250000
#
# Coordination Sequence:
#
# PCOD9435075 Si02
#       8
#     8   8   8   8   8   8   8   8
#     4  12  22  32  48  64  85 122 158 192 232 272
#     4  10  19  31  43  60  86 118 152 188 222 261
#     4   9  16  25  41  62  86 113 147 185 223 267
#     4   7  12  24  42  59  78  99 122 164 219 268
#     4   9  15  25  41  62  82 110 146 180 222 267
#     4   9  17  30  45  64  84 105 140 187 233 279
#     4   9  18  31  45  59  84 117 152 192 228 260
#     4  11  22  34  45  62  87 120 160 196 224 264
#
# _framework density 19.412599
#
# number of rings (size 3 to 8) (size 9 to 14) (size 15 to 20)
#    0.000    2.750    0.000    4.125    0.000    6.000 
#    0.000    0.000    0.000    0.000    0.000    0.000 
#    0.000    0.000    0.000   11.250    0.000    1.625 
#
# Total GULP energy -356528.592346 kJ/mol
# GULP energy per Si atom -5570.759255 kJ/mol
# Density = 1.936841 g / cm^3
# Si number density = 19.412599 Si / 1000 Ang^3
#
#
#
# Elastic Constant Matrix: (Units=GPa)
#
#
# Indices 1 2 3 4 5 6 
#
# 1 63.7221 -6.7648 -3.8497 0.0000 0.0000 0.0000
# 2 -6.7648 71.3725 -1.3155 0.0000 0.0000 0.0000
# 3 -3.8497 -1.3155 42.5250 0.0000 0.0000 0.0000
# 4 0.0000 0.0000 0.0000 16.6408 0.0000 0.0000
# 5 0.0000 0.0000 0.0000 0.0000 3.1384 0.0000
# 6 0.0000 0.0000 0.0000 0.0000 0.0000 23.7955
#
#
#
# Elastic Compliance Matrix: (Units=1/GPa)
#
#
# Indices 1 2 3 4 5 6 
#
# 1 0.015947 0.001539 0.001491 0.000000 0.000000 0.000000
# 2 0.001539 0.014167 0.000578 0.000000 0.000000 0.000000
# 3 0.001491 0.000578 0.023668 0.000000 0.000000 0.000000
# 4 0.000000 0.000000 0.000000 0.060093 0.000000 0.000000
# 5 0.000000 0.000000 0.000000 0.000000 0.318629 0.000000
# 6 0.000000 0.000000 0.000000 0.000000 0.000000 0.042025
#
#
# Mechanical properties :
#
#
# Convention : Reuss Voigt Hill
#
# Bulk Modulus (GPa) = 16.39397 17.08440 16.73919
# Shear Modulus (GPa) = 10.25332 21.35159 15.80245
#
# Velocity S-wave (km/s) = 2.30071 3.32005 2.85622
# Velocity P-wave (km/s) = 3.93967 4.84940 4.41802
#
# Compressibility (1/GPa) = 0.06099804
#
# Stress axis : x y z
#
# Youngs Moduli (GPa) = 62.70926 70.58410 42.25031
#
# Poissons Ratio (x) = -0.10862 -0.06300
# Poissons Ratio (y) = -0.09650 -0.02440
# Poissons Ratio (z) = -0.09351 -0.04077
#
# Static dielectric constant tensor:
#      x y z
#    x 1.682640 0.000000 0.000000 
#    y 0.000000 1.799240 0.000000 
#    z 0.000000 0.000000 1.742840 
# 
# From -- ./inp_files/29911.got.cif
#   From: 2010.05.17/outbox.cif.g08.bks.cpg/sg57_15_cif.got.tgz:29911.got - 2010.06.03 13:58:18.
