data_PCOD9435064
_publ_section_title
;
Structure prediction by ZEFSAII (Michael W. Deem and Ramdas Pophale) SiO2 
 PCOD9435064
Probable space group: P B C M
;
_chemical_formula_sum "Si O2"
_cell_formula_units_Z 44
_cell_length_a 11.762743
_cell_length_b 9.766478
_cell_length_c 21.923872
_cell_angle_alpha 90.000000
_cell_angle_beta 90.000000
_cell_angle_gamma 90.000000
_cell_volume 2518.626928
_symmetry_space_group_name_H-M "P B C M"
_symmetry_group_IT_number 57
_symmetry_cell_setting 'orthorhombic'
loop_
_space_group_symop_operation_xyz
x,y,z
-x,-y,1/2+z
x,1/2-y,-z
-x,1/2+y,1/2-z
-x,-y,-z
x,y,1/2-z
-x,1/2+y,z
x,1/2-y,1/2+z
loop_
_atom_site_type_symbol
_atom_site_label
_atom_site_fract_x
_atom_site_fract_y
_atom_site_fract_z
Si Si1 0.144134 0.750000 0.000000
Si Si2 0.989839 0.827066 0.385402
Si Si3 0.702459 0.067871 0.408626
Si Si4 0.529519 0.876623 0.954412
Si Si5 0.897239 0.409233 0.679537
Si Si6 0.249148 0.253151 0.429598
O O1 0.223938 0.641861 0.037115
O O2 0.063428 0.818289 0.051998
O O3 0.868035 0.751503 0.393262
O O4 0.055123 0.740638 0.334617
O O5 0.962494 0.979989 0.363060
O O6 0.576181 0.127271 0.408922
O O7 0.769669 0.090506 0.346301
O O8 0.699113 0.904399 0.418641
O O9 0.653269 0.862510 0.922940
O O10 0.526711 0.750000 0.000000
O O11 0.500000 0.000000 0.000000
O O12 0.905663 0.446022 0.750000
O O13 0.213796 0.250000 0.500000
#
# Coordination Sequence:
#
# PCOD9435064 Si02
#       6
#     4   8   8   8   8   8
#     4  10  20  30  52  86 110 130 176 208 286 316
#     4  10  21  34  57  78 110 138 170 227 263 324
#     4  10  20  32  51  78 106 142 166 220 262 315
#     4  11  19  31  50  77 111 137 166 210 267 332
#     4  10  22  38  55  75 103 146 184 214 256 310
#     4  10  19  30  49  77 113 134 165 208 270 324
#
# _framework density 17.469836999999998
#
# number of rings (size 3 to 8) (size 9 to 14) (size 15 to 20)
#    0.000    1.818    5.455    0.545    2.545    2.182 
#    0.000    0.000    0.000    5.455    0.000    0.000 
#    0.000    0.000    0.000    0.000    0.000    0.000 
#
# Total GULP energy -245021.548468 kJ/mol
# GULP energy per Si atom -5568.671556 kJ/mol
# Density = 1.743007 g / cm^3
# Si number density = 17.469837 Si / 1000 Ang^3
#
#
#
# Elastic Constant Matrix: (Units=GPa)
#
#
# Indices 1 2 3 4 5 6 
#
# 1 69.3595 6.2941 8.8660 0.0000 0.0000 0.0000
# 2 6.2941 36.0015 -2.9751 0.0000 0.0000 0.0000
# 3 8.8660 -2.9751 59.7330 0.0000 0.0000 0.0000
# 4 0.0000 0.0000 0.0000 14.1274 0.0000 0.0000
# 5 0.0000 0.0000 0.0000 0.0000 10.7347 0.0000
# 6 0.0000 0.0000 0.0000 0.0000 0.0000 29.7067
#
#
#
# Elastic Compliance Matrix: (Units=1/GPa)
#
#
# Indices 1 2 3 4 5 6 
#
# 1 0.014975 -0.002813 -0.002363 0.000000 0.000000 0.000000
# 2 -0.002813 0.028420 0.001833 0.000000 0.000000 0.000000
# 3 -0.002363 0.001833 0.017183 0.000000 0.000000 0.000000
# 4 0.000000 0.000000 0.000000 0.070784 0.000000 0.000000
# 5 0.000000 0.000000 0.000000 0.000000 0.093156 0.000000
# 6 0.000000 0.000000 0.000000 0.000000 0.000000 0.033662
#
#
# Mechanical properties :
#
#
# Convention : Reuss Voigt Hill
#
# Bulk Modulus (GPa) = 18.55564 21.05156 19.80360
# Shear Modulus (GPa) = 17.67844 21.10771 19.39307
#
# Velocity S-wave (km/s) = 3.18455 3.47974 3.33541
# Velocity P-wave (km/s) = 4.91594 5.31236 5.11799
#
# Compressibility (1/GPa) = 0.05389196
#
# Stress axis : x y z
#
# Youngs Moduli (GPa) = 66.77813 35.18657 58.19651
#
# Poissons Ratio (x) = 0.09899 0.13751
# Poissons Ratio (y) = 0.18787 -0.10668
# Poissons Ratio (z) = 0.15778 -0.06450
#
# Static dielectric constant tensor:
#      x y z
#    x 1.656980 0.000000 0.000000 
#    y 0.000000 1.485230 0.000000 
#    z 0.000000 0.000000 1.392330 
# 
# From -- ./inp_files/27125.got.cif
#   From: 2010.05.17/outbox.cif.g08.bks.cpg/sg57_14_cif.got.tgz:27125.got - 2010.06.03 13:58:18.
