data_PCOD9435410
_publ_section_title
;
Structure prediction by ZEFSAII (Michael W. Deem and Ramdas Pophale) SiO2 
 PCOD9435410
Probable space group: P B C M
;
_chemical_formula_sum "Si O2"
_cell_formula_units_Z 64
_cell_length_a 23.751573
_cell_length_b 17.664657
_cell_length_c 8.784466
_cell_angle_alpha 90.000000
_cell_angle_beta 90.000000
_cell_angle_gamma 90.000000
_cell_volume 3685.640337
_symmetry_space_group_name_H-M "P B C M"
_symmetry_group_IT_number 57
_symmetry_cell_setting 'orthorhombic'
loop_
_space_group_symop_operation_xyz
x,y,z
-x,-y,1/2+z
x,1/2-y,-z
-x,1/2+y,1/2-z
-x,-y,-z
x,y,1/2-z
-x,1/2+y,z
x,1/2-y,1/2+z
loop_
_atom_site_type_symbol
_atom_site_label
_atom_site_fract_x
_atom_site_fract_y
_atom_site_fract_z
Si Si1 0.364263 0.443703 0.933230
Si Si2 0.682489 0.330155 0.431642
Si Si3 0.930793 0.332631 0.566372
Si Si4 0.740402 0.478363 0.931304
Si Si5 0.541885 0.832402 0.568732
Si Si6 0.566117 0.094574 0.569535
Si Si7 0.863771 0.022339 0.566654
Si Si8 0.033166 0.428713 0.932617
O O1 0.355974 0.444690 0.750000
O O2 0.398827 0.369607 0.979049
O O3 0.405884 0.514113 0.969102
O O4 0.305197 0.460011 0.012734
O O5 0.699265 0.250000 0.500000
O O6 0.690746 0.332823 0.250000
O O7 0.716353 0.398352 0.508031
O O8 0.616226 0.345659 0.461329
O O9 0.917114 0.250000 0.500000
O O10 0.925941 0.331305 0.750000
O O11 0.891672 0.400750 0.501992
O O12 0.995401 0.356452 0.522673
O O13 0.743566 0.477640 0.750000
O O14 0.801605 0.488820 0.003100
O O15 0.533761 0.750000 0.500000
O O16 0.541831 0.828028 0.750000
O O17 0.490141 0.885008 0.517902
O O18 0.554394 0.095214 0.750000
O O19 0.863049 0.029708 0.750000
O O20 0.902887 0.949535 0.524934
O O21 0.030718 0.431320 0.750000
O O22 0.000000 0.500000 0.000000
#
# Coordination Sequence:
#
# PCOD9435410 Si02
#       8
#     8   8   8   8   8   8   8   8
#     4   9  20  38  55  73  99 134 171 211 255 303
#     4  10  20  34  50  71 101 136 170 207 250 301
#     4  10  19  32  50  78 111 139 168 203 245 294
#     4  11  22  35  53  76  99 130 171 214 255 299
#     4  11  22  34  52  77 104 131 163 205 258 311
#     4   9  18  33  53  75 100 129 165 205 250 304
#     4  10  19  34  54  75 100 134 172 210 250 294
#     4   8  16  30  50  73  99 131 166 201 239 282
#
# _framework density 17.36469
#
# number of rings (size 3 to 8) (size 9 to 14) (size 15 to 20)
#    0.000    2.250    0.000    4.125    0.000    6.000 
#    0.000    2.500    0.000    0.750    0.000    1.750 
#    0.000    0.000    0.000    0.000    0.000    0.000 
#
# Total GULP energy -356866.030938 kJ/mol
# GULP energy per Si atom -5576.031733 kJ/mol
# Density = 1.732517 g / cm^3
# Si number density = 17.364690 Si / 1000 Ang^3
#
#
#
# Elastic Constant Matrix: (Units=GPa)
#
#
# Indices 1 2 3 4 5 6 
#
# 1 128.8096 24.8848 47.1049 0.0000 0.0000 0.0000
# 2 24.8848 20.6495 12.3216 0.0000 0.0000 0.0000
# 3 47.1049 12.3216 54.5178 0.0000 0.0000 0.0000
# 4 0.0000 0.0000 0.0000 14.9731 0.0000 0.0000
# 5 0.0000 0.0000 0.0000 0.0000 27.3389 0.0000
# 6 0.0000 0.0000 0.0000 0.0000 0.0000 8.9532
#
#
#
# Elastic Compliance Matrix: (Units=1/GPa)
#
#
# Indices 1 2 3 4 5 6 
#
# 1 0.013027 -0.010383 -0.008909 0.000000 0.000000 0.000000
# 2 -0.010383 0.064252 -0.005550 0.000000 0.000000 0.000000
# 3 -0.008909 -0.005550 0.027295 0.000000 0.000000 0.000000
# 4 0.000000 0.000000 0.000000 0.066786 0.000000 0.000000
# 5 0.000000 0.000000 0.000000 0.000000 0.036578 0.000000
# 6 0.000000 0.000000 0.000000 0.000000 0.000000 0.111692
#
#
# Mechanical properties :
#
#
# Convention : Reuss Voigt Hill
#
# Bulk Modulus (GPa) = 18.21865 41.39995 29.80930
# Shear Modulus (GPa) = 12.89947 18.23074 15.56511
#
# Velocity S-wave (km/s) = 2.72850 3.24369 2.99718
# Velocity P-wave (km/s) = 4.52115 6.15808 5.40198
#
# Compressibility (1/GPa) = 0.05488880
#
# Stress axis : x y z
#
# Youngs Moduli (GPa) = 76.76128 15.56368 36.63679
#
# Poissons Ratio (x) = 0.16160 0.32641
# Poissons Ratio (y) = 0.79702 0.20335
# Poissons Ratio (z) = 0.68389 0.08638
#
# Static dielectric constant tensor:
#      x y z
#    x 1.603390 0.000000 0.000000 
#    y 0.000000 1.582480 0.000000 
#    z 0.000000 0.000000 1.577410 
# 
# From -- ./inp_files/8454.got.cif
#   From: 2010.05.17/outbox.cif.g08.bks.cpg/sg57_5_cif.got.tgz:8454.got - 2010.06.03 13:58:18.
