data_PCOD9435167
_publ_section_title
;
Structure prediction by ZEFSAII (Michael W. Deem and Ramdas Pophale) SiO2 
 PCOD9435167
Probable space group: P B C M
;
_chemical_formula_sum "Si O2"
_cell_formula_units_Z 64
_cell_length_a 11.184603
_cell_length_b 34.860256
_cell_length_c 8.655504
_cell_angle_alpha 90.000000
_cell_angle_beta 90.000000
_cell_angle_gamma 90.000000
_cell_volume 3374.764770
_symmetry_space_group_name_H-M "P B C M"
_symmetry_group_IT_number 57
_symmetry_cell_setting 'orthorhombic'
loop_
_space_group_symop_operation_xyz
x,y,z
-x,-y,1/2+z
x,1/2-y,-z
-x,1/2+y,1/2-z
-x,-y,-z
x,y,1/2-z
-x,1/2+y,z
x,1/2-y,1/2+z
loop_
_atom_site_type_symbol
_atom_site_label
_atom_site_fract_x
_atom_site_fract_y
_atom_site_fract_z
Si Si1 0.443687 0.063906 0.567344
Si Si2 0.695233 0.054525 0.063161
Si Si3 0.675645 0.636066 0.434065
Si Si4 0.712669 0.291430 0.935927
Si Si5 0.080073 0.405929 0.564208
Si Si6 0.445846 0.290758 0.433550
Si Si7 0.830891 0.370109 0.561800
Si Si8 0.192038 0.478944 0.067143
O O1 0.452113 0.070951 0.750000
O O2 0.566014 0.045959 0.506818
O O3 0.420688 0.103666 0.478585
O O4 0.325286 0.038530 0.541055
O O5 0.687033 0.052554 0.250000
O O6 0.736063 0.097093 0.017474
O O7 0.793751 0.022893 0.015293
O O8 0.676493 0.641640 0.250000
O O9 0.803386 0.618548 0.483754
O O10 0.640838 0.675131 0.516910
O O11 0.711858 0.289938 0.750000
O O12 0.792122 0.327676 0.987614
O O13 0.751969 0.250000 0.000000
O O14 0.577149 0.297809 0.993999
O O15 0.077471 0.406294 0.750000
O O16 0.100929 0.449630 0.511285
O O17 0.959764 0.385396 0.508765
O O18 0.403918 0.250000 0.500000
O O19 0.457425 0.288481 0.250000
O O20 0.833205 0.369498 0.750000
O O21 0.168263 0.478457 0.250000
#
# Coordination Sequence:
#
# PCOD9435167 Si02
#       8
#     8   8   8   8   8   8   8   8
#     4  10  19  31  48  73 104 133 169 215 261 310
#     4  10  19  32  51  74 103 137 172 211 260 313
#     4  10  19  33  53  74  99 134 173 210 255 307
#     4  10  19  34  56  80 108 138 169 207 255 308
#     4   9  19  36  55  72  96 135 178 215 253 303
#     4  11  21  34  54  81 111 136 164 204 253 309
#     4   9  19  35  54  75 100 134 175 215 254 302
#     4   9  19  33  49  73 104 136 169 213 264 308
#
# _framework density 18.964282999999998
#
# number of rings (size 3 to 8) (size 9 to 14) (size 15 to 20)
#    0.000    2.250    0.000    4.125    0.000    3.000 
#    0.000    3.125    0.000    1.500    0.000    0.000 
#    0.000    0.000    0.000    0.000    0.000    0.000 
#
# Total GULP energy -357235.393732 kJ/mol
# GULP energy per Si atom -5581.803027 kJ/mol
# Density = 1.892112 g / cm^3
# Si number density = 18.964283 Si / 1000 Ang^3
#
#
#
# Elastic Constant Matrix: (Units=GPa)
#
#
# Indices 1 2 3 4 5 6 
#
# 1 39.8130 1.5019 12.8425 0.0000 0.0000 0.0000
# 2 1.5019 70.8395 25.1918 0.0000 0.0000 0.0000
# 3 12.8425 25.1918 40.9250 0.0000 0.0000 0.0000
# 4 0.0000 0.0000 0.0000 28.1888 0.0000 0.0000
# 5 0.0000 0.0000 0.0000 0.0000 15.4152 0.0000
# 6 0.0000 0.0000 0.0000 0.0000 0.0000 18.0612
#
#
#
# Elastic Compliance Matrix: (Units=1/GPa)
#
#
# Indices 1 2 3 4 5 6 
#
# 1 0.028537 0.003303 -0.010988 0.000000 0.000000 0.000000
# 2 0.003303 0.018455 -0.012396 0.000000 0.000000 0.000000
# 3 -0.010988 -0.012396 0.035514 0.000000 0.000000 0.000000
# 4 0.000000 0.000000 0.000000 0.035475 0.000000 0.000000
# 5 0.000000 0.000000 0.000000 0.000000 0.064871 0.000000
# 6 0.000000 0.000000 0.000000 0.000000 0.000000 0.055367
#
#
# Mechanical properties :
#
#
# Convention : Reuss Voigt Hill
#
# Bulk Modulus (GPa) = 23.61722 25.62777 24.62249
# Shear Modulus (GPa) = 17.09417 19.80243 18.44830
#
# Velocity S-wave (km/s) = 3.00557 3.23491 3.12234
# Velocity P-wave (km/s) = 4.95229 5.24365 5.10005
#
# Compressibility (1/GPa) = 0.04234199
#
# Stress axis : x y z
#
# Youngs Moduli (GPa) = 35.04185 54.18653 28.15809
#
# Poissons Ratio (x) = -0.17895 0.30940
# Poissons Ratio (y) = -0.11573 0.34906
# Poissons Ratio (z) = 0.38504 0.67172
#
# Static dielectric constant tensor:
#      x y z
#    x 1.657290 0.000000 0.000000 
#    y 0.000000 1.670580 0.000000 
#    z 0.000000 0.000000 1.674030 
# 
# From -- ./inp_files/3792.got.cif
#   From: 2010.05.17/outbox.cif.g08.bks.cpg/sg57_2_cif.got.tgz:3792.got - 2010.06.03 13:58:18.
