data_PCOD9435542
_publ_section_title
;
Structure prediction by ZEFSAII (Michael W. Deem and Ramdas Pophale) SiO2 
 PCOD9435542
Probable space group: P B C M
;
_chemical_formula_sum "Si O2"
_cell_formula_units_Z 64
_cell_length_a 20.907057
_cell_length_b 20.468102
_cell_length_c 8.235087
_cell_angle_alpha 90.000000
_cell_angle_beta 90.000000
_cell_angle_gamma 90.000000
_cell_volume 3524.022458
_symmetry_space_group_name_H-M "P B C M"
_symmetry_group_IT_number 57
_symmetry_cell_setting 'orthorhombic'
loop_
_space_group_symop_operation_xyz
x,y,z
-x,-y,1/2+z
x,1/2-y,-z
-x,1/2+y,1/2-z
-x,-y,-z
x,y,1/2-z
-x,1/2+y,z
x,1/2-y,1/2+z
loop_
_atom_site_type_symbol
_atom_site_label
_atom_site_fract_x
_atom_site_fract_y
_atom_site_fract_z
Si Si1 0.521309 0.572121 0.553314
Si Si2 0.301527 0.591349 0.445841
Si Si3 0.917994 0.823867 0.446391
Si Si4 0.837380 0.056733 0.054210
Si Si5 0.336851 0.443842 0.052146
Si Si6 0.022068 0.928410 0.056763
Si Si7 0.198804 0.090818 0.947824
Si Si8 0.583014 0.323800 0.056754
O O1 0.500000 0.500000 0.500000
O O2 0.520912 0.573389 0.750000
O O3 0.594552 0.582329 0.497976
O O4 0.471592 0.626564 0.492817
O O5 0.302030 0.592445 0.250000
O O6 0.227396 0.593468 0.498898
O O7 0.328564 0.519968 0.495937
O O8 0.348370 0.647053 0.507113
O O9 0.927246 0.750000 0.500000
O O10 0.918004 0.825547 0.250000
O O11 0.850031 0.853749 0.502875
O O12 0.973826 0.872658 0.505057
O O13 0.838835 0.057724 0.250000
O O14 0.828437 0.980619 0.005715
O O15 0.904630 0.082657 0.992386
O O16 0.336603 0.443041 0.250000
O O17 0.272601 0.406712 0.998003
O O18 0.017630 0.928278 0.250000
O O19 0.000000 0.000000 0.000000
O O20 0.199435 0.091727 0.750000
O O21 0.579126 0.324649 0.250000
O O22 0.574294 0.250000 0.000000
#
# Coordination Sequence:
#
# PCOD9435542 Si02
#       8
#     8   8   8   8   8   8   8   8
#     4  10  19  32  53  81 107 137 178 223 268 318
#     4   9  17  32  56  80 104 137 173 215 270 329
#     4  10  21  36  53  75 106 141 178 216 262 317
#     4   9  17  32  55  82 107 132 171 219 270 322
#     4   8  14  27  52  79 102 132 169 209 261 317
#     4  11  21  34  54  80 110 143 180 227 271 317
#     4   8  14  29  51  75 103 134 168 209 255 315
#     4  11  23  36  52  76 110 147 184 225 271 326
#
# _framework density 18.161066000000002
#
# number of rings (size 3 to 8) (size 9 to 14) (size 15 to 20)
#    0.000    2.500    2.500    2.250    0.000    2.000 
#    0.000    1.250    0.000    2.250    0.000    0.000 
#    0.000    0.000    0.000    0.000    0.000    0.000 
#
# Total GULP energy -356861.653752 kJ/mol
# GULP energy per Si atom -5575.963340 kJ/mol
# Density = 1.811973 g / cm^3
# Si number density = 18.161066 Si / 1000 Ang^3
#
#
#
# Elastic Constant Matrix: (Units=GPa)
#
#
# Indices 1 2 3 4 5 6 
#
# 1 182.6193 95.7533 18.1828 0.0000 0.0000 0.0000
# 2 95.7533 132.0037 14.3073 0.0000 0.0000 0.0000
# 3 18.1828 14.3073 11.8608 0.0000 0.0000 0.0000
# 4 0.0000 0.0000 0.0000 18.8621 0.0000 0.0000
# 5 0.0000 0.0000 0.0000 0.0000 20.1150 0.0000
# 6 0.0000 0.0000 0.0000 0.0000 0.0000 25.7497
#
#
#
# Elastic Compliance Matrix: (Units=1/GPa)
#
#
# Indices 1 2 3 4 5 6 
#
# 1 0.009324 -0.005998 -0.007058 0.000000 0.000000 0.000000
# 2 -0.005998 0.012574 -0.005972 0.000000 0.000000 0.000000
# 3 -0.007058 -0.005972 0.102335 0.000000 0.000000 0.000000
# 4 0.000000 0.000000 0.000000 0.053017 0.000000 0.000000
# 5 0.000000 0.000000 0.000000 0.000000 0.049714 0.000000
# 6 0.000000 0.000000 0.000000 0.000000 0.000000 0.038835
#
#
# Mechanical properties :
#
#
# Convention : Reuss Voigt Hill
#
# Bulk Modulus (GPa) = 11.60410 64.77452 38.18931
# Shear Modulus (GPa) = 15.03394 26.16136 20.59765
#
# Velocity S-wave (km/s) = 2.88029 3.79953 3.37139
# Velocity P-wave (km/s) = 4.17910 7.41571 6.01904
#
# Compressibility (1/GPa) = 0.08617646
#
# Stress axis : x y z
#
# Youngs Moduli (GPa) = 107.25366 79.52992 9.77181
#
# Poissons Ratio (x) = 0.47704 0.06897
# Poissons Ratio (y) = 0.64334 0.05836
# Poissons Ratio (z) = 0.75698 0.47496
#
# Static dielectric constant tensor:
#      x y z
#    x 1.654710 0.000000 0.000000 
#    y 0.000000 1.599940 0.000000 
#    z 0.000000 0.000000 1.639770 
# 
# From -- ./inp_files/8458.got.cif
#   From: 2010.05.17/outbox.cif.g08.bks.cpg/sg57_5_cif.got.tgz:8458.got - 2010.06.03 13:58:18.
