data_PCOD9435761
_publ_section_title
;
Structure prediction by ZEFSAII (Michael W. Deem and Ramdas Pophale) SiO2 
 PCOD9435761
Probable space group: P B C M
;
_chemical_formula_sum "Si O2"
_cell_formula_units_Z 40
_cell_length_a 14.062085
_cell_length_b 18.439001
_cell_length_c 8.872833
_cell_angle_alpha 90.000000
_cell_angle_beta 90.000000
_cell_angle_gamma 90.000000
_cell_volume 2300.643961
_symmetry_space_group_name_H-M "P B C M"
_symmetry_group_IT_number 57
_symmetry_cell_setting 'orthorhombic'
loop_
_space_group_symop_operation_xyz
x,y,z
-x,-y,1/2+z
x,1/2-y,-z
-x,1/2+y,1/2-z
-x,-y,-z
x,y,1/2-z
-x,1/2+y,z
x,1/2-y,1/2+z
loop_
_atom_site_type_symbol
_atom_site_label
_atom_site_fract_x
_atom_site_fract_y
_atom_site_fract_z
Si Si1 0.690271 0.675883 0.930144
Si Si2 0.211233 0.538544 0.930418
Si Si3 0.922135 0.171036 0.568758
Si Si4 0.599757 0.977875 0.070626
Si Si5 0.881311 0.885420 0.930647
O O1 0.700169 0.681837 0.750000
O O2 0.626054 0.605793 0.964805
O O3 0.651956 0.750000 0.000000
O O4 0.792802 0.659848 0.004138
O O5 0.225176 0.537940 0.750000
O O6 0.158857 0.612655 0.972794
O O7 0.143641 0.469442 0.966077
O O8 0.312104 0.524655 0.008026
O O9 0.904210 0.250000 0.500000
O O10 0.927191 0.175370 0.750000
O O11 0.021850 0.141011 0.505546
O O12 0.595684 0.985279 0.250000
O O13 0.500000 0.000000 0.000000
O O14 0.886343 0.877102 0.750000
#
# Coordination Sequence:
#
# PCOD9435761 Si02
#       5
#     8   8   8   8   8
#     4  10  20  34  53  80 109 137 170 213 261 309
#     4   9  20  37  56  77 103 136 176 218 261 309
#     4  11  22  35  51  75 108 144 179 216 255 304
#     4  10  21  37  59  82 105 134 172 216 263 314
#     4  10  19  33  54  78 105 139 175 215 260 308
#
# _framework density 17.386436
#
# number of rings (size 3 to 8) (size 9 to 14) (size 15 to 20)
#    0.000    2.000    0.000    3.600    0.000    4.800 
#    0.000    1.000    0.000    0.000    0.000    0.000 
#    0.000    0.000    0.000    0.000    0.000    0.000 
#
# Total GULP energy -223406.502769 kJ/mol
# GULP energy per Si atom -5585.162569 kJ/mol
# Density = 1.734686 g / cm^3
# Si number density = 17.386436 Si / 1000 Ang^3
#
#
#
# Elastic Constant Matrix: (Units=GPa)
#
#
# Indices 1 2 3 4 5 6 
#
# 1 124.0201 101.5569 62.0453 0.0000 0.0000 0.0000
# 2 101.5569 149.9390 69.7515 0.0000 0.0000 0.0000
# 3 62.0453 69.7515 64.4928 0.0000 0.0000 0.0000
# 4 0.0000 0.0000 0.0000 27.6837 0.0000 0.0000
# 5 0.0000 0.0000 0.0000 0.0000 32.4791 0.0000
# 6 0.0000 0.0000 0.0000 0.0000 0.0000 12.5434
#
#
#
# Elastic Compliance Matrix: (Units=1/GPa)
#
#
# Indices 1 2 3 4 5 6 
#
# 1 0.020662 -0.009555 -0.009544 0.000000 0.000000 0.000000
# 2 -0.009555 0.017842 -0.010104 0.000000 0.000000 0.000000
# 3 -0.009544 -0.010104 0.035615 0.000000 0.000000 0.000000
# 4 0.000000 0.000000 0.000000 0.036122 0.000000 0.000000
# 5 0.000000 0.000000 0.000000 0.000000 0.030789 0.000000
# 6 0.000000 0.000000 0.000000 0.000000 0.000000 0.079723
#
#
# Mechanical properties :
#
#
# Convention : Reuss Voigt Hill
#
# Bulk Modulus (GPa) = 63.64112 89.46215 76.55163
# Shear Modulus (GPa) = 17.58105 21.54779 19.56442
#
# Velocity S-wave (km/s) = 3.18338 3.52425 3.35814
# Velocity P-wave (km/s) = 7.08486 8.25393 7.69164
#
# Compressibility (1/GPa) = 0.01571311
#
# Stress axis : x y z
#
# Youngs Moduli (GPa) = 48.39695 56.04854 28.07821
#
# Poissons Ratio (x) = 0.53556 0.26797
# Poissons Ratio (y) = 0.46245 0.28370
# Poissons Ratio (z) = 0.46189 0.56630
#
# Static dielectric constant tensor:
#      x y z
#    x 1.546460 0.000000 0.000000 
#    y 0.000000 1.602710 0.000000 
#    z 0.000000 0.000000 1.579020 
# 
# From -- ./inp_files/2610.got.cif
#   From: 2010.05.17/outbox.cif.g08.bks.cpg/sg57_2_cif.got.tgz:2610.got - 2010.06.03 13:58:18.
