data_PCOD9435117
_publ_section_title
;
Structure prediction by ZEFSAII (Michael W. Deem and Ramdas Pophale) SiO2 
 PCOD9435117
Probable space group: P B C M
;
_chemical_formula_sum "Si O2"
_cell_formula_units_Z 56
_cell_length_a 21.213347
_cell_length_b 15.046746
_cell_length_c 8.542382
_cell_angle_alpha 90.000000
_cell_angle_beta 90.000000
_cell_angle_gamma 90.000000
_cell_volume 2726.658664
_symmetry_space_group_name_H-M "P B C M"
_symmetry_group_IT_number 57
_symmetry_cell_setting 'orthorhombic'
loop_
_space_group_symop_operation_xyz
x,y,z
-x,-y,1/2+z
x,1/2-y,-z
-x,1/2+y,1/2-z
-x,-y,-z
x,y,1/2-z
-x,1/2+y,z
x,1/2-y,1/2+z
loop_
_atom_site_type_symbol
_atom_site_label
_atom_site_fract_x
_atom_site_fract_y
_atom_site_fract_z
Si Si1 0.652849 0.968550 0.062898
Si Si2 0.811022 0.157241 0.432284
Si Si3 0.396283 0.846254 0.561878
Si Si4 0.949954 0.399502 0.936479
Si Si5 0.784776 0.961105 0.562774
Si Si6 0.916838 0.590646 0.066804
Si Si7 0.458081 0.152219 0.062267
O O1 0.655000 0.967742 0.250000
O O2 0.645337 0.070917 0.008795
O O3 0.591269 0.916744 0.006788
O O4 0.717550 0.928901 0.997961
O O5 0.786057 0.250000 0.500000
O O6 0.793987 0.150971 0.250000
O O7 0.887356 0.158556 0.447079
O O8 0.791624 0.064354 0.511254
O O9 0.377554 0.750000 0.500000
O O10 0.394843 0.843212 0.750000
O O11 0.469161 0.864186 0.514336
O O12 0.955174 0.423517 0.750000
O O13 0.018365 0.362805 0.989028
O O14 0.934766 0.487115 0.037845
O O15 0.786071 0.957985 0.750000
O O16 0.845883 0.906237 0.499915
O O17 0.911280 0.611687 0.250000
O O18 0.455259 0.150290 0.250000
O O19 0.441775 0.250000 0.000000
#
# Coordination Sequence:
#
# PCOD9435117 Si02
#       7
#     8   8   8   8   8   8   8
#     4  11  22  36  54  80 113 148 186 226 268 321
#     4  10  19  31  47  68  97 132 169 211 260 315
#     4   9  20  36  56  82 112 144 179 222 271 323
#     4   8  14  25  43  65  86 112 149 196 247 295
#     4  10  20  33  49  71  99 135 176 215 259 312
#     4   8  14  26  44  65  88 114 150 197 247 298
#     4  10  20  37  60  85 109 137 176 224 278 329
#
# _framework density 20.537956999999999
#
# number of rings (size 3 to 8) (size 9 to 14) (size 15 to 20)
#    0.000    2.571    0.000    2.143    0.000    3.429 
#    0.000    1.429    0.000    0.857    0.000    2.000 
#    0.000    0.000    0.000    0.000    0.000    0.000 
#
# Total GULP energy -312109.839959 kJ/mol
# GULP energy per Si atom -5573.389999 kJ/mol
# Density = 2.049121 g / cm^3
# Si number density = 20.537957 Si / 1000 Ang^3
#
#
#
# Elastic Constant Matrix: (Units=GPa)
#
#
# Indices 1 2 3 4 5 6 
#
# 1 105.9127 14.5765 12.2798 0.0000 0.0000 0.0000
# 2 14.5765 18.0872 2.0618 0.0000 0.0000 0.0000
# 3 12.2798 2.0618 29.5676 0.0000 0.0000 0.0000
# 4 0.0000 0.0000 0.0000 20.4667 0.0000 0.0000
# 5 0.0000 0.0000 0.0000 0.0000 22.2677 0.0000
# 6 0.0000 0.0000 0.0000 0.0000 0.0000 0.7440
#
#
#
# Elastic Compliance Matrix: (Units=1/GPa)
#
#
# Indices 1 2 3 4 5 6 
#
# 1 0.011072 -0.008466 -0.004008 0.000000 0.000000 0.000000
# 2 -0.008466 0.062204 -0.000822 0.000000 0.000000 0.000000
# 3 -0.004008 -0.000822 0.035543 0.000000 0.000000 0.000000
# 4 0.000000 0.000000 0.000000 0.048860 0.000000 0.000000
# 5 0.000000 0.000000 0.000000 0.000000 0.044908 0.000000
# 6 0.000000 0.000000 0.000000 0.000000 0.000000 1.344122
#
#
# Mechanical properties :
#
#
# Convention : Reuss Voigt Hill
#
# Bulk Modulus (GPa) = 12.16133 23.48929 17.82531
# Shear Modulus (GPa) = 3.12362 17.00564 10.06463
#
# Velocity S-wave (km/s) = 1.23459 2.88064 2.21611
# Velocity P-wave (km/s) = 2.82250 4.74615 3.90464
#
# Compressibility (1/GPa) = 0.08222786
#
# Stress axis : x y z
#
# Youngs Moduli (GPa) = 90.32172 16.07614 28.13523
#
# Poissons Ratio (x) = 0.13610 0.11276
# Poissons Ratio (y) = 0.76464 0.02312
# Poissons Ratio (z) = 0.36199 0.01321
#
# Static dielectric constant tensor:
#      x y z
#    x 1.803220 0.000000 0.000000 
#    y 0.000000 1.709290 0.000000 
#    z 0.000000 0.000000 1.699370 
# 
# From -- ./inp_files/8146.got.cif
#   From: 2010.05.17/outbox.cif.g08.bks.cpg/sg57_5_cif.got.tgz:8146.got - 2010.06.03 13:58:18.
