data_PCOD9435922
_publ_section_title
;
Structure prediction by ZEFSAII (Michael W. Deem and Ramdas Pophale) SiO2 
 PCOD9435922
Probable space group: P B C M
;
_chemical_formula_sum "Si O2"
_cell_formula_units_Z 64
_cell_length_a 24.012116
_cell_length_b 17.908578
_cell_length_c 8.591541
_cell_angle_alpha 90.000000
_cell_angle_beta 90.000000
_cell_angle_gamma 90.000000
_cell_volume 3694.558967
_symmetry_space_group_name_H-M "P B C M"
_symmetry_group_IT_number 57
_symmetry_cell_setting 'orthorhombic'
loop_
_space_group_symop_operation_xyz
x,y,z
-x,-y,1/2+z
x,1/2-y,-z
-x,1/2+y,1/2-z
-x,-y,-z
x,y,1/2-z
-x,1/2+y,z
x,1/2-y,1/2+z
loop_
_atom_site_type_symbol
_atom_site_label
_atom_site_fract_x
_atom_site_fract_y
_atom_site_fract_z
Si Si1 0.035434 0.930200 0.436430
Si Si2 0.259872 0.025477 0.561278
Si Si3 0.064416 0.332238 0.437497
Si Si4 0.368848 0.553371 0.438565
Si Si5 0.320063 0.171303 0.435409
Si Si6 0.570699 0.600449 0.563258
Si Si7 0.541901 0.166867 0.436701
Si Si8 0.867609 0.518867 0.562139
O O1 0.036697 0.932278 0.250000
O O2 0.998509 0.858344 0.482870
O O3 0.096217 0.949220 0.500898
O O4 0.000000 0.000000 0.500000
O O5 0.260984 0.028519 0.750000
O O6 0.282449 0.103946 0.498095
O O7 0.196463 0.013180 0.512569
O O8 0.305905 0.964321 0.510157
O O9 0.077938 0.250000 0.500000
O O10 0.066985 0.329558 0.250000
O O11 0.104831 0.401244 0.487263
O O12 0.367543 0.555729 0.250000
O O13 0.406571 0.481545 0.480711
O O14 0.401442 0.626419 0.492127
O O15 0.299514 0.250000 0.500000
O O16 0.321161 0.171368 0.250000
O O17 0.382182 0.156495 0.500347
O O18 0.568658 0.605193 0.750000
O O19 0.511119 0.619720 0.493685
O O20 0.537265 0.250000 0.500000
O O21 0.541352 0.168270 0.250000
O O22 0.870347 0.518019 0.750000
#
# Coordination Sequence:
#
# PCOD9435922 Si02
#       8
#     8   8   8   8   8   8   8   8
#     4   9  17  30  48  70  97 127 164 201 236 278
#     4   9  18  35  54  72  95 127 166 206 243 288
#     4   9  18  30  45  71 102 131 158 192 235 282
#     4   8  17  33  53  72  94 125 161 199 241 288
#     4  11  21  33  48  69  98 132 165 200 242 290
#     4  10  19  34  53  73  95 123 158 199 247 298
#     4  11  21  33  49  73  99 124 156 197 246 300
#     4   9  18  32  51  74  99 127 163 202 244 290
#
# _framework density 17.322772000000001
#
# number of rings (size 3 to 8) (size 9 to 14) (size 15 to 20)
#    0.000    2.500    0.000    4.500    0.000    3.500 
#    0.000    6.875    0.000    0.750    0.000    3.500 
#    0.000    0.000    0.000    0.000    0.000    0.000 
#
# Total GULP energy -356707.426499 kJ/mol
# GULP energy per Si atom -5573.553539 kJ/mol
# Density = 1.728334 g / cm^3
# Si number density = 17.322772 Si / 1000 Ang^3
#
#
#
# Elastic Constant Matrix: (Units=GPa)
#
#
# Indices 1 2 3 4 5 6 
#
# 1 139.1318 34.5353 25.5625 0.0000 0.0000 0.0000
# 2 34.5353 32.6125 9.4540 0.0000 0.0000 0.0000
# 3 25.5625 9.4540 30.7988 0.0000 0.0000 0.0000
# 4 0.0000 0.0000 0.0000 18.3009 0.0000 0.0000
# 5 0.0000 0.0000 0.0000 0.0000 16.9837 0.0000
# 6 0.0000 0.0000 0.0000 0.0000 0.0000 11.3851
#
#
#
# Elastic Compliance Matrix: (Units=1/GPa)
#
#
# Indices 1 2 3 4 5 6 
#
# 1 0.010645 -0.009562 -0.005900 0.000000 0.000000 0.000000
# 2 -0.009562 0.042248 -0.005032 0.000000 0.000000 0.000000
# 3 -0.005900 -0.005032 0.038910 0.000000 0.000000 0.000000
# 4 0.000000 0.000000 0.000000 0.054642 0.000000 0.000000
# 5 0.000000 0.000000 0.000000 0.000000 0.058880 0.000000
# 6 0.000000 0.000000 0.000000 0.000000 0.000000 0.087834
#
#
# Mechanical properties :
#
#
# Convention : Reuss Voigt Hill
#
# Bulk Modulus (GPa) = 19.67925 37.96072 28.81999
# Shear Modulus (GPa) = 14.24156 18.20003 16.22079
#
# Velocity S-wave (km/s) = 2.87039 3.24488 3.06336
# Velocity P-wave (km/s) = 4.72975 6.00003 5.40235
#
# Compressibility (1/GPa) = 0.05081495
#
# Stress axis : x y z
#
# Youngs Moduli (GPa) = 93.94121 23.66988 25.70021
#
# Poissons Ratio (x) = 0.22634 0.15163
# Poissons Ratio (y) = 0.89829 0.12932
# Poissons Ratio (z) = 0.55425 0.11910
#
# Static dielectric constant tensor:
#      x y z
#    x 1.610130 0.000000 0.000000 
#    y 0.000000 1.561370 0.000000 
#    z 0.000000 0.000000 1.577070 
# 
# From -- ./inp_files/9538.got.cif
#   From: 2010.05.17/outbox.cif.g08.bks.cpg/sg57_5_cif.got.tgz:9538.got - 2010.06.03 13:58:18.
