data_PCOD9435319
_publ_section_title
;
Structure prediction by ZEFSAII (Michael W. Deem and Ramdas Pophale) SiO2 
 PCOD9435319
Probable space group: P B C M
;
_chemical_formula_sum "Si O2"
_cell_formula_units_Z 48
_cell_length_a 12.268696
_cell_length_b 26.515271
_cell_length_c 8.878823
_cell_angle_alpha 90.000000
_cell_angle_beta 90.000000
_cell_angle_gamma 90.000000
_cell_volume 2888.350370
_symmetry_space_group_name_H-M "P B C M"
_symmetry_group_IT_number 57
_symmetry_cell_setting 'orthorhombic'
loop_
_space_group_symop_operation_xyz
x,y,z
-x,-y,1/2+z
x,1/2-y,-z
-x,1/2+y,1/2-z
-x,-y,-z
x,y,1/2-z
-x,1/2+y,z
x,1/2-y,1/2+z
loop_
_atom_site_type_symbol
_atom_site_label
_atom_site_fract_x
_atom_site_fract_y
_atom_site_fract_z
Si Si1 0.339244 0.194786 0.069753
Si Si2 0.970775 0.054903 0.568542
Si Si3 0.481803 0.614341 0.069547
Si Si4 0.363634 0.036647 0.923080
Si Si5 0.263358 0.570768 0.432338
Si Si6 0.175016 0.120689 0.924149
O O1 0.342491 0.197680 0.250000
O O2 0.442668 0.160648 0.016580
O O3 0.343187 0.250000 0.000000
O O4 0.230704 0.164961 0.018711
O O5 0.973481 0.050639 0.750000
O O6 0.852941 0.072519 0.511174
O O7 0.062005 0.096089 0.523504
O O8 0.000000 0.000000 0.500000
O O9 0.482509 0.615351 0.250000
O O10 0.355407 0.611574 0.023009
O O11 0.542915 0.563346 0.018523
O O12 0.400975 0.032108 0.750000
O O13 0.261656 0.074881 0.926817
O O14 0.317803 0.983018 0.972445
O O15 0.248938 0.571645 0.250000
O O16 0.163567 0.137107 0.750000
#
# Coordination Sequence:
#
# PCOD9435319 Si02
#       6
#     8   8   8   8   8   8
#     4  10  20  35  56  80 100 127 165 212 266 313
#     4  11  21  33  50  73 105 143 180 212 249 300
#     4   9  19  32  48  72 101 130 168 212 253 302
#     4   9  16  28  46  68 100 136 167 203 249 295
#     4  10  19  32  47  69 104 140 172 208 249 296
#     4   9  18  33  50  73 103 134 169 213 256 297
#
# _framework density 16.618483000000001
#
# number of rings (size 3 to 8) (size 9 to 14) (size 15 to 20)
#    0.000    2.333    1.667    1.500    0.000    3.333 
#    0.000    0.000    0.000    1.000    0.000    4.667 
#    0.000    0.000    0.000    0.000    0.000    0.000 
#
# Total GULP energy -267583.524073 kJ/mol
# GULP energy per Si atom -5574.656752 kJ/mol
# Density = 1.658066 g / cm^3
# Si number density = 16.618483 Si / 1000 Ang^3
#
#
#
# Elastic Constant Matrix: (Units=GPa)
#
#
# Indices 1 2 3 4 5 6 
#
# 1 149.1542 56.5533 38.8646 0.0000 0.0000 0.0000
# 2 56.5533 87.7511 35.6561 0.0000 0.0000 0.0000
# 3 38.8646 35.6561 28.9043 0.0000 0.0000 0.0000
# 4 0.0000 0.0000 0.0000 19.4212 0.0000 0.0000
# 5 0.0000 0.0000 0.0000 0.0000 27.4018 0.0000
# 6 0.0000 0.0000 0.0000 0.0000 0.0000 10.1212
#
#
#
# Elastic Compliance Matrix: (Units=1/GPa)
#
#
# Indices 1 2 3 4 5 6 
#
# 1 0.010504 -0.002066 -0.011574 0.000000 0.000000 0.000000
# 2 -0.002066 0.023255 -0.025909 0.000000 0.000000 0.000000
# 3 -0.011574 -0.025909 0.082121 0.000000 0.000000 0.000000
# 4 0.000000 0.000000 0.000000 0.051490 0.000000 0.000000
# 5 0.000000 0.000000 0.000000 0.000000 0.036494 0.000000
# 6 0.000000 0.000000 0.000000 0.000000 0.000000 0.098802
#
#
# Mechanical properties :
#
#
# Convention : Reuss Voigt Hill
#
# Bulk Modulus (GPa) = 27.18833 58.66197 42.92515
# Shear Modulus (GPa) = 12.68952 20.37122 16.53037
#
# Velocity S-wave (km/s) = 2.76629 3.50497 3.15730
# Velocity P-wave (km/s) = 5.15742 7.19414 6.25917
#
# Compressibility (1/GPa) = 0.03678049
#
# Stress axis : x y z
#
# Youngs Moduli (GPa) = 95.20310 43.00092 12.17718
#
# Poissons Ratio (x) = 0.08886 0.14094
# Poissons Ratio (y) = 0.19673 0.31550
# Poissons Ratio (z) = 1.10191 1.11411
#
# Static dielectric constant tensor:
#      x y z
#    x 1.579530 0.000000 0.000000 
#    y 0.000000 1.543560 0.000000 
#    z 0.000000 0.000000 1.563470 
# 
# From -- ./inp_files/3169.got.cif
#   From: 2010.05.17/outbox.cif.g08.bks.cpg/sg57_2_cif.got.tgz:3169.got - 2010.06.03 13:58:18.
