data_PCOD9435504
_publ_section_title
;
Structure prediction by ZEFSAII (Michael W. Deem and Ramdas Pophale) SiO2 
 PCOD9435504
Probable space group: P B C M
;
_chemical_formula_sum "Si O2"
_cell_formula_units_Z 64
_cell_length_a 20.008774
_cell_length_b 20.981123
_cell_length_c 9.005051
_cell_angle_alpha 90.000000
_cell_angle_beta 90.000000
_cell_angle_gamma 90.000000
_cell_volume 3780.379378
_symmetry_space_group_name_H-M "P B C M"
_symmetry_group_IT_number 57
_symmetry_cell_setting 'orthorhombic'
loop_
_space_group_symop_operation_xyz
x,y,z
-x,-y,1/2+z
x,1/2-y,-z
-x,1/2+y,1/2-z
-x,-y,-z
x,y,1/2-z
-x,1/2+y,z
x,1/2-y,1/2+z
loop_
_atom_site_type_symbol
_atom_site_label
_atom_site_fract_x
_atom_site_fract_y
_atom_site_fract_z
Si Si1 0.678343 0.864106 0.074760
Si Si2 0.684482 0.483280 0.573990
Si Si3 0.962257 0.815673 0.571418
Si Si4 0.460706 0.941160 0.571210
Si Si5 0.182390 0.364465 0.926553
Si Si6 0.823251 0.483017 0.425188
Si Si7 0.543904 0.815938 0.927821
Si Si8 0.957739 0.057171 0.071909
O O1 0.673113 0.851132 0.250000
O O2 0.672734 0.940766 0.051961
O O3 0.751062 0.844952 0.013540
O O4 0.617925 0.831448 0.988248
O O5 0.696248 0.474054 0.750000
O O6 0.617096 0.446953 0.529225
O O7 0.750198 0.464500 0.484004
O O8 0.985152 0.750000 0.500000
O O9 0.962819 0.810923 0.750000
O O10 0.885529 0.829933 0.525956
O O11 0.007673 0.876070 0.530308
O O12 0.464020 0.947576 0.750000
O O13 0.496220 0.875107 0.530206
O O14 0.500000 0.000000 0.500000
O O15 0.192608 0.354827 0.750000
O O16 0.171261 0.440390 0.949259
O O17 0.829883 0.471553 0.250000
O O18 0.882594 0.449187 0.513006
O O19 0.545354 0.810856 0.750000
O O20 0.521068 0.750000 0.000000
O O21 0.959901 0.051210 0.250000
O O22 0.000000 0.000000 0.000000
#
# Coordination Sequence:
#
# PCOD9435504 Si02
#       8
#     8   8   8   8   8   8   8   8
#     4  10  19  32  52  78 108 143 182 221 264 320
#     4   9  18  33  53  81 111 139 175 222 272 324
#     4  10  22  38  54  77 108 143 180 221 268 318
#     4  10  20  35  57  82 108 140 180 224 273 321
#     4   9  18  34  51  73 110 146 180 221 262 315
#     4  10  19  33  54  82 111 141 179 224 269 319
#     4  11  23  37  54  77 108 147 183 223 272 322
#     4  11  21  36  57  82 110 142 181 226 273 321
#
# _framework density 16.929518000000002
#
# number of rings (size 3 to 8) (size 9 to 14) (size 15 to 20)
#    0.000    2.000    2.500    1.500    0.000    4.000 
#    0.000    1.250    0.000    0.750    0.000    1.750 
#    0.000    0.000    0.000    0.000    0.000    0.000 
#
# Total GULP energy -357338.957463 kJ/mol
# GULP energy per Si atom -5583.421210 kJ/mol
# Density = 1.689099 g / cm^3
# Si number density = 16.929518 Si / 1000 Ang^3
#
#
#
# Elastic Constant Matrix: (Units=GPa)
#
#
# Indices 1 2 3 4 5 6 
#
# 1 116.9381 66.5602 44.2875 0.0000 0.0000 0.0000
# 2 66.5602 109.7228 50.9005 0.0000 0.0000 0.0000
# 3 44.2875 50.9005 46.7148 0.0000 0.0000 0.0000
# 4 0.0000 0.0000 0.0000 24.9849 0.0000 0.0000
# 5 0.0000 0.0000 0.0000 0.0000 27.7777 0.0000
# 6 0.0000 0.0000 0.0000 0.0000 0.0000 18.8395
#
#
#
# Elastic Compliance Matrix: (Units=1/GPa)
#
#
# Indices 1 2 3 4 5 6 
#
# 1 0.014540 -0.004905 -0.008440 0.000000 0.000000 0.000000
# 2 -0.004905 0.020084 -0.017233 0.000000 0.000000 0.000000
# 3 -0.008440 -0.017233 0.048185 0.000000 0.000000 0.000000
# 4 0.000000 0.000000 0.000000 0.040024 0.000000 0.000000
# 5 0.000000 0.000000 0.000000 0.000000 0.036000 0.000000
# 6 0.000000 0.000000 0.000000 0.000000 0.000000 0.053080
#
#
# Mechanical properties :
#
#
# Convention : Reuss Voigt Hill
#
# Bulk Modulus (GPa) = 46.18375 66.31913 56.25144
# Shear Modulus (GPa) = 17.83887 21.76227 19.80057
#
# Velocity S-wave (km/s) = 3.24962 3.58922 3.42363
# Velocity P-wave (km/s) = 6.43578 7.51235 6.99481
#
# Compressibility (1/GPa) = 0.02165264
#
# Stress axis : x y z
#
# Youngs Moduli (GPa) = 68.77703 49.79135 20.75320
#
# Poissons Ratio (x) = 0.24422 0.17516
# Poissons Ratio (y) = 0.33734 0.35765
# Poissons Ratio (z) = 0.58047 0.85807
#
# Static dielectric constant tensor:
#      x y z
#    x 1.563800 0.000000 0.000000 
#    y 0.000000 1.563220 0.000000 
#    z 0.000000 0.000000 1.563170 
# 
# From -- ./inp_files/7155.got.cif
#   From: 2010.05.17/outbox.cif.g08.bks.cpg/sg57_4_cif.got.tgz:7155.got - 2010.06.03 13:58:18.
