data_PCOD9435818
_publ_section_title
;
Structure prediction by ZEFSAII (Michael W. Deem and Ramdas Pophale) SiO2 
 PCOD9435818
Probable space group: P B C M
;
_chemical_formula_sum "Si O2"
_cell_formula_units_Z 56
_cell_length_a 21.156868
_cell_length_b 15.587196
_cell_length_c 8.710237
_cell_angle_alpha 90.000000
_cell_angle_beta 90.000000
_cell_angle_gamma 90.000000
_cell_volume 2872.429279
_symmetry_space_group_name_H-M "P B C M"
_symmetry_group_IT_number 57
_symmetry_cell_setting 'orthorhombic'
loop_
_space_group_symop_operation_xyz
x,y,z
-x,-y,1/2+z
x,1/2-y,-z
-x,1/2+y,1/2-z
-x,-y,-z
x,y,1/2-z
-x,1/2+y,z
x,1/2-y,1/2+z
loop_
_atom_site_type_symbol
_atom_site_label
_atom_site_fract_x
_atom_site_fract_y
_atom_site_fract_z
Si Si1 0.852240 0.842723 0.932904
Si Si2 0.526950 0.411567 0.434271
Si Si3 0.122669 0.840759 0.068743
Si Si4 0.344310 0.518420 0.934839
Si Si5 0.208724 0.988780 0.932506
Si Si6 0.016103 0.406747 0.431875
Si Si7 0.397390 0.160817 0.934666
O O1 0.849146 0.840946 0.750000
O O2 0.835207 0.750000 0.000000
O O3 0.808725 0.918953 0.996753
O O4 0.923478 0.866258 0.985826
O O5 0.500000 0.500000 0.500000
O O6 0.526652 0.414612 0.250000
O O7 0.600422 0.413774 0.480826
O O8 0.472278 0.345166 0.478613
O O9 0.135908 0.844780 0.250000
O O10 0.047398 0.851750 0.047767
O O11 0.143152 0.750000 0.000000
O O12 0.157266 0.919789 0.987565
O O13 0.340229 0.515925 0.750000
O O14 0.277046 0.539316 0.006574
O O15 0.365088 0.424076 0.995323
O O16 0.208512 0.995078 0.750000
O O17 0.029549 0.414120 0.250000
O O18 0.000000 0.500000 0.500000
O O19 0.391595 0.158414 0.750000
O O20 0.371466 0.250000 0.000000
#
# Coordination Sequence:
#
# PCOD9435818 Si02
#       7
#     8   8   8   8   8   8   8
#     4  12  25  42  63  90 124 161 204 253 308 369
#     4   8  16  31  53  78 106 140 179 225 273 328
#     4  11  24  42  65  92 121 158 202 252 306 362
#     4  10  20  37  59  82 112 152 194 238 292 349
#     4  12  25  42  63  88 121 162 207 254 305 364
#     4  11  22  38  64  94 125 159 200 249 306 364
#     4  10  19  33  54  85 118 149 189 234 286 344
#
# _framework density 19.495691999999998
#
# number of rings (size 3 to 8) (size 9 to 14) (size 15 to 20)
#    0.000    1.429    1.429    4.714    0.000    4.571 
#    0.000    3.571    0.000    1.714    0.000    0.000 
#    0.000    0.000    0.000    0.000    0.000    0.000 
#
# Total GULP energy -312785.516872 kJ/mol
# GULP energy per Si atom -5585.455658 kJ/mol
# Density = 1.945132 g / cm^3
# Si number density = 19.495692 Si / 1000 Ang^3
#
#
#
# Elastic Constant Matrix: (Units=GPa)
#
#
# Indices 1 2 3 4 5 6 
#
# 1 60.6671 -22.6197 29.0972 0.0000 0.0000 0.0000
# 2 -22.6197 57.0851 16.9166 0.0000 0.0000 0.0000
# 3 29.0972 16.9166 98.7383 0.0000 0.0000 0.0000
# 4 0.0000 0.0000 0.0000 27.0570 0.0000 0.0000
# 5 0.0000 0.0000 0.0000 0.0000 32.0133 0.0000
# 6 0.0000 0.0000 0.0000 0.0000 0.0000 9.9370
#
#
#
# Elastic Compliance Matrix: (Units=1/GPa)
#
#
# Indices 1 2 3 4 5 6 
#
# 1 0.026295 0.013396 -0.010044 0.000000 0.000000 0.000000
# 2 0.013396 0.025279 -0.008279 0.000000 0.000000 0.000000
# 3 -0.010044 -0.008279 0.014506 0.000000 0.000000 0.000000
# 4 0.000000 0.000000 0.000000 0.036959 0.000000 0.000000
# 5 0.000000 0.000000 0.000000 0.000000 0.031237 0.000000
# 6 0.000000 0.000000 0.000000 0.000000 0.000000 0.100634
#
#
# Mechanical properties :
#
#
# Convention : Reuss Voigt Hill
#
# Bulk Modulus (GPa) = 17.78510 29.25317 23.51913
# Shear Modulus (GPa) = 18.97484 26.67454 22.82469
#
# Velocity S-wave (km/s) = 3.12313 3.70297 3.42534
# Velocity P-wave (km/s) = 4.70613 5.77236 5.26630
#
# Compressibility (1/GPa) = 0.05622685
#
# Stress axis : x y z
#
# Youngs Moduli (GPa) = 38.02947 39.55844 68.93689
#
# Poissons Ratio (x) = -0.52992 0.69241
# Poissons Ratio (y) = -0.50944 0.57070
# Poissons Ratio (z) = 0.38197 0.32749
#
# Static dielectric constant tensor:
#      x y z
#    x 1.706170 0.000000 0.000000 
#    y 0.000000 1.665580 0.000000 
#    z 0.000000 0.000000 1.691600 
# 
# From -- ./inp_files/8144.got.cif
#   From: 2010.05.17/outbox.cif.g08.bks.cpg/sg57_5_cif.got.tgz:8144.got - 2010.06.03 13:58:18.
