data_PCOD9435874
_publ_section_title
;
Structure prediction by ZEFSAII (Michael W. Deem and Ramdas Pophale) SiO2 
 PCOD9435874
Probable space group: P B C M
;
_chemical_formula_sum "Si O2"
_cell_formula_units_Z 40
_cell_length_a 11.334146
_cell_length_b 13.968333
_cell_length_c 11.128762
_cell_angle_alpha 90.000000
_cell_angle_beta 90.000000
_cell_angle_gamma 90.000000
_cell_volume 1761.895869
_symmetry_space_group_name_H-M "P B C M"
_symmetry_group_IT_number 57
_symmetry_cell_setting 'orthorhombic'
loop_
_space_group_symop_operation_xyz
x,y,z
-x,-y,1/2+z
x,1/2-y,-z
-x,1/2+y,1/2-z
-x,-y,-z
x,y,1/2-z
-x,1/2+y,z
x,1/2-y,1/2+z
loop_
_atom_site_type_symbol
_atom_site_label
_atom_site_fract_x
_atom_site_fract_y
_atom_site_fract_z
Si Si1 0.937725 0.302253 0.617685
Si Si2 0.192333 0.360725 0.882547
Si Si3 0.431541 0.485485 0.377619
Si Si4 0.434083 0.260932 0.376838
Si Si5 0.173138 0.494849 0.384615
O O1 0.889863 0.250000 0.500000
O O2 0.892446 0.272425 0.750000
O O3 0.913932 0.415701 0.604783
O O4 0.079530 0.291094 0.619821
O O5 0.191498 0.410283 0.750000
O O6 0.315564 0.302825 0.887806
O O7 0.173572 0.427299 0.998776
O O8 0.500000 0.500000 0.500000
O O9 0.492853 0.509135 0.250000
O O10 0.402369 0.372574 0.372070
O O11 0.306136 0.536818 0.382577
O O12 0.505167 0.250000 0.500000
O O13 0.492969 0.236645 0.250000
O O14 0.154201 0.450923 0.250000
#
# Coordination Sequence:
#
# PCOD9435874 Si02
#       5
#     8   8   8   8   8
#     4  10  22  37  56  85 122 164 203 239 293 360
#     4  10  20  34  57  92 123 152 196 244 294 359
#     4  10  22  39  59  84 118 157 199 253 309 358
#     4  10  19  33  56  86 117 150 191 242 296 349
#     4  10  21  38  59  85 120 158 199 248 302 358
#
# _framework density 22.702817
#
# number of rings (size 3 to 8) (size 9 to 14) (size 15 to 20)
#    0.000    2.000    2.000    1.200    0.000    3.200 
#    0.000    1.000    0.000    4.800    0.000    0.000 
#    0.000    0.000    0.000    0.000    0.000    0.000 
#
# Total GULP energy -222947.902766 kJ/mol
# GULP energy per Si atom -5573.697569 kJ/mol
# Density = 2.265114 g / cm^3
# Si number density = 22.702817 Si / 1000 Ang^3
#
#
#
# Elastic Constant Matrix: (Units=GPa)
#
#
# Indices 1 2 3 4 5 6 
#
# 1 27.8613 2.5920 29.1586 0.0000 0.0000 0.0000
# 2 2.5920 62.4531 58.3233 0.0000 0.0000 0.0000
# 3 29.1586 58.3233 302.3089 0.0000 0.0000 0.0000
# 4 0.0000 0.0000 0.0000 42.2047 0.0000 0.0000
# 5 0.0000 0.0000 0.0000 0.0000 15.6334 0.0000
# 6 0.0000 0.0000 0.0000 0.0000 0.0000 15.4060
#
#
#
# Elastic Compliance Matrix: (Units=1/GPa)
#
#
# Indices 1 2 3 4 5 6 
#
# 1 0.040211 0.002382 -0.004338 0.000000 0.000000 0.000000
# 2 0.002382 0.019672 -0.004025 0.000000 0.000000 0.000000
# 3 -0.004338 -0.004025 0.004503 0.000000 0.000000 0.000000
# 4 0.000000 0.000000 0.000000 0.023694 0.000000 0.000000
# 5 0.000000 0.000000 0.000000 0.000000 0.063965 0.000000
# 6 0.000000 0.000000 0.000000 0.000000 0.000000 0.064910
#
#
# Mechanical properties :
#
#
# Convention : Reuss Voigt Hill
#
# Bulk Modulus (GPa) = 19.07529 63.64124 41.35826
# Shear Modulus (GPa) = 20.29297 34.81878 27.55588
#
# Velocity S-wave (km/s) = 2.99298 3.92047 3.48769
# Velocity P-wave (km/s) = 4.51268 6.97041 5.87158
#
# Compressibility (1/GPa) = 0.05242385
#
# Stress axis : x y z
#
# Youngs Moduli (GPa) = 24.86910 50.83366 222.08276
#
# Poissons Ratio (x) = -0.12110 0.96340
# Poissons Ratio (y) = -0.05925 0.89389
# Poissons Ratio (z) = 0.10788 0.20461
#
# Static dielectric constant tensor:
#      x y z
#    x 1.830610 0.000000 0.000000 
#    y 0.000000 1.891050 0.000000 
#    z 0.000000 0.000000 1.981920 
# 
# From -- ./inp_files/12695.got.cif
#   From: 2010.05.17/outbox.cif.g08.bks.cpg/sg57_7_cif.got.tgz:12695.got - 2010.06.03 13:58:18.
