data_PCOD9435692
_publ_section_title
;
Structure prediction by ZEFSAII (Michael W. Deem and Ramdas Pophale) SiO2 
 PCOD9435692
Probable space group: P B C M
;
_chemical_formula_sum "Si O2"
_cell_formula_units_Z 40
_cell_length_a 12.935615
_cell_length_b 8.174058
_cell_length_c 16.212453
_cell_angle_alpha 90.000000
_cell_angle_beta 90.000000
_cell_angle_gamma 90.000000
_cell_volume 1714.247506
_symmetry_space_group_name_H-M "P B C M"
_symmetry_group_IT_number 57
_symmetry_cell_setting 'orthorhombic'
loop_
_space_group_symop_operation_xyz
x,y,z
-x,-y,1/2+z
x,1/2-y,-z
-x,1/2+y,1/2-z
-x,-y,-z
x,y,1/2-z
-x,1/2+y,z
x,1/2-y,1/2+z
loop_
_atom_site_type_symbol
_atom_site_label
_atom_site_fract_x
_atom_site_fract_y
_atom_site_fract_z
Si Si1 0.047182 0.666661 0.909532
Si Si2 0.255090 0.761199 0.156219
Si Si3 0.576885 0.399879 0.566965
Si Si4 0.146048 0.174774 0.150460
Si Si5 0.353515 0.087777 0.418413
O O1 0.136014 0.768318 0.862790
O O2 0.091061 0.482363 0.895382
O O3 0.045107 0.750000 0.000000
O O4 0.935037 0.682705 0.869397
O O5 0.267684 0.802225 0.250000
O O6 0.328571 0.618010 0.128312
O O7 0.299972 0.916791 0.107174
O O8 0.575518 0.250000 0.500000
O O9 0.469228 0.395412 0.617483
O O10 0.607005 0.559350 0.512626
O O11 0.153657 0.148306 0.250000
O O12 0.259249 0.202085 0.110107
#
# Coordination Sequence:
#
# PCOD9435692 Si02
#       5
#     8   8   8   8   8
#     4  11  22  38  59  83 112 151 192 228 276 339
#     4  10  19  33  53  76 106 142 180 225 278 329
#     4   9  18  33  54  78 104 136 178 225 272 329
#     4  11  22  38  59  84 116 150 188 235 284 331
#     4   9  18  34  54  75 104 141 178 221 274 332
#
# _framework density 23.333853000000001
#
# number of rings (size 3 to 8) (size 9 to 14) (size 15 to 20)
#    0.000    2.000    0.000    7.200    0.000    2.400 
#    0.000    4.000    0.000    2.400    0.000    0.000 
#    0.000    0.000    0.000    0.000    0.000    0.000 
#
# Total GULP energy -222754.792567 kJ/mol
# GULP energy per Si atom -5568.869814 kJ/mol
# Density = 2.328074 g / cm^3
# Si number density = 23.333853 Si / 1000 Ang^3
#
#
#
# Elastic Constant Matrix: (Units=GPa)
#
#
# Indices 1 2 3 4 5 6 
#
# 1 136.4807 19.6435 26.4763 0.0000 0.0000 0.0000
# 2 19.6435 40.5988 9.9598 0.0000 0.0000 0.0000
# 3 26.4763 9.9598 35.1702 0.0000 0.0000 0.0000
# 4 0.0000 0.0000 0.0000 1.9419 0.0000 0.0000
# 5 0.0000 0.0000 0.0000 0.0000 93.4774 0.0000
# 6 0.0000 0.0000 0.0000 0.0000 0.0000 31.1343
#
#
#
# Elastic Compliance Matrix: (Units=1/GPa)
#
#
# Indices 1 2 3 4 5 6 
#
# 1 0.008877 -0.002854 -0.005875 0.000000 0.000000 0.000000
# 2 -0.002854 0.027388 -0.005607 0.000000 0.000000 0.000000
# 3 -0.005875 -0.005607 0.034444 0.000000 0.000000 0.000000
# 4 0.000000 0.000000 0.000000 0.514948 0.000000 0.000000
# 5 0.000000 0.000000 0.000000 0.000000 0.010698 0.000000
# 6 0.000000 0.000000 0.000000 0.000000 0.000000 0.032119
#
#
# Mechanical properties :
#
#
# Convention : Reuss Voigt Hill
#
# Bulk Modulus (GPa) = 23.78886 36.04545 29.91715
# Shear Modulus (GPa) = 7.44981 35.72207 21.58594
#
# Velocity S-wave (km/s) = 1.78875 3.91693 3.04483
# Velocity P-wave (km/s) = 3.80569 5.99481 5.02101
#
# Compressibility (1/GPa) = 0.04203649
#
# Stress axis : x y z
#
# Youngs Moduli (GPa) = 112.64435 36.51261 29.03291
#
# Poissons Ratio (x) = 0.10421 0.17056
# Poissons Ratio (y) = 0.32150 0.16280
# Poissons Ratio (z) = 0.66176 0.20474
#
# Static dielectric constant tensor:
#      x y z
#    x 1.941460 0.000000 0.000000 
#    y 0.000000 2.085660 0.000000 
#    z 0.000000 0.000000 2.133960 
# 
# From -- ./inp_files/17418.got.cif
#   From: 2010.05.17/outbox.cif.g08.bks.cpg/sg57_9_cif.got.tgz:17418.got - 2010.06.03 13:58:18.
