data_PCOD9435629
_publ_section_title
;
Structure prediction by ZEFSAII (Michael W. Deem and Ramdas Pophale) SiO2 
 PCOD9435629
Probable space group: P B C M
;
_chemical_formula_sum "Si O2"
_cell_formula_units_Z 64
_cell_length_a 19.329939
_cell_length_b 20.237514
_cell_length_c 7.542031
_cell_angle_alpha 90.000000
_cell_angle_beta 90.000000
_cell_angle_gamma 90.000000
_cell_volume 2950.366437
_symmetry_space_group_name_H-M "P B C M"
_symmetry_group_IT_number 57
_symmetry_cell_setting 'orthorhombic'
loop_
_space_group_symop_operation_xyz
x,y,z
-x,-y,1/2+z
x,1/2-y,-z
-x,1/2+y,1/2-z
-x,-y,-z
x,y,1/2-z
-x,1/2+y,z
x,1/2-y,1/2+z
loop_
_atom_site_type_symbol
_atom_site_label
_atom_site_fract_x
_atom_site_fract_y
_atom_site_fract_z
Si Si1 0.940436 0.946001 0.537452
Si Si2 0.793398 0.500288 0.033733
Si Si3 0.023890 0.823654 0.962393
Si Si4 0.552761 0.828845 0.536967
Si Si5 0.646332 0.557087 0.040227
Si Si6 0.320989 0.680759 0.037718
Si Si7 0.572529 0.424639 0.964150
Si Si8 0.823394 0.349130 0.956215
O O1 0.934581 0.942638 0.750000
O O2 0.863281 0.962260 0.474617
O O3 0.971345 0.877827 0.467356
O O4 0.000000 0.000000 0.500000
O O5 0.791997 0.498099 0.250000
O O6 0.720187 0.530550 0.970624
O O7 0.805893 0.426312 0.966699
O O8 0.027857 0.833441 0.750000
O O9 0.101703 0.834193 0.034559
O O10 0.001260 0.750000 0.000000
O O11 0.550263 0.750000 0.500000
O O12 0.551224 0.832510 0.750000
O O13 0.619117 0.871829 0.473358
O O14 0.489298 0.876106 0.474862
O O15 0.656120 0.564550 0.250000
O O16 0.586897 0.500373 0.017804
O O17 0.317131 0.674281 0.250000
O O18 0.360349 0.616366 0.973610
O O19 0.244171 0.683337 0.959567
O O20 0.358149 0.750000 0.000000
O O21 0.569292 0.425953 0.750000
O O22 0.826903 0.328814 0.750000
#
# Coordination Sequence:
#
# PCOD9435629 Si02
#       8
#     8   8   8   8   8   8   8   8
#     4  10  20  35  56  80 106 139 179 223 269 319
#     4  10  20  34  55  82 108 140 181 224 272 325
#     4  10  21  35  52  76 107 140 175 218 267 319
#     4  10  22  39  58  82 112 146 186 230 276 325
#     4  10  21  37  57  83 113 144 182 228 274 325
#     4  10  20  31  46  72 107 143 178 215 258 315
#     4  10  20  35  56  82 110 142 181 226 272 322
#     4  10  19  33  51  74 107 142 177 219 265 320
#
# _framework density 21.692219000000001
#
# number of rings (size 3 to 8) (size 9 to 14) (size 15 to 20)
#    0.000    2.000    2.500    1.125    0.000    3.000 
#    0.000    0.625    0.000    0.000    0.000    0.000 
#    0.000    0.000    0.000    0.000    0.000    0.000 
#
# Total GULP energy -357061.341389 kJ/mol
# GULP energy per Si atom -5579.083459 kJ/mol
# Density = 2.164285 g / cm^3
# Si number density = 21.692219 Si / 1000 Ang^3
#
#
#
# Elastic Constant Matrix: (Units=GPa)
#
#
# Indices 1 2 3 4 5 6 
#
# 1 100.8868 72.1201 -1.9352 0.0000 0.0000 0.0000
# 2 72.1201 169.6338 -13.1907 0.0000 0.0000 0.0000
# 3 -1.9352 -13.1907 54.6132 0.0000 0.0000 0.0000
# 4 0.0000 0.0000 0.0000 22.5459 0.0000 0.0000
# 5 0.0000 0.0000 0.0000 0.0000 -5.3953 0.0000
# 6 0.0000 0.0000 0.0000 0.0000 0.0000 24.6455
#
#
#
# Elastic Compliance Matrix: (Units=1/GPa)
#
#
# Indices 1 2 3 4 5 6 
#
# 1 0.014291 -0.006152 -0.000980 0.000000 0.000000 0.000000
# 2 -0.006152 0.008656 0.001873 0.000000 0.000000 0.000000
# 3 -0.000980 0.001873 0.018728 0.000000 0.000000 0.000000
# 4 0.000000 0.000000 0.000000 0.044354 0.000000 0.000000
# 5 0.000000 0.000000 0.000000 0.000000 -0.185347 0.000000
# 6 0.000000 0.000000 0.000000 0.000000 0.000000 0.040575
#
#
# Mechanical properties :
#
#
# Convention : Reuss Voigt Hill
#
# Bulk Modulus (GPa) = 32.09457 48.79136 40.44296
# Shear Modulus (GPa) = -132.14011 26.23519 -52.95246
#
# Velocity S-wave (km/s) = -7.81333 3.48146 -4.94609
# Velocity P-wave (km/s) = 8.15904 6.22110 3.73282
#
# Compressibility (1/GPa) = 0.03115792
#
# Stress axis : x y z
#
# Youngs Moduli (GPa) = 69.97309 115.52347 53.39542
#
# Poissons Ratio (x) = 0.71071 0.05230
# Poissons Ratio (y) = 0.43048 -0.10000
# Poissons Ratio (z) = 0.06854 -0.21635
#
# Static dielectric constant tensor:
#      x y z
#    x 1.842610 0.000000 0.000000 
#    y 0.000000 1.798740 0.000000 
#    z 0.000000 0.000000 1.774820 
# 
# From -- ./inp_files/8397.got.cif
#   From: 2010.05.17/outbox.cif.g08.bks.cpg/sg57_5_cif.got.tgz:8397.got - 2010.06.03 13:58:18.
