data_PCOD9435805
_publ_section_title
;
Structure prediction by ZEFSAII (Michael W. Deem and Ramdas Pophale) SiO2 
 PCOD9435805
Probable space group: P B C M
;
_chemical_formula_sum "Si O2"
_cell_formula_units_Z 64
_cell_length_a 18.189541
_cell_length_b 23.138888
_cell_length_c 8.462368
_cell_angle_alpha 90.000000
_cell_angle_beta 90.000000
_cell_angle_gamma 90.000000
_cell_volume 3561.690119
_symmetry_space_group_name_H-M "P B C M"
_symmetry_group_IT_number 57
_symmetry_cell_setting 'orthorhombic'
loop_
_space_group_symop_operation_xyz
x,y,z
-x,-y,1/2+z
x,1/2-y,-z
-x,1/2+y,1/2-z
-x,-y,-z
x,y,1/2-z
-x,1/2+y,z
x,1/2-y,1/2+z
loop_
_atom_site_type_symbol
_atom_site_label
_atom_site_fract_x
_atom_site_fract_y
_atom_site_fract_z
Si Si1 0.090352 0.651917 0.942138
Si Si2 0.928176 0.687668 0.558938
Si Si3 0.490770 0.434694 0.940248
Si Si4 0.651184 0.416203 0.560086
Si Si5 0.750538 0.311360 0.060700
Si Si6 0.920087 0.018499 0.939543
Si Si7 0.668677 0.547744 0.439376
Si Si8 0.178228 0.415964 0.061247
O O1 0.089480 0.654900 0.750000
O O2 0.164930 0.682022 0.997715
O O3 0.094185 0.584538 0.985795
O O4 0.012048 0.676526 0.997507
O O5 0.903637 0.750000 0.500000
O O6 0.929365 0.686684 0.750000
O O7 0.873744 0.636638 0.505788
O O8 0.491520 0.433712 0.750000
O O9 0.566183 0.403831 0.991396
O O10 0.407452 0.420833 0.990665
O O11 0.500000 0.500000 0.000000
O O12 0.654898 0.415634 0.750000
O O13 0.704705 0.367073 0.494499
O O14 0.669902 0.481648 0.504451
O O15 0.751090 0.310958 0.250000
O O16 0.720874 0.250000 0.000000
O O17 0.918506 0.015105 0.750000
O O18 0.860912 0.975084 0.009772
O O19 0.000000 0.000000 0.000000
O O20 0.668888 0.543270 0.250000
O O21 0.739943 0.582195 0.494457
O O22 0.181334 0.413560 0.250000
#
# Coordination Sequence:
#
# PCOD9435805 Si02
#       8
#     8   8   8   8   8   8   8   8
#     4   9  19  36  54  73 103 137 171 217 265 311
#     4  10  21  38  55  72  97 132 176 223 263 309
#     4   8  16  30  51  78 108 138 167 205 251 310
#     4  10  19  34  55  80 110 143 178 215 265 323
#     4  11  22  36  54  76 106 144 185 229 272 320
#     4  11  20  34  54  78 108 140 175 218 268 322
#     4  10  19  33  54  83 113 140 174 216 269 324
#     4  11  22  36  53  77 109 141 177 220 267 316
#
# _framework density 17.968997000000002
#
# number of rings (size 3 to 8) (size 9 to 14) (size 15 to 20)
#    0.000    2.000    1.250    3.000    0.000    3.000 
#    0.000    2.500    0.000    0.750    0.000    1.750 
#    0.000    0.000    0.000    0.000    0.000    0.000 
#
# Total GULP energy -357012.294719 kJ/mol
# GULP energy per Si atom -5578.317105 kJ/mol
# Density = 1.792810 g / cm^3
# Si number density = 17.968997 Si / 1000 Ang^3
#
#
#
# Elastic Constant Matrix: (Units=GPa)
#
#
# Indices 1 2 3 4 5 6 
#
# 1 137.5332 36.2834 22.1728 0.0000 0.0000 0.0000
# 2 36.2834 81.7966 14.9829 0.0000 0.0000 0.0000
# 3 22.1728 14.9829 31.4592 0.0000 0.0000 0.0000
# 4 0.0000 0.0000 0.0000 22.1728 0.0000 0.0000
# 5 0.0000 0.0000 0.0000 0.0000 24.9262 0.0000
# 6 0.0000 0.0000 0.0000 0.0000 0.0000 12.0566
#
#
#
# Elastic Compliance Matrix: (Units=1/GPa)
#
#
# Indices 1 2 3 4 5 6 
#
# 1 0.008846 -0.003048 -0.004783 0.000000 0.000000 0.000000
# 2 -0.003048 0.014444 -0.004731 0.000000 0.000000 0.000000
# 3 -0.004783 -0.004731 0.037412 0.000000 0.000000 0.000000
# 4 0.000000 0.000000 0.000000 0.045100 0.000000 0.000000
# 5 0.000000 0.000000 0.000000 0.000000 0.040118 0.000000
# 6 0.000000 0.000000 0.000000 0.000000 0.000000 0.082942
#
#
# Mechanical properties :
#
#
# Convention : Reuss Voigt Hill
#
# Bulk Modulus (GPa) = 28.10755 44.18526 36.14641
# Shear Modulus (GPa) = 18.80782 23.65442 21.23112
#
# Velocity S-wave (km/s) = 3.23876 3.63216 3.44109
# Velocity P-wave (km/s) = 5.44631 6.49871 5.99564
#
# Compressibility (1/GPa) = 0.03557762
#
# Stress axis : x y z
#
# Youngs Moduli (GPa) = 113.04291 69.23283 26.72950
#
# Poissons Ratio (x) = 0.21101 0.12786
# Poissons Ratio (y) = 0.34454 0.12646
# Poissons Ratio (z) = 0.54072 0.32754
#
# Static dielectric constant tensor:
#      x y z
#    x 1.661460 0.000000 0.000000 
#    y 0.000000 1.558130 0.000000 
#    z 0.000000 0.000000 1.601510 
# 
# From -- ./inp_files/7121.got.cif
#   From: 2010.05.17/outbox.cif.g08.bks.cpg/sg57_4_cif.got.tgz:7121.got - 2010.06.03 13:58:18.
