data_PCOD9435556
_publ_section_title
;
Structure prediction by ZEFSAII (Michael W. Deem and Ramdas Pophale) SiO2 
 PCOD9435556
Probable space group: P B C M
;
_chemical_formula_sum "Si O2"
_cell_formula_units_Z 32
_cell_length_a 12.217814
_cell_length_b 19.642557
_cell_length_c 5.538781
_cell_angle_alpha 90.000000
_cell_angle_beta 90.000000
_cell_angle_gamma 90.000000
_cell_volume 1329.247111
_symmetry_space_group_name_H-M "P B C M"
_symmetry_group_IT_number 57
_symmetry_cell_setting 'orthorhombic'
loop_
_space_group_symop_operation_xyz
x,y,z
-x,-y,1/2+z
x,1/2-y,-z
-x,1/2+y,1/2-z
-x,-y,-z
x,y,1/2-z
-x,1/2+y,z
x,1/2-y,1/2+z
loop_
_atom_site_type_symbol
_atom_site_label
_atom_site_fract_x
_atom_site_fract_y
_atom_site_fract_z
Si Si1 0.770025 0.981405 0.750000
Si Si2 0.392367 0.822604 0.250000
Si Si3 0.526224 0.960901 0.750000
Si Si4 0.852500 0.018289 0.250000
Si Si5 0.640237 0.704805 0.750000
Si Si6 0.959332 0.630275 0.250000
Si Si7 0.114978 0.357348 0.250000
Si Si8 0.367342 0.662335 0.250000
O O1 0.653409 0.947811 0.750000
O O2 0.857343 0.921539 0.750000
O O3 0.785909 0.020388 0.498587
O O4 0.524434 0.838389 0.250000
O O5 0.400298 0.741087 0.250000
O O6 0.323879 0.845723 0.481905
O O7 0.465110 0.890306 0.750000
O O8 0.500000 0.000000 0.500000
O O9 0.937028 0.080122 0.250000
O O10 0.902084 0.940741 0.250000
O O11 0.640461 0.750000 0.500000
O O12 0.754846 0.661672 0.750000
O O13 0.942641 0.667975 0.504294
#
# Coordination Sequence:
#
# PCOD9435556 Si02
#       8
#     4   4   4   4   4   4   4   4
#     4  10  20  32  53  73 104 150 184 220 285 319
#     4  10  19  32  54  80  95 140 189 241 273 334
#     4  12  26  40  53  78 117 168 198 232 281 360
#     4  10  19  33  54  83 105 139 186 238 263 331
#     4  12  21  32  44  73 114 142 190 223 253 328
#     4  10  19  34  52  82 107 139 188 234 263 330
#     4  10  20  28  48  69 108 150 171 209 276 301
#     4  10  20  35  54  72 106 140 196 229 282 323
#
# _framework density 24.073777
#
# number of rings (size 3 to 8) (size 9 to 14) (size 15 to 20)
#    0.000    1.500    2.500    6.000    7.000    0.000 
#    0.000    0.000    0.000    0.000    0.000    0.000 
#    0.000    0.000  493.000    0.000    0.000    0.000 
#
# Total GULP energy -178481.856408 kJ/mol
# GULP energy per Si atom -5577.558013 kJ/mol
# Density = 2.401898 g / cm^3
# Si number density = 24.073777 Si / 1000 Ang^3
#
#
#
# Elastic Constant Matrix: (Units=GPa)
#
#
# Indices 1 2 3 4 5 6 
#
# 1 -125.8287 46.0911 -68.2938 0.0000 0.0000 0.0000
# 2 46.0911 73.7497 43.5047 0.0000 0.0000 0.0000
# 3 -68.2938 43.5047 254.7021 0.0000 0.0000 0.0000
# 4 0.0000 0.0000 0.0000 13.8537 0.0000 0.0000
# 5 0.0000 0.0000 0.0000 0.0000 35.2611 0.0000
# 6 0.0000 0.0000 0.0000 0.0000 0.0000 27.0637
#
#
#
# Elastic Compliance Matrix: (Units=1/GPa)
#
#
# Indices 1 2 3 4 5 6 
#
# 1 -0.005143 0.004479 -0.002144 0.000000 0.000000 0.000000
# 2 0.004479 0.011178 -0.000708 0.000000 0.000000 0.000000
# 3 -0.002144 -0.000708 0.003472 0.000000 0.000000 0.000000
# 4 0.000000 0.000000 0.000000 0.072183 0.000000 0.000000
# 5 0.000000 0.000000 0.000000 0.000000 0.028360 0.000000
# 6 0.000000 0.000000 0.000000 0.000000 0.000000 0.036950
#
#
# Mechanical properties :
#
#
# Convention : Reuss Voigt Hill
#
# Bulk Modulus (GPa) = 78.36697 27.24746 52.80722
# Shear Modulus (GPa) = 33.78377 27.32377 30.55377
#
# Velocity S-wave (km/s) = 3.75019 3.37263 3.56641
# Velocity P-wave (km/s) = 7.16766 5.14870 6.24037
#
# Compressibility (1/GPa) = 0.01276048
#
# Stress axis : x y z
#
# Youngs Moduli (GPa) = -194.43946 89.46135 287.99716
#
# Poissons Ratio (x) = -0.40069 0.61748
# Poissons Ratio (y) = 0.87089 0.20399
# Poissons Ratio (z) = -0.41688 0.06337
#
# Static dielectric constant tensor:
#      x y z
#    x 2.083700 0.000000 0.000000 
#    y 0.000000 1.842020 0.000000 
#    z 0.000000 0.000000 2.117360 
# 
# From -- ./inp_files/348.got.cif
#   From: 2010.05.17/outbox.cif.g08.bks.cpg/sg57_1_cif.got.tgz:348.got - 2010.06.03 13:58:18.
