data_PCOD9435969
_publ_section_title
;
Structure prediction by ZEFSAII (Michael W. Deem and Ramdas Pophale) SiO2 
 PCOD9435969
Probable space group: P B C M
;
_chemical_formula_sum "Si O2"
_cell_formula_units_Z 64
_cell_length_a 10.743025
_cell_length_b 34.305493
_cell_length_c 8.954188
_cell_angle_alpha 90.000000
_cell_angle_beta 90.000000
_cell_angle_gamma 90.000000
_cell_volume 3300.019147
_symmetry_space_group_name_H-M "P B C M"
_symmetry_group_IT_number 57
_symmetry_cell_setting 'orthorhombic'
loop_
_space_group_symop_operation_xyz
x,y,z
-x,-y,1/2+z
x,1/2-y,-z
-x,1/2+y,1/2-z
-x,-y,-z
x,y,1/2-z
-x,1/2+y,z
x,1/2-y,1/2+z
loop_
_atom_site_type_symbol
_atom_site_label
_atom_site_fract_x
_atom_site_fract_y
_atom_site_fract_z
Si Si1 0.801122 0.790756 0.070798
Si Si2 0.307281 0.371541 0.076909
Si Si3 0.563547 0.559999 0.422515
Si Si4 0.174943 0.870594 0.927373
Si Si5 0.176298 0.013478 0.074753
Si Si6 0.954909 0.582094 0.921401
Si Si7 0.094302 0.708458 0.929394
Si Si8 0.313506 0.937787 0.427701
O O1 0.794915 0.788410 0.250000
O O2 0.719623 0.827768 0.024445
O O3 0.947080 0.797295 0.033203
O O4 0.762140 0.750000 0.000000
O O5 0.350388 0.371479 0.250000
O O6 0.173556 0.393357 0.076507
O O7 0.397847 0.396803 0.975590
O O8 0.526228 0.558914 0.250000
O O9 0.689012 0.534809 0.438956
O O10 0.448221 0.547003 0.522718
O O11 0.180799 0.867297 0.750000
O O12 0.166365 0.828207 0.002504
O O13 0.285513 0.897219 0.991574
O O14 0.052122 0.894594 0.978111
O O15 0.141423 0.014684 0.250000
O O16 0.207691 0.969363 0.029570
O O17 0.081240 0.039139 0.979183
O O18 0.000050 0.580973 0.750000
O O19 0.105861 0.709281 0.750000
O O20 0.130996 0.750000 0.000000
O O21 0.310361 0.933549 0.250000
#
# Coordination Sequence:
#
# PCOD9435969 Si02
#       8
#     8   8   8   8   8   8   8   8
#     4   9  17  29  48  77 111 140 173 213 260 319
#     4   9  17  32  52  76 107 142 176 215 266 324
#     4  10  20  35  56  82 107 134 178 231 275 325
#     4  12  24  37  55  80 113 149 186 230 274 325
#     4   9  20  37  57  82 109 139 180 228 278 331
#     4  10  19  34  55  79 109 145 182 222 274 330
#     4  10  19  35  56  83 114 146 183 222 268 321
#     4  11  23  39  57  77 106 146 187 228 274 327
#
# _framework density 19.393826000000001
#
# number of rings (size 3 to 8) (size 9 to 14) (size 15 to 20)
#    0.000    2.000    1.250    3.000    0.000    3.500 
#    0.000    0.000    0.000    0.750    0.000    3.500 
#    0.000    0.000    0.000    0.000    0.000    0.000 
#
# Total GULP energy -357552.064872 kJ/mol
# GULP energy per Si atom -5586.751014 kJ/mol
# Density = 1.934969 g / cm^3
# Si number density = 19.393826 Si / 1000 Ang^3
#
#
#
# Elastic Constant Matrix: (Units=GPa)
#
#
# Indices 1 2 3 4 5 6 
#
# 1 36.0063 4.3754 16.9135 0.0000 0.0000 0.0000
# 2 4.3754 134.9797 40.8685 0.0000 0.0000 0.0000
# 3 16.9135 40.8685 74.7686 0.0000 0.0000 0.0000
# 4 0.0000 0.0000 0.0000 31.0541 0.0000 0.0000
# 5 0.0000 0.0000 0.0000 0.0000 25.7389 0.0000
# 6 0.0000 0.0000 0.0000 0.0000 0.0000 23.3584
#
#
#
# Elastic Compliance Matrix: (Units=1/GPa)
#
#
# Indices 1 2 3 4 5 6 
#
# 1 0.031280 0.001352 -0.007815 0.000000 0.000000 0.000000
# 2 0.001352 0.008936 -0.005190 0.000000 0.000000 0.000000
# 3 -0.007815 -0.005190 0.017980 0.000000 0.000000 0.000000
# 4 0.000000 0.000000 0.000000 0.032202 0.000000 0.000000
# 5 0.000000 0.000000 0.000000 0.000000 0.038852 0.000000
# 6 0.000000 0.000000 0.000000 0.000000 0.000000 0.042811
#
#
# Mechanical properties :
#
#
# Convention : Reuss Voigt Hill
#
# Bulk Modulus (GPa) = 28.66227 41.11881 34.89054
# Shear Modulus (GPa) = 24.15506 28.27008 26.21257
#
# Velocity S-wave (km/s) = 3.53300 3.82211 3.68039
# Velocity P-wave (km/s) = 5.60838 6.38169 6.00749
#
# Compressibility (1/GPa) = 0.03488907
#
# Stress axis : x y z
#
# Youngs Moduli (GPa) = 31.96978 111.90412 55.61889
#
# Poissons Ratio (x) = -0.15132 0.43466
# Poissons Ratio (y) = -0.04323 0.28869
# Poissons Ratio (z) = 0.24984 0.58083
#
# Static dielectric constant tensor:
#      x y z
#    x 1.695650 0.000000 0.000000 
#    y 0.000000 1.685410 0.000000 
#    z 0.000000 0.000000 1.641390 
# 
# From -- ./inp_files/3789.got.cif
#   From: 2010.05.17/outbox.cif.g08.bks.cpg/sg57_2_cif.got.tgz:3789.got - 2010.06.03 13:58:18.
