data_PCOD9435099
_publ_section_title
;
Structure prediction by ZEFSAII (Michael W. Deem and Ramdas Pophale) SiO2 
 PCOD9435099
Probable space group: P B C M
;
_chemical_formula_sum "Si O2"
_cell_formula_units_Z 60
_cell_length_a 20.178258
_cell_length_b 5.254246
_cell_length_c 27.178201
_cell_angle_alpha 90.000000
_cell_angle_beta 90.000000
_cell_angle_gamma 90.000000
_cell_volume 2881.474490
_symmetry_space_group_name_H-M "P B C M"
_symmetry_group_IT_number 57
_symmetry_cell_setting 'orthorhombic'
loop_
_space_group_symop_operation_xyz
x,y,z
-x,-y,1/2+z
x,1/2-y,-z
-x,1/2+y,1/2-z
-x,-y,-z
x,y,1/2-z
-x,1/2+y,z
x,1/2-y,1/2+z
loop_
_atom_site_type_symbol
_atom_site_label
_atom_site_fract_x
_atom_site_fract_y
_atom_site_fract_z
Si Si1 0.179794 0.953452 0.089450
Si Si2 0.756293 0.063471 0.802131
Si Si3 0.745411 0.948854 0.435306
Si Si4 0.542065 0.464649 0.860858
Si Si5 0.044413 0.581910 0.860595
Si Si6 0.599866 0.997513 0.470940
Si Si7 0.316787 0.429823 0.174130
Si Si8 0.957661 0.005254 0.750000
O O1 0.206262 0.960937 0.146060
O O2 0.210302 0.194899 0.060900
O O3 0.101323 0.951072 0.098678
O O4 0.208348 0.697061 0.065368
O O5 0.793313 0.027792 0.750000
O O6 0.701165 0.843079 0.804429
O O7 0.723198 0.339684 0.802026
O O8 0.711041 0.928310 0.381584
O O9 0.680411 0.981268 0.468556
O O10 0.488548 0.686713 0.853561
O O11 0.569052 0.489949 0.916790
O O12 0.605766 0.512941 0.827026
O O13 0.009015 0.854992 0.864945
O O14 0.072209 0.558751 0.804168
O O15 0.576538 0.750000 0.500000
O O16 0.582236 0.250000 0.500000
O O17 0.981204 0.710679 0.750000
#
# Coordination Sequence:
#
# PCOD9435099 Si02
#       8
#     8   8   8   8   8   8   8   4
#     4  10  19  32  52  73 103 135 175 217 247 310
#     4  10  19  32  53  75  95 128 176 229 268 293
#     4   9  19  35  51  74 101 135 169 206 256 296
#     4  11  22  36  56  78 105 143 174 195 238 311
#     4  10  19  31  46  69 103 140 173 209 256 303
#     4  11  22  36  56  82 113 137 159 202 251 303
#     4   9  19  35  51  71 100 133 169 213 262 300
#     4   8  16  28  40  58  92 136 166 196 242 294
#
# _framework density 20.822669999999999
#
# number of rings (size 3 to 8) (size 9 to 14) (size 15 to 20)
#    0.000    2.133    0.000    3.600    0.933    5.867 
#    0.000    0.000    0.000    8.000    0.000    0.000 
#    0.000   37.333    0.000    0.000    0.000    0.000 
#
# Total GULP energy -334908.497874 kJ/mol
# GULP energy per Si atom -5581.808298 kJ/mol
# Density = 2.077528 g / cm^3
# Si number density = 20.822670 Si / 1000 Ang^3
#
#
#
# Elastic Constant Matrix: (Units=GPa)
#
#
# Indices 1 2 3 4 5 6 
#
# 1 62.2728 -2.1524 -2.7281 0.0000 0.0000 0.0000
# 2 -2.1524 92.1517 0.1272 0.0000 0.0000 0.0000
# 3 -2.7281 0.1272 20.1439 0.0000 0.0000 0.0000
# 4 0.0000 0.0000 0.0000 17.3611 0.0000 0.0000
# 5 0.0000 0.0000 0.0000 0.0000 40.9183 0.0000
# 6 0.0000 0.0000 0.0000 0.0000 0.0000 15.3369
#
#
#
# Elastic Compliance Matrix: (Units=1/GPa)
#
#
# Indices 1 2 3 4 5 6 
#
# 1 0.016167 0.000375 0.002187 0.000000 0.000000 0.000000
# 2 0.000375 0.010860 -0.000018 0.000000 0.000000 0.000000
# 3 0.002187 -0.000018 0.049939 0.000000 0.000000 0.000000
# 4 0.000000 0.000000 0.000000 0.057600 0.000000 0.000000
# 5 0.000000 0.000000 0.000000 0.000000 0.024439 0.000000
# 6 0.000000 0.000000 0.000000 0.000000 0.000000 0.065202
#
#
# Mechanical properties :
#
#
# Convention : Reuss Voigt Hill
#
# Bulk Modulus (GPa) = 12.18701 18.34020 15.26360
# Shear Modulus (GPa) = 20.28633 26.67806 23.48220
#
# Velocity S-wave (km/s) = 3.12467 3.58327 3.36180
# Velocity P-wave (km/s) = 4.34552 5.09379 4.73446
#
# Compressibility (1/GPa) = 0.08205457
#
# Stress axis : x y z
#
# Youngs Moduli (GPa) = 61.85391 92.07727 20.02437
#
# Poissons Ratio (x) = -0.03449 -0.04380
# Poissons Ratio (y) = -0.02317 0.00036
# Poissons Ratio (z) = -0.13528 0.00164
#
# Static dielectric constant tensor:
#      x y z
#    x 1.739350 0.000000 0.000000 
#    y 0.000000 1.693400 0.000000 
#    z 0.000000 0.000000 1.758230 
# 
# From -- ./inp_files/28874.got.cif
#   From: 2010.05.17/outbox.cif.g08.bks.cpg/sg57_15_cif.got.tgz:28874.got - 2010.06.03 13:58:18.
