data_PCOD9435421
_publ_section_title
;
Structure prediction by ZEFSAII (Michael W. Deem and Ramdas Pophale) SiO2 
 PCOD9435421
Probable space group: P B C M
;
_chemical_formula_sum "Si O2"
_cell_formula_units_Z 64
_cell_length_a 29.564386
_cell_length_b 12.826903
_cell_length_c 7.817517
_cell_angle_alpha 90.000000
_cell_angle_beta 90.000000
_cell_angle_gamma 90.000000
_cell_volume 2964.554978
_symmetry_space_group_name_H-M "P B C M"
_symmetry_group_IT_number 57
_symmetry_cell_setting 'orthorhombic'
loop_
_space_group_symop_operation_xyz
x,y,z
-x,-y,1/2+z
x,1/2-y,-z
-x,1/2+y,1/2-z
-x,-y,-z
x,y,1/2-z
-x,1/2+y,z
x,1/2-y,1/2+z
loop_
_atom_site_type_symbol
_atom_site_label
_atom_site_fract_x
_atom_site_fract_y
_atom_site_fract_z
Si Si1 0.863535 0.864405 0.053010
Si Si2 0.791565 0.360510 0.454398
Si Si3 0.576333 0.969286 0.949450
Si Si4 0.492534 0.860776 0.046153
Si Si5 0.663217 0.635554 0.043963
Si Si6 0.987665 0.372794 0.455211
Si Si7 0.889569 0.088313 0.551081
Si Si8 0.237516 0.416275 0.957495
O O1 0.874013 0.881288 0.250000
O O2 0.879305 0.750000 0.000000
O O3 0.809139 0.868657 0.026149
O O4 0.884957 0.962366 0.955727
O O5 0.771332 0.250000 0.500000
O O6 0.795180 0.367565 0.250000
O O7 0.842650 0.370145 0.526741
O O8 0.764547 0.462259 0.507715
O O9 0.583050 0.995240 0.750000
O O10 0.625521 0.944660 0.022443
O O11 0.543735 0.057015 0.025559
O O12 0.541971 0.872506 0.963319
O O13 0.497306 0.873940 0.250000
O O14 0.473539 0.750000 0.000000
O O15 0.665373 0.624275 0.250000
O O16 0.714671 0.626427 0.979806
O O17 0.646371 0.750000 0.000000
O O18 0.005236 0.250000 0.500000
O O19 0.990877 0.374257 0.250000
O O20 0.936129 0.372310 0.525333
O O21 0.000000 0.500000 0.500000
O O22 0.890662 0.118854 0.750000
O O23 0.235281 0.406286 0.750000
#
# Coordination Sequence:
#
# PCOD9435421 Si02
#       8
#     8   8   8   8   8   8   8   8
#     4  11  21  33  53  80 111 146 185 231 281 334
#     4   9  17  31  52  76 102 132 168 212 260 308
#     4   9  19  34  51  73  98 127 166 207 249 301
#     4  10  19  32  51  73  99 129 161 202 252 302
#     4  10  20  34  52  72  97 130 166 206 253 304
#     4  11  24  43  67  94 127 166 208 254 306 364
#     4   9  20  38  58  82 112 147 188 235 285 337
#     4   9  19  35  51  71 103 139 174 214 262 316
#
# _framework density 21.5884
#
# number of rings (size 3 to 8) (size 9 to 14) (size 15 to 20)
#    0.000    2.250    0.000    3.750    0.000    7.000 
#    0.000    0.625    0.000    0.000    0.000    0.000 
#    0.000    0.000    0.000    0.000    0.000    0.000 
#
# Total GULP energy -356292.567829 kJ/mol
# GULP energy per Si atom -5567.071372 kJ/mol
# Density = 2.153926 g / cm^3
# Si number density = 21.588400 Si / 1000 Ang^3
#
#
#
# Elastic Constant Matrix: (Units=GPa)
#
#
# Indices 1 2 3 4 5 6 
#
# 1 76.2000 14.7747 -2.8034 0.0000 0.0000 0.0000
# 2 14.7747 119.1394 -5.8792 0.0000 0.0000 0.0000
# 3 -2.8034 -5.8792 48.4065 0.0000 0.0000 0.0000
# 4 0.0000 0.0000 0.0000 27.8352 0.0000 0.0000
# 5 0.0000 0.0000 0.0000 0.0000 9.4030 0.0000
# 6 0.0000 0.0000 0.0000 0.0000 0.0000 5.8340
#
#
#
# Elastic Compliance Matrix: (Units=1/GPa)
#
#
# Indices 1 2 3 4 5 6 
#
# 1 0.013463 -0.001641 0.000580 0.000000 0.000000 0.000000
# 2 -0.001641 0.008644 0.000955 0.000000 0.000000 0.000000
# 3 0.000580 0.000955 0.020808 0.000000 0.000000 0.000000
# 4 0.000000 0.000000 0.000000 0.035926 0.000000 0.000000
# 5 0.000000 0.000000 0.000000 0.000000 0.106349 0.000000
# 6 0.000000 0.000000 0.000000 0.000000 0.000000 0.171408
#
#
# Mechanical properties :
#
#
# Convention : Reuss Voigt Hill
#
# Bulk Modulus (GPa) = 23.41723 28.43668 25.92696
# Shear Modulus (GPa) = 13.47550 24.45803 18.96676
#
# Velocity S-wave (km/s) = 2.50111 3.36955 2.96727
# Velocity P-wave (km/s) = 4.38308 5.32346 4.87600
#
# Compressibility (1/GPa) = 0.04270360
#
# Stress axis : x y z
#
# Youngs Moduli (GPa) = 74.27832 115.68529 48.05853
#
# Poissons Ratio (x) = 0.18983 -0.02789
# Poissons Ratio (y) = 0.12188 -0.04589
# Poissons Ratio (z) = -0.04311 -0.11046
#
# Static dielectric constant tensor:
#      x y z
#    x 1.799740 0.000000 0.000000 
#    y 0.000000 1.973910 0.000000 
#    z 0.000000 0.000000 1.803070 
# 
# From -- ./inp_files/10286.got.cif
#   From: 2010.05.17/outbox.cif.g08.bks.cpg/sg57_6_cif.got.tgz:10286.got - 2010.06.03 13:58:18.
