data_PCOD9435049
_publ_section_title
;
Structure prediction by ZEFSAII (Michael W. Deem and Ramdas Pophale) SiO2 
 PCOD9435049
Probable space group: P B C M
;
_chemical_formula_sum "Si O2"
_cell_formula_units_Z 56
_cell_length_a 14.327218
_cell_length_b 20.852271
_cell_length_c 9.243779
_cell_angle_alpha 90.000000
_cell_angle_beta 90.000000
_cell_angle_gamma 90.000000
_cell_volume 2761.625495
_symmetry_space_group_name_H-M "P B C M"
_symmetry_group_IT_number 57
_symmetry_cell_setting 'orthorhombic'
loop_
_space_group_symop_operation_xyz
x,y,z
-x,-y,1/2+z
x,1/2-y,-z
-x,1/2+y,1/2-z
-x,-y,-z
x,y,1/2-z
-x,1/2+y,z
x,1/2-y,1/2+z
loop_
_atom_site_type_symbol
_atom_site_label
_atom_site_fract_x
_atom_site_fract_y
_atom_site_fract_z
Si Si1 0.433247 0.816432 0.581653
Si Si2 0.964702 0.182472 0.423513
Si Si3 0.444866 0.081193 0.585097
Si Si4 0.706789 0.502876 0.422870
Si Si5 0.295874 0.305283 0.409416
Si Si6 0.150863 0.382680 0.922007
Si Si7 0.234694 0.625133 0.418004
O O1 0.453670 0.750000 0.500000
O O2 0.464101 0.813867 0.750000
O O3 0.477823 0.878917 0.503513
O O4 0.321871 0.826775 0.578417
O O5 0.985418 0.250000 0.500000
O O6 0.966227 0.192291 0.250000
O O7 0.861770 0.157895 0.463728
O O8 0.042370 0.128092 0.457739
O O9 0.473023 0.063319 0.750000
O O10 0.390345 0.025388 0.498465
O O11 0.363695 0.134628 0.598596
O O12 0.694483 0.503080 0.250000
O O13 0.791750 0.552654 0.458240
O O14 0.738419 0.434856 0.483436
O O15 0.343606 0.250000 0.500000
O O16 0.272967 0.282415 0.250000
O O17 0.205154 0.327013 0.494962
O O18 0.160930 0.374770 0.750000
O O19 0.224462 0.603587 0.250000
#
# Coordination Sequence:
#
# PCOD9435049 Si02
#       7
#     8   8   8   8   8   8   8
#     4  11  23  39  60  86 115 149 191 238 287 338
#     4  10  21  38  59  84 115 150 190 236 285 337
#     4  10  21  37  58  83 113 149 187 231 285 342
#     4  10  21  38  60  87 117 150 191 235 282 340
#     4  10  19  30  48  76 109 145 182 223 275 334
#     4   9  19  35  55  81 113 146 183 231 282 333
#     4  10  23  41  59  81 114 154 193 237 285 335
#
# _framework density 20.277912000000001
#
# number of rings (size 3 to 8) (size 9 to 14) (size 15 to 20)
#    0.000    2.000    0.000    3.000    0.000    8.000 
#    0.000    0.000    0.000    0.000    0.000    0.000 
#    0.000    0.000    0.000    0.000    0.000    0.000 
#
# Total GULP energy -312602.953092 kJ/mol
# GULP energy per Si atom -5582.195591 kJ/mol
# Density = 2.023176 g / cm^3
# Si number density = 20.277912 Si / 1000 Ang^3
#
#
#
# Elastic Constant Matrix: (Units=GPa)
#
#
# Indices 1 2 3 4 5 6 
#
# 1 117.3838 17.5992 26.6717 0.0000 0.0000 0.0000
# 2 17.5992 83.0147 37.8275 0.0000 0.0000 0.0000
# 3 26.6717 37.8275 71.7801 0.0000 0.0000 0.0000
# 4 0.0000 0.0000 0.0000 29.4826 0.0000 0.0000
# 5 0.0000 0.0000 0.0000 0.0000 72.1130 0.0000
# 6 0.0000 0.0000 0.0000 0.0000 0.0000 24.4625
#
#
#
# Elastic Compliance Matrix: (Units=1/GPa)
#
#
# Indices 1 2 3 4 5 6 
#
# 1 0.009322 -0.000524 -0.003188 0.000000 0.000000 0.000000
# 2 -0.000524 0.015882 -0.008175 0.000000 0.000000 0.000000
# 3 -0.003188 -0.008175 0.019424 0.000000 0.000000 0.000000
# 4 0.000000 0.000000 0.000000 0.033918 0.000000 0.000000
# 5 0.000000 0.000000 0.000000 0.000000 0.013867 0.000000
# 6 0.000000 0.000000 0.000000 0.000000 0.000000 0.040879
#
#
# Mechanical properties :
#
#
# Convention : Reuss Voigt Hill
#
# Bulk Modulus (GPa) = 47.95020 48.48617 48.21818
# Shear Modulus (GPa) = 30.48444 37.88361 34.18402
#
# Velocity S-wave (km/s) = 3.88149 4.32698 4.11027
# Velocity P-wave (km/s) = 6.61708 6.99474 6.80853
#
# Compressibility (1/GPa) = 0.02085497
#
# Stress axis : x y z
#
# Youngs Moduli (GPa) = 107.27418 62.96310 51.48199
#
# Poissons Ratio (x) = 0.03297 0.16412
# Poissons Ratio (y) = 0.05617 0.42088
# Poissons Ratio (z) = 0.34197 0.51474
#
# Static dielectric constant tensor:
#      x y z
#    x 1.737520 0.000000 0.000000 
#    y 0.000000 1.720690 0.000000 
#    z 0.000000 0.000000 1.718010 
# 
# From -- ./inp_files/5099.got.cif
#   From: 2010.05.17/outbox.cif.g08.bks.cpg/sg57_3_cif.got.tgz:5099.got - 2010.06.03 13:58:18.
