data_PCOD9435671
_publ_section_title
;
Structure prediction by ZEFSAII (Michael W. Deem and Ramdas Pophale) SiO2 
 PCOD9435671
Probable space group: P B C M
;
_chemical_formula_sum "Si O2"
_cell_formula_units_Z 48
_cell_length_a 15.215562
_cell_length_b 20.865579
_cell_length_c 8.756558
_cell_angle_alpha 90.000000
_cell_angle_beta 90.000000
_cell_angle_gamma 90.000000
_cell_volume 2780.045264
_symmetry_space_group_name_H-M "P B C M"
_symmetry_group_IT_number 57
_symmetry_cell_setting 'orthorhombic'
loop_
_space_group_symop_operation_xyz
x,y,z
-x,-y,1/2+z
x,1/2-y,-z
-x,1/2+y,1/2-z
-x,-y,-z
x,y,1/2-z
-x,1/2+y,z
x,1/2-y,1/2+z
loop_
_atom_site_type_symbol
_atom_site_label
_atom_site_fract_x
_atom_site_fract_y
_atom_site_fract_z
Si Si1 0.192187 0.158135 0.426851
Si Si2 0.228081 0.491909 0.925436
Si Si3 0.934974 0.053610 0.430318
Si Si4 0.574866 0.954092 0.934160
Si Si5 0.382617 0.317088 0.067319
Si Si6 0.004318 0.184428 0.568496
O O1 0.193321 0.180029 0.250000
O O2 0.281433 0.178330 0.510312
O O3 0.105088 0.179942 0.511699
O O4 0.192339 0.080902 0.425859
O O5 0.223704 0.515284 0.750000
O O6 0.329687 0.484817 0.972057
O O7 0.164262 0.532952 0.030296
O O8 0.949608 0.056503 0.250000
O O9 0.957007 0.121619 0.504577
O O10 0.000000 0.000000 0.500000
O O11 0.570256 0.949525 0.750000
O O12 0.573198 0.882143 0.002808
O O13 0.500000 0.000000 0.000000
O O14 0.386423 0.316438 0.250000
O O15 0.418336 0.250000 0.000000
O O16 0.966521 0.250000 0.500000
O O17 0.001474 0.185516 0.750000
#
# Coordination Sequence:
#
# PCOD9435671 Si02
#       6
#     8   8   8   8   8   8
#     4  10  19  33  52  77 111 146 184 225 274 333
#     4   9  19  35  56  81 111 145 185 230 275 327
#     4  12  23  36  56  81 111 147 191 233 275 329
#     4  10  21  38  60  86 116 147 186 232 283 338
#     4  11  21  34  53  79 113 149 186 226 279 338
#     4  12  24  37  53  75 108 148 190 235 284 334
#
# _framework density 17.265906000000001
#
# number of rings (size 3 to 8) (size 9 to 14) (size 15 to 20)
#    0.000    1.333    1.667    7.000    0.000    3.333 
#    0.000    0.000    0.000    1.000    0.000    0.000 
#    0.000    0.000    0.000    0.000    0.000    0.000 
#
# Total GULP energy -268200.424717 kJ/mol
# GULP energy per Si atom -5587.508848 kJ/mol
# Density = 1.722661 g / cm^3
# Si number density = 17.265906 Si / 1000 Ang^3
#
#
#
# Elastic Constant Matrix: (Units=GPa)
#
#
# Indices 1 2 3 4 5 6 
#
# 1 72.0579 63.9588 51.4222 0.0000 0.0000 0.0000
# 2 63.9588 149.2101 76.9138 0.0000 0.0000 0.0000
# 3 51.4222 76.9138 160.6600 0.0000 0.0000 0.0000
# 4 0.0000 0.0000 0.0000 32.2505 0.0000 0.0000
# 5 0.0000 0.0000 0.0000 0.0000 25.6633 0.0000
# 6 0.0000 0.0000 0.0000 0.0000 0.0000 15.9740
#
#
#
# Elastic Compliance Matrix: (Units=1/GPa)
#
#
# Indices 1 2 3 4 5 6 
#
# 1 0.023907 -0.008369 -0.003646 0.000000 0.000000 0.000000
# 2 -0.008369 0.011827 -0.002984 0.000000 0.000000 0.000000
# 3 -0.003646 -0.002984 0.008819 0.000000 0.000000 0.000000
# 4 0.000000 0.000000 0.000000 0.031007 0.000000 0.000000
# 5 0.000000 0.000000 0.000000 0.000000 0.038966 0.000000
# 6 0.000000 0.000000 0.000000 0.000000 0.000000 0.062602
#
#
# Mechanical properties :
#
#
# Convention : Reuss Voigt Hill
#
# Bulk Modulus (GPa) = 68.68895 85.16862 76.92879
# Shear Modulus (GPa) = 23.58740 27.41978 25.50359
#
# Velocity S-wave (km/s) = 3.70012 3.98941 3.84748
# Velocity P-wave (km/s) = 7.62390 8.40566 8.02431
#
# Compressibility (1/GPa) = 0.01455838
#
# Stress axis : x y z
#
# Youngs Moduli (GPa) = 41.82807 84.55144 113.38525
#
# Poissons Ratio (x) = 0.70758 0.41336
# Poissons Ratio (y) = 0.35005 0.33829
# Poissons Ratio (z) = 0.15249 0.25226
#
# Static dielectric constant tensor:
#      x y z
#    x 1.572100 0.000000 0.000000 
#    y 0.000000 1.605820 0.000000 
#    z 0.000000 0.000000 1.582400 
# 
# From -- ./inp_files/4874.got.cif
#   From: 2010.05.17/outbox.cif.g08.bks.cpg/sg57_3_cif.got.tgz:4874.got - 2010.06.03 13:58:18.
