data_PCOD9435343
_publ_section_title
;
Structure prediction by ZEFSAII (Michael W. Deem and Ramdas Pophale) SiO2 
 PCOD9435343
Probable space group: P B C M
;
_chemical_formula_sum "Si O2"
_cell_formula_units_Z 48
_cell_length_a 14.991048
_cell_length_b 18.647245
_cell_length_c 8.514840
_cell_angle_alpha 90.000000
_cell_angle_beta 90.000000
_cell_angle_gamma 90.000000
_cell_volume 2380.253231
_symmetry_space_group_name_H-M "P B C M"
_symmetry_group_IT_number 57
_symmetry_cell_setting 'orthorhombic'
loop_
_space_group_symop_operation_xyz
x,y,z
-x,-y,1/2+z
x,1/2-y,-z
-x,1/2+y,1/2-z
-x,-y,-z
x,y,1/2-z
-x,1/2+y,z
x,1/2-y,1/2+z
loop_
_atom_site_type_symbol
_atom_site_label
_atom_site_fract_x
_atom_site_fract_y
_atom_site_fract_z
Si Si1 0.902499 0.021694 0.561059
Si Si2 0.039109 0.827079 0.439100
Si Si3 0.158639 0.375556 0.437048
Si Si4 0.596122 0.024352 0.560842
Si Si5 0.537111 0.326286 0.061978
Si Si6 0.656620 0.627316 0.061983
O O1 0.896190 0.016966 0.750000
O O2 0.897814 0.105610 0.515592
O O3 0.843746 0.959217 0.487442
O O4 0.000000 0.000000 0.500000
O O5 0.067903 0.750000 0.500000
O O6 0.036757 0.826508 0.250000
O O7 0.936339 0.842526 0.493101
O O8 0.160231 0.370357 0.250000
O O9 0.249196 0.341934 0.504597
O O10 0.599165 0.025156 0.750000
O O11 0.599902 0.107123 0.509047
O O12 0.500000 0.000000 0.500000
O O13 0.655456 0.956976 0.511482
O O14 0.534901 0.325723 0.250000
O O15 0.568037 0.250000 0.000000
O O16 0.435074 0.339509 0.003976
O O17 0.652608 0.631695 0.250000
#
# Coordination Sequence:
#
# PCOD9435343 Si02
#       6
#     8   8   8   8   8   8
#     4   9  17  31  49  70  93 122 160 200 237 280
#     4   9  19  32  48  70  96 123 155 192 233 280
#     4  10  20  33  48  71  99 128 161 197 236 285
#     4   8  16  30  48  68  91 120 158 197 234 277
#     4  10  19  32  49  71  98 127 158 196 238 287
#     4  10  19  32  50  72  96 126 160 198 243 287
#
# _framework density 20.16592
#
# number of rings (size 3 to 8) (size 9 to 14) (size 15 to 20)
#    0.000    2.667    0.000    3.000    0.000    6.000 
#    0.000    1.667    0.000    1.000    0.000    2.333 
#    0.000    0.000    0.000    0.000    0.000    0.000 
#
# Total GULP energy -267284.960158 kJ/mol
# GULP energy per Si atom -5568.436670 kJ/mol
# Density = 2.012002 g / cm^3
# Si number density = 20.165920 Si / 1000 Ang^3
#
#
#
# Elastic Constant Matrix: (Units=GPa)
#
#
# Indices 1 2 3 4 5 6 
#
# 1 19.3919 -20.6690 -5.8213 0.0000 0.0000 0.0000
# 2 -20.6690 118.4522 4.9329 0.0000 0.0000 0.0000
# 3 -5.8213 4.9329 22.8602 0.0000 0.0000 0.0000
# 4 0.0000 0.0000 0.0000 29.6671 0.0000 0.0000
# 5 0.0000 0.0000 0.0000 0.0000 11.6028 0.0000
# 6 0.0000 0.0000 0.0000 0.0000 0.0000 8.8446
#
#
#
# Elastic Compliance Matrix: (Units=1/GPa)
#
#
# Indices 1 2 3 4 5 6 
#
# 1 0.068031 0.011251 0.014896 0.000000 0.000000 0.000000
# 2 0.011251 0.010379 0.000625 0.000000 0.000000 0.000000
# 3 0.014896 0.000625 0.047403 0.000000 0.000000 0.000000
# 4 0.000000 0.000000 0.000000 0.033707 0.000000 0.000000
# 5 0.000000 0.000000 0.000000 0.000000 0.086186 0.000000
# 6 0.000000 0.000000 0.000000 0.000000 0.000000 0.113063
#
#
# Mechanical properties :
#
#
# Convention : Reuss Voigt Hill
#
# Bulk Modulus (GPa) = 5.57547 13.06551 9.32049
# Shear Modulus (GPa) = 13.69823 22.17369 17.93596
#
# Velocity S-wave (km/s) = 2.60912 3.31956 2.98555
# Velocity P-wave (km/s) = 3.44202 4.60280 4.06406
#
# Compressibility (1/GPa) = 0.17935712
#
# Stress axis : x y z
#
# Youngs Moduli (GPa) = 14.69916 96.34543 21.09592
#
# Poissons Ratio (x) = -1.08394 -0.31425
# Poissons Ratio (y) = -0.16537 -0.01319
# Poissons Ratio (z) = -0.21896 -0.06024
#
# Static dielectric constant tensor:
#      x y z
#    x 1.692670 0.000000 0.000000 
#    y 0.000000 1.782930 0.000000 
#    z 0.000000 0.000000 1.691300 
# 
# From -- ./inp_files/6707.got.cif
#   From: 2010.05.17/outbox.cif.g08.bks.cpg/sg57_4_cif.got.tgz:6707.got - 2010.06.03 13:58:18.
