data_PCOD9435620
_publ_section_title
;
Structure prediction by ZEFSAII (Michael W. Deem and Ramdas Pophale) SiO2 
 PCOD9435620
Probable space group: P B C M
;
_chemical_formula_sum "Si O2"
_cell_formula_units_Z 64
_cell_length_a 19.329320
_cell_length_b 20.316376
_cell_length_c 8.221047
_cell_angle_alpha 90.000000
_cell_angle_beta 90.000000
_cell_angle_gamma 90.000000
_cell_volume 3228.419404
_symmetry_space_group_name_H-M "P B C M"
_symmetry_group_IT_number 57
_symmetry_cell_setting 'orthorhombic'
loop_
_space_group_symop_operation_xyz
x,y,z
-x,-y,1/2+z
x,1/2-y,-z
-x,1/2+y,1/2-z
-x,-y,-z
x,y,1/2-z
-x,1/2+y,z
x,1/2-y,1/2+z
loop_
_atom_site_type_symbol
_atom_site_label
_atom_site_fract_x
_atom_site_fract_y
_atom_site_fract_z
Si Si1 0.019009 0.825069 0.054400
Si Si2 0.783412 0.978767 0.556845
Si Si3 0.636175 0.922675 0.945852
Si Si4 0.061364 0.450391 0.445878
Si Si5 0.472335 0.174481 0.557215
Si Si6 0.833615 0.322362 0.443314
Si Si7 0.288455 0.604562 0.431241
Si Si8 0.425028 0.937963 0.436333
O O1 0.021098 0.822769 0.250000
O O2 0.094207 0.856717 0.007604
O O3 0.962010 0.877093 0.001976
O O4 0.006764 0.750000 0.000000
O O5 0.778880 0.992814 0.750000
O O6 0.718047 0.930806 0.518458
O O7 0.861885 0.961790 0.515121
O O8 0.762147 0.043208 0.457832
O O9 0.629473 0.922092 0.750000
O O10 0.593554 0.988804 0.005479
O O11 0.602106 0.857135 0.016610
O O12 0.064973 0.453191 0.250000
O O13 0.000000 0.500000 0.500000
O O14 0.481148 0.250000 0.500000
O O15 0.483330 0.176034 0.750000
O O16 0.523608 0.116697 0.488545
O O17 0.852039 0.250000 0.500000
O O18 0.823332 0.329973 0.250000
O O19 0.762820 0.336772 0.533552
O O20 0.317448 0.605621 0.250000
O O21 0.350536 0.596989 0.555942
O O22 0.447078 0.949221 0.250000
#
# Coordination Sequence:
#
# PCOD9435620 Si02
#       8
#     8   8   8   8   8   8   8   8
#     4   9  20  36  54  76 104 140 183 227 275 331
#     4  10  21  38  58  82 112 146 184 231 282 334
#     4   9  19  38  62  84 110 145 188 234 284 337
#     4  11  22  36  57  87 118 150 188 233 285 340
#     4  11  23  38  59  86 117 150 187 232 283 336
#     4  10  19  33  51  72 103 143 184 227 275 333
#     4  11  21  33  53  81 110 144 183 226 275 332
#     4   9  20  38  58  82 113 150 186 228 280 335
#
# _framework density 19.823941000000001
#
# number of rings (size 3 to 8) (size 9 to 14) (size 15 to 20)
#    0.000    2.000    0.000    4.500    0.000    6.500 
#    0.000    1.875    0.000    1.500    0.000    0.000 
#    0.000    0.000    0.000    0.000    0.000    0.000 
#
# Total GULP energy -356415.412288 kJ/mol
# GULP energy per Si atom -5568.990817 kJ/mol
# Density = 1.977882 g / cm^3
# Si number density = 19.823941 Si / 1000 Ang^3
#
#
#
# Elastic Constant Matrix: (Units=GPa)
#
#
# Indices 1 2 3 4 5 6 
#
# 1 95.6829 54.2829 6.9276 0.0000 0.0000 0.0000
# 2 54.2829 74.0441 7.8375 0.0000 0.0000 0.0000
# 3 6.9276 7.8375 37.0824 0.0000 0.0000 0.0000
# 4 0.0000 0.0000 0.0000 22.3362 0.0000 0.0000
# 5 0.0000 0.0000 0.0000 0.0000 23.3725 0.0000
# 6 0.0000 0.0000 0.0000 0.0000 0.0000 24.1041
#
#
#
# Elastic Compliance Matrix: (Units=1/GPa)
#
#
# Indices 1 2 3 4 5 6 
#
# 1 0.017906 -0.013065 -0.000584 0.000000 0.000000 0.000000
# 2 -0.013065 0.023348 -0.002494 0.000000 0.000000 0.000000
# 3 -0.000584 -0.002494 0.027603 0.000000 0.000000 0.000000
# 4 0.000000 0.000000 0.000000 0.044770 0.000000 0.000000
# 5 0.000000 0.000000 0.000000 0.000000 0.042785 0.000000
# 6 0.000000 0.000000 0.000000 0.000000 0.000000 0.041487
#
#
# Mechanical properties :
#
#
# Convention : Reuss Voigt Hill
#
# Bulk Modulus (GPa) = 27.34398 38.32280 32.83339
# Shear Modulus (GPa) = 20.62926 23.14666 21.88796
#
# Velocity S-wave (km/s) = 3.22937 3.42074 3.32643
# Velocity P-wave (km/s) = 5.26578 5.91401 5.59928
#
# Compressibility (1/GPa) = 0.03657112
#
# Stress axis : x y z
#
# Youngs Moduli (GPa) = 55.84870 42.83088 36.22778
#
# Poissons Ratio (x) = 0.55959 0.02115
# Poissons Ratio (y) = 0.72967 0.09035
# Poissons Ratio (z) = 0.03260 0.10681
#
# Static dielectric constant tensor:
#      x y z
#    x 1.735330 0.000000 0.000000 
#    y 0.000000 1.742320 0.000000 
#    z 0.000000 0.000000 1.706260 
# 
# From -- ./inp_files/7215.got.cif
#   From: 2010.05.17/outbox.cif.g08.bks.cpg/sg57_4_cif.got.tgz:7215.got - 2010.06.03 13:58:18.
