data_PCOD9435907
_publ_section_title
;
Structure prediction by ZEFSAII (Michael W. Deem and Ramdas Pophale) SiO2 
 PCOD9435907
Probable space group: P B C M
;
_chemical_formula_sum "Si O2"
_cell_formula_units_Z 40
_cell_length_a 7.347379
_cell_length_b 21.365456
_cell_length_c 11.588089
_cell_angle_alpha 90.000000
_cell_angle_beta 90.000000
_cell_angle_gamma 90.000000
_cell_volume 1819.099402
_symmetry_space_group_name_H-M "P B C M"
_symmetry_group_IT_number 57
_symmetry_cell_setting 'orthorhombic'
loop_
_space_group_symop_operation_xyz
x,y,z
-x,-y,1/2+z
x,1/2-y,-z
-x,1/2+y,1/2-z
-x,-y,-z
x,y,1/2-z
-x,1/2+y,z
x,1/2-y,1/2+z
loop_
_atom_site_type_symbol
_atom_site_label
_atom_site_fract_x
_atom_site_fract_y
_atom_site_fract_z
Si Si1 0.906501 0.589080 0.947466
Si Si2 0.429891 0.405164 0.879428
Si Si3 0.178989 0.277820 0.374991
Si Si4 0.189427 0.953129 0.621553
Si Si5 0.588622 0.264558 0.622681
O O1 0.733728 0.591037 0.032863
O O2 0.085911 0.586438 0.025634
O O3 0.893457 0.651766 0.875105
O O4 0.889977 0.523097 0.882945
O O5 0.359567 0.416124 0.750000
O O6 0.595547 0.452356 0.901642
O O7 0.521214 0.336417 0.881666
O O8 0.123163 0.250000 0.500000
O O9 0.131181 0.247130 0.250000
O O10 0.400179 0.275340 0.378122
O O11 0.163860 0.926736 0.750000
O O12 0.684295 0.250000 0.500000
O O13 0.675763 0.254203 0.750000
#
# Coordination Sequence:
#
# PCOD9435907 Si02
#       5
#     8   8   8   8   8
#     4  11  20  37  60  81 117 157 195 246 298 352
#     4  10  19  35  58  83 113 152 195 240 297 357
#     4  10  19  33  59  89 115 154 200 241 295 355
#     4  10  23  37  55  87 118 152 200 250 300 357
#     4   9  16  30  54  81 110 146 188 234 285 341
#
# _framework density 21.988904000000002
#
# number of rings (size 3 to 8) (size 9 to 14) (size 15 to 20)
#    0.000    2.000    4.000    1.800    0.000    0.800 
#    0.000    1.000    0.000   12.000    0.000    0.000 
#    0.000    0.000    0.000    0.000    0.000    0.000 
#
# Total GULP energy -223162.124374 kJ/mol
# GULP energy per Si atom -5579.053109 kJ/mol
# Density = 2.193886 g / cm^3
# Si number density = 21.988904 Si / 1000 Ang^3
#
#
#
# Elastic Constant Matrix: (Units=GPa)
#
#
# Indices 1 2 3 4 5 6 
#
# 1 33.9039 -11.4245 31.0810 0.0000 0.0000 0.0000
# 2 -11.4245 42.4826 11.7371 0.0000 0.0000 0.0000
# 3 31.0810 11.7371 198.6054 0.0000 0.0000 0.0000
# 4 0.0000 0.0000 0.0000 45.8696 0.0000 0.0000
# 5 0.0000 0.0000 0.0000 0.0000 8.4626 0.0000
# 6 0.0000 0.0000 0.0000 0.0000 0.0000 8.0515
#
#
#
# Elastic Compliance Matrix: (Units=1/GPa)
#
#
# Indices 1 2 3 4 5 6 
#
# 1 0.040272 0.012780 -0.007058 0.000000 0.000000 0.000000
# 2 0.012780 0.027985 -0.003654 0.000000 0.000000 0.000000
# 3 -0.007058 -0.003654 0.006356 0.000000 0.000000 0.000000
# 4 0.000000 0.000000 0.000000 0.021801 0.000000 0.000000
# 5 0.000000 0.000000 0.000000 0.000000 0.118167 0.000000
# 6 0.000000 0.000000 0.000000 0.000000 0.000000 0.124201
#
#
# Mechanical properties :
#
#
# Convention : Reuss Voigt Hill
#
# Bulk Modulus (GPa) = 12.69857 37.53100 25.11478
# Shear Modulus (GPa) = 13.85448 28.71663 21.28556
#
# Velocity S-wave (km/s) = 2.51284 3.61773 3.11467
# Velocity P-wave (km/s) = 3.76917 5.87842 4.93774
#
# Compressibility (1/GPa) = 0.07874904
#
# Stress axis : x y z
#
# Youngs Moduli (GPa) = 24.83145 35.73303 157.34328
#
# Poissons Ratio (x) = -0.45666 1.11047
# Poissons Ratio (y) = -0.31734 0.57491
# Poissons Ratio (z) = 0.17525 0.13056
#
# Static dielectric constant tensor:
#      x y z
#    x 1.770470 0.000000 0.000000 
#    y 0.000000 1.809700 0.000000 
#    z 0.000000 0.000000 1.878590 
# 
# From -- ./inp_files/11550.got.cif
#   From: 2010.05.17/outbox.cif.g08.bks.cpg/sg57_6_cif.got.tgz:11550.got - 2010.06.03 13:58:18.
