data_PCOD9435241
_publ_section_title
;
Structure prediction by ZEFSAII (Michael W. Deem and Ramdas Pophale) SiO2 
 PCOD9435241
Probable space group: P B C M
;
_chemical_formula_sum "Si O2"
_cell_formula_units_Z 48
_cell_length_a 15.007234
_cell_length_b 21.050656
_cell_length_c 8.901050
_cell_angle_alpha 90.000000
_cell_angle_beta 90.000000
_cell_angle_gamma 90.000000
_cell_volume 2811.949580
_symmetry_space_group_name_H-M "P B C M"
_symmetry_group_IT_number 57
_symmetry_cell_setting 'orthorhombic'
loop_
_space_group_symop_operation_xyz
x,y,z
-x,-y,1/2+z
x,1/2-y,-z
-x,1/2+y,1/2-z
-x,-y,-z
x,y,1/2-z
-x,1/2+y,z
x,1/2-y,1/2+z
loop_
_atom_site_type_symbol
_atom_site_label
_atom_site_fract_x
_atom_site_fract_y
_atom_site_fract_z
Si Si1 0.685101 0.154887 0.075257
Si Si2 0.107938 0.816402 0.928635
Si Si3 0.724519 0.474029 0.074631
Si Si4 0.930011 0.048293 0.928109
Si Si5 0.504441 0.185738 0.572959
Si Si6 0.559526 0.944179 0.927397
O O1 0.662620 0.165644 0.250000
O O2 0.784892 0.179395 0.046064
O O3 0.609141 0.182547 0.969594
O O4 0.689417 0.080356 0.035963
O O5 0.092926 0.816662 0.750000
O O6 0.076292 0.750000 0.000000
O O7 0.068941 0.881017 0.000291
O O8 0.712482 0.453131 0.250000
O O9 0.829866 0.479256 0.049205
O O10 0.662578 0.535070 0.054459
O O11 0.944978 0.053630 0.750000
O O12 0.000000 0.000000 0.000000
O O13 0.467580 0.250000 0.500000
O O14 0.493331 0.186548 0.750000
O O15 0.462311 0.122447 0.503348
O O16 0.539813 0.940780 0.750000
O O17 0.500000 0.000000 0.000000
#
# Coordination Sequence:
#
# PCOD9435241 Si02
#       6
#     8   8   8   8   8   8
#     4  10  19  31  50  76 107 141 178 217 263 321
#     4  10  20  33  51  78 109 143 177 217 268 327
#     4   9  19  34  54  78 107 141 178 219 267 318
#     4  10  20  36  57  82 110 142 178 223 272 325
#     4  12  24  36  50  72 105 145 185 229 274 321
#     4  11  21  35  55  80 107 142 183 223 264 315
#
# _framework density 17.070008000000001
#
# number of rings (size 3 to 8) (size 9 to 14) (size 15 to 20)
#    0.000    1.667    1.667    4.000    0.000    4.667 
#    0.000    0.000    0.000    1.000    0.000    4.667 
#    0.000    0.000    0.000    0.000    0.000    0.000 
#
# Total GULP energy -267965.724896 kJ/mol
# GULP energy per Si atom -5582.619269 kJ/mol
# Density = 1.703116 g / cm^3
# Si number density = 17.070008 Si / 1000 Ang^3
#
#
#
# Elastic Constant Matrix: (Units=GPa)
#
#
# Indices 1 2 3 4 5 6 
#
# 1 57.8971 59.8886 45.2637 0.0000 0.0000 0.0000
# 2 59.8886 167.1708 90.8504 0.0000 0.0000 0.0000
# 3 45.2637 90.8504 117.9450 0.0000 0.0000 0.0000
# 4 0.0000 0.0000 0.0000 30.1924 0.0000 0.0000
# 5 0.0000 0.0000 0.0000 0.0000 23.7926 0.0000
# 6 0.0000 0.0000 0.0000 0.0000 0.0000 19.6116
#
#
#
# Elastic Compliance Matrix: (Units=1/GPa)
#
#
# Indices 1 2 3 4 5 6 
#
# 1 0.029339 -0.007554 -0.005441 0.000000 0.000000 0.000000
# 2 -0.007554 0.012234 -0.006525 0.000000 0.000000 0.000000
# 3 -0.005441 -0.006525 0.015592 0.000000 0.000000 0.000000
# 4 0.000000 0.000000 0.000000 0.033121 0.000000 0.000000
# 5 0.000000 0.000000 0.000000 0.000000 0.042030 0.000000
# 6 0.000000 0.000000 0.000000 0.000000 0.000000 0.050990
#
#
# Mechanical properties :
#
#
# Convention : Reuss Voigt Hill
#
# Bulk Modulus (GPa) = 55.16681 81.66868 68.41774
# Shear Modulus (GPa) = 21.89259 24.52000 23.20630
#
# Velocity S-wave (km/s) = 3.58511 3.79415 3.69111
# Velocity P-wave (km/s) = 7.03743 8.19398 7.63763
#
# Compressibility (1/GPa) = 0.01812684
#
# Stress axis : x y z
#
# Youngs Moduli (GPa) = 34.08383 81.74037 64.13397
#
# Poissons Ratio (x) = 0.61745 0.34896
# Poissons Ratio (y) = 0.25746 0.41845
# Poissons Ratio (z) = 0.18545 0.53332
#
# Static dielectric constant tensor:
#      x y z
#    x 1.577740 0.000000 0.000000 
#    y 0.000000 1.592930 0.000000 
#    z 0.000000 0.000000 1.571080 
# 
# From -- ./inp_files/4850.got.cif
#   From: 2010.05.17/outbox.cif.g08.bks.cpg/sg57_3_cif.got.tgz:4850.got - 2010.06.03 13:58:18.
