data_PCOD9435326
_publ_section_title
;
Structure prediction by ZEFSAII (Michael W. Deem and Ramdas Pophale) SiO2 
 PCOD9435326
Probable space group: P B C M
;
_chemical_formula_sum "Si O2"
_cell_formula_units_Z 52
_cell_length_a 15.661747
_cell_length_b 12.545258
_cell_length_c 13.885724
_cell_angle_alpha 90.000000
_cell_angle_beta 90.000000
_cell_angle_gamma 90.000000
_cell_volume 2728.276172
_symmetry_space_group_name_H-M "P B C M"
_symmetry_group_IT_number 57
_symmetry_cell_setting 'orthorhombic'
loop_
_space_group_symop_operation_xyz
x,y,z
-x,-y,1/2+z
x,1/2-y,-z
-x,1/2+y,1/2-z
-x,-y,-z
x,y,1/2-z
-x,1/2+y,z
x,1/2-y,1/2+z
loop_
_atom_site_type_symbol
_atom_site_label
_atom_site_fract_x
_atom_site_fract_y
_atom_site_fract_z
Si Si1 0.441210 0.943331 0.860887
Si Si2 0.144667 0.609091 0.360041
Si Si3 0.257527 0.750000 0.000000
Si Si4 0.392785 0.799600 0.360593
Si Si5 0.924358 0.579168 0.968153
Si Si6 0.563291 0.865276 0.022229
Si Si7 0.047135 0.206704 0.141470
O O1 0.458695 0.971639 0.750000
O O2 0.393583 0.829945 0.860123
O O3 0.394374 0.039796 0.916577
O O4 0.526142 0.916680 0.923848
O O5 0.175325 0.605149 0.250000
O O6 0.199885 0.684371 0.426988
O O7 0.140373 0.493157 0.408810
O O8 0.048191 0.657093 0.358469
O O9 0.316682 0.825714 0.066677
O O10 0.385410 0.835507 0.250000
O O11 0.480676 0.835497 0.410945
O O12 0.957618 0.674043 0.900047
O O13 0.897238 0.637301 0.066764
O O14 0.000000 0.500000 0.000000
O O15 0.604940 0.750000 0.000000
O O16 0.079640 0.205259 0.250000
#
# Coordination Sequence:
#
# PCOD9435326 Si02
#       7
#     8   8   4   8   8   8   8
#     4   9  16  27  46  70  96 124 157 193 238 287
#     4  10  20  31  47  70  98 130 165 199 241 291
#     4  12  20  34  44  68  98 132 162 202 226 290
#     4  10  19  32  48  70  98 131 160 194 238 288
#     4   9  16  29  46  70  97 127 156 203 245 298
#     4   9  16  29  45  72  98 123 153 198 241 286
#     4   9  17  30  49  73  98 125 158 204 256 299
#
# _framework density 19.059654999999999
#
# number of rings (size 3 to 8) (size 9 to 14) (size 15 to 20)
#    0.000    2.462    2.308    3.231    0.000    1.231 
#    0.000    1.538    0.000    0.000    4.000    0.000 
#    0.000    0.000    0.000    0.000    0.000    0.000 
#
# Total GULP energy -289618.825738 kJ/mol
# GULP energy per Si atom -5569.592803 kJ/mol
# Density = 1.901627 g / cm^3
# Si number density = 19.059655 Si / 1000 Ang^3
#
#
#
# Elastic Constant Matrix: (Units=GPa)
#
#
# Indices 1 2 3 4 5 6 
#
# 1 14.9628 0.5329 19.5465 0.0000 0.0000 0.0000
# 2 0.5329 97.3808 38.0875 0.0000 0.0000 0.0000
# 3 19.5465 38.0875 181.3004 0.0000 0.0000 0.0000
# 4 0.0000 0.0000 0.0000 30.4751 0.0000 0.0000
# 5 0.0000 0.0000 0.0000 0.0000 13.2470 0.0000
# 6 0.0000 0.0000 0.0000 0.0000 0.0000 1.8810
#
#
#
# Elastic Compliance Matrix: (Units=1/GPa)
#
#
# Indices 1 2 3 4 5 6 
#
# 1 0.078662 0.003145 -0.009141 0.000000 0.000000 0.000000
# 2 0.003145 0.011314 -0.002716 0.000000 0.000000 0.000000
# 3 -0.009141 -0.002716 0.007072 0.000000 0.000000 0.000000
# 4 0.000000 0.000000 0.000000 0.032814 0.000000 0.000000
# 5 0.000000 0.000000 0.000000 0.000000 0.075489 0.000000
# 6 0.000000 0.000000 0.000000 0.000000 0.000000 0.531641
#
#
# Mechanical properties :
#
#
# Convention : Reuss Voigt Hill
#
# Bulk Modulus (GPa) = 12.55918 45.55309 29.05613
# Shear Modulus (GPa) = 6.40240 24.81910 15.61075
#
# Velocity S-wave (km/s) = 1.83478 3.61249 2.86500
# Velocity P-wave (km/s) = 3.33051 6.43057 5.12077
#
# Compressibility (1/GPa) = 0.07962305
#
# Stress axis : x y z
#
# Youngs Moduli (GPa) = 12.71261 88.38608 141.40605
#
# Poissons Ratio (x) = -0.27797 1.29266
# Poissons Ratio (y) = -0.03998 0.38405
# Poissons Ratio (z) = 0.11621 0.24005
#
# Static dielectric constant tensor:
#      x y z
#    x 1.665950 0.000000 0.000000 
#    y 0.000000 1.723680 0.000000 
#    z 0.000000 0.000000 1.692620 
# 
# From -- ./inp_files/19057.got.cif
#   From: 2010.05.17/outbox.cif.g08.bks.cpg/sg57_10_cif.got.tgz:19057.got - 2010.06.03 13:58:18.
