data_PCOD9435146
_publ_section_title
;
Structure prediction by ZEFSAII (Michael W. Deem and Ramdas Pophale) SiO2 
 PCOD9435146
Probable space group: P B C M
;
_chemical_formula_sum "Si O2"
_cell_formula_units_Z 64
_cell_length_a 23.282899
_cell_length_b 14.666959
_cell_length_c 7.948071
_cell_angle_alpha 90.000000
_cell_angle_beta 90.000000
_cell_angle_gamma 90.000000
_cell_volume 2714.181401
_symmetry_space_group_name_H-M "P B C M"
_symmetry_group_IT_number 57
_symmetry_cell_setting 'orthorhombic'
loop_
_space_group_symop_operation_xyz
x,y,z
-x,-y,1/2+z
x,1/2-y,-z
-x,1/2+y,1/2-z
-x,-y,-z
x,y,1/2-z
-x,1/2+y,z
x,1/2-y,1/2+z
loop_
_atom_site_type_symbol
_atom_site_label
_atom_site_fract_x
_atom_site_fract_y
_atom_site_fract_z
Si Si1 0.446518 0.867818 0.438587
Si Si2 0.207548 0.547295 0.059306
Si Si3 0.085642 0.956601 0.546371
Si Si4 0.201755 0.349050 0.561124
Si Si5 0.558052 0.568352 0.955838
Si Si6 0.029012 0.355411 0.950573
Si Si7 0.681474 0.150965 0.551320
Si Si8 0.327489 0.157630 0.552081
O O1 0.445476 0.828324 0.250000
O O2 0.511019 0.855247 0.510919
O O3 0.384096 0.851800 0.522676
O O4 0.450644 0.976988 0.438776
O O5 0.209650 0.579421 0.250000
O O6 0.147173 0.579072 0.979490
O O7 0.196555 0.438404 0.052190
O O8 0.269343 0.576808 0.989358
O O9 0.087329 0.951539 0.750000
O O10 0.032735 0.893910 0.486097
O O11 0.072207 0.062997 0.504098
O O12 0.180205 0.250000 0.500000
O O13 0.180743 0.133846 0.250000
O O14 0.270937 0.341882 0.559514
O O15 0.553816 0.560130 0.750000
O O16 0.625401 0.583836 0.984535
O O17 0.027988 0.356657 0.750000
O O18 0.039897 0.250000 0.000000
O O19 0.705246 0.250000 0.500000
O O20 0.673355 0.145488 0.750000
O O21 0.358865 0.250000 0.500000
O O22 0.311892 0.154931 0.750000
#
# Coordination Sequence:
#
# PCOD9435146 Si02
#       8
#     8   8   8   8   8   8   8   8
#     4   9  19  35  53  74 101 134 176 228 284 346
#     4  11  23  41  63  87 119 156 198 248 297 345
#     4   9  21  40  61  89 122 158 200 242 285 338
#     4  11  22  37  57  83 115 152 195 241 297 361
#     4   9  18  32  51  75 101 132 173 223 285 352
#     4  10  20  37  63  93 126 162 196 235 284 337
#     4  11  24  41  60  83 114 155 204 253 302 355
#     4  10  19  31  48  71 100 133 171 218 274 337
#
# _framework density 23.579853
#
# number of rings (size 3 to 8) (size 9 to 14) (size 15 to 20)
#    0.000    2.000    0.000    4.125    0.000    7.000 
#    0.000    1.250    0.000    0.000    0.000    0.000 
#    0.000    0.000    0.000    0.000    0.000    0.000 
#
# Total GULP energy -356323.722718 kJ/mol
# GULP energy per Si atom -5567.558167 kJ/mol
# Density = 2.352618 g / cm^3
# Si number density = 23.579853 Si / 1000 Ang^3
#
#
#
# Elastic Constant Matrix: (Units=GPa)
#
#
# Indices 1 2 3 4 5 6 
#
# 1 143.1756 27.6261 9.8986 0.0000 0.0000 0.0000
# 2 27.6261 75.5018 -4.6487 0.0000 0.0000 0.0000
# 3 9.8986 -4.6487 40.6988 0.0000 0.0000 0.0000
# 4 0.0000 0.0000 0.0000 21.8955 0.0000 0.0000
# 5 0.0000 0.0000 0.0000 0.0000 8.9884 0.0000
# 6 0.0000 0.0000 0.0000 0.0000 0.0000 4.8266
#
#
#
# Elastic Compliance Matrix: (Units=1/GPa)
#
#
# Indices 1 2 3 4 5 6 
#
# 1 0.007708 -0.002957 -0.002212 0.000000 0.000000 0.000000
# 2 -0.002957 0.014473 0.002372 0.000000 0.000000 0.000000
# 3 -0.002212 0.002372 0.025380 0.000000 0.000000 0.000000
# 4 0.000000 0.000000 0.000000 0.045672 0.000000 0.000000
# 5 0.000000 0.000000 0.000000 0.000000 0.111254 0.000000
# 6 0.000000 0.000000 0.000000 0.000000 0.000000 0.207187
#
#
# Mechanical properties :
#
#
# Convention : Reuss Voigt Hill
#
# Bulk Modulus (GPa) = 23.82837 36.12535 29.97686
# Shear Modulus (GPa) = 11.59405 22.24210 16.91808
#
# Velocity S-wave (km/s) = 2.21982 3.07460 2.68149
# Velocity P-wave (km/s) = 4.08625 5.28752 4.72522
#
# Compressibility (1/GPa) = 0.04196677
#
# Stress axis : x y z
#
# Youngs Moduli (GPa) = 129.73774 69.09627 39.40138
#
# Poissons Ratio (x) = 0.20428 0.08717
# Poissons Ratio (y) = 0.38357 -0.09347
# Poissons Ratio (z) = 0.28703 -0.16391
#
# Static dielectric constant tensor:
#      x y z
#    x 2.055610 0.000000 0.000000 
#    y 0.000000 1.716100 0.000000 
#    z 0.000000 0.000000 1.863990 
# 
# From -- ./inp_files/9355.got.cif
#   From: 2010.05.17/outbox.cif.g08.bks.cpg/sg57_5_cif.got.tgz:9355.got - 2010.06.03 13:58:18.
