data_PCOD9435054
_publ_section_title
;
Structure prediction by ZEFSAII (Michael W. Deem and Ramdas Pophale) SiO2 
 PCOD9435054
Probable space group: P B C M
;
_chemical_formula_sum "Si O2"
_cell_formula_units_Z 64
_cell_length_a 12.230070
_cell_length_b 16.570387
_cell_length_c 14.520092
_cell_angle_alpha 90.000000
_cell_angle_beta 90.000000
_cell_angle_gamma 90.000000
_cell_volume 2942.598182
_symmetry_space_group_name_H-M "P B C M"
_symmetry_group_IT_number 57
_symmetry_cell_setting 'orthorhombic'
loop_
_space_group_symop_operation_xyz
x,y,z
-x,-y,1/2+z
x,1/2-y,-z
-x,1/2+y,1/2-z
-x,-y,-z
x,y,1/2-z
-x,1/2+y,z
x,1/2-y,1/2+z
loop_
_atom_site_type_symbol
_atom_site_label
_atom_site_fract_x
_atom_site_fract_y
_atom_site_fract_z
Si Si1 0.639385 0.658699 0.355531
Si Si2 0.800678 0.401033 0.521595
Si Si3 0.440690 0.878809 0.537030
Si Si4 0.840675 0.768043 0.107328
Si Si5 0.781928 0.558288 0.853651
Si Si6 0.991111 0.363702 0.853084
Si Si7 0.192174 0.484460 0.858956
Si Si8 0.530665 0.951243 0.143590
O O1 0.602745 0.646925 0.250000
O O2 0.537396 0.675509 0.422023
O O3 0.727398 0.730284 0.356511
O O4 0.708934 0.578136 0.385189
O O5 0.686389 0.356624 0.543142
O O6 0.800562 0.485989 0.577095
O O7 0.903413 0.356967 0.565873
O O8 0.806191 0.433812 0.417557
O O9 0.461857 0.902076 0.430949
O O10 0.458119 0.959015 0.600645
O O11 0.849311 0.862278 0.124612
O O12 0.937736 0.716928 0.149658
O O13 0.840464 0.750000 0.000000
O O14 0.803936 0.531287 0.750000
O O15 0.654227 0.581603 0.858374
O O16 0.944752 0.376654 0.750000
O O17 0.078877 0.435249 0.873152
O O18 0.202905 0.498430 0.750000
O O19 0.492653 0.951871 0.250000
#
# Coordination Sequence:
#
# PCOD9435054 Si02
#       8
#     8   8   8   8   8   8   8   8
#     4  10  19  33  53  80 114 150 187 225 276 342
#     4  11  21  34  55  85 118 149 186 231 282 340
#     4  10  19  30  48  78 112 146 179 213 265 335
#     4  11  21  36  59  83 109 145 190 241 288 332
#     4  10  19  32  53  84 116 143 181 236 287 323
#     4  10  21  37  55  79 113 151 189 230 285 350
#     4   9  18  32  51  75 106 145 188 237 287 330
#     4   9  17  29  47  75 112 145 175 220 274 322
#
# _framework density 21.749486999999998
#
# number of rings (size 3 to 8) (size 9 to 14) (size 15 to 20)
#    0.000    2.000    0.000    7.500    0.000    3.000 
#    0.000    0.000    0.000    3.750    0.000    5.250 
#    0.000    8.000    0.000    0.000    0.000    0.000 
#
# Total GULP energy -357643.372498 kJ/mol
# GULP energy per Si atom -5588.177695 kJ/mol
# Density = 2.169998 g / cm^3
# Si number density = 21.749487 Si / 1000 Ang^3
#
#
#
# Elastic Constant Matrix: (Units=GPa)
#
#
# Indices 1 2 3 4 5 6 
#
# 1 80.3597 21.2801 35.1283 0.0000 0.0000 0.0000
# 2 21.2801 33.5080 3.8446 0.0000 0.0000 0.0000
# 3 35.1283 3.8446 121.7478 0.0000 0.0000 0.0000
# 4 0.0000 0.0000 0.0000 22.4472 0.0000 0.0000
# 5 0.0000 0.0000 0.0000 0.0000 34.0852 0.0000
# 6 0.0000 0.0000 0.0000 0.0000 0.0000 6.2504
#
#
#
# Elastic Compliance Matrix: (Units=1/GPa)
#
#
# Indices 1 2 3 4 5 6 
#
# 1 0.017230 -0.010410 -0.004643 0.000000 0.000000 0.000000
# 2 -0.010410 0.036241 0.001859 0.000000 0.000000 0.000000
# 3 -0.004643 0.001859 0.009495 0.000000 0.000000 0.000000
# 4 0.000000 0.000000 0.000000 0.044549 0.000000 0.000000
# 5 0.000000 0.000000 0.000000 0.000000 0.029338 0.000000
# 6 0.000000 0.000000 0.000000 0.000000 0.000000 0.159990
#
#
# Mechanical properties :
#
#
# Convention : Reuss Voigt Hill
#
# Bulk Modulus (GPa) = 27.33791 39.56905 33.45348
# Shear Modulus (GPa) = 14.90656 24.24738 19.57697
#
# Velocity S-wave (km/s) = 2.62081 3.34256 3.00344
# Velocity P-wave (km/s) = 4.66422 5.75582 5.23853
#
# Compressibility (1/GPa) = 0.03657924
#
# Stress axis : x y z
#
# Youngs Moduli (GPa) = 58.03770 27.59288 105.32322
#
# Poissons Ratio (x) = 0.28723 0.48899
# Poissons Ratio (y) = 0.60416 -0.19581
# Poissons Ratio (z) = 0.26945 -0.05130
#
# Static dielectric constant tensor:
#      x y z
#    x 1.825940 0.000000 0.000000 
#    y 0.000000 1.795690 0.000000 
#    z 0.000000 0.000000 1.815830 
# 
# From -- ./inp_files/18004.got.cif
#   From: 2010.05.17/outbox.cif.g08.bks.cpg/sg57_10_cif.got.tgz:18004.got - 2010.06.03 13:58:18.
