data_PCOD9435508
_publ_section_title
;
Structure prediction by ZEFSAII (Michael W. Deem and Ramdas Pophale) SiO2 
 PCOD9435508
Probable space group: P B C M
;
_chemical_formula_sum "Si O2"
_cell_formula_units_Z 40
_cell_length_a 16.737144
_cell_length_b 7.259908
_cell_length_c 12.905272
_cell_angle_alpha 90.000000
_cell_angle_beta 90.000000
_cell_angle_gamma 90.000000
_cell_volume 1568.121222
_symmetry_space_group_name_H-M "P B C M"
_symmetry_group_IT_number 57
_symmetry_cell_setting 'orthorhombic'
loop_
_space_group_symop_operation_xyz
x,y,z
-x,-y,1/2+z
x,1/2-y,-z
-x,1/2+y,1/2-z
-x,-y,-z
x,y,1/2-z
-x,1/2+y,z
x,1/2-y,1/2+z
loop_
_atom_site_type_symbol
_atom_site_label
_atom_site_fract_x
_atom_site_fract_y
_atom_site_fract_z
Si Si1 0.013501 0.818330 0.621583
Si Si2 0.607310 0.936607 0.635401
Si Si3 0.566471 0.368776 0.866532
Si Si4 0.865345 0.847166 0.133705
Si Si5 0.722678 0.031361 0.484663
O O1 0.036439 0.750000 0.500000
O O2 0.027626 0.757493 0.750000
O O3 0.916618 0.837061 0.613862
O O4 0.059889 0.011426 0.625566
O O5 0.611036 0.859505 0.750000
O O6 0.594496 0.157924 0.636908
O O7 0.693835 0.921141 0.585386
O O8 0.523029 0.870307 0.589517
O O9 0.558718 0.441006 0.750000
O O10 0.638261 0.473560 0.922037
O O11 0.834071 0.842768 0.250000
O O12 0.796122 0.931188 0.065789
O O13 0.740334 0.250000 0.500000
#
# Coordination Sequence:
#
# PCOD9435508 Si02
#       5
#     8   8   8   8   8
#     4  10  21  39  62  87 115 150 193 242 299 361
#     4   9  18  32  51  76 106 144 185 227 276 333
#     4   9  17  31  51  74 103 139 181 225 274 331
#     4  10  21  38  61  86 113 148 193 243 296 352
#     4  10  19  32  52  79 108 143 186 231 278 339
#
# _framework density 25.508230000000001
#
# number of rings (size 3 to 8) (size 9 to 14) (size 15 to 20)
#    0.000    2.400    0.000    2.400    0.000    0.800 
#    0.000    4.000    0.000    4.800    0.000    0.000 
#    0.000    0.000    0.000    0.000    0.000    0.000 
#
# Total GULP energy -222762.119843 kJ/mol
# GULP energy per Si atom -5569.052996 kJ/mol
# Density = 2.545017 g / cm^3
# Si number density = 25.508230 Si / 1000 Ang^3
#
#
#
# Elastic Constant Matrix: (Units=GPa)
#
#
# Indices 1 2 3 4 5 6 
#
# 1 176.9205 44.3200 57.0046 0.0000 0.0000 0.0000
# 2 44.3200 58.7664 43.3637 0.0000 0.0000 0.0000
# 3 57.0046 43.3637 145.9058 0.0000 0.0000 0.0000
# 4 0.0000 0.0000 0.0000 31.8879 0.0000 0.0000
# 5 0.0000 0.0000 0.0000 0.0000 36.4117 0.0000
# 6 0.0000 0.0000 0.0000 0.0000 0.0000 35.0810
#
#
#
# Elastic Compliance Matrix: (Units=1/GPa)
#
#
# Indices 1 2 3 4 5 6 
#
# 1 0.007230 -0.004315 -0.001542 0.000000 0.000000 0.000000
# 2 -0.004315 0.024371 -0.005558 0.000000 0.000000 0.000000
# 3 -0.001542 -0.005558 0.009108 0.000000 0.000000 0.000000
# 4 0.000000 0.000000 0.000000 0.031360 0.000000 0.000000
# 5 0.000000 0.000000 0.000000 0.000000 0.027464 0.000000
# 6 0.000000 0.000000 0.000000 0.000000 0.000000 0.028505
#
#
# Mechanical properties :
#
#
# Convention : Reuss Voigt Hill
#
# Bulk Modulus (GPa) = 55.92725 74.55216 65.23970
# Shear Modulus (GPa) = 31.88208 36.46974 34.17591
#
# Velocity S-wave (km/s) = 3.53919 3.78527 3.66430
# Velocity P-wave (km/s) = 6.21884 6.95662 6.59805
#
# Compressibility (1/GPa) = 0.01788037
#
# Stress axis : x y z
#
# Youngs Moduli (GPa) = 138.31126 41.03173 109.79236
#
# Poissons Ratio (x) = 0.17703 0.16935
# Poissons Ratio (y) = 0.59675 0.61018
# Poissons Ratio (z) = 0.21334 0.22804
#
# Static dielectric constant tensor:
#      x y z
#    x 2.031070 0.000000 0.000000 
#    y 0.000000 2.332730 0.000000 
#    z 0.000000 0.000000 2.295780 
# 
# From -- ./inp_files/18225.got.cif
#   From: 2010.05.17/outbox.cif.g08.bks.cpg/sg57_10_cif.got.tgz:18225.got - 2010.06.03 13:58:18.
