data_PCOD9435061
_publ_section_title
;
Structure prediction by ZEFSAII (Michael W. Deem and Ramdas Pophale) SiO2 
 PCOD9435061
Probable space group: P B C M
;
_chemical_formula_sum "Si O2"
_cell_formula_units_Z 64
_cell_length_a 17.932773
_cell_length_b 20.886585
_cell_length_c 7.635752
_cell_angle_alpha 90.000000
_cell_angle_beta 90.000000
_cell_angle_gamma 90.000000
_cell_volume 2860.004414
_symmetry_space_group_name_H-M "P B C M"
_symmetry_group_IT_number 57
_symmetry_cell_setting 'orthorhombic'
loop_
_space_group_symop_operation_xyz
x,y,z
-x,-y,1/2+z
x,1/2-y,-z
-x,1/2+y,1/2-z
-x,-y,-z
x,y,1/2-z
-x,1/2+y,z
x,1/2-y,1/2+z
loop_
_atom_site_type_symbol
_atom_site_label
_atom_site_fract_x
_atom_site_fract_y
_atom_site_fract_z
Si Si1 0.573205 0.959719 0.960218
Si Si2 0.386864 0.176768 0.039717
Si Si3 0.935220 0.885010 0.044245
Si Si4 0.716959 0.460913 0.462236
Si Si5 0.755726 0.319089 0.460346
Si Si6 0.218237 0.323450 0.957656
Si Si7 0.114813 0.982535 0.957843
Si Si8 0.081748 0.659352 0.552463
O O1 0.580568 0.956930 0.750000
O O2 0.568621 0.885834 0.022861
O O3 0.646680 0.997679 0.025068
O O4 0.500000 0.000000 0.000000
O O5 0.384914 0.174958 0.250000
O O6 0.301932 0.165190 0.975141
O O7 0.409842 0.250000 0.000000
O O8 0.952757 0.889499 0.250000
O O9 0.999226 0.838062 0.969606
O O10 0.930409 0.956734 0.971241
O O11 0.851286 0.860958 0.031390
O O12 0.715463 0.461147 0.250000
O O13 0.718081 0.385779 0.519883
O O14 0.796125 0.490732 0.517320
O O15 0.720321 0.250000 0.500000
O O16 0.761061 0.324513 0.250000
O O17 0.841045 0.317700 0.532771
O O18 0.219228 0.334814 0.750000
O O19 0.203067 0.250000 0.000000
O O20 0.101451 0.975098 0.750000
O O21 0.094500 0.917226 0.053639
O O22 0.079303 0.686310 0.750000
#
# Coordination Sequence:
#
# PCOD9435061 Si02
#       8
#     8   8   8   8   8   8   8   8
#     4  10  21  38  60  87 117 146 178 216 263 321
#     4   9  19  36  58  83 111 146 185 221 261 316
#     4  10  20  32  46  69 101 134 172 220 271 324
#     4   9  19  37  57  76 104 142 178 214 266 330
#     4   9  18  33  53  73  95 132 179 224 269 317
#     4  10  20  34  52  73  99 134 175 217 260 309
#     4  10  19  30  49  76 100 126 170 224 268 312
#     4   9  19  34  48  65  97 138 175 216 271 329
#
# _framework density 22.377589
#
# number of rings (size 3 to 8) (size 9 to 14) (size 15 to 20)
#    0.000    2.500    0.000    2.625    0.000    6.500 
#    0.000    1.875    0.000    3.000    0.000    0.000 
#    0.000    0.000    0.000    0.000    0.000    0.000 
#
# Total GULP energy -356962.864989 kJ/mol
# GULP energy per Si atom -5577.544765 kJ/mol
# Density = 2.232666 g / cm^3
# Si number density = 22.377589 Si / 1000 Ang^3
#
#
#
# Elastic Constant Matrix: (Units=GPa)
#
#
# Indices 1 2 3 4 5 6 
#
# 1 70.0227 67.2388 7.0468 0.0000 0.0000 0.0000
# 2 67.2388 137.2013 6.4371 0.0000 0.0000 0.0000
# 3 7.0468 6.4371 56.8091 0.0000 0.0000 0.0000
# 4 0.0000 0.0000 0.0000 19.2801 0.0000 0.0000
# 5 0.0000 0.0000 0.0000 0.0000 19.1818 0.0000
# 6 0.0000 0.0000 0.0000 0.0000 0.0000 24.5170
#
#
#
# Elastic Compliance Matrix: (Units=1/GPa)
#
#
# Indices 1 2 3 4 5 6 
#
# 1 0.027172 -0.013228 -0.001872 0.000000 0.000000 0.000000
# 2 -0.013228 0.013768 0.000081 0.000000 0.000000 0.000000
# 3 -0.001872 0.000081 0.017826 0.000000 0.000000 0.000000
# 4 0.000000 0.000000 0.000000 0.051867 0.000000 0.000000
# 5 0.000000 0.000000 0.000000 0.000000 0.052133 0.000000
# 6 0.000000 0.000000 0.000000 0.000000 0.000000 0.040788
#
#
# Mechanical properties :
#
#
# Convention : Reuss Voigt Hill
#
# Bulk Modulus (GPa) = 34.81030 47.27538 41.04284
# Shear Modulus (GPa) = 20.56199 24.81648 22.68923
#
# Velocity S-wave (km/s) = 3.03457 3.33376 3.18768
# Velocity P-wave (km/s) = 5.27899 5.99922 5.65060
#
# Compressibility (1/GPa) = 0.02872713
#
# Stress axis : x y z
#
# Youngs Moduli (GPa) = 36.80262 72.63380 56.09844
#
# Poissons Ratio (x) = 0.96083 0.10499
# Poissons Ratio (y) = 0.48684 -0.00454
# Poissons Ratio (z) = 0.06888 -0.00587
#
# Static dielectric constant tensor:
#      x y z
#    x 1.857270 0.000000 0.000000 
#    y 0.000000 1.869490 0.000000 
#    z 0.000000 0.000000 2.005610 
# 
# From -- ./inp_files/7240.got.cif
#   From: 2010.05.17/outbox.cif.g08.bks.cpg/sg57_4_cif.got.tgz:7240.got - 2010.06.03 13:58:18.
