data_PCOD9435111
_publ_section_title
;
Structure prediction by ZEFSAII (Michael W. Deem and Ramdas Pophale) SiO2 
 PCOD9435111
Probable space group: P B C M
;
_chemical_formula_sum "Si O2"
_cell_formula_units_Z 48
_cell_length_a 24.480187
_cell_length_b 14.032651
_cell_length_c 8.802504
_cell_angle_alpha 90.000000
_cell_angle_beta 90.000000
_cell_angle_gamma 90.000000
_cell_volume 3023.853080
_symmetry_space_group_name_H-M "P B C M"
_symmetry_group_IT_number 57
_symmetry_cell_setting 'orthorhombic'
loop_
_space_group_symop_operation_xyz
x,y,z
-x,-y,1/2+z
x,1/2-y,-z
-x,1/2+y,1/2-z
-x,-y,-z
x,y,1/2-z
-x,1/2+y,z
x,1/2-y,1/2+z
loop_
_atom_site_type_symbol
_atom_site_label
_atom_site_fract_x
_atom_site_fract_y
_atom_site_fract_z
Si Si1 0.416812 0.031451 0.932687
Si Si2 0.080380 0.046488 0.067348
Si Si3 0.308474 0.144482 0.567251
Si Si4 0.023590 0.648151 0.568548
Si Si5 0.474378 0.645983 0.931448
Si Si6 0.192752 0.355443 0.932609
O O1 0.418381 0.020673 0.750000
O O2 0.358811 0.076567 0.974846
O O3 0.430979 0.930899 0.008071
O O4 0.466004 0.103596 0.975447
O O5 0.074437 0.055010 0.250000
O O6 0.141427 0.078207 0.027708
O O7 0.064232 0.938401 0.025186
O O8 0.035778 0.115235 0.991190
O O9 0.318099 0.250000 0.500000
O O10 0.305513 0.150878 0.750000
O O11 0.250365 0.111246 0.501328
O O12 0.038392 0.750000 0.500000
O O13 0.022215 0.654896 0.750000
O O14 0.472077 0.849291 0.250000
O O15 0.466649 0.750000 0.000000
O O16 0.197041 0.349067 0.750000
O O17 0.182789 0.250000 0.000000
#
# Coordination Sequence:
#
# PCOD9435111 Si02
#       6
#     8   8   8   8   8   8
#     4   9  19  33  48  69  96 125 157 192 230 275
#     4   9  19  33  48  68  94 124 156 191 229 272
#     4  10  19  31  48  70  96 124 155 191 231 275
#     4  10  19  31  48  70  95 122 153 189 231 277
#     4  10  19  31  49  71  96 125 155 191 233 277
#     4  10  19  31  47  68  94 122 154 190 230 275
#
# _framework density 15.873787999999999
#
# number of rings (size 3 to 8) (size 9 to 14) (size 15 to 20)
#    0.000    2.333    0.000    4.000    0.000    5.333 
#    0.000    0.000    0.000    1.000    0.000    4.667 
#    0.000    0.000    0.000    0.000    0.000    0.000 
#
# Total GULP energy -267780.959864 kJ/mol
# GULP energy per Si atom -5578.769997 kJ/mol
# Density = 1.583766 g / cm^3
# Si number density = 15.873788 Si / 1000 Ang^3
#
#
#
# Elastic Constant Matrix: (Units=GPa)
#
#
# Indices 1 2 3 4 5 6 
#
# 1 146.7735 82.5294 48.4427 0.0000 0.0000 0.0000
# 2 82.5294 118.8699 42.8896 0.0000 0.0000 0.0000
# 3 48.4427 42.8896 41.3691 0.0000 0.0000 0.0000
# 4 0.0000 0.0000 0.0000 27.3401 0.0000 0.0000
# 5 0.0000 0.0000 0.0000 0.0000 22.1627 0.0000
# 6 0.0000 0.0000 0.0000 0.0000 0.0000 21.4143
#
#
#
# Elastic Compliance Matrix: (Units=1/GPa)
#
#
# Indices 1 2 3 4 5 6 
#
# 1 0.013154 -0.005712 -0.009482 0.000000 0.000000 0.000000
# 2 -0.005712 0.015920 -0.009817 0.000000 0.000000 0.000000
# 3 -0.009482 -0.009817 0.045454 0.000000 0.000000 0.000000
# 4 0.000000 0.000000 0.000000 0.036576 0.000000 0.000000
# 5 0.000000 0.000000 0.000000 0.000000 0.045121 0.000000
# 6 0.000000 0.000000 0.000000 0.000000 0.000000 0.046698
#
#
# Mechanical properties :
#
#
# Convention : Reuss Voigt Hill
#
# Bulk Modulus (GPa) = 40.80479 72.74844 56.77662
# Shear Modulus (GPa) = 19.14874 23.06014 21.10444
#
# Velocity S-wave (km/s) = 3.47697 3.81559 3.65021
# Velocity P-wave (km/s) = 6.47153 8.08334 7.32192
#
# Compressibility (1/GPa) = 0.02450693
#
# Stress axis : x y z
#
# Youngs Moduli (GPa) = 76.02024 62.81346 22.00034
#
# Poissons Ratio (x) = 0.35877 0.20861
# Poissons Ratio (y) = 0.43420 0.21598
# Poissons Ratio (z) = 0.72083 0.61664
#
# Static dielectric constant tensor:
#      x y z
#    x 1.524160 0.000000 0.000000 
#    y 0.000000 1.509510 0.000000 
#    z 0.000000 0.000000 1.532650 
# 
# From -- ./inp_files/9128.got.cif
#   From: 2010.05.17/outbox.cif.g08.bks.cpg/sg57_5_cif.got.tgz:9128.got - 2010.06.03 13:58:18.
