data_PCOD9435685
_publ_section_title
;
Structure prediction by ZEFSAII (Michael W. Deem and Ramdas Pophale) SiO2 
 PCOD9435685
Probable space group: P B C M
;
_chemical_formula_sum "Si O2"
_cell_formula_units_Z 48
_cell_length_a 18.860675
_cell_length_b 16.915241
_cell_length_c 8.900978
_cell_angle_alpha 90.000000
_cell_angle_beta 90.000000
_cell_angle_gamma 90.000000
_cell_volume 2839.704495
_symmetry_space_group_name_H-M "P B C M"
_symmetry_group_IT_number 57
_symmetry_cell_setting 'orthorhombic'
loop_
_space_group_symop_operation_xyz
x,y,z
-x,-y,1/2+z
x,1/2-y,-z
-x,1/2+y,1/2-z
-x,-y,-z
x,y,1/2-z
-x,1/2+y,z
x,1/2-y,1/2+z
loop_
_atom_site_type_symbol
_atom_site_label
_atom_site_fract_x
_atom_site_fract_y
_atom_site_fract_z
Si Si1 0.714105 0.565967 0.428321
Si Si2 0.077349 0.006704 0.070102
Si Si3 0.424436 0.518020 0.928656
Si Si4 0.659844 0.165937 0.430770
Si Si5 0.159391 0.332629 0.928384
Si Si6 0.202631 0.577479 0.072691
O O1 0.727158 0.547814 0.250000
O O2 0.630753 0.554879 0.452842
O O3 0.758124 0.645062 0.460499
O O4 0.751300 0.499537 0.528944
O O5 0.074092 0.004864 0.250000
O O6 0.113267 0.090821 0.024642
O O7 0.129307 0.936846 0.013422
O O8 0.000000 0.000000 0.000000
O O9 0.430888 0.529795 0.750000
O O10 0.500000 0.500000 0.000000
O O11 0.387779 0.595442 0.000949
O O12 0.639786 0.250000 0.500000
O O13 0.653356 0.165542 0.250000
O O14 0.742692 0.147175 0.468494
O O15 0.151751 0.325701 0.750000
O O16 0.138851 0.250000 0.000000
O O17 0.189033 0.580442 0.250000
#
# Coordination Sequence:
#
# PCOD9435685 Si02
#       6
#     8   8   8   8   8   8
#     4   8  16  31  49  69  95 128 164 202 242 288
#     4  10  20  34  52  74 101 132 167 204 246 298
#     4  10  19  33  53  75 103 137 172 211 256 306
#     4  10  20  34  53  77 103 132 170 214 259 307
#     4   9  18  32  50  73  98 125 160 202 246 291
#     4   9  17  30  50  74  97 124 162 203 243 294
#
# _framework density 16.903167
#
# number of rings (size 3 to 8) (size 9 to 14) (size 15 to 20)
#    0.000    2.667    0.000    3.000    0.000    6.000 
#    0.000    1.667    0.000    2.000    0.000    0.000 
#    0.000    0.000    0.000    0.000    0.000    0.000 
#
# Total GULP energy -267221.956255 kJ/mol
# GULP energy per Si atom -5567.124089 kJ/mol
# Density = 1.686469 g / cm^3
# Si number density = 16.903167 Si / 1000 Ang^3
#
#
#
# Elastic Constant Matrix: (Units=GPa)
#
#
# Indices 1 2 3 4 5 6 
#
# 1 143.6517 43.9986 52.6777 0.0000 0.0000 0.0000
# 2 43.9986 76.9872 29.3491 0.0000 0.0000 0.0000
# 3 52.6777 29.3491 50.3025 0.0000 0.0000 0.0000
# 4 0.0000 0.0000 0.0000 24.4879 0.0000 0.0000
# 5 0.0000 0.0000 0.0000 0.0000 31.0881 0.0000
# 6 0.0000 0.0000 0.0000 0.0000 0.0000 15.3347
#
#
#
# Elastic Compliance Matrix: (Units=1/GPa)
#
#
# Indices 1 2 3 4 5 6 
#
# 1 0.011689 -0.002590 -0.010730 0.000000 0.000000 0.000000
# 2 -0.002590 0.017279 -0.007369 0.000000 0.000000 0.000000
# 3 -0.010730 -0.007369 0.035416 0.000000 0.000000 0.000000
# 4 0.000000 0.000000 0.000000 0.040836 0.000000 0.000000
# 5 0.000000 0.000000 0.000000 0.000000 0.032167 0.000000
# 6 0.000000 0.000000 0.000000 0.000000 0.000000 0.065211
#
#
# Mechanical properties :
#
#
# Convention : Reuss Voigt Hill
#
# Bulk Modulus (GPa) = 43.46750 58.11026 50.78888
# Shear Modulus (GPa) = 19.86925 23.84322 21.85624
#
# Velocity S-wave (km/s) = 3.43224 3.75984 3.59977
# Velocity P-wave (km/s) = 6.44038 7.30079 6.88404
#
# Compressibility (1/GPa) = 0.02300569
#
# Stress axis : x y z
#
# Youngs Moduli (GPa) = 85.54787 57.87526 28.23582
#
# Poissons Ratio (x) = 0.14989 0.30298
# Poissons Ratio (y) = 0.22157 0.20807
# Poissons Ratio (z) = 0.91794 0.42648
#
# Static dielectric constant tensor:
#      x y z
#    x 1.591080 0.000000 0.000000 
#    y 0.000000 1.573340 0.000000 
#    z 0.000000 0.000000 1.595050 
# 
# From -- ./inp_files/6525.got.cif
#   From: 2010.05.17/outbox.cif.g08.bks.cpg/sg57_4_cif.got.tgz:6525.got - 2010.06.03 13:58:18.
