data_PCOD9435089
_publ_section_title
;
Structure prediction by ZEFSAII (Michael W. Deem and Ramdas Pophale) SiO2 
 PCOD9435089
Probable space group: P B C M
;
_chemical_formula_sum "Si O2"
_cell_formula_units_Z 64
_cell_length_a 21.635279
_cell_length_b 20.550139
_cell_length_c 8.803826
_cell_angle_alpha 90.000000
_cell_angle_beta 90.000000
_cell_angle_gamma 90.000000
_cell_volume 3914.251389
_symmetry_space_group_name_H-M "P B C M"
_symmetry_group_IT_number 57
_symmetry_cell_setting 'orthorhombic'
loop_
_space_group_symop_operation_xyz
x,y,z
-x,-y,1/2+z
x,1/2-y,-z
-x,1/2+y,1/2-z
-x,-y,-z
x,y,1/2-z
-x,1/2+y,z
x,1/2-y,1/2+z
loop_
_atom_site_type_symbol
_atom_site_label
_atom_site_fract_x
_atom_site_fract_y
_atom_site_fract_z
Si Si1 0.690319 0.185610 0.921020
Si Si2 0.823868 0.453963 0.934276
Si Si3 0.941957 0.539388 0.933760
Si Si4 0.873400 0.320039 0.431960
Si Si5 0.018980 0.319104 0.432089
Si Si6 0.542052 0.185013 0.920655
Si Si7 0.448618 0.953390 0.931812
Si Si8 0.690144 0.451880 0.569590
O O1 0.714578 0.175582 0.750000
O O2 0.616221 0.193809 0.907516
O O3 0.715277 0.250000 0.000000
O O4 0.698025 0.123862 0.027871
O O5 0.823716 0.448348 0.750000
O O6 0.879061 0.502597 0.978183
O O7 0.756012 0.480051 0.983267
O O8 0.838088 0.382625 0.002236
O O9 0.946269 0.538033 0.750000
O O10 0.946266 0.615082 0.981497
O O11 0.000000 0.500000 0.000000
O O12 0.855060 0.250000 0.500000
O O13 0.867856 0.318579 0.250000
O O14 0.946340 0.328364 0.471198
O O15 0.039556 0.250000 0.500000
O O16 0.023149 0.314540 0.250000
O O17 0.517505 0.176711 0.750000
O O18 0.517250 0.250000 0.000000
O O19 0.535047 0.119846 0.017488
O O20 0.448565 0.957363 0.750000
O O21 0.378488 0.969725 0.989183
O O22 0.500000 0.000000 0.000000
O O23 0.687241 0.460769 0.750000
#
# Coordination Sequence:
#
# PCOD9435089 Si02
#       8
#     8   8   8   8   8   8   8   8
#     4   9  16  26  42  62  86 120 157 192 226 266
#     4  10  20  33  49  68  93 126 161 198 242 286
#     4  10  19  32  50  72  96 122 156 196 237 281
#     4  10  19  31  46  66  95 129 166 200 234 275
#     4   9  18  31  47  69  94 121 155 195 235 277
#     4   9  16  27  44  68  96 124 156 191 232 278
#     4  10  19  32  50  71  96 125 160 201 243 290
#     4   9  19  33  46  64  91 122 157 195 236 286
#
# _framework density 16.350508000000001
#
# number of rings (size 3 to 8) (size 9 to 14) (size 15 to 20)
#    0.000    2.500    1.250    1.500    0.000    5.500 
#    0.000    0.000    0.000    0.000    0.000    0.875 
#    0.000    2.000    0.000    0.000    0.000    0.000 
#
# Total GULP energy -356540.119617 kJ/mol
# GULP energy per Si atom -5570.939369 kJ/mol
# Density = 1.631329 g / cm^3
# Si number density = 16.350508 Si / 1000 Ang^3
#
#
#
# Elastic Constant Matrix: (Units=GPa)
#
#
# Indices 1 2 3 4 5 6 
#
# 1 111.8484 66.5910 21.3844 0.0000 0.0000 0.0000
# 2 66.5910 104.5857 23.4090 0.0000 0.0000 0.0000
# 3 21.3844 23.4090 23.8591 0.0000 0.0000 0.0000
# 4 0.0000 0.0000 0.0000 24.2301 0.0000 0.0000
# 5 0.0000 0.0000 0.0000 0.0000 9.3138 0.0000
# 6 0.0000 0.0000 0.0000 0.0000 0.0000 -4.8394
#
#
#
# Elastic Compliance Matrix: (Units=1/GPa)
#
#
# Indices 1 2 3 4 5 6 
#
# 1 0.014882 -0.008317 -0.005179 0.000000 0.000000 0.000000
# 2 -0.008317 0.016900 -0.009127 0.000000 0.000000 0.000000
# 3 -0.005179 -0.009127 0.055509 0.000000 0.000000 0.000000
# 4 0.000000 0.000000 0.000000 0.041271 0.000000 0.000000
# 5 0.000000 0.000000 0.000000 0.000000 0.107367 0.000000
# 6 0.000000 0.000000 0.000000 0.000000 0.000000 -0.206636
#
#
# Mechanical properties :
#
#
# Convention : Reuss Voigt Hill
#
# Bulk Modulus (GPa) = 23.78329 51.45134 37.61732
# Shear Modulus (GPa) = 56.46281 14.33481 35.39881
#
# Velocity S-wave (km/s) = 5.88283 2.96416 4.65800
# Velocity P-wave (km/s) = 7.79238 6.57655 7.21014
#
# Compressibility (1/GPa) = 0.04204632
#
# Stress axis : x y z
#
# Youngs Moduli (GPa) = 67.19419 59.17297 18.01498
#
# Poissons Ratio (x) = 0.49211 0.09330
# Poissons Ratio (y) = 0.55882 0.16442
# Poissons Ratio (z) = 0.34800 0.54007
#
# Static dielectric constant tensor:
#      x y z
#    x 1.586670 0.000000 0.000000 
#    y 0.000000 1.528860 0.000000 
#    z 0.000000 0.000000 1.562940 
# 
# From -- ./inp_files/9553.got.cif
#   From: 2010.05.17/outbox.cif.g08.bks.cpg/sg57_5_cif.got.tgz:9553.got - 2010.06.03 13:58:18.
