data_PCOD9435864
_publ_section_title
;
Structure prediction by ZEFSAII (Michael W. Deem and Ramdas Pophale) SiO2 
 PCOD9435864
Probable space group: P B C M
;
_chemical_formula_sum "Si O2"
_cell_formula_units_Z 64
_cell_length_a 27.101612
_cell_length_b 14.475929
_cell_length_c 8.803002
_cell_angle_alpha 90.000000
_cell_angle_beta 90.000000
_cell_angle_gamma 90.000000
_cell_volume 3453.602645
_symmetry_space_group_name_H-M "P B C M"
_symmetry_group_IT_number 57
_symmetry_cell_setting 'orthorhombic'
loop_
_space_group_symop_operation_xyz
x,y,z
-x,-y,1/2+z
x,1/2-y,-z
-x,1/2+y,1/2-z
-x,-y,-z
x,y,1/2-z
-x,1/2+y,z
x,1/2-y,1/2+z
loop_
_atom_site_type_symbol
_atom_site_label
_atom_site_fract_x
_atom_site_fract_y
_atom_site_fract_z
Si Si1 0.381266 0.656622 0.068046
Si Si2 0.979655 0.148477 0.931945
Si Si3 0.553706 0.982405 0.066672
Si Si4 0.733784 0.154649 0.432717
Si Si5 0.928396 0.538257 0.432793
Si Si6 0.167052 0.151107 0.068384
Si Si7 0.259242 0.448857 0.066480
Si Si8 0.361002 0.351159 0.433380
O O1 0.381740 0.661080 0.250000
O O2 0.412256 0.568725 0.021355
O O3 0.324077 0.650185 0.021804
O O4 0.402639 0.750000 0.000000
O O5 0.981015 0.156057 0.750000
O O6 0.940121 0.068158 0.974244
O O7 0.971017 0.250000 0.000000
O O8 0.031064 0.104873 0.991033
O O9 0.550083 0.980108 0.250000
O O10 0.586227 0.893884 0.018551
O O11 0.500000 0.000000 0.000000
O O12 0.754665 0.250000 0.500000
O O13 0.736483 0.160152 0.250000
O O14 0.753403 0.054221 0.480591
O O15 0.934280 0.545543 0.250000
O O16 0.874468 0.575590 0.472849
O O17 0.169444 0.158001 0.250000
O O18 0.152904 0.250000 0.000000
O O19 0.219527 0.119839 0.003352
O O20 0.256849 0.445616 0.250000
O O21 0.314800 0.417309 0.024380
O O22 0.353312 0.250000 0.500000
O O23 0.361053 0.346968 0.250000
#
# Coordination Sequence:
#
# PCOD9435864 Si02
#       8
#     8   8   8   8   8   8   8   8
#     4   9  17  32  53  75  99 128 161 202 251 302
#     4  10  19  33  56  84 113 148 191 236 281 331
#     4  10  21  37  54  74 104 137 168 208 259 313
#     4   9  17  32  55  80 104 133 168 211 261 311
#     4   9  20  37  55  79 113 151 190 234 280 328
#     4  11  23  38  56  81 113 147 186 231 278 327
#     4  10  20  37  59  81 109 144 182 224 271 321
#     4  10  21  38  57  77 105 139 175 217 263 315
#
# _framework density 18.531372999999999
#
# number of rings (size 3 to 8) (size 9 to 14) (size 15 to 20)
#    0.000    2.250    1.250    1.500    0.000    6.000 
#    0.000    3.125    0.000    3.000    0.000    0.000 
#    0.000    0.000    0.000    0.000    0.000    0.000 
#
# Total GULP energy -356899.682651 kJ/mol
# GULP energy per Si atom -5576.557541 kJ/mol
# Density = 1.848920 g / cm^3
# Si number density = 18.531373 Si / 1000 Ang^3
#
#
#
# Elastic Constant Matrix: (Units=GPa)
#
#
# Indices 1 2 3 4 5 6 
#
# 1 74.1135 29.3768 19.8143 0.0000 0.0000 0.0000
# 2 29.3768 132.5709 28.1676 0.0000 0.0000 0.0000
# 3 19.8143 28.1676 12.9723 0.0000 0.0000 0.0000
# 4 0.0000 0.0000 0.0000 32.2073 0.0000 0.0000
# 5 0.0000 0.0000 0.0000 0.0000 12.2711 0.0000
# 6 0.0000 0.0000 0.0000 0.0000 0.0000 18.1095
#
#
#
# Elastic Compliance Matrix: (Units=1/GPa)
#
#
# Indices 1 2 3 4 5 6 
#
# 1 0.024248 0.004634 -0.047100 0.000000 0.000000 0.000000
# 2 0.004634 0.014890 -0.039409 0.000000 0.000000 0.000000
# 3 -0.047100 -0.039409 0.234603 0.000000 0.000000 0.000000
# 4 0.000000 0.000000 0.000000 0.031049 0.000000 0.000000
# 5 0.000000 0.000000 0.000000 0.000000 0.081492 0.000000
# 6 0.000000 0.000000 0.000000 0.000000 0.000000 0.055220
#
#
# Mechanical properties :
#
#
# Convention : Reuss Voigt Hill
#
# Bulk Modulus (GPa) = 9.09176 41.59714 25.34445
# Shear Modulus (GPa) = 7.78918 22.00411 14.89664
#
# Velocity S-wave (km/s) = 2.05240 3.44960 2.83832
# Velocity P-wave (km/s) = 3.24550 6.19370 4.94445
#
# Compressibility (1/GPa) = 0.10998976
#
# Stress axis : x y z
#
# Youngs Moduli (GPa) = 41.24005 67.16089 4.26252
#
# Poissons Ratio (x) = -0.31124 0.20077
# Poissons Ratio (y) = -0.19112 0.16798
# Poissons Ratio (z) = 1.94243 2.64677
#
# Static dielectric constant tensor:
#      x y z
#    x 1.627950 0.000000 0.000000 
#    y 0.000000 1.620540 0.000000 
#    z 0.000000 0.000000 1.623670 
# 
# From -- ./inp_files/9474.got.cif
#   From: 2010.05.17/outbox.cif.g08.bks.cpg/sg57_5_cif.got.tgz:9474.got - 2010.06.03 13:58:18.
