data_PCOD9435082
_publ_section_title
;
Structure prediction by ZEFSAII (Michael W. Deem and Ramdas Pophale) SiO2 
 PCOD9435082
Probable space group: P B C M
;
_chemical_formula_sum "Si O2"
_cell_formula_units_Z 48
_cell_length_a 22.015899
_cell_length_b 5.153059
_cell_length_c 26.170040
_cell_angle_alpha 90.000000
_cell_angle_beta 90.000000
_cell_angle_gamma 90.000000
_cell_volume 2968.970795
_symmetry_space_group_name_H-M "P B C M"
_symmetry_group_IT_number 57
_symmetry_cell_setting 'orthorhombic'
loop_
_space_group_symop_operation_xyz
x,y,z
-x,-y,1/2+z
x,1/2-y,-z
-x,1/2+y,1/2-z
-x,-y,-z
x,y,1/2-z
-x,1/2+y,z
x,1/2-y,1/2+z
loop_
_atom_site_type_symbol
_atom_site_label
_atom_site_fract_x
_atom_site_fract_y
_atom_site_fract_z
Si Si1 0.458863 0.689393 0.250000
Si Si2 0.829632 0.684146 0.687795
Si Si3 0.036036 0.019732 0.812213
Si Si4 0.456419 0.267547 0.387871
Si Si5 0.241408 0.814173 0.312131
Si Si6 0.543086 0.750000 0.500000
Si Si7 0.628583 0.517247 0.307952
O O1 0.512554 0.906417 0.250000
O O2 0.416154 0.773432 0.203029
O O3 0.830715 0.682984 0.750000
O O4 0.896680 0.600104 0.670819
O O5 0.808102 0.969982 0.672832
O O6 0.780517 0.468865 0.671369
O O7 0.037542 0.018285 0.750000
O O8 0.012554 0.737878 0.827888
O O9 0.494096 0.533971 0.383849
O O10 0.426116 0.253278 0.444454
O O11 0.406440 0.210035 0.345012
O O12 0.243809 0.807175 0.250000
O O13 0.307681 0.911981 0.328208
O O14 0.500000 0.500000 0.500000
O O15 0.638428 0.628935 0.250000
#
# Coordination Sequence:
#
# PCOD9435082 Si02
#       7
#     4   8   8   8   8   4   8
#     4  10  20  30  40  54  74  96 120 156 200 234
#     4   9  16  25  38  47  68  95 122 154 191 223
#     4   9  15  22  33  50  66  84 115 157 194 219
#     4  10  19  31  46  62  80 101 128 164 208 247
#     4   9  17  28  35  50  67  96 126 152 184 226
#     4   8  16  30  46  62  78  98 124 158 200 248
#     4   9  20  31  42  60  80 106 132 168 196 245
#
# _framework density 16.167218999999999
#
# number of rings (size 3 to 8) (size 9 to 14) (size 15 to 20)
#    0.500    2.333    0.000    2.000    0.000    6.667 
#    0.000    0.000    0.000    0.000    0.000    0.000 
#    0.000    0.000    0.000    0.000    0.000    0.000 
#
# Total GULP energy -267355.203922 kJ/mol
# GULP energy per Si atom -5569.900082 kJ/mol
# Density = 1.613042 g / cm^3
# Si number density = 16.167219 Si / 1000 Ang^3
#
#
#
# Elastic Constant Matrix: (Units=GPa)
#
#
# Indices 1 2 3 4 5 6 
#
# 1 39.0643 -15.9412 0.6414 0.0000 0.0000 0.0000
# 2 -15.9412 57.9267 -4.1104 0.0000 0.0000 0.0000
# 3 0.6414 -4.1104 43.5181 0.0000 0.0000 0.0000
# 4 0.0000 0.0000 0.0000 9.2056 0.0000 0.0000
# 5 0.0000 0.0000 0.0000 0.0000 3.9835 0.0000
# 6 0.0000 0.0000 0.0000 0.0000 0.0000 10.5048
#
#
#
# Elastic Compliance Matrix: (Units=1/GPa)
#
#
# Indices 1 2 3 4 5 6 
#
# 1 0.028842 0.007960 0.000327 0.000000 0.000000 0.000000
# 2 0.007960 0.019577 0.001732 0.000000 0.000000 0.000000
# 3 0.000327 0.001732 0.023138 0.000000 0.000000 0.000000
# 4 0.000000 0.000000 0.000000 0.108629 0.000000 0.000000
# 5 0.000000 0.000000 0.000000 0.000000 0.251036 0.000000
# 6 0.000000 0.000000 0.000000 0.000000 0.000000 0.095195
#
#
# Mechanical properties :
#
#
# Convention : Reuss Voigt Hill
#
# Bulk Modulus (GPa) = 10.91775 11.29876 11.10826
# Shear Modulus (GPa) = 9.31254 15.40006 12.35630
#
# Velocity S-wave (km/s) = 2.40263 3.08969 2.76756
# Velocity P-wave (km/s) = 3.80323 4.44208 4.13501
#
# Compressibility (1/GPa) = 0.09159396
#
# Stress axis : x y z
#
# Youngs Moduli (GPa) = 34.67179 51.08108 43.21952
#
# Poissons Ratio (x) = -0.40662 -0.01412
# Poissons Ratio (y) = -0.27600 -0.07484
# Poissons Ratio (z) = -0.01133 -0.08846
#
# Static dielectric constant tensor:
#      x y z
#    x 1.558430 0.000000 0.000000 
#    y 0.000000 1.573430 0.000000 
#    z 0.000000 0.000000 1.569800 
# 
# From -- ./inp_files/28823.got.cif
#   From: 2010.05.17/outbox.cif.g08.bks.cpg/sg57_15_cif.got.tgz:28823.got - 2010.06.03 13:58:18.
