data_PCOD9435472
_publ_section_title
;
Structure prediction by ZEFSAII (Michael W. Deem and Ramdas Pophale) SiO2 
 PCOD9435472
Probable space group: P B C M
;
_chemical_formula_sum "Si O2"
_cell_formula_units_Z 48
_cell_length_a 15.013454
_cell_length_b 20.883628
_cell_length_c 8.946987
_cell_angle_alpha 90.000000
_cell_angle_beta 90.000000
_cell_angle_gamma 90.000000
_cell_volume 2805.197043
_symmetry_space_group_name_H-M "P B C M"
_symmetry_group_IT_number 57
_symmetry_cell_setting 'orthorhombic'
loop_
_space_group_symop_operation_xyz
x,y,z
-x,-y,1/2+z
x,1/2-y,-z
-x,1/2+y,1/2-z
-x,-y,-z
x,y,1/2-z
-x,1/2+y,z
x,1/2-y,1/2+z
loop_
_atom_site_type_symbol
_atom_site_label
_atom_site_fract_x
_atom_site_fract_y
_atom_site_fract_z
Si Si1 0.108074 0.183173 0.426243
Si Si2 0.691247 0.641488 0.420618
Si Si3 0.724124 0.512723 0.924924
Si Si4 0.505877 0.184832 0.424314
Si Si5 0.927232 0.953247 0.429073
Si Si6 0.434546 0.946953 0.072435
O O1 0.078867 0.250000 0.500000
O O2 0.087734 0.182761 0.250000
O O3 0.215803 0.177787 0.442379
O O4 0.070923 0.118466 0.502428
O O5 0.693199 0.614711 0.250000
O O6 0.687795 0.583526 0.536695
O O7 0.601934 0.682003 0.432707
O O8 0.712772 0.498601 0.750000
O O9 0.828863 0.517658 0.960525
O O10 0.665330 0.465029 0.022369
O O11 0.537536 0.250000 0.500000
O O12 0.530380 0.182110 0.250000
O O13 0.540408 0.122122 0.508120
O O14 0.937242 0.949401 0.250000
O O15 0.000000 0.000000 0.500000
O O16 0.444123 0.949161 0.250000
O O17 0.500000 0.000000 0.000000
#
# Coordination Sequence:
#
# PCOD9435472 Si02
#       6
#     8   8   8   8   8   8
#     4  10  19  32  51  78 111 146 181 220 270 329
#     4   9  18  31  49  74 107 145 180 217 266 322
#     4  10  20  34  55  81 108 141 182 226 272 323
#     4  11  22  35  51  75 108 147 188 230 276 324
#     4  10  21  37  58  84 112 144 182 226 277 330
#     4  12  23  36  55  79 108 145 188 229 271 321
#
# _framework density 17.111096
#
# number of rings (size 3 to 8) (size 9 to 14) (size 15 to 20)
#    0.000    1.667    1.667    4.000    0.000    3.333 
#    0.000    0.000    0.000    1.000    0.000    0.000 
#    0.000    0.000    0.000    0.000    0.000    0.000 
#
# Total GULP energy -267949.979902 kJ/mol
# GULP energy per Si atom -5582.291248 kJ/mol
# Density = 1.707215 g / cm^3
# Si number density = 17.111096 Si / 1000 Ang^3
#
#
#
# Elastic Constant Matrix: (Units=GPa)
#
#
# Indices 1 2 3 4 5 6 
#
# 1 58.3606 57.1625 57.3021 0.0000 0.0000 0.0000
# 2 57.1625 148.2884 91.7650 0.0000 0.0000 0.0000
# 3 57.3021 91.7650 135.7270 0.0000 0.0000 0.0000
# 4 0.0000 0.0000 0.0000 34.2351 0.0000 0.0000
# 5 0.0000 0.0000 0.0000 0.0000 23.2387 0.0000
# 6 0.0000 0.0000 0.0000 0.0000 0.0000 16.9728
#
#
#
# Elastic Compliance Matrix: (Units=1/GPa)
#
#
# Indices 1 2 3 4 5 6 
#
# 1 0.033075 -0.007064 -0.009188 0.000000 0.000000 0.000000
# 2 -0.007064 0.013104 -0.005877 0.000000 0.000000 0.000000
# 3 -0.009188 -0.005877 0.015220 0.000000 0.000000 0.000000
# 4 0.000000 0.000000 0.000000 0.029210 0.000000 0.000000
# 5 0.000000 0.000000 0.000000 0.000000 0.043032 0.000000
# 6 0.000000 0.000000 0.000000 0.000000 0.000000 0.058918
#
#
# Mechanical properties :
#
#
# Convention : Reuss Voigt Hill
#
# Bulk Modulus (GPa) = 58.33968 83.87059 71.10513
# Shear Modulus (GPa) = 20.61606 23.96575 22.29091
#
# Velocity S-wave (km/s) = 3.47484 3.74652 3.61323
# Velocity P-wave (km/s) = 7.08999 8.23632 7.68456
#
# Compressibility (1/GPa) = 0.01714099
#
# Stress axis : x y z
#
# Youngs Moduli (GPa) = 30.23414 76.31537 65.70284
#
# Poissons Ratio (x) = 0.53911 0.60366
# Poissons Ratio (y) = 0.21358 0.38613
# Poissons Ratio (z) = 0.27778 0.44850
#
# Static dielectric constant tensor:
#      x y z
#    x 1.582460 0.000000 0.000000 
#    y 0.000000 1.563420 0.000000 
#    z 0.000000 0.000000 1.576620 
# 
# From -- ./inp_files/4843.got.cif
#   From: 2010.05.17/outbox.cif.g08.bks.cpg/sg57_3_cif.got.tgz:4843.got - 2010.06.03 13:58:18.
