data_PCOD9435386
_publ_section_title
;
Structure prediction by ZEFSAII (Michael W. Deem and Ramdas Pophale) SiO2 
 PCOD9435386
Probable space group: P B C M
;
_chemical_formula_sum "Si O2"
_cell_formula_units_Z 64
_cell_length_a 22.063445
_cell_length_b 15.188732
_cell_length_c 9.159226
_cell_angle_alpha 90.000000
_cell_angle_beta 90.000000
_cell_angle_gamma 90.000000
_cell_volume 3069.400919
_symmetry_space_group_name_H-M "P B C M"
_symmetry_group_IT_number 57
_symmetry_cell_setting 'orthorhombic'
loop_
_space_group_symop_operation_xyz
x,y,z
-x,-y,1/2+z
x,1/2-y,-z
-x,1/2+y,1/2-z
-x,-y,-z
x,y,1/2-z
-x,1/2+y,z
x,1/2-y,1/2+z
loop_
_atom_site_type_symbol
_atom_site_label
_atom_site_fract_x
_atom_site_fract_y
_atom_site_fract_z
Si Si1 0.005952 0.903121 0.427058
Si Si2 0.740261 0.094685 0.418716
Si Si3 0.875989 0.612257 0.922555
Si Si4 0.622122 0.416108 0.412960
Si Si5 0.498466 0.160382 0.925022
Si Si6 0.126633 0.898450 0.577011
Si Si7 0.745617 0.620468 0.579615
Si Si8 0.626786 0.625631 0.086661
O O1 0.007517 0.910011 0.250000
O O2 0.942378 0.857585 0.472879
O O3 0.068697 0.864426 0.488066
O O4 0.000000 0.000000 0.500000
O O5 0.736722 0.120217 0.250000
O O6 0.678509 0.121684 0.497588
O O7 0.805822 0.127335 0.475583
O O8 0.743063 0.987183 0.422231
O O9 0.872946 0.631027 0.750000
O O10 0.875217 0.505513 0.935927
O O11 0.811842 0.644594 0.984093
O O12 0.624093 0.377762 0.250000
O O13 0.553255 0.404761 0.467092
O O14 0.631872 0.520266 0.403212
O O15 0.493552 0.164260 0.750000
O O16 0.519334 0.250000 0.000000
O O17 0.432604 0.142745 0.991490
O O18 0.120755 0.878719 0.750000
O O19 0.740450 0.646011 0.750000
O O20 0.688931 0.654067 0.488565
O O21 0.619340 0.662317 0.250000
#
# Coordination Sequence:
#
# PCOD9435386 Si02
#       8
#     8   8   8   8   8   8   8   8
#     4   9  14  19  27  41  64  99 140 179 217 261
#     4   8  14  24  40  59  81 110 145 183 224 267
#     4   7  11  19  30  44  67 100 139 177 214 256
#     4   9  19  33  50  72  96 119 151 192 231 271
#     4  11  23  38  53  71  95 124 153 186 228 275
#     4   8  13  21  30  45  70 101 138 178 216 259
#     4   8  13  24  40  57  79 110 145 183 223 264
#     4  10  19  32  50  73  96 119 150 190 230 275
#
# _framework density 20.850974000000001
#
# number of rings (size 3 to 8) (size 9 to 14) (size 15 to 20)
#    0.000    3.250    0.000    3.750    0.000    2.000 
#    0.000    6.875    0.000    0.000    0.000    0.000 
#    0.000    0.000    0.000    1.125    0.000   20.500 
#
# Total GULP energy -356328.969985 kJ/mol
# GULP energy per Si atom -5567.640156 kJ/mol
# Density = 2.080352 g / cm^3
# Si number density = 20.850974 Si / 1000 Ang^3
#
#
#
# Elastic Constant Matrix: (Units=GPa)
#
#
# Indices 1 2 3 4 5 6 
#
# 1 234.2374 21.7615 80.2398 0.0000 0.0000 0.0000
# 2 21.7615 16.2692 8.8225 0.0000 0.0000 0.0000
# 3 80.2398 8.8225 74.3594 0.0000 0.0000 0.0000
# 4 0.0000 0.0000 0.0000 3.0702 0.0000 0.0000
# 5 0.0000 0.0000 0.0000 0.0000 38.1688 0.0000
# 6 0.0000 0.0000 0.0000 0.0000 0.0000 -23.3880
#
#
#
# Elastic Compliance Matrix: (Units=1/GPa)
#
#
# Indices 1 2 3 4 5 6 
#
# 1 0.007256 -0.005835 -0.007138 0.000000 0.000000 0.000000
# 2 -0.005835 0.070385 -0.002054 0.000000 0.000000 0.000000
# 3 -0.007138 -0.002054 0.021394 0.000000 0.000000 0.000000
# 4 0.000000 0.000000 0.000000 0.325717 0.000000 0.000000
# 5 0.000000 0.000000 0.000000 0.000000 0.026199 0.000000
# 6 0.000000 0.000000 0.000000 0.000000 0.000000 -0.042757
#
#
# Mechanical properties :
#
#
# Convention : Reuss Voigt Hill
#
# Bulk Modulus (GPa) = 14.49675 60.72372 37.61023
# Shear Modulus (GPa) = 10.84026 17.83969 14.33998
#
# Velocity S-wave (km/s) = 2.28259 2.92820 2.62532
# Velocity P-wave (km/s) = 3.73023 6.37326 5.22174
#
# Compressibility (1/GPa) = 0.06898098
#
# Stress axis : x y z
#
# Youngs Moduli (GPa) = 137.80840 14.20756 46.74138
#
# Poissons Ratio (x) = 0.08291 0.33364
# Poissons Ratio (y) = 0.80416 0.09601
# Poissons Ratio (z) = 0.98367 0.02918
#
# Static dielectric constant tensor:
#      x y z
#    x 1.814650 0.000000 0.000000 
#    y 0.000000 1.819290 0.000000 
#    z 0.000000 0.000000 1.718660 
# 
# From -- ./inp_files/8604.got.cif
#   From: 2010.05.17/outbox.cif.g08.bks.cpg/sg57_5_cif.got.tgz:8604.got - 2010.06.03 13:58:18.
