data_PCOD9435295
_publ_section_title
;
Structure prediction by ZEFSAII (Michael W. Deem and Ramdas Pophale) SiO2 
 PCOD9435295
Probable space group: P B C M
;
_chemical_formula_sum "Si O2"
_cell_formula_units_Z 64
_cell_length_a 20.927491
_cell_length_b 20.388051
_cell_length_c 8.300579
_cell_angle_alpha 90.000000
_cell_angle_beta 90.000000
_cell_angle_gamma 90.000000
_cell_volume 3541.614299
_symmetry_space_group_name_H-M "P B C M"
_symmetry_group_IT_number 57
_symmetry_cell_setting 'orthorhombic'
loop_
_space_group_symop_operation_xyz
x,y,z
-x,-y,1/2+z
x,1/2-y,-z
-x,1/2+y,1/2-z
-x,-y,-z
x,y,1/2-z
-x,1/2+y,z
x,1/2-y,1/2+z
loop_
_atom_site_type_symbol
_atom_site_label
_atom_site_fract_x
_atom_site_fract_y
_atom_site_fract_z
Si Si1 0.698827 0.590901 0.057567
Si Si2 0.833837 0.554961 0.943017
Si Si3 0.663460 0.442979 0.053714
Si Si4 0.918470 0.175998 0.555186
Si Si5 0.416342 0.176081 0.557900
Si Si6 0.199283 0.908709 0.444428
Si Si7 0.023637 0.071345 0.555327
Si Si8 0.521420 0.427899 0.054875
O O1 0.697395 0.591391 0.250000
O O2 0.672844 0.519059 0.003599
O O3 0.772081 0.594680 0.001920
O O4 0.651588 0.646159 0.993972
O O5 0.832797 0.553197 0.750000
O O6 0.902970 0.580851 0.997168
O O7 0.825587 0.480684 0.006593
O O8 0.663492 0.442518 0.250000
O O9 0.727106 0.404759 0.999675
O O10 0.594602 0.417461 0.000317
O O11 0.927171 0.250000 0.500000
O O12 0.918339 0.174736 0.750000
O O13 0.850908 0.145407 0.498249
O O14 0.974941 0.127462 0.499137
O O15 0.424824 0.250000 0.500000
O O16 0.419272 0.175561 0.750000
O O17 0.471701 0.126867 0.496087
O O18 0.199985 0.906603 0.250000
O O19 0.022716 0.071678 0.750000
O O20 0.000000 0.000000 0.500000
O O21 0.520888 0.427161 0.250000
O O22 0.500000 0.500000 0.000000
#
# Coordination Sequence:
#
# PCOD9435295 Si02
#       8
#     8   8   8   8   8   8   8   8
#     4  10  19  34  56  79 107 142 179 222 274 332
#     4  10  19  31  52  82 111 136 173 228 278 321
#     4   8  15  29  52  79 104 134 171 216 266 315
#     4  10  21  36  53  76 108 145 184 224 272 328
#     4  11  23  37  55  79 111 149 187 230 279 334
#     4   9  17  32  53  76 105 140 178 220 267 325
#     4  10  20  34  54  80 110 143 182 231 276 325
#     4  10  19  33  54  81 110 141 180 227 273 322
#
# _framework density 18.070855000000002
#
# number of rings (size 3 to 8) (size 9 to 14) (size 15 to 20)
#    0.000    2.250    2.500    1.875    0.000    2.000 
#    0.000    1.250    0.000    1.500    0.000    0.000 
#    0.000    0.000    0.000    0.000    0.000    0.000 
#
# Total GULP energy -356987.679563 kJ/mol
# GULP energy per Si atom -5577.932493 kJ/mol
# Density = 1.802973 g / cm^3
# Si number density = 18.070855 Si / 1000 Ang^3
#
#
#
# Elastic Constant Matrix: (Units=GPa)
#
#
# Indices 1 2 3 4 5 6 
#
# 1 191.8297 97.9703 21.6913 0.0000 0.0000 0.0000
# 2 97.9703 126.6099 9.2509 0.0000 0.0000 0.0000
# 3 21.6913 9.2509 6.9855 0.0000 0.0000 0.0000
# 4 0.0000 0.0000 0.0000 24.4075 0.0000 0.0000
# 5 0.0000 0.0000 0.0000 0.0000 16.7839 0.0000
# 6 0.0000 0.0000 0.0000 0.0000 0.0000 33.2146
#
#
#
# Elastic Compliance Matrix: (Units=1/GPa)
#
#
# Indices 1 2 3 4 5 6 
#
# 1 0.012114 -0.007335 -0.027903 0.000000 0.000000 0.000000
# 2 -0.007335 0.013186 0.005315 0.000000 0.000000 0.000000
# 3 -0.027903 0.005315 0.222759 0.000000 0.000000 0.000000
# 4 0.000000 0.000000 0.000000 0.040971 0.000000 0.000000
# 5 0.000000 0.000000 0.000000 0.000000 0.059581 0.000000
# 6 0.000000 0.000000 0.000000 0.000000 0.000000 0.030107
#
#
# Mechanical properties :
#
#
# Convention : Reuss Voigt Hill
#
# Bulk Modulus (GPa) = 5.31314 64.80560 35.05937
# Shear Modulus (GPa) = 9.97402 27.98205 18.97803
#
# Velocity S-wave (km/s) = 2.35189 3.93932 3.24420
# Velocity P-wave (km/s) = 3.21274 7.52534 5.78587
#
# Compressibility (1/GPa) = 0.18821263
#
# Stress axis : x y z
#
# Youngs Moduli (GPa) = 82.54644 75.83842 4.48916
#
# Poissons Ratio (x) = 0.55630 0.12526
# Poissons Ratio (y) = 0.60550 -0.02386
# Poissons Ratio (z) = 2.30332 -0.40310
#
# Static dielectric constant tensor:
#      x y z
#    x 1.658120 0.000000 0.000000 
#    y 0.000000 1.576630 0.000000 
#    z 0.000000 0.000000 1.618660 
# 
# From -- ./inp_files/8531.got.cif
#   From: 2010.05.17/outbox.cif.g08.bks.cpg/sg57_5_cif.got.tgz:8531.got - 2010.06.03 13:58:18.
