data_PCOD9435911
_publ_section_title
;
Structure prediction by ZEFSAII (Michael W. Deem and Ramdas Pophale) SiO2 
 PCOD9435911
Probable space group: P B C M
;
_chemical_formula_sum "Si O2"
_cell_formula_units_Z 56
_cell_length_a 9.366566
_cell_length_b 18.996352
_cell_length_c 13.779118
_cell_angle_alpha 90.000000
_cell_angle_beta 90.000000
_cell_angle_gamma 90.000000
_cell_volume 2451.726523
_symmetry_space_group_name_H-M "P B C M"
_symmetry_group_IT_number 57
_symmetry_cell_setting 'orthorhombic'
loop_
_space_group_symop_operation_xyz
x,y,z
-x,-y,1/2+z
x,1/2-y,-z
-x,1/2+y,1/2-z
-x,-y,-z
x,y,1/2-z
-x,1/2+y,z
x,1/2-y,1/2+z
loop_
_atom_site_type_symbol
_atom_site_label
_atom_site_fract_x
_atom_site_fract_y
_atom_site_fract_z
Si Si1 0.774070 0.064779 0.860356
Si Si2 0.222828 0.954585 0.571940
Si Si3 0.599565 0.325210 0.637455
Si Si4 0.453040 0.054298 0.913902
Si Si5 0.687416 0.827563 0.537327
Si Si6 0.976389 0.857525 0.635208
Si Si7 0.835873 0.276801 0.134274
O O1 0.819437 0.044238 0.750000
O O2 0.600064 0.067480 0.857377
O O3 0.843151 0.140878 0.887507
O O4 0.804372 0.022675 0.960031
O O5 0.327364 0.886199 0.574745
O O6 0.079701 0.923855 0.617983
O O7 0.315218 0.013064 0.628321
O O8 0.632479 0.340948 0.750000
O O9 0.432710 0.322610 0.620293
O O10 0.677962 0.252575 0.611670
O O11 0.388279 0.125764 0.955502
O O12 0.500000 0.000000 0.000000
O O13 0.719606 0.750000 0.500000
O O14 0.829974 0.861708 0.577864
O O15 0.949205 0.851162 0.750000
O O16 0.058152 0.785444 0.600922
O O17 0.850636 0.275304 0.250000
#
# Coordination Sequence:
#
# PCOD9435911 Si02
#       7
#     8   8   8   8   8   8   8
#     4  10  19  33  60  93 125 159 206 266 327 381
#     4  10  21  39  65  90 125 168 214 270 322 379
#     4  10  19  34  60  90 118 159 217 264 312 383
#     4  10  21  42  60  96 129 160 217 277 328 387
#     4  12  24  38  62  94 132 176 209 266 341 383
#     4  10  23  41  63  94 129 173 223 260 313 398
#     4   8  17  33  56  87 117 152 204 258 306 371
#
# _framework density 22.841045999999999
#
# number of rings (size 3 to 8) (size 9 to 14) (size 15 to 20)
#    0.000    2.000    2.857    2.571    2.000    2.857 
#    0.000    1.429    0.000    0.857    0.000    0.000 
#    0.000    0.000    0.000    0.000    0.000    0.000 
#
# Total GULP energy -312445.975783 kJ/mol
# GULP energy per Si atom -5579.392425 kJ/mol
# Density = 2.278906 g / cm^3
# Si number density = 22.841046 Si / 1000 Ang^3
#
#
#
# Elastic Constant Matrix: (Units=GPa)
#
#
# Indices 1 2 3 4 5 6 
#
# 1 87.9685 4.2949 -0.9051 0.0000 0.0000 0.0000
# 2 4.2949 66.9567 7.8790 0.0000 0.0000 0.0000
# 3 -0.9051 7.8790 89.3582 0.0000 0.0000 0.0000
# 4 0.0000 0.0000 0.0000 5.6866 0.0000 0.0000
# 5 0.0000 0.0000 0.0000 0.0000 32.6864 0.0000
# 6 0.0000 0.0000 0.0000 0.0000 0.0000 12.7615
#
#
#
# Elastic Compliance Matrix: (Units=1/GPa)
#
#
# Indices 1 2 3 4 5 6 
#
# 1 0.011406 -0.000753 0.000182 0.000000 0.000000 0.000000
# 2 -0.000753 0.015141 -0.001343 0.000000 0.000000 0.000000
# 3 0.000182 -0.001343 0.011311 0.000000 0.000000 0.000000
# 4 0.000000 0.000000 0.000000 0.175853 0.000000 0.000000
# 5 0.000000 0.000000 0.000000 0.000000 0.030594 0.000000
# 6 0.000000 0.000000 0.000000 0.000000 0.000000 0.078360
#
#
# Mechanical properties :
#
#
# Convention : Reuss Voigt Hill
#
# Bulk Modulus (GPa) = 29.38481 29.64678 29.51580
# Shear Modulus (GPa) = 14.80004 25.76120 20.28062
#
# Velocity S-wave (km/s) = 2.54826 3.36199 2.98300
# Velocity P-wave (km/s) = 4.64231 5.29890 4.98144
#
# Compressibility (1/GPa) = 0.03403118
#
# Stress axis : x y z
#
# Youngs Moduli (GPa) = 87.67045 66.04438 88.40838
#
# Poissons Ratio (x) = 0.04974 -0.01608
# Poissons Ratio (y) = 0.06602 0.11870
# Poissons Ratio (z) = -0.01595 0.08868
#
# Static dielectric constant tensor:
#      x y z
#    x 1.879590 0.000000 0.000000 
#    y 0.000000 1.888110 0.000000 
#    z 0.000000 0.000000 1.893880 
# 
# From -- ./inp_files/16712.got.cif
#   From: 2010.05.17/outbox.cif.g08.bks.cpg/sg57_9_cif.got.tgz:16712.got - 2010.06.03 13:58:18.
