data_PCOD9435168
_publ_section_title
;
Structure prediction by ZEFSAII (Michael W. Deem and Ramdas Pophale) SiO2 
 PCOD9435168
Probable space group: P B C M
;
_chemical_formula_sum "Si O2"
_cell_formula_units_Z 48
_cell_length_a 10.072637
_cell_length_b 30.747672
_cell_length_c 8.917745
_cell_angle_alpha 90.000000
_cell_angle_beta 90.000000
_cell_angle_gamma 90.000000
_cell_volume 2761.916040
_symmetry_space_group_name_H-M "P B C M"
_symmetry_group_IT_number 57
_symmetry_cell_setting 'orthorhombic'
loop_
_space_group_symop_operation_xyz
x,y,z
-x,-y,1/2+z
x,1/2-y,-z
-x,1/2+y,1/2-z
-x,-y,-z
x,y,1/2-z
-x,1/2+y,z
x,1/2-y,1/2+z
loop_
_atom_site_type_symbol
_atom_site_label
_atom_site_fract_x
_atom_site_fract_y
_atom_site_fract_z
Si Si1 0.732497 0.386695 0.429802
Si Si2 0.955461 0.793544 0.921396
Si Si3 0.385384 0.971223 0.926410
Si Si4 0.972548 0.888380 0.568596
Si Si5 0.117849 0.472747 0.425742
Si Si6 0.278728 0.795018 0.923897
O O1 0.740142 0.387090 0.250000
O O2 0.640762 0.425586 0.490478
O O3 0.879947 0.394219 0.499653
O O4 0.686584 0.339220 0.488477
O O5 0.912971 0.791678 0.750000
O O6 0.919966 0.841093 0.982131
O O7 0.116942 0.793366 0.925205
O O8 0.907908 0.750000 0.000000
O O9 0.411032 0.963544 0.750000
O O10 0.251105 0.999529 0.939168
O O11 0.500000 0.000000 0.000000
O O12 0.984456 0.888605 0.750000
O O13 0.880839 0.926977 0.510877
O O14 0.090076 0.465640 0.250000
O O15 0.000000 0.500000 0.500000
O O16 0.319459 0.797488 0.750000
O O17 0.324513 0.750000 0.000000
#
# Coordination Sequence:
#
# PCOD9435168 Si02
#       6
#     8   8   8   8   8   8
#     4  11  20  31  50  74 103 140 177 215 267 318
#     4   8  15  25  39  62  95 132 165 205 253 304
#     4  11  24  40  56  77 106 140 180 224 270 324
#     4  10  19  31  48  73 104 136 175 219 262 312
#     4  11  22  35  55  79 105 137 176 218 263 315
#     4   9  16  27  43  67 100 134 171 214 261 313
#
# _framework density 17.379239999999999
#
# number of rings (size 3 to 8) (size 9 to 14) (size 15 to 20)
#    0.000    2.000    1.667    4.500    0.000    6.667 
#    0.000    0.000    0.000    0.000    0.000    1.167 
#    0.000    5.333    0.000    0.000    0.000    0.000 
#
# Total GULP energy -267706.392030 kJ/mol
# GULP energy per Si atom -5577.216501 kJ/mol
# Density = 1.733968 g / cm^3
# Si number density = 17.379240 Si / 1000 Ang^3
#
#
#
# Elastic Constant Matrix: (Units=GPa)
#
#
# Indices 1 2 3 4 5 6 
#
# 1 21.8171 14.6897 28.6644 0.0000 0.0000 0.0000
# 2 14.6897 166.9163 74.4213 0.0000 0.0000 0.0000
# 3 28.6644 74.4213 132.1493 0.0000 0.0000 0.0000
# 4 0.0000 0.0000 0.0000 37.1314 0.0000 0.0000
# 5 0.0000 0.0000 0.0000 0.0000 17.0220 0.0000
# 6 0.0000 0.0000 0.0000 0.0000 0.0000 16.7851
#
#
#
# Elastic Compliance Matrix: (Units=1/GPa)
#
#
# Indices 1 2 3 4 5 6 
#
# 1 0.064174 0.000746 -0.014340 0.000000 0.000000 0.000000
# 2 0.000746 0.008008 -0.004672 0.000000 0.000000 0.000000
# 3 -0.014340 -0.004672 0.013309 0.000000 0.000000 0.000000
# 4 0.000000 0.000000 0.000000 0.026931 0.000000 0.000000
# 5 0.000000 0.000000 0.000000 0.000000 0.058748 0.000000
# 6 0.000000 0.000000 0.000000 0.000000 0.000000 0.059577
#
#
# Mechanical properties :
#
#
# Convention : Reuss Voigt Hill
#
# Bulk Modulus (GPa) = 20.42518 61.82592 41.12555
# Shear Modulus (GPa) = 17.63060 27.72818 22.67939
#
# Velocity S-wave (km/s) = 3.18852 3.99868 3.61636
# Velocity P-wave (km/s) = 5.03326 7.54792 6.41501
#
# Compressibility (1/GPa) = 0.04895917
#
# Stress axis : x y z
#
# Youngs Moduli (GPa) = 15.58268 124.86977 75.13924
#
# Poissons Ratio (x) = -0.09314 1.07749
# Poissons Ratio (y) = -0.01162 0.35103
# Poissons Ratio (z) = 0.22345 0.58336
#
# Static dielectric constant tensor:
#      x y z
#    x 1.560830 0.000000 0.000000 
#    y 0.000000 1.627860 0.000000 
#    z 0.000000 0.000000 1.587050 
# 
# From -- ./inp_files/2060.got.cif
#   From: 2010.05.17/outbox.cif.g08.bks.cpg/sg57_2_cif.got.tgz:2060.got - 2010.06.03 13:58:18.
