data_PCOD9435754
_publ_section_title
;
Structure prediction by ZEFSAII (Michael W. Deem and Ramdas Pophale) SiO2 
 PCOD9435754
Probable space group: P B C M
;
_chemical_formula_sum "Si O2"
_cell_formula_units_Z 40
_cell_length_a 11.698666
_cell_length_b 21.891457
_cell_length_c 8.973493
_cell_angle_alpha 90.000000
_cell_angle_beta 90.000000
_cell_angle_gamma 90.000000
_cell_volume 2298.119128
_symmetry_space_group_name_H-M "P B C M"
_symmetry_group_IT_number 57
_symmetry_cell_setting 'orthorhombic'
loop_
_space_group_symop_operation_xyz
x,y,z
-x,-y,1/2+z
x,1/2-y,-z
-x,1/2+y,1/2-z
-x,-y,-z
x,y,1/2-z
-x,1/2+y,z
x,1/2-y,1/2+z
loop_
_atom_site_type_symbol
_atom_site_label
_atom_site_fract_x
_atom_site_fract_y
_atom_site_fract_z
Si Si1 0.065929 0.587650 0.578633
Si Si2 0.476860 0.816440 0.569567
Si Si3 0.567977 0.557811 0.928361
Si Si4 0.789416 0.187823 0.075134
Si Si5 0.165823 0.471159 0.076369
O O1 0.090298 0.602445 0.750000
O O2 0.125613 0.635670 0.473698
O O3 0.123651 0.523464 0.534755
O O4 0.929527 0.581429 0.559888
O O5 0.511012 0.750000 0.500000
O O6 0.489791 0.814661 0.750000
O O7 0.536060 0.876963 0.502242
O O8 0.342189 0.824766 0.531310
O O9 0.545009 0.559623 0.750000
O O10 0.703696 0.546875 0.949174
O O11 0.500000 0.500000 0.000000
O O12 0.789158 0.195391 0.250000
O O13 0.826424 0.250000 0.000000
O O14 0.156339 0.492430 0.250000
#
# Coordination Sequence:
#
# PCOD9435754 Si02
#       5
#     8   8   8   8   8
#     4  10  19  33  54  77 102 133 170 211 256 305
#     4  10  21  37  56  79 108 141 177 218 266 317
#     4  11  22  36  55  80 110 142 179 221 264 313
#     4  10  20  34  53  77 104 133 168 211 256 304
#     4   9  20  36  52  74 105 138 170 209 257 306
#
# _framework density 17.405538
#
# number of rings (size 3 to 8) (size 9 to 14) (size 15 to 20)
#    0.000    2.000    0.000    3.600    0.000    9.600 
#    0.000    1.000    0.000    0.000    0.000    0.000 
#    0.000    0.000    0.000    0.000    0.000    0.000 
#
# Total GULP energy -223057.990452 kJ/mol
# GULP energy per Si atom -5576.449761 kJ/mol
# Density = 1.736592 g / cm^3
# Si number density = 17.405538 Si / 1000 Ang^3
#
#
#
# Elastic Constant Matrix: (Units=GPa)
#
#
# Indices 1 2 3 4 5 6 
#
# 1 75.6001 44.2818 32.0109 0.0000 0.0000 0.0000
# 2 44.2818 90.3834 35.2090 0.0000 0.0000 0.0000
# 3 32.0109 35.2090 44.6953 0.0000 0.0000 0.0000
# 4 0.0000 0.0000 0.0000 39.0668 0.0000 0.0000
# 5 0.0000 0.0000 0.0000 0.0000 10.9234 0.0000
# 6 0.0000 0.0000 0.0000 0.0000 0.0000 32.7330
#
#
#
# Elastic Compliance Matrix: (Units=1/GPa)
#
#
# Indices 1 2 3 4 5 6 
#
# 1 0.021335 -0.006493 -0.010165 0.000000 0.000000 0.000000
# 2 -0.006493 0.017938 -0.009481 0.000000 0.000000 0.000000
# 3 -0.010165 -0.009481 0.037123 0.000000 0.000000 0.000000
# 4 0.000000 0.000000 0.000000 0.025597 0.000000 0.000000
# 5 0.000000 0.000000 0.000000 0.000000 0.091546 0.000000
# 6 0.000000 0.000000 0.000000 0.000000 0.000000 0.030550
#
#
# Mechanical properties :
#
#
# Convention : Reuss Voigt Hill
#
# Bulk Modulus (GPa) = 41.46291 48.18693 44.82492
# Shear Modulus (GPa) = 17.58045 23.15646 20.36846
#
# Velocity S-wave (km/s) = 3.18158 3.65143 3.42457
# Velocity P-wave (km/s) = 6.11310 6.74701 6.43786
#
# Compressibility (1/GPa) = 0.02411794
#
# Stress axis : x y z
#
# Youngs Moduli (GPa) = 46.87191 55.74679 26.93761
#
# Poissons Ratio (x) = 0.36194 0.27383
# Poissons Ratio (y) = 0.30432 0.25539
# Poissons Ratio (z) = 0.47647 0.52853
#
# Static dielectric constant tensor:
#      x y z
#    x 1.582800 0.000000 0.000000 
#    y 0.000000 1.569110 0.000000 
#    z 0.000000 0.000000 1.587270 
# 
# From -- ./inp_files/2675.got.cif
#   From: 2010.05.17/outbox.cif.g08.bks.cpg/sg57_2_cif.got.tgz:2675.got - 2010.06.03 13:58:18.
