data_PCOD9435493
_publ_section_title
;
Structure prediction by ZEFSAII (Michael W. Deem and Ramdas Pophale) SiO2 
 PCOD9435493
Probable space group: P B C M
;
_chemical_formula_sum "Si O2"
_cell_formula_units_Z 64
_cell_length_a 21.189356
_cell_length_b 19.696842
_cell_length_c 7.478961
_cell_angle_alpha 90.000000
_cell_angle_beta 90.000000
_cell_angle_gamma 90.000000
_cell_volume 3121.444571
_symmetry_space_group_name_H-M "P B C M"
_symmetry_group_IT_number 57
_symmetry_cell_setting 'orthorhombic'
loop_
_space_group_symop_operation_xyz
x,y,z
-x,-y,1/2+z
x,1/2-y,-z
-x,1/2+y,1/2-z
-x,-y,-z
x,y,1/2-z
-x,1/2+y,z
x,1/2-y,1/2+z
loop_
_atom_site_type_symbol
_atom_site_label
_atom_site_fract_x
_atom_site_fract_y
_atom_site_fract_z
Si Si1 0.759734 0.826038 0.036132
Si Si2 0.599049 0.170424 0.535283
Si Si3 0.018059 0.921582 0.036189
Si Si4 0.343445 0.433004 0.467196
Si Si5 0.848705 0.458845 0.467353
Si Si6 0.710842 0.419962 0.459232
Si Si7 0.483964 0.078386 0.963811
Si Si8 0.113968 0.385240 0.039280
O O1 0.762739 0.835177 0.250000
O O2 0.710620 0.881858 0.969078
O O3 0.830156 0.839224 0.963582
O O4 0.738505 0.750000 0.000000
O O5 0.594001 0.250000 0.500000
O O6 0.599973 0.161025 0.750000
O O7 0.664206 0.137336 0.465540
O O8 0.538721 0.127871 0.466594
O O9 0.019733 0.911751 0.250000
O O10 0.957196 0.881229 0.964202
O O11 0.090082 0.915601 0.971915
O O12 0.000000 0.000000 0.000000
O O13 0.343563 0.433324 0.250000
O O14 0.326385 0.508927 0.525596
O O15 0.412708 0.410598 0.529654
O O16 0.848093 0.459150 0.250000
O O17 0.781173 0.432212 0.533556
O O18 0.861195 0.536997 0.521854
O O19 0.720325 0.404467 0.250000
O O20 0.482237 0.087519 0.750000
O O21 0.500000 0.000000 0.000000
O O22 0.108396 0.370512 0.250000
#
# Coordination Sequence:
#
# PCOD9435493 Si02
#       8
#     8   8   8   8   8   8   8   8
#     4  10  21  34  47  68  98 134 173 210 251 300
#     4  10  22  38  54  77 106 135 169 206 247 298
#     4   8  14  24  40  65  94 121 152 194 243 291
#     4  10  20  34  53  76 101 130 167 208 251 300
#     4   9  16  26  45  73  98 123 158 201 249 294
#     4  10  19  32  52  77 104 132 165 207 251 297
#     4  10  20  35  56  80 105 132 166 207 249 297
#     4   9  16  28  45  65  94 128 162 202 247 295
#
# _framework density 20.503328
#
# number of rings (size 3 to 8) (size 9 to 14) (size 15 to 20)
#    0.000    2.500    2.500    0.000    0.000    2.500 
#    0.000    0.000    0.000    0.750    0.000    0.000 
#    0.000    0.000    0.000    0.000    0.000    0.000 
#
# Total GULP energy -356891.939311 kJ/mol
# GULP energy per Si atom -5576.436552 kJ/mol
# Density = 2.045666 g / cm^3
# Si number density = 20.503328 Si / 1000 Ang^3
#
#
#
# Elastic Constant Matrix: (Units=GPa)
#
#
# Indices 1 2 3 4 5 6 
#
# 1 161.5476 40.5393 -1.8851 0.0000 0.0000 0.0000
# 2 40.5393 85.0734 -15.6634 0.0000 0.0000 0.0000
# 3 -1.8851 -15.6634 58.2375 0.0000 0.0000 0.0000
# 4 0.0000 0.0000 0.0000 17.6679 0.0000 0.0000
# 5 0.0000 0.0000 0.0000 0.0000 5.1859 0.0000
# 6 0.0000 0.0000 0.0000 0.0000 0.0000 24.2262
#
#
#
# Elastic Compliance Matrix: (Units=1/GPa)
#
#
# Indices 1 2 3 4 5 6 
#
# 1 0.007059 -0.003495 -0.000711 0.000000 0.000000 0.000000
# 2 -0.003495 0.014097 0.003678 0.000000 0.000000 0.000000
# 3 -0.000711 0.003678 0.018137 0.000000 0.000000 0.000000
# 4 0.000000 0.000000 0.000000 0.056600 0.000000 0.000000
# 5 0.000000 0.000000 0.000000 0.000000 0.192831 0.000000
# 6 0.000000 0.000000 0.000000 0.000000 0.000000 0.041278
#
#
# Mechanical properties :
#
#
# Convention : Reuss Voigt Hill
#
# Bulk Modulus (GPa) = 26.15207 38.98223 32.56715
# Shear Modulus (GPa) = 14.54320 28.20718 21.37519
#
# Velocity S-wave (km/s) = 2.66617 3.71312 3.23231
# Velocity P-wave (km/s) = 4.71813 6.11857 5.46341
#
# Compressibility (1/GPa) = 0.03823789
#
# Stress axis : x y z
#
# Youngs Moduli (GPa) = 141.66752 70.93665 55.13479
#
# Poissons Ratio (x) = 0.24790 0.03922
# Poissons Ratio (y) = 0.49508 -0.20281
# Poissons Ratio (z) = 0.10079 -0.26093
#
# Static dielectric constant tensor:
#      x y z
#    x 1.799830 0.000000 0.000000 
#    y 0.000000 1.673000 0.000000 
#    z 0.000000 0.000000 1.761130 
# 
# From -- ./inp_files/8525.got.cif
#   From: 2010.05.17/outbox.cif.g08.bks.cpg/sg57_5_cif.got.tgz:8525.got - 2010.06.03 13:58:18.
