data_PCOD9435611
_publ_section_title
;
Structure prediction by ZEFSAII (Michael W. Deem and Ramdas Pophale) SiO2 
 PCOD9435611
Probable space group: P B C M
;
_chemical_formula_sum "Si O2"
_cell_formula_units_Z 60
_cell_length_a 27.119481
_cell_length_b 5.080937
_cell_length_c 22.818346
_cell_angle_alpha 90.000000
_cell_angle_beta 90.000000
_cell_angle_gamma 90.000000
_cell_volume 3144.194076
_symmetry_space_group_name_H-M "P B C M"
_symmetry_group_IT_number 57
_symmetry_cell_setting 'orthorhombic'
loop_
_space_group_symop_operation_xyz
x,y,z
-x,-y,1/2+z
x,1/2-y,-z
-x,1/2+y,1/2-z
-x,-y,-z
x,y,1/2-z
-x,1/2+y,z
x,1/2-y,1/2+z
loop_
_atom_site_type_symbol
_atom_site_label
_atom_site_fract_x
_atom_site_fract_y
_atom_site_fract_z
Si Si1 0.470422 0.217765 0.821359
Si Si2 0.172480 0.224815 0.565663
Si Si3 0.302945 0.534060 0.679175
Si Si4 0.637188 0.965791 0.321209
Si Si5 0.803580 0.227515 0.639320
Si Si6 0.030386 0.535139 0.168322
Si Si7 0.876332 0.323288 0.750000
Si Si8 0.936586 0.511501 0.961880
O O1 0.468737 0.218582 0.750000
O O2 0.511765 0.005980 0.839025
O O3 0.416677 0.124831 0.841647
O O4 0.193814 0.250000 0.500000
O O5 0.172377 0.505443 0.597670
O O6 0.116797 0.122149 0.557322
O O7 0.198326 0.005642 0.605751
O O8 0.298994 0.536779 0.750000
O O9 0.321646 0.246869 0.661282
O O10 0.250738 0.622511 0.654325
O O11 0.344807 0.745318 0.662042
O O12 0.635225 0.963185 0.250000
O O13 0.835666 0.259796 0.698077
O O14 0.081308 0.606611 0.199579
O O15 0.036411 0.547933 0.098504
O O16 0.988373 0.745536 0.184292
O O17 0.959635 0.750000 0.000000
O O18 0.929922 0.250000 0.000000
#
# Coordination Sequence:
#
# PCOD9435611 Si02
#       8
#     8   8   8   8   8   8   4   8
#     4   9  15  23  37  59  86 135 198 246 281 318
#     4  11  24  42  67  92 116 146 189 239 290 337
#     4  10  19  33  48  78 108 148 185 231 288 339
#     4   9  17  28  43  63 106 143 188 245 286 326
#     4  12  24  41  66  91 118 152 196 238 285 349
#     4  12  28  46  66  91 123 156 187 228 291 351
#     4  12  28  46  66  92 122 158 192 236 280 346
#     4  11  23  43  71  95 119 148 190 237 285 337
#
# _framework density 19.082792000000001
#
# number of rings (size 3 to 8) (size 9 to 14) (size 15 to 20)
#    0.000    1.333    2.000    4.800    1.867    6.400 
#    0.000    0.000    0.000    0.000    0.000    0.000 
#    0.000    0.000    0.000    0.000    0.000  168.000 
#
# Total GULP energy -334249.060378 kJ/mol
# GULP energy per Si atom -5570.817673 kJ/mol
# Density = 1.903936 g / cm^3
# Si number density = 19.082792 Si / 1000 Ang^3
#
#
#
# Elastic Constant Matrix: (Units=GPa)
#
#
# Indices 1 2 3 4 5 6 
#
# 1 59.3971 -14.3868 10.9568 0.0000 0.0000 0.0000
# 2 -14.3868 68.5457 25.6995 0.0000 0.0000 0.0000
# 3 10.9568 25.6995 110.2840 0.0000 0.0000 0.0000
# 4 0.0000 0.0000 0.0000 -0.5711 0.0000 0.0000
# 5 0.0000 0.0000 0.0000 0.0000 8.4402 0.0000
# 6 0.0000 0.0000 0.0000 0.0000 0.0000 18.7396
#
#
#
# Elastic Compliance Matrix: (Units=1/GPa)
#
#
# Indices 1 2 3 4 5 6 
#
# 1 0.018615 0.005041 -0.003024 0.000000 0.000000 0.000000
# 2 0.005041 0.017350 -0.004544 0.000000 0.000000 0.000000
# 3 -0.003024 -0.004544 0.010427 0.000000 0.000000 0.000000
# 4 0.000000 0.000000 0.000000 -1.751010 0.000000 0.000000
# 5 0.000000 0.000000 0.000000 0.000000 0.118481 0.000000
# 6 0.000000 0.000000 0.000000 0.000000 0.000000 0.053363
#
#
# Mechanical properties :
#
#
# Convention : Reuss Voigt Hill
#
# Bulk Modulus (GPa) = 24.19119 31.41842 27.80480
# Shear Modulus (GPa) = -3.30264 19.71889 8.20813
#
# Velocity S-wave (km/s) = -1.31698 3.21804 2.07621
# Velocity P-wave (km/s) = 3.22365 5.50524 4.51107
#
# Compressibility (1/GPa) = 0.04133737
#
# Stress axis : x y z
#
# Youngs Moduli (GPa) = 53.72121 57.63538 95.90648
#
# Poissons Ratio (x) = -0.29053 0.29002
# Poissons Ratio (y) = -0.27080 0.43580
# Poissons Ratio (z) = 0.16245 0.26189
#
# Static dielectric constant tensor:
#      x y z
#    x 1.665980 0.000000 0.000000 
#    y 0.000000 1.679860 0.000000 
#    z 0.000000 0.000000 1.661190 
# 
# From -- ./inp_files/25866.got.cif
#   From: 2010.05.17/outbox.cif.g08.bks.cpg/sg57_13_cif.got.tgz:25866.got - 2010.06.03 13:58:18.
