data_PCOD9435688
_publ_section_title
;
Structure prediction by ZEFSAII (Michael W. Deem and Ramdas Pophale) SiO2 
 PCOD9435688
Probable space group: P B C M
;
_chemical_formula_sum "Si O2"
_cell_formula_units_Z 64
_cell_length_a 21.975048
_cell_length_b 7.148406
_cell_length_c 17.315088
_cell_angle_alpha 90.000000
_cell_angle_beta 90.000000
_cell_angle_gamma 90.000000
_cell_volume 2719.967696
_symmetry_space_group_name_H-M "P B C M"
_symmetry_group_IT_number 57
_symmetry_cell_setting 'orthorhombic'
loop_
_space_group_symop_operation_xyz
x,y,z
-x,-y,1/2+z
x,1/2-y,-z
-x,1/2+y,1/2-z
-x,-y,-z
x,y,1/2-z
-x,1/2+y,z
x,1/2-y,1/2+z
loop_
_atom_site_type_symbol
_atom_site_label
_atom_site_fract_x
_atom_site_fract_y
_atom_site_fract_z
Si Si1 0.453714 0.109237 0.662412
Si Si2 0.828474 0.134298 0.157751
Si Si3 0.294226 0.722609 0.089874
Si Si4 0.415718 0.675907 0.661564
Si Si5 0.205189 0.224376 0.092113
Si Si6 0.333370 0.287782 0.409581
Si Si7 0.957536 0.048371 0.340002
Si Si8 0.076172 0.171602 0.411940
O O1 0.464515 0.174808 0.750000
O O2 0.520939 0.102405 0.625709
O O3 0.399327 0.233427 0.628584
O O4 0.429369 0.898565 0.664371
O O5 0.829500 0.129979 0.250000
O O6 0.770346 0.253844 0.131242
O O7 0.898919 0.171710 0.133996
O O8 0.812729 0.927275 0.125594
O O9 0.352819 0.841992 0.115878
O O10 0.313746 0.505424 0.101545
O O11 0.283376 0.750000 0.000000
O O12 0.407089 0.610180 0.750000
O O13 0.273190 0.178671 0.120378
O O14 0.144802 0.099359 0.102924
O O15 0.212174 0.250000 0.000000
O O16 0.341406 0.250000 0.500000
O O17 0.971426 0.087095 0.250000
O O18 0.016625 0.052573 0.394148
O O19 0.933942 0.838397 0.350708
O O20 0.075254 0.250000 0.500000
#
# Coordination Sequence:
#
# PCOD9435688 Si02
#       8
#     8   8   8   8   8   8   8   8
#     4   9  18  32  51  73  96 127 166 204 243 293
#     4   9  18  33  53  74  99 136 175 208 250 308
#     4  10  20  33  51  76 100 127 167 211 251 294
#     4   9  18  33  51  71  97 128 163 204 247 295
#     4   8  16  31  51  75 101 129 167 211 252 297
#     4   9  18  33  51  71  99 129 159 201 249 299
#     4  10  20  34  52  76 105 135 169 211 258 304
#     4  10  19  33  53  76 102 135 173 210 252 304
#
# _framework density 23.529689999999999
#
# number of rings (size 3 to 8) (size 9 to 14) (size 15 to 20)
#    0.000    2.750    0.000    1.125    0.000    5.500 
#    0.000    6.250    0.000    0.750    0.000    5.250 
#    0.000    0.000    0.000    0.000    0.000    0.000 
#
# Total GULP energy -356903.595143 kJ/mol
# GULP energy per Si atom -5576.618674 kJ/mol
# Density = 2.347614 g / cm^3
# Si number density = 23.529690 Si / 1000 Ang^3
#
#
#
# Elastic Constant Matrix: (Units=GPa)
#
#
# Indices 1 2 3 4 5 6 
#
# 1 218.0857 35.6673 56.9006 0.0000 0.0000 0.0000
# 2 35.6673 40.0095 -2.0114 0.0000 0.0000 0.0000
# 3 56.9006 -2.0114 48.0902 0.0000 0.0000 0.0000
# 4 0.0000 0.0000 0.0000 22.2632 0.0000 0.0000
# 5 0.0000 0.0000 0.0000 0.0000 -65.2897 0.0000
# 6 0.0000 0.0000 0.0000 0.0000 0.0000 39.8408
#
#
#
# Elastic Compliance Matrix: (Units=1/GPa)
#
#
# Indices 1 2 3 4 5 6 
#
# 1 0.008733 -0.008323 -0.010681 0.000000 0.000000 0.000000
# 2 -0.008323 0.032978 0.011227 0.000000 0.000000 0.000000
# 3 -0.010681 0.011227 0.033902 0.000000 0.000000 0.000000
# 4 0.000000 0.000000 0.000000 0.044917 0.000000 0.000000
# 5 0.000000 0.000000 0.000000 0.000000 -0.015316 0.000000
# 6 0.000000 0.000000 0.000000 0.000000 0.000000 0.025100
#
#
# Mechanical properties :
#
#
# Convention : Reuss Voigt Hill
#
# Bulk Modulus (GPa) = 16.65045 54.14426 35.39736
# Shear Modulus (GPa) = 30.14075 13.73812 21.93943
#
# Velocity S-wave (km/s) = 3.58294 2.41895 3.05686
# Velocity P-wave (km/s) = 4.92020 5.55542 5.24743
#
# Compressibility (1/GPa) = 0.06005843
#
# Stress axis : x y z
#
# Youngs Moduli (GPa) = 114.50330 30.32346 29.49663
#
# Poissons Ratio (x) = 0.25237 0.31507
# Poissons Ratio (y) = 0.95296 -0.33115
# Poissons Ratio (z) = 1.22306 -0.34043
#
# Static dielectric constant tensor:
#      x y z
#    x 2.012940 0.000000 0.000000 
#    y 0.000000 2.005350 0.000000 
#    z 0.000000 0.000000 1.802180 
# 
# From -- ./inp_files/23083.got.cif
#   From: 2010.05.17/outbox.cif.g08.bks.cpg/sg57_12_cif.got.tgz:23083.got - 2010.06.03 13:58:18.
