data_PCOD9435450
_publ_section_title
;
Structure prediction by ZEFSAII (Michael W. Deem and Ramdas Pophale) SiO2 
 PCOD9435450
Probable space group: P B C M
;
_chemical_formula_sum "Si O2"
_cell_formula_units_Z 40
_cell_length_a 26.696108
_cell_length_b 9.891334
_cell_length_c 8.721220
_cell_angle_alpha 90.000000
_cell_angle_beta 90.000000
_cell_angle_gamma 90.000000
_cell_volume 2302.926406
_symmetry_space_group_name_H-M "P B C M"
_symmetry_group_IT_number 57
_symmetry_cell_setting 'orthorhombic'
loop_
_space_group_symop_operation_xyz
x,y,z
-x,-y,1/2+z
x,1/2-y,-z
-x,1/2+y,1/2-z
-x,-y,-z
x,y,1/2-z
-x,1/2+y,z
x,1/2-y,1/2+z
loop_
_atom_site_type_symbol
_atom_site_label
_atom_site_fract_x
_atom_site_fract_y
_atom_site_fract_z
Si Si1 0.256451 0.098284 0.934155
Si Si2 0.655030 0.100920 0.434608
Si Si3 0.153544 0.401975 0.933536
Si Si4 0.458877 0.899567 0.933971
Si Si5 0.957922 0.597991 0.066196
O O1 0.255024 0.106072 0.750000
O O2 0.303045 0.005959 0.983520
O O3 0.261490 0.250000 0.000000
O O4 0.203702 0.037317 0.993641
O O5 0.664702 0.250000 0.500000
O O6 0.656612 0.108680 0.250000
O O7 0.598202 0.060748 0.478052
O O8 0.158920 0.398041 0.750000
O O9 0.098220 0.456781 0.971045
O O10 0.152421 0.250000 0.000000
O O11 0.461888 0.896582 0.750000
O O12 0.467237 0.750000 0.000000
O O13 0.500000 0.000000 0.000000
O O14 0.961785 0.605526 0.250000
O O15 0.962672 0.750000 0.000000
O O16 0.000000 0.500000 0.000000
#
# Coordination Sequence:
#
# PCOD9435450 Si02
#       5
#     8   8   8   8   8
#     4  10  19  32  51  76 101 129 166 207 247 293
#     4   9  20  36  53  74 102 134 168 204 249 300
#     4   9  17  30  49  73  99 130 165 204 249 296
#     4  10  20  36  55  77 104 135 171 211 254 302
#     4  10  20  34  53  76 103 134 170 210 255 303
#
# _framework density 17.369205000000001
#
# number of rings (size 3 to 8) (size 9 to 14) (size 15 to 20)
#    0.000    2.400    0.000    3.600    0.000    5.600 
#    0.000    3.000    0.000    2.400    0.000    0.000 
#    0.000    0.000    0.000    0.000    0.000    0.000 
#
# Total GULP energy -222992.451201 kJ/mol
# GULP energy per Si atom -5574.811280 kJ/mol
# Density = 1.732967 g / cm^3
# Si number density = 17.369205 Si / 1000 Ang^3
#
#
#
# Elastic Constant Matrix: (Units=GPa)
#
#
# Indices 1 2 3 4 5 6 
#
# 1 203.6712 98.4222 62.2346 0.0000 0.0000 0.0000
# 2 98.4222 70.9471 33.0056 0.0000 0.0000 0.0000
# 3 62.2346 33.0056 59.1623 0.0000 0.0000 0.0000
# 4 0.0000 0.0000 0.0000 28.2035 0.0000 0.0000
# 5 0.0000 0.0000 0.0000 0.0000 28.5464 0.0000
# 6 0.0000 0.0000 0.0000 0.0000 0.0000 36.9909
#
#
#
# Elastic Compliance Matrix: (Units=1/GPa)
#
#
# Indices 1 2 3 4 5 6 
#
# 1 0.016405 -0.019892 -0.006159 0.000000 0.000000 0.000000
# 2 -0.019892 0.043157 -0.003151 0.000000 0.000000 0.000000
# 3 -0.006159 -0.003151 0.025139 0.000000 0.000000 0.000000
# 4 0.000000 0.000000 0.000000 0.035457 0.000000 0.000000
# 5 0.000000 0.000000 0.000000 0.000000 0.035031 0.000000
# 6 0.000000 0.000000 0.000000 0.000000 0.000000 0.027034
#
#
# Mechanical properties :
#
#
# Convention : Reuss Voigt Hill
#
# Bulk Modulus (GPa) = 38.02851 80.12280 59.07566
# Shear Modulus (GPa) = 20.04882 28.08937 24.06909
#
# Velocity S-wave (km/s) = 3.40115 4.02580 3.72658
# Velocity P-wave (km/s) = 6.11273 8.23643 7.25273
#
# Compressibility (1/GPa) = 0.02629606
#
# Stress axis : x y z
#
# Youngs Moduli (GPa) = 60.95884 23.17144 39.77818
#
# Poissons Ratio (x) = 0.46093 0.24499
# Poissons Ratio (y) = 1.21260 0.12535
# Poissons Ratio (z) = 0.37544 0.07302
#
# Static dielectric constant tensor:
#      x y z
#    x 1.631850 0.000000 0.000000 
#    y 0.000000 1.534250 0.000000 
#    z 0.000000 0.000000 1.583700 
# 
# From -- ./inp_files/7804.got.cif
#   From: 2010.05.17/outbox.cif.g08.bks.cpg/sg57_4_cif.got.tgz:7804.got - 2010.06.03 13:58:18.
