data_PCOD9435699
_publ_section_title
;
Structure prediction by ZEFSAII (Michael W. Deem and Ramdas Pophale) SiO2 
 PCOD9435699
Probable space group: P B C M
;
_chemical_formula_sum "Si O2"
_cell_formula_units_Z 64
_cell_length_a 14.835873
_cell_length_b 12.617506
_cell_length_c 14.690260
_cell_angle_alpha 90.000000
_cell_angle_beta 90.000000
_cell_angle_gamma 90.000000
_cell_volume 2749.894987
_symmetry_space_group_name_H-M "P B C M"
_symmetry_group_IT_number 57
_symmetry_cell_setting 'orthorhombic'
loop_
_space_group_symop_operation_xyz
x,y,z
-x,-y,1/2+z
x,1/2-y,-z
-x,1/2+y,1/2-z
-x,-y,-z
x,y,1/2-z
-x,1/2+y,z
x,1/2-y,1/2+z
loop_
_atom_site_type_symbol
_atom_site_label
_atom_site_fract_x
_atom_site_fract_y
_atom_site_fract_z
Si Si1 0.636296 0.300998 0.143583
Si Si2 0.723568 0.634850 0.537737
Si Si3 0.669588 0.952537 0.851653
Si Si4 0.915902 0.501555 0.383809
Si Si5 0.972974 0.776395 0.856602
Si Si6 0.898678 0.938754 0.088387
Si Si7 0.166492 0.774595 0.354159
Si Si8 0.560746 0.764301 0.356107
O O1 0.637136 0.268646 0.250000
O O2 0.632561 0.428869 0.142937
O O3 0.733431 0.265063 0.104784
O O4 0.540808 0.262476 0.106844
O O5 0.753952 0.750000 0.500000
O O6 0.721552 0.564862 0.446157
O O7 0.793263 0.578239 0.606684
O O8 0.628528 0.661756 0.585878
O O9 0.713284 0.943500 0.750000
O O10 0.599485 0.855149 0.855864
O O11 0.020694 0.487241 0.353074
O O12 0.905821 0.624108 0.358710
O O13 0.906965 0.502200 0.492564
O O14 0.859313 0.400402 0.352383
O O15 0.978036 0.743691 0.750000
O O16 0.933801 0.681518 0.915624
O O17 0.077604 0.785931 0.889732
O O18 0.174734 0.738757 0.250000
O O19 0.560302 0.800085 0.250000
#
# Coordination Sequence:
#
# PCOD9435699 Si02
#       8
#     8   8   8   8   8   8   8   8
#     4   9  17  32  53  75 102 137 179 224 266 314
#     4  10  19  33  53  77 107 139 175 219 271 327
#     4   9  18  33  54  77 101 134 176 220 267 320
#     4  10  19  34  53  73 105 141 176 219 270 324
#     4  10  20  34  53  78 108 140 176 222 270 319
#     4  10  21  34  51  75 103 137 175 217 267 321
#     4   9  18  32  53  81 107 138 183 226 265 316
#     4   9  19  34  51  75 107 139 173 219 271 320
#
# _framework density 23.273616000000001
#
# number of rings (size 3 to 8) (size 9 to 14) (size 15 to 20)
#    0.000    2.500    0.000    2.250    0.000    2.500 
#    0.000    6.875    0.000   15.000    0.000    0.000 
#    0.000    0.000    0.000    0.375    0.000    0.000 
#
# Total GULP energy -356369.511618 kJ/mol
# GULP energy per Si atom -5568.273619 kJ/mol
# Density = 2.322064 g / cm^3
# Si number density = 23.273616 Si / 1000 Ang^3
#
#
#
# Elastic Constant Matrix: (Units=GPa)
#
#
# Indices 1 2 3 4 5 6 
#
# 1 163.9938 -3.4521 12.4493 0.0000 0.0000 0.0000
# 2 -3.4521 31.8676 -2.2206 0.0000 0.0000 0.0000
# 3 12.4493 -2.2206 77.1484 0.0000 0.0000 0.0000
# 4 0.0000 0.0000 0.0000 17.0893 0.0000 0.0000
# 5 0.0000 0.0000 0.0000 0.0000 16.7124 0.0000
# 6 0.0000 0.0000 0.0000 0.0000 0.0000 18.0642
#
#
#
# Elastic Compliance Matrix: (Units=1/GPa)
#
#
# Indices 1 2 3 4 5 6 
#
# 1 0.006185 0.000602 -0.000981 0.000000 0.000000 0.000000
# 2 0.000602 0.031501 0.000810 0.000000 0.000000 0.000000
# 3 -0.000981 0.000810 0.013144 0.000000 0.000000 0.000000
# 4 0.000000 0.000000 0.000000 0.058516 0.000000 0.000000
# 5 0.000000 0.000000 0.000000 0.000000 0.059836 0.000000
# 6 0.000000 0.000000 0.000000 0.000000 0.000000 0.055358
#
#
# Mechanical properties :
#
#
# Convention : Reuss Voigt Hill
#
# Bulk Modulus (GPa) = 19.34573 31.84034 25.59304
# Shear Modulus (GPa) = 20.75471 28.12206 24.43839
#
# Velocity S-wave (km/s) = 2.98949 3.47987 3.24396
# Velocity P-wave (km/s) = 4.49960 5.46411 5.00515
#
# Compressibility (1/GPa) = 0.05169099
#
# Stress axis : x y z
#
# Youngs Moduli (GPa) = 161.68392 31.74461 76.08270
#
# Poissons Ratio (x) = -0.01910 0.07462
# Poissons Ratio (y) = -0.09728 -0.06160
# Poissons Ratio (z) = 0.15857 -0.02570
#
# Static dielectric constant tensor:
#      x y z
#    x 1.994210 0.000000 0.000000 
#    y 0.000000 1.858860 0.000000 
#    z 0.000000 0.000000 1.915970 
# 
# From -- ./inp_files/22108.got.cif
#   From: 2010.05.17/outbox.cif.g08.bks.cpg/sg57_12_cif.got.tgz:22108.got - 2010.06.03 13:58:18.
