data_PCOD9435487
_publ_section_title
;
Structure prediction by ZEFSAII (Michael W. Deem and Ramdas Pophale) SiO2 
 PCOD9435487
Probable space group: P B C M
;
_chemical_formula_sum "Si O2"
_cell_formula_units_Z 64
_cell_length_a 21.883496
_cell_length_b 19.265595
_cell_length_c 9.000265
_cell_angle_alpha 90.000000
_cell_angle_beta 90.000000
_cell_angle_gamma 90.000000
_cell_volume 3794.498864
_symmetry_space_group_name_H-M "P B C M"
_symmetry_group_IT_number 57
_symmetry_cell_setting 'orthorhombic'
loop_
_space_group_symop_operation_xyz
x,y,z
-x,-y,1/2+z
x,1/2-y,-z
-x,1/2+y,1/2-z
-x,-y,-z
x,y,1/2-z
-x,1/2+y,z
x,1/2-y,1/2+z
loop_
_atom_site_type_symbol
_atom_site_label
_atom_site_fract_x
_atom_site_fract_y
_atom_site_fract_z
Si Si1 0.437681 0.973363 0.071568
Si Si2 0.893595 0.825710 0.071312
Si Si3 0.966755 0.324861 0.428189
Si Si4 0.846566 0.403964 0.427778
Si Si5 0.272099 0.859783 0.581324
Si Si6 0.315822 0.479655 0.420094
Si Si7 0.605462 0.181197 0.926318
Si Si8 0.194473 0.061243 0.427773
O O1 0.438573 0.979735 0.250000
O O2 0.426821 0.891763 0.034749
O O3 0.500000 0.000000 0.000000
O O4 0.380059 0.015291 0.004942
O O5 0.887901 0.822308 0.250000
O O6 0.963884 0.846072 0.033677
O O7 0.883480 0.750000 0.000000
O O8 0.846899 0.880643 0.003546
O O9 0.954960 0.250000 0.500000
O O10 0.964512 0.317471 0.250000
O O11 0.913787 0.378357 0.472021
O O12 0.839515 0.395569 0.250000
O O13 0.794519 0.358881 0.508575
O O14 0.834115 0.484960 0.460475
O O15 0.272115 0.833052 0.750000
O O16 0.325083 0.825602 0.484498
O O17 0.291229 0.941017 0.585360
O O18 0.323256 0.455780 0.250000
O O19 0.262960 0.438583 0.506218
O O20 0.605094 0.188308 0.750000
O O21 0.577964 0.250000 0.000000
O O22 0.196039 0.069631 0.250000
#
# Coordination Sequence:
#
# PCOD9435487 Si02
#       8
#     8   8   8   8   8   8   8   8
#     4  10  20  34  54  80 108 140 175 209 250 301
#     4  10  20  35  53  72  95 125 165 211 260 314
#     4   9  19  34  49  66  92 128 167 208 254 305
#     4   9  18  32  48  69 100 134 167 205 251 302
#     4   9  17  29  46  69  97 129 164 201 243 291
#     4   9  17  31  51  75 102 130 162 201 243 289
#     4  10  20  33  50  73 102 136 174 213 250 291
#     4  10  19  32  52  76 101 130 164 206 256 304
#
# _framework density 16.866522
#
# number of rings (size 3 to 8) (size 9 to 14) (size 15 to 20)
#    0.000    2.500    0.000    2.250    0.000    7.000 
#    0.000    1.250    0.000    0.750    0.000    3.500 
#    0.000    0.000    0.000    0.000    0.000    0.000 
#
# Total GULP energy -356892.068177 kJ/mol
# GULP energy per Si atom -5576.438565 kJ/mol
# Density = 1.682813 g / cm^3
# Si number density = 16.866522 Si / 1000 Ang^3
#
#
#
# Elastic Constant Matrix: (Units=GPa)
#
#
# Indices 1 2 3 4 5 6 
#
# 1 155.7879 74.0356 67.4824 0.0000 0.0000 0.0000
# 2 74.0356 71.6001 50.8568 0.0000 0.0000 0.0000
# 3 67.4824 50.8568 77.6064 0.0000 0.0000 0.0000
# 4 0.0000 0.0000 0.0000 26.6037 0.0000 0.0000
# 5 0.0000 0.0000 0.0000 0.0000 29.1668 0.0000
# 6 0.0000 0.0000 0.0000 0.0000 0.0000 14.6092
#
#
#
# Elastic Compliance Matrix: (Units=1/GPa)
#
#
# Indices 1 2 3 4 5 6 
#
# 1 0.013534 -0.010543 -0.004860 0.000000 0.000000 0.000000
# 2 -0.010543 0.034341 -0.013337 0.000000 0.000000 0.000000
# 3 -0.004860 -0.013337 0.025851 0.000000 0.000000 0.000000
# 4 0.000000 0.000000 0.000000 0.037589 0.000000 0.000000
# 5 0.000000 0.000000 0.000000 0.000000 0.034286 0.000000
# 6 0.000000 0.000000 0.000000 0.000000 0.000000 0.068450
#
#
# Mechanical properties :
#
#
# Convention : Reuss Voigt Hill
#
# Bulk Modulus (GPa) = 61.54738 76.63822 69.09280
# Shear Modulus (GPa) = 18.05409 21.58390 19.81900
#
# Velocity S-wave (km/s) = 3.27526 3.58116 3.43162
# Velocity P-wave (km/s) = 7.13254 7.91431 7.53357
#
# Compressibility (1/GPa) = 0.01624764
#
# Stress axis : x y z
#
# Youngs Moduli (GPa) = 73.88528 29.11988 38.68304
#
# Poissons Ratio (x) = 0.30701 0.18800
# Poissons Ratio (y) = 0.77897 0.51590
# Poissons Ratio (z) = 0.35908 0.38836
#
# Static dielectric constant tensor:
#      x y z
#    x 1.553710 0.000000 0.000000 
#    y 0.000000 1.565220 0.000000 
#    z 0.000000 0.000000 1.566910 
# 
# From -- ./inp_files/7136.got.cif
#   From: 2010.05.17/outbox.cif.g08.bks.cpg/sg57_4_cif.got.tgz:7136.got - 2010.06.03 13:58:18.
