data_PCOD9435851
_publ_section_title
;
Structure prediction by ZEFSAII (Michael W. Deem and Ramdas Pophale) SiO2 
 PCOD9435851
Probable space group: P B C M
;
_chemical_formula_sum "Si O2"
_cell_formula_units_Z 52
_cell_length_a 14.647201
_cell_length_b 5.182466
_cell_length_c 28.184752
_cell_angle_alpha 90.000000
_cell_angle_beta 90.000000
_cell_angle_gamma 90.000000
_cell_volume 2139.465663
_symmetry_space_group_name_H-M "P B C M"
_symmetry_group_IT_number 57
_symmetry_cell_setting 'orthorhombic'
loop_
_space_group_symop_operation_xyz
x,y,z
-x,-y,1/2+z
x,1/2-y,-z
-x,1/2+y,1/2-z
-x,-y,-z
x,y,1/2-z
-x,1/2+y,z
x,1/2-y,1/2+z
loop_
_atom_site_type_symbol
_atom_site_label
_atom_site_fract_x
_atom_site_fract_y
_atom_site_fract_z
Si Si1 0.937882 0.294695 0.250000
Si Si2 0.615902 0.288610 0.844506
Si Si3 0.175551 0.892700 0.051543
Si Si4 0.619714 0.007149 0.969993
Si Si5 0.935626 0.227677 0.356327
Si Si6 0.562880 0.500176 0.750000
Si Si7 0.935435 0.750000 0.500000
Si Si8 0.588635 0.788143 0.876255
O O1 0.893312 0.252536 0.302576
O O2 0.980275 0.582226 0.250000
O O3 0.624466 0.430969 0.794987
O O4 0.638282 0.513750 0.881831
O O5 0.506652 0.231714 0.850086
O O6 0.650779 0.999448 0.849314
O O7 0.283576 0.917986 0.052953
O O8 0.130577 0.767468 0.098136
O O9 0.162467 0.750000 0.000000
O O10 0.130410 0.176246 0.043612
O O11 0.561388 0.920846 0.925366
O O12 0.585708 0.250000 0.000000
O O13 0.633978 0.750000 0.000000
O O14 0.011357 0.455938 0.359606
O O15 0.519832 0.786397 0.750000
O O16 0.000000 0.500000 0.500000
#
# Coordination Sequence:
#
# PCOD9435851 Si02
#       8
#     4   8   8   8   8   4   4   8
#     4   8  16  34  50  75 105 134 176 214 260 330
#     4  10  19  33  55  86 112 139 180 238 285 324
#     4  11  24  38  55  83 116 147 186 230 287 347
#     4  11  24  41  56  73 107 155 191 224 274 347
#     4  10  21  33  56  81 107 141 177 225 279 325
#     4  12  16  30  54  87 121 142 168 226 306 348
#     4  12  22  34  54  80 116 136 170 230 280 336
#     4  10  19  35  54  77 108 142 185 227 272 326
#
# _framework density 24.305133000000001
#
# number of rings (size 3 to 8) (size 9 to 14) (size 15 to 20)
#    0.000    1.538    4.615    1.846    2.154    0.000 
#    0.000    9.231    0.000    2.769    0.000    2.154 
#    0.000    0.000    0.000    0.000    0.000    0.000 
#
# Total GULP energy -289958.948401 kJ/mol
# GULP energy per Si atom -5576.133623 kJ/mol
# Density = 2.424981 g / cm^3
# Si number density = 24.305133 Si / 1000 Ang^3
#
#
#
# Elastic Constant Matrix: (Units=GPa)
#
#
# Indices 1 2 3 4 5 6 
#
# 1 40.0027 -0.7407 25.2882 0.0000 0.0000 0.0000
# 2 -0.7407 151.5895 2.7454 0.0000 0.0000 0.0000
# 3 25.2882 2.7454 158.7333 0.0000 0.0000 0.0000
# 4 0.0000 0.0000 0.0000 38.9665 0.0000 0.0000
# 5 0.0000 0.0000 0.0000 0.0000 10.7775 0.0000
# 6 0.0000 0.0000 0.0000 0.0000 0.0000 11.4005
#
#
#
# Elastic Compliance Matrix: (Units=1/GPa)
#
#
# Indices 1 2 3 4 5 6 
#
# 1 0.027805 0.000216 -0.004433 0.000000 0.000000 0.000000
# 2 0.000216 0.006601 -0.000149 0.000000 0.000000 0.000000
# 3 -0.004433 -0.000149 0.007009 0.000000 0.000000 0.000000
# 4 0.000000 0.000000 0.000000 0.025663 0.000000 0.000000
# 5 0.000000 0.000000 0.000000 0.000000 0.092786 0.000000
# 6 0.000000 0.000000 0.000000 0.000000 0.000000 0.087716
#
#
# Mechanical properties :
#
#
# Convention : Reuss Voigt Hill
#
# Bulk Modulus (GPa) = 30.59738 44.99012 37.79375
# Shear Modulus (GPa) = 18.71226 33.76441 26.23834
#
# Velocity S-wave (km/s) = 2.77770 3.73123 3.28920
# Velocity P-wave (km/s) = 4.78578 6.09208 5.47801
#
# Compressibility (1/GPa) = 0.03268253
#
# Stress axis : x y z
#
# Youngs Moduli (GPa) = 35.96477 151.50343 142.67887
#
# Poissons Ratio (x) = -0.03275 0.63256
# Poissons Ratio (y) = -0.00777 0.02120
# Poissons Ratio (z) = 0.15945 0.02251
#
# Static dielectric constant tensor:
#      x y z
#    x 1.959910 0.000000 0.000000 
#    y 0.000000 2.080140 0.000000 
#    z 0.000000 0.000000 2.065120 
# 
# From -- ./inp_files/28855.got.cif
#   From: 2010.05.17/outbox.cif.g08.bks.cpg/sg57_15_cif.got.tgz:28855.got - 2010.06.03 13:58:18.
