data_PCOD9435199
_publ_section_title
;
Structure prediction by ZEFSAII (Michael W. Deem and Ramdas Pophale) SiO2 
 PCOD9435199
Probable space group: P B C M
;
_chemical_formula_sum "Si O2"
_cell_formula_units_Z 48
_cell_length_a 10.340450
_cell_length_b 30.870160
_cell_length_c 8.833587
_cell_angle_alpha 90.000000
_cell_angle_beta 90.000000
_cell_angle_gamma 90.000000
_cell_volume 2819.781196
_symmetry_space_group_name_H-M "P B C M"
_symmetry_group_IT_number 57
_symmetry_cell_setting 'orthorhombic'
loop_
_space_group_symop_operation_xyz
x,y,z
-x,-y,1/2+z
x,1/2-y,-z
-x,1/2+y,1/2-z
-x,-y,-z
x,y,1/2-z
-x,1/2+y,z
x,1/2-y,1/2+z
loop_
_atom_site_type_symbol
_atom_site_label
_atom_site_fract_x
_atom_site_fract_y
_atom_site_fract_z
Si Si1 0.372102 0.521141 0.068516
Si Si2 0.122216 0.025380 0.068481
Si Si3 0.021036 0.388768 0.433581
Si Si4 0.029155 0.206209 0.575819
Si Si5 0.733518 0.114274 0.430752
Si Si6 0.714508 0.204907 0.925732
O O1 0.369169 0.515668 0.250000
O O2 0.355479 0.572571 0.037391
O O3 0.500000 0.500000 0.000000
O O4 0.250009 0.497258 0.994282
O O5 0.118367 0.024211 0.250000
O O6 0.106512 0.073947 0.006577
O O7 0.000000 0.000000 0.000000
O O8 0.021964 0.390919 0.250000
O O9 0.872676 0.393698 0.489810
O O10 0.066873 0.340941 0.484503
O O11 0.076523 0.250000 0.500000
O O12 0.066656 0.207775 0.750000
O O13 0.872004 0.206239 0.568371
O O14 0.754278 0.116937 0.250000
O O15 0.679763 0.160224 0.490268
O O16 0.677225 0.202945 0.750000
O O17 0.669115 0.250000 0.000000
#
# Coordination Sequence:
#
# PCOD9435199 Si02
#       6
#     8   8   8   8   8   8
#     4  11  24  40  57  79 108 144 183 225 273 325
#     4  12  23  36  56  80 107 140 180 225 269 319
#     4  10  19  31  49  74 104 138 177 219 266 318
#     4   8  15  25  39  63  96 133 167 206 255 309
#     4  10  19  31  49  73 103 138 176 216 266 319
#     4   9  16  26  42  66  98 133 170 212 261 313
#
# _framework density 17.022599
#
# number of rings (size 3 to 8) (size 9 to 14) (size 15 to 20)
#    0.000    2.000    1.667    4.500    0.000    6.667 
#    0.000    0.000    0.000    0.000    0.000    1.167 
#    0.000    2.667    0.000    0.000    0.000    0.000 
#
# Total GULP energy -267659.473188 kJ/mol
# GULP energy per Si atom -5576.239025 kJ/mol
# Density = 1.698385 g / cm^3
# Si number density = 17.022599 Si / 1000 Ang^3
#
#
#
# Elastic Constant Matrix: (Units=GPa)
#
#
# Indices 1 2 3 4 5 6 
#
# 1 64.1605 50.0956 35.8707 0.0000 0.0000 0.0000
# 2 50.0956 190.9820 82.1005 0.0000 0.0000 0.0000
# 3 35.8707 82.1005 110.4070 0.0000 0.0000 0.0000
# 4 0.0000 0.0000 0.0000 35.1363 0.0000 0.0000
# 5 0.0000 0.0000 0.0000 0.0000 19.4482 0.0000
# 6 0.0000 0.0000 0.0000 0.0000 0.0000 14.4373
#
#
#
# Elastic Compliance Matrix: (Units=1/GPa)
#
#
# Indices 1 2 3 4 5 6 
#
# 1 0.020711 -0.003733 -0.003953 0.000000 0.000000 0.000000
# 2 -0.003733 0.008369 -0.005011 0.000000 0.000000 0.000000
# 3 -0.003953 -0.005011 0.014068 0.000000 0.000000 0.000000
# 4 0.000000 0.000000 0.000000 0.028461 0.000000 0.000000
# 5 0.000000 0.000000 0.000000 0.000000 0.051419 0.000000
# 6 0.000000 0.000000 0.000000 0.000000 0.000000 0.069265
#
#
# Mechanical properties :
#
#
# Convention : Reuss Voigt Hill
#
# Bulk Modulus (GPa) = 56.32410 77.96477 67.14443
# Shear Modulus (GPa) = 22.36100 26.96987 24.66544
#
# Velocity S-wave (km/s) = 3.62830 3.98472 3.81068
# Velocity P-wave (km/s) = 7.12127 8.18968 7.67409
#
# Compressibility (1/GPa) = 0.01775439
#
# Stress axis : x y z
#
# Youngs Moduli (GPa) = 48.28429 119.48306 71.08529
#
# Poissons Ratio (x) = 0.44607 0.28097
# Poissons Ratio (y) = 0.18026 0.35619
# Poissons Ratio (z) = 0.19085 0.59869
#
# Static dielectric constant tensor:
#      x y z
#    x 1.553770 0.000000 0.000000 
#    y 0.000000 1.623110 0.000000 
#    z 0.000000 0.000000 1.578720 
# 
# From -- ./inp_files/2087.got.cif
#   From: 2010.05.17/outbox.cif.g08.bks.cpg/sg57_2_cif.got.tgz:2087.got - 2010.06.03 13:58:18.
