data_PCOD9435127
_publ_section_title
;
Structure prediction by ZEFSAII (Michael W. Deem and Ramdas Pophale) SiO2 
 PCOD9435127
Probable space group: P B C M
;
_chemical_formula_sum "Si O2"
_cell_formula_units_Z 64
_cell_length_a 22.599816
_cell_length_b 6.739018
_cell_length_c 14.990094
_cell_angle_alpha 90.000000
_cell_angle_beta 90.000000
_cell_angle_gamma 90.000000
_cell_volume 2282.999813
_symmetry_space_group_name_H-M "P B C M"
_symmetry_group_IT_number 57
_symmetry_cell_setting 'orthorhombic'
loop_
_space_group_symop_operation_xyz
x,y,z
-x,-y,1/2+z
x,1/2-y,-z
-x,1/2+y,1/2-z
-x,-y,-z
x,y,1/2-z
-x,1/2+y,z
x,1/2-y,1/2+z
loop_
_atom_site_type_symbol
_atom_site_label
_atom_site_fract_x
_atom_site_fract_y
_atom_site_fract_z
Si Si1 0.670253 0.225339 0.143297
Si Si2 0.202726 0.714861 0.640609
Si Si3 0.294062 0.265224 0.107165
Si Si4 0.081626 0.582655 0.647614
Si Si5 0.417359 0.203075 0.103871
Si Si6 0.170141 0.330226 0.098506
Si Si7 0.954929 0.539916 0.851032
Si Si8 0.546479 0.131090 0.150442
O O1 0.666398 0.251739 0.250000
O O2 0.730347 0.332121 0.109237
O O3 0.602578 0.247380 0.106948
O O4 0.687740 0.993263 0.127846
O O5 0.202291 0.721608 0.750000
O O6 0.148162 0.576100 0.609733
O O7 0.186824 0.935851 0.606556
O O8 0.352041 0.138199 0.136634
O O9 0.228290 0.235676 0.146747
O O10 0.289049 0.250000 0.000000
O O11 0.086311 0.512450 0.750000
O O12 0.070738 0.820217 0.650109
O O13 0.019430 0.520247 0.602918
O O14 0.481359 0.101596 0.110026
O O15 0.429966 0.408355 0.153642
O O16 0.409623 0.250000 0.000000
O O17 0.100545 0.320840 0.124904
O O18 0.170901 0.250000 0.000000
O O19 0.970504 0.599298 0.750000
O O20 0.538446 0.213247 0.250000
#
# Coordination Sequence:
#
# PCOD9435127 Si02
#       8
#     8   8   8   8   8   8   8   8
#     4   8  14  24  41  62  82 105 140 180 215 251
#     4   8  13  24  40  58  77 103 140 177 204 239
#     4   8  15  26  41  61  85 110 142 180 215 251
#     4   8  14  24  41  60  78 101 133 169 203 238
#     4  10  19  32  49  69  92 123 158 189 223 274
#     4   9  15  24  39  61  84 107 135 174 215 248
#     4   9  16  27  41  59  81 107 136 168 204 247
#     4  10  19  31  47  70  96 120 147 189 237 274
#
# _framework density 28.033291999999999
#
# number of rings (size 3 to 8) (size 9 to 14) (size 15 to 20)
#    0.000    3.250    0.000    1.875    0.000    1.000 
#    0.000    2.500    0.000    1.500    0.000    4.375 
#    0.000    0.000    0.000    0.000    0.000    0.000 
#
# Total GULP energy -357170.076392 kJ/mol
# GULP energy per Si atom -5580.782444 kJ/mol
# Density = 2.796949 g / cm^3
# Si number density = 28.033292 Si / 1000 Ang^3
#
#
#
# Elastic Constant Matrix: (Units=GPa)
#
#
# Indices 1 2 3 4 5 6 
#
# 1 385.0417 53.7037 32.5190 0.0000 0.0000 0.0000
# 2 53.7037 56.0095 14.8140 0.0000 0.0000 0.0000
# 3 32.5190 14.8140 97.1022 0.0000 0.0000 0.0000
# 4 0.0000 0.0000 0.0000 24.5058 0.0000 0.0000
# 5 0.0000 0.0000 0.0000 0.0000 21.1276 0.0000
# 6 0.0000 0.0000 0.0000 0.0000 0.0000 71.0803
#
#
#
# Elastic Compliance Matrix: (Units=1/GPa)
#
#
# Indices 1 2 3 4 5 6 
#
# 1 0.003031 -0.002748 -0.000596 0.000000 0.000000 0.000000
# 2 -0.002748 0.021097 -0.002298 0.000000 0.000000 0.000000
# 3 -0.000596 -0.002298 0.010849 0.000000 0.000000 0.000000
# 4 0.000000 0.000000 0.000000 0.040807 0.000000 0.000000
# 5 0.000000 0.000000 0.000000 0.000000 0.047331 0.000000
# 6 0.000000 0.000000 0.000000 0.000000 0.000000 0.014069
#
#
# Mechanical properties :
#
#
# Convention : Reuss Voigt Hill
#
# Bulk Modulus (GPa) = 42.20844 82.24743 62.22793
# Shear Modulus (GPa) = 31.97640 52.48384 42.23012
#
# Velocity S-wave (km/s) = 3.38103 4.33158 3.88548
# Velocity P-wave (km/s) = 5.50736 7.37697 6.50964
#
# Compressibility (1/GPa) = 0.02369195
#
# Stress axis : x y z
#
# Youngs Moduli (GPa) = 329.94909 47.39952 92.17838
#
# Poissons Ratio (x) = 0.13028 0.05491
# Poissons Ratio (y) = 0.90685 0.21184
# Poissons Ratio (z) = 0.19655 0.10893
#
# Static dielectric constant tensor:
#      x y z
#    x 2.384040 0.000000 0.000000 
#    y 0.000000 2.341180 0.000000 
#    z 0.000000 0.000000 2.115340 
# 
# From -- ./inp_files/23055.got.cif
#   From: 2010.05.17/outbox.cif.g08.bks.cpg/sg57_12_cif.got.tgz:23055.got - 2010.06.03 13:58:18.
