data_PCOD9435195
_publ_section_title
;
Structure prediction by ZEFSAII (Michael W. Deem and Ramdas Pophale) SiO2 
 PCOD9435195
Probable space group: P B C M
;
_chemical_formula_sum "Si O2"
_cell_formula_units_Z 64
_cell_length_a 15.374054
_cell_length_b 25.153866
_cell_length_c 8.816123
_cell_angle_alpha 90.000000
_cell_angle_beta 90.000000
_cell_angle_gamma 90.000000
_cell_volume 3409.343705
_symmetry_space_group_name_H-M "P B C M"
_symmetry_group_IT_number 57
_symmetry_cell_setting 'orthorhombic'
loop_
_space_group_symop_operation_xyz
x,y,z
-x,-y,1/2+z
x,1/2-y,-z
-x,1/2+y,1/2-z
-x,-y,-z
x,y,1/2-z
-x,1/2+y,z
x,1/2-y,1/2+z
loop_
_atom_site_type_symbol
_atom_site_label
_atom_site_fract_x
_atom_site_fract_y
_atom_site_fract_z
Si Si1 0.245904 0.505248 0.580156
Si Si2 0.778799 0.610447 0.566977
Si Si3 0.924851 0.805099 0.069086
Si Si4 0.714571 0.384812 0.567971
Si Si5 0.629782 0.692790 0.568091
Si Si6 0.093020 0.652697 0.072098
Si Si7 0.050263 0.546746 0.579524
Si Si8 0.428967 0.807991 0.432168
O O1 0.283403 0.500091 0.750000
O O2 0.236429 0.447808 0.502236
O O3 0.289543 0.554128 0.489446
O O4 0.148073 0.526691 0.594566
O O5 0.781055 0.605154 0.750000
O O6 0.865451 0.644010 0.522002
O O7 0.697708 0.647779 0.522273
O O8 0.920811 0.802108 0.250000
O O9 0.889748 0.750000 0.000000
O O10 0.025302 0.810571 0.016992
O O11 0.713192 0.384865 0.750000
O O12 0.806229 0.355476 0.522776
O O13 0.636088 0.351152 0.499674
O O14 0.652314 0.750000 0.500000
O O15 0.633739 0.697008 0.750000
O O16 0.529697 0.680397 0.526855
O O17 0.091449 0.665503 0.250000
O O18 0.052086 0.595430 0.035167
O O19 0.017754 0.560733 0.750000
O O20 0.000000 0.500000 0.500000
O O21 0.408012 0.750000 0.500000
O O22 0.421728 0.806506 0.250000
#
# Coordination Sequence:
#
# PCOD9435195 Si02
#       8
#     8   8   8   8   8   8   8   8
#     4  10  21  35  53  79 109 143 184 228 272 324
#     4  10  21  37  56  80 111 147 185 226 274 326
#     4  11  23  37  55  79 110 147 186 230 277 327
#     4  10  21  38  59  82 111 147 184 227 277 326
#     4   9  19  36  58  84 112 142 179 225 275 327
#     4  10  21  36  53  74 103 139 178 219 265 317
#     4  10  19  31  49  73 101 134 175 221 265 311
#     4  10  20  36  60  87 113 141 177 222 272 328
#
# _framework density 18.771940000000001
#
# number of rings (size 3 to 8) (size 9 to 14) (size 15 to 20)
#    0.000    2.000    0.000    3.375    0.000    7.500 
#    0.000    0.625    0.000    0.000    0.000    0.000 
#    0.000    0.000    0.000    0.000    0.000    0.000 
#
# Total GULP energy -356920.749886 kJ/mol
# GULP energy per Si atom -5576.886717 kJ/mol
# Density = 1.872921 g / cm^3
# Si number density = 18.771940 Si / 1000 Ang^3
#
#
#
# Elastic Constant Matrix: (Units=GPa)
#
#
# Indices 1 2 3 4 5 6 
#
# 1 79.7580 66.9089 35.6986 0.0000 0.0000 0.0000
# 2 66.9089 131.7265 40.2878 0.0000 0.0000 0.0000
# 3 35.6986 40.2878 57.0609 0.0000 0.0000 0.0000
# 4 0.0000 0.0000 0.0000 34.9073 0.0000 0.0000
# 5 0.0000 0.0000 0.0000 0.0000 21.1535 0.0000
# 6 0.0000 0.0000 0.0000 0.0000 0.0000 35.8386
#
#
#
# Elastic Compliance Matrix: (Units=1/GPa)
#
#
# Indices 1 2 3 4 5 6 
#
# 1 0.024640 -0.009949 -0.008391 0.000000 0.000000 0.000000
# 2 -0.009949 0.013700 -0.003448 0.000000 0.000000 0.000000
# 3 -0.008391 -0.003448 0.025209 0.000000 0.000000 0.000000
# 4 0.000000 0.000000 0.000000 0.028647 0.000000 0.000000
# 5 0.000000 0.000000 0.000000 0.000000 0.047273 0.000000
# 6 0.000000 0.000000 0.000000 0.000000 0.000000 0.027903
#
#
# Mechanical properties :
#
#
# Convention : Reuss Voigt Hill
#
# Bulk Modulus (GPa) = 50.06869 61.59289 55.83079
# Shear Modulus (GPa) = 22.97731 26.75655 24.86693
#
# Velocity S-wave (km/s) = 3.50240 3.77947 3.64357
# Velocity P-wave (km/s) = 6.56397 7.20613 6.89253
#
# Compressibility (1/GPa) = 0.01997256
#
# Stress axis : x y z
#
# Youngs Moduli (GPa) = 40.58456 72.99405 39.66834
#
# Poissons Ratio (x) = 0.72624 0.33284
# Poissons Ratio (y) = 0.40379 0.13678
# Poissons Ratio (z) = 0.34053 0.25170
#
# Static dielectric constant tensor:
#      x y z
#    x 1.657780 0.000000 0.000000 
#    y 0.000000 1.621890 0.000000 
#    z 0.000000 0.000000 1.654060 
# 
# From -- ./inp_files/5743.got.cif
#   From: 2010.05.17/outbox.cif.g08.bks.cpg/sg57_3_cif.got.tgz:5743.got - 2010.06.03 13:58:18.
