data_PCOD9435603
_publ_section_title
;
Structure prediction by ZEFSAII (Michael W. Deem and Ramdas Pophale) SiO2 
 PCOD9435603
Probable space group: P B C M
;
_chemical_formula_sum "Si O2"
_cell_formula_units_Z 48
_cell_length_a 10.190822
_cell_length_b 28.205596
_cell_length_c 8.771482
_cell_angle_alpha 90.000000
_cell_angle_beta 90.000000
_cell_angle_gamma 90.000000
_cell_volume 2521.259070
_symmetry_space_group_name_H-M "P B C M"
_symmetry_group_IT_number 57
_symmetry_cell_setting 'orthorhombic'
loop_
_space_group_symop_operation_xyz
x,y,z
-x,-y,1/2+z
x,1/2-y,-z
-x,1/2+y,1/2-z
-x,-y,-z
x,y,1/2-z
-x,1/2+y,z
x,1/2-y,1/2+z
loop_
_atom_site_type_symbol
_atom_site_label
_atom_site_fract_x
_atom_site_fract_y
_atom_site_fract_z
Si Si1 0.334531 0.456666 0.433168
Si Si2 0.037280 0.699753 0.431010
Si Si3 0.696582 0.338248 0.067142
Si Si4 0.619497 0.064024 0.431720
Si Si5 0.173301 0.369479 0.067128
Si Si6 0.412624 0.199508 0.932403
O O1 0.354660 0.451592 0.250000
O O2 0.468296 0.439225 0.512985
O O3 0.319804 0.512296 0.466836
O O4 0.212330 0.423220 0.474527
O O5 0.990895 0.750000 0.500000
O O6 0.036835 0.703272 0.250000
O O7 0.182679 0.688866 0.492149
O O8 0.945754 0.656531 0.485325
O O9 0.706462 0.335283 0.250000
O O10 0.557511 0.316014 0.016599
O O11 0.690771 0.392913 0.015388
O O12 0.623554 0.071345 0.250000
O O13 0.151640 0.367168 0.250000
O O14 0.303688 0.339264 0.029281
O O15 0.416165 0.202888 0.750000
O O16 0.376764 0.250000 0.000000
#
# Coordination Sequence:
#
# PCOD9435603 Si02
#       6
#     8   8   8   8   8   8
#     4   9  18  35  58  86 122 158 194 237 294 354
#     4  12  26  43  61  86 117 156 200 242 294 356
#     4  11  22  40  61  84 116 158 198 243 296 349
#     4  10  19  32  57  91 122 154 193 242 294 351
#     4  10  20  39  61  85 116 155 196 240 291 347
#     4  10  21  35  56  83 112 144 189 240 290 343
#
# _framework density 19.038107
#
# number of rings (size 3 to 8) (size 9 to 14) (size 15 to 20)
#    0.000    1.667    1.667    3.500    0.000    6.000 
#    0.000    0.833    0.000    0.000    0.000    0.000 
#    0.000    0.000    0.000    0.000    0.000    0.000 
#
# Total GULP energy -268171.220016 kJ/mol
# GULP energy per Si atom -5586.900417 kJ/mol
# Density = 1.899478 g / cm^3
# Si number density = 19.038107 Si / 1000 Ang^3
#
#
#
# Elastic Constant Matrix: (Units=GPa)
#
#
# Indices 1 2 3 4 5 6 
#
# 1 38.2170 -15.3351 9.0352 0.0000 0.0000 0.0000
# 2 -15.3351 62.8380 12.6187 0.0000 0.0000 0.0000
# 3 9.0352 12.6187 42.3131 0.0000 0.0000 0.0000
# 4 0.0000 0.0000 0.0000 29.0808 0.0000 0.0000
# 5 0.0000 0.0000 0.0000 0.0000 21.6934 0.0000
# 6 0.0000 0.0000 0.0000 0.0000 0.0000 32.2702
#
#
#
# Elastic Compliance Matrix: (Units=1/GPa)
#
#
# Indices 1 2 3 4 5 6 
#
# 1 0.032483 0.009914 -0.009893 0.000000 0.000000 0.000000
# 2 0.009914 0.019953 -0.008067 0.000000 0.000000 0.000000
# 3 -0.009893 -0.008067 0.028152 0.000000 0.000000 0.000000
# 4 0.000000 0.000000 0.000000 0.034387 0.000000 0.000000
# 5 0.000000 0.000000 0.000000 0.000000 0.046097 0.000000
# 6 0.000000 0.000000 0.000000 0.000000 0.000000 0.030988
#
#
# Mechanical properties :
#
#
# Convention : Reuss Voigt Hill
#
# Bulk Modulus (GPa) = 15.50493 17.33398 16.41945
# Shear Modulus (GPa) = 21.77208 25.74550 23.75879
#
# Velocity S-wave (km/s) = 3.38539 3.68137 3.53648
# Velocity P-wave (km/s) = 4.84180 5.21485 5.03178
#
# Compressibility (1/GPa) = 0.06449560
#
# Stress axis : x y z
#
# Youngs Moduli (GPa) = 30.78504 50.11674 35.52185
#
# Poissons Ratio (x) = -0.49685 0.35141
# Poissons Ratio (y) = -0.30520 0.28657
# Poissons Ratio (z) = 0.30455 0.40432
#
# Static dielectric constant tensor:
#      x y z
#    x 1.645980 0.000000 0.000000 
#    y 0.000000 1.673510 0.000000 
#    z 0.000000 0.000000 1.638630 
# 
# From -- ./inp_files/2028.got.cif
#   From: 2010.05.17/outbox.cif.g08.bks.cpg/sg57_2_cif.got.tgz:2028.got - 2010.06.03 13:58:18.
