data_PCOD9435004
_publ_section_title
;
Structure prediction by ZEFSAII (Michael W. Deem and Ramdas Pophale) SiO2 
 PCOD9435004
Probable space group: P B C M
;
_chemical_formula_sum "Si O2"
_cell_formula_units_Z 64
_cell_length_a 29.735042
_cell_length_b 14.288937
_cell_length_c 8.625817
_cell_angle_alpha 90.000000
_cell_angle_beta 90.000000
_cell_angle_gamma 90.000000
_cell_volume 3664.955602
_symmetry_space_group_name_H-M "P B C M"
_symmetry_group_IT_number 57
_symmetry_cell_setting 'orthorhombic'
loop_
_space_group_symop_operation_xyz
x,y,z
-x,-y,1/2+z
x,1/2-y,-z
-x,1/2+y,1/2-z
-x,-y,-z
x,y,1/2-z
-x,1/2+y,z
x,1/2-y,1/2+z
loop_
_atom_site_type_symbol
_atom_site_label
_atom_site_fract_x
_atom_site_fract_y
_atom_site_fract_z
Si Si1 0.845217 0.646950 0.063146
Si Si2 0.578507 0.856071 0.563159
Si Si3 0.982275 0.352877 0.435721
Si Si4 0.661810 0.974359 0.065511
Si Si5 0.479277 0.643592 0.063690
Si Si6 0.614886 0.145272 0.934348
Si Si7 0.742274 0.646374 0.063704
Si Si8 0.067767 0.461466 0.562610
O O1 0.845872 0.651081 0.250000
O O2 0.793888 0.624991 0.016734
O O3 0.883074 0.573294 0.012971
O O4 0.856446 0.750000 0.000000
O O5 0.580950 0.750000 0.500000
O O6 0.581845 0.855249 0.750000
O O7 0.619574 0.912999 0.492924
O O8 0.528593 0.895153 0.522251
O O9 0.972897 0.250000 0.500000
O O10 0.983522 0.348925 0.250000
O O11 0.946527 0.433382 0.483274
O O12 0.030093 0.391405 0.496593
O O13 0.662155 0.976376 0.250000
O O14 0.706870 0.926746 0.002609
O O15 0.653048 0.077390 0.998748
O O16 0.474871 0.643801 0.250000
O O17 0.480716 0.750000 0.000000
O O18 0.433581 0.605354 0.990257
O O19 0.615217 0.147677 0.750000
O O20 0.619189 0.250000 0.000000
O O21 0.739516 0.647865 0.250000
O O22 0.731526 0.750000 0.000000
O O23 0.065606 0.457091 0.750000
#
# Coordination Sequence:
#
# PCOD9435004 Si02
#       8
#     8   8   8   8   8   8   8   8
#     4   9  18  32  52  76 102 133 168 209 255 303
#     4  10  20  34  52  76 106 138 169 202 244 296
#     4  10  19  30  46  70 104 142 178 217 259 304
#     4  12  24  37  54  76 102 133 169 207 250 301
#     4   9  17  31  51  74 101 132 165 201 242 290
#     4  11  22  38  58  78 101 129 164 206 250 296
#     4  10  20  36  56  79 106 134 165 205 257 310
#     4   9  18  32  49  72 101 136 179 220 259 304
#
# _framework density 17.462695
#
# number of rings (size 3 to 8) (size 9 to 14) (size 15 to 20)
#    0.000    2.000    0.000    5.250    0.000    4.500 
#    0.000    0.000    0.000    0.750    0.000    1.750 
#    0.000    0.000    0.000    0.000    0.000    0.000 
#
# Total GULP energy -357302.024274 kJ/mol
# GULP energy per Si atom -5582.844129 kJ/mol
# Density = 1.742295 g / cm^3
# Si number density = 17.462695 Si / 1000 Ang^3
#
#
#
# Elastic Constant Matrix: (Units=GPa)
#
#
# Indices 1 2 3 4 5 6 
#
# 1 122.5541 83.5928 43.1892 0.0000 0.0000 0.0000
# 2 83.5928 122.7815 36.8572 0.0000 0.0000 0.0000
# 3 43.1892 36.8572 79.3370 0.0000 0.0000 0.0000
# 4 0.0000 0.0000 0.0000 26.2808 0.0000 0.0000
# 5 0.0000 0.0000 0.0000 0.0000 21.7750 0.0000
# 6 0.0000 0.0000 0.0000 0.0000 0.0000 32.4367
#
#
#
# Elastic Compliance Matrix: (Units=1/GPa)
#
#
# Indices 1 2 3 4 5 6 
#
# 1 0.016435 -0.009882 -0.004356 0.000000 0.000000 0.000000
# 2 -0.009882 0.015406 -0.001778 0.000000 0.000000 0.000000
# 3 -0.004356 -0.001778 0.015802 0.000000 0.000000 0.000000
# 4 0.000000 0.000000 0.000000 0.038051 0.000000 0.000000
# 5 0.000000 0.000000 0.000000 0.000000 0.045924 0.000000
# 6 0.000000 0.000000 0.000000 0.000000 0.000000 0.030829
#
#
# Mechanical properties :
#
#
# Convention : Reuss Voigt Hill
#
# Bulk Modulus (GPa) = 64.05515 72.43900 68.24707
# Shear Modulus (GPa) = 25.03987 26.83407 25.93697
#
# Velocity S-wave (km/s) = 3.79080 3.92427 3.85811
# Velocity P-wave (km/s) = 7.47804 7.88070 7.68200
#
# Compressibility (1/GPa) = 0.01561155
#
# Stress axis : x y z
#
# Youngs Moduli (GPa) = 60.84567 64.91014 63.28444
#
# Poissons Ratio (x) = 0.64142 0.27568
# Poissons Ratio (y) = 0.60126 0.11250
# Poissons Ratio (z) = 0.26505 0.11539
#
# Static dielectric constant tensor:
#      x y z
#    x 1.599950 0.000000 0.000000 
#    y 0.000000 1.213310 0.000000 
#    z 0.000000 0.000000 1.579830 
# 
# From -- ./inp_files/10347.got.cif
#   From: 2010.05.17/outbox.cif.g08.bks.cpg/sg57_6_cif.got.tgz:10347.got - 2010.06.03 13:58:18.
