data_PCOD9435267
_publ_section_title
;
Structure prediction by ZEFSAII (Michael W. Deem and Ramdas Pophale) SiO2 
 PCOD9435267
Probable space group: P B C M
;
_chemical_formula_sum "Si O2"
_cell_formula_units_Z 64
_cell_length_a 15.481085
_cell_length_b 25.713011
_cell_length_c 8.216926
_cell_angle_alpha 90.000000
_cell_angle_beta 90.000000
_cell_angle_gamma 90.000000
_cell_volume 3270.873186
_symmetry_space_group_name_H-M "P B C M"
_symmetry_group_IT_number 57
_symmetry_cell_setting 'orthorhombic'
loop_
_space_group_symop_operation_xyz
x,y,z
-x,-y,1/2+z
x,1/2-y,-z
-x,1/2+y,1/2-z
-x,-y,-z
x,y,1/2-z
-x,1/2+y,z
x,1/2-y,1/2+z
loop_
_atom_site_type_symbol
_atom_site_label
_atom_site_fract_x
_atom_site_fract_y
_atom_site_fract_z
Si Si1 0.743172 0.506200 0.444054
Si Si2 0.926672 0.691378 0.054356
Si Si3 0.536846 0.352683 0.553294
Si Si4 0.124530 0.691730 0.446201
Si Si5 0.728416 0.386987 0.553565
Si Si6 0.439300 0.045637 0.445697
Si Si7 0.633396 0.806275 0.444270
Si Si8 0.219790 0.386473 0.442272
O O1 0.741081 0.501661 0.250000
O O2 0.746896 0.447139 0.507684
O O3 0.653720 0.530504 0.509630
O O4 0.801915 0.556042 0.487260
O O5 0.922243 0.688197 0.250000
O O6 0.025959 0.681099 0.001598
O O7 0.905878 0.750000 0.000000
O O8 0.860032 0.651264 0.978697
O O9 0.540115 0.350884 0.750000
O O10 0.635797 0.362588 0.497763
O O11 0.484498 0.402983 0.493062
O O12 0.467151 0.309832 0.499290
O O13 0.147789 0.750000 0.500000
O O14 0.125210 0.690577 0.250000
O O15 0.193938 0.649781 0.505120
O O16 0.725804 0.385599 0.750000
O O17 0.434431 0.049278 0.250000
O O18 0.500000 0.000000 0.500000
O O19 0.667970 0.750000 0.500000
O O20 0.636034 0.808464 0.250000
O O21 0.695321 0.853804 0.507316
O O22 0.231644 0.392575 0.250000
#
# Coordination Sequence:
#
# PCOD9435267 Si02
#       8
#     8   8   8   8   8   8   8   8
#     4  11  22  35  54  83 117 152 191 235 279 333
#     4  10  20  37  62  89 114 143 184 233 284 340
#     4  10  20  35  54  77 109 148 187 230 276 324
#     4   9  20  39  63  88 114 145 183 231 284 336
#     4  10  21  38  59  85 117 152 190 233 280 333
#     4  10  19  31  51  77 106 144 188 232 274 319
#     4  11  24  38  54  77 110 149 189 233 283 338
#     4  11  23  38  58  84 113 150 189 232 286 341
#
# _framework density 19.566641000000001
#
# number of rings (size 3 to 8) (size 9 to 14) (size 15 to 20)
#    0.000    1.750    2.500    1.875    0.000    5.500 
#    0.000    1.875    0.000    0.000    0.000    0.000 
#    0.000    0.000    0.000    0.000    0.000    0.000 
#
# Total GULP energy -356641.462919 kJ/mol
# GULP energy per Si atom -5572.522858 kJ/mol
# Density = 1.952211 g / cm^3
# Si number density = 19.566641 Si / 1000 Ang^3
#
#
#
# Elastic Constant Matrix: (Units=GPa)
#
#
# Indices 1 2 3 4 5 6 
#
# 1 103.6614 68.0417 12.1476 0.0000 0.0000 0.0000
# 2 68.0417 119.0849 7.8150 0.0000 0.0000 0.0000
# 3 12.1476 7.8150 19.3924 0.0000 0.0000 0.0000
# 4 0.0000 0.0000 0.0000 32.2598 0.0000 0.0000
# 5 0.0000 0.0000 0.0000 0.0000 17.2760 0.0000
# 6 0.0000 0.0000 0.0000 0.0000 0.0000 33.3717
#
#
#
# Elastic Compliance Matrix: (Units=1/GPa)
#
#
# Indices 1 2 3 4 5 6 
#
# 1 0.016218 -0.008834 -0.006600 0.000000 0.000000 0.000000
# 2 -0.008834 0.013437 0.000119 0.000000 0.000000 0.000000
# 3 -0.006600 0.000119 0.055653 0.000000 0.000000 0.000000
# 4 0.000000 0.000000 0.000000 0.030998 0.000000 0.000000
# 5 0.000000 0.000000 0.000000 0.000000 0.057884 0.000000
# 6 0.000000 0.000000 0.000000 0.000000 0.000000 0.029966
#
#
# Mechanical properties :
#
#
# Convention : Reuss Voigt Hill
#
# Bulk Modulus (GPa) = 18.28856 46.46080 32.37468
# Shear Modulus (GPa) = 19.76195 26.85713 23.30954
#
# Velocity S-wave (km/s) = 3.18147 3.70888 3.45525
# Velocity P-wave (km/s) = 4.78150 6.49134 5.70089
#
# Compressibility (1/GPa) = 0.05467900
#
# Stress axis : x y z
#
# Youngs Moduli (GPa) = 61.65827 74.42208 17.96849
#
# Poissons Ratio (x) = 0.65742 0.11858
# Poissons Ratio (y) = 0.54467 -0.00213
# Poissons Ratio (z) = 0.40692 -0.00882
#
# Static dielectric constant tensor:
#      x y z
#    x 1.793160 0.000000 0.000000 
#    y 0.000000 1.731630 0.000000 
#    z 0.000000 0.000000 1.695750 
# 
# From -- ./inp_files/5640.got.cif
#   From: 2010.05.17/outbox.cif.g08.bks.cpg/sg57_3_cif.got.tgz:5640.got - 2010.06.03 13:58:18.
