data_PCOD9435462
_publ_section_title
;
Structure prediction by ZEFSAII (Michael W. Deem and Ramdas Pophale) SiO2 
 PCOD9435462
Probable space group: P B C M
;
_chemical_formula_sum "Si O2"
_cell_formula_units_Z 56
_cell_length_a 20.911772
_cell_length_b 7.568535
_cell_length_c 15.594735
_cell_angle_alpha 90.000000
_cell_angle_beta 90.000000
_cell_angle_gamma 90.000000
_cell_volume 2468.201762
_symmetry_space_group_name_H-M "P B C M"
_symmetry_group_IT_number 57
_symmetry_cell_setting 'orthorhombic'
loop_
_space_group_symop_operation_xyz
x,y,z
-x,-y,1/2+z
x,1/2-y,-z
-x,1/2+y,1/2-z
-x,-y,-z
x,y,1/2-z
-x,1/2+y,z
x,1/2-y,1/2+z
loop_
_atom_site_type_symbol
_atom_site_label
_atom_site_fract_x
_atom_site_fract_y
_atom_site_fract_z
Si Si1 0.653076 0.972217 0.157541
Si Si2 0.294964 0.962962 0.479998
Si Si3 0.472402 0.367389 0.070924
Si Si4 0.945840 0.387942 0.346460
Si Si5 0.392014 0.867276 0.155207
Si Si6 0.846372 0.036977 0.516837
Si Si7 0.090494 0.026877 0.653131
O O1 0.676649 0.906638 0.250000
O O2 0.646793 0.184991 0.162529
O O3 0.580177 0.914095 0.140088
O O4 0.691726 0.940641 0.070366
O O5 0.296230 0.750000 0.500000
O O6 0.350943 0.985039 0.410169
O O7 0.223956 0.008847 0.449547
O O8 0.538096 0.315299 0.118520
O O9 0.437653 0.250000 0.000000
O O10 0.500000 0.500000 0.000000
O O11 0.938707 0.461376 0.250000
O O12 0.902972 0.490287 0.415150
O O13 0.922698 0.184962 0.345294
O O14 0.021055 0.390739 0.366262
O O15 0.399404 0.946585 0.250000
O O16 0.845443 0.250000 0.500000
O O17 0.862035 0.945118 0.426119
O O18 0.110864 0.077515 0.750000
#
# Coordination Sequence:
#
# PCOD9435462 Si02
#       7
#     8   8   8   8   8   8   8
#     4  10  20  34  53  77 103 134 169 206 255 306
#     4   9  17  31  48  72 101 132 165 210 250 291
#     4  12  20  35  56  76 106 133 164 211 256 300
#     4   9  17  29  46  70  98 125 158 201 246 292
#     4  10  19  32  51  77 105 133 168 207 253 303
#     4   9  17  28  46  70  98 127 164 202 245 289
#     4   9  17  29  46  70  97 124 157 200 247 293
#
# _framework density 22.688582
#
# number of rings (size 3 to 8) (size 9 to 14) (size 15 to 20)
#    0.000    2.286    2.857    1.286    0.000    1.143 
#    0.000    5.714    0.000    1.714    0.000    2.000 
#    0.000    0.000    0.000    0.000    0.000    0.000 
#
# Total GULP energy -312145.111888 kJ/mol
# GULP energy per Si atom -5574.019855 kJ/mol
# Density = 2.263694 g / cm^3
# Si number density = 22.688582 Si / 1000 Ang^3
#
#
#
# Elastic Constant Matrix: (Units=GPa)
#
#
# Indices 1 2 3 4 5 6 
#
# 1 84.6558 -2.0485 52.0202 0.0000 0.0000 0.0000
# 2 -2.0485 11.0824 5.8151 0.0000 0.0000 0.0000
# 3 52.0202 5.8151 132.9476 0.0000 0.0000 0.0000
# 4 0.0000 0.0000 0.0000 8.3133 0.0000 0.0000
# 5 0.0000 0.0000 0.0000 0.0000 5.6731 0.0000
# 6 0.0000 0.0000 0.0000 0.0000 0.0000 15.1711
#
#
#
# Elastic Compliance Matrix: (Units=1/GPa)
#
#
# Indices 1 2 3 4 5 6 
#
# 1 0.015981 0.006381 -0.006532 0.000000 0.000000 0.000000
# 2 0.006381 0.094901 -0.006648 0.000000 0.000000 0.000000
# 3 -0.006532 -0.006648 0.010368 0.000000 0.000000 0.000000
# 4 0.000000 0.000000 0.000000 0.120289 0.000000 0.000000
# 5 0.000000 0.000000 0.000000 0.000000 0.176270 0.000000
# 6 0.000000 0.000000 0.000000 0.000000 0.000000 0.065915
#
#
# Mechanical properties :
#
#
# Convention : Reuss Voigt Hill
#
# Bulk Modulus (GPa) = 9.28913 37.80661 23.54787
# Shear Modulus (GPa) = 9.37725 17.35810 13.36768
#
# Velocity S-wave (km/s) = 2.03519 2.76897 2.42994
# Velocity P-wave (km/s) = 3.10254 5.18868 4.27482
#
# Compressibility (1/GPa) = 0.10765274
#
# Stress axis : x y z
#
# Youngs Moduli (GPa) = 62.57451 10.53735 96.44615
#
# Poissons Ratio (x) = -0.06724 0.63001
# Poissons Ratio (y) = -0.39932 0.64116
# Poissons Ratio (z) = 0.40875 0.07005
#
# Static dielectric constant tensor:
#      x y z
#    x 1.789230 0.000000 0.000000 
#    y 0.000000 1.927170 0.000000 
#    z 0.000000 0.000000 1.845850 
# 
# From -- ./inp_files/19321.got.cif
#   From: 2010.05.17/outbox.cif.g08.bks.cpg/sg57_10_cif.got.tgz:19321.got - 2010.06.03 13:58:18.
