data_PCOD9435427
_publ_section_title
;
Structure prediction by ZEFSAII (Michael W. Deem and Ramdas Pophale) SiO2 
 PCOD9435427
Probable space group: P B C M
;
_chemical_formula_sum "Si O2"
_cell_formula_units_Z 64
_cell_length_a 21.487131
_cell_length_b 19.246922
_cell_length_c 8.628043
_cell_angle_alpha 90.000000
_cell_angle_beta 90.000000
_cell_angle_gamma 90.000000
_cell_volume 3568.223250
_symmetry_space_group_name_H-M "P B C M"
_symmetry_group_IT_number 57
_symmetry_cell_setting 'orthorhombic'
loop_
_space_group_symop_operation_xyz
x,y,z
-x,-y,1/2+z
x,1/2-y,-z
-x,1/2+y,1/2-z
-x,-y,-z
x,y,1/2-z
-x,1/2+y,z
x,1/2-y,1/2+z
loop_
_atom_site_type_symbol
_atom_site_label
_atom_site_fract_x
_atom_site_fract_y
_atom_site_fract_z
Si Si1 0.499055 0.672193 0.935939
Si Si2 0.133079 0.671650 0.562424
Si Si3 0.861675 0.828424 0.063947
Si Si4 0.384941 0.422610 0.436907
Si Si5 0.749437 0.418940 0.437070
Si Si6 0.385195 0.916098 0.564453
Si Si7 0.002503 0.171425 0.563218
Si Si8 0.250442 0.419223 0.564928
O O1 0.499008 0.674403 0.750000
O O2 0.558686 0.626583 0.987231
O O3 0.502077 0.750000 0.000000
O O4 0.437334 0.633013 0.992921
O O5 0.138299 0.750000 0.500000
O O6 0.134265 0.673926 0.750000
O O7 0.191532 0.625973 0.511012
O O8 0.064881 0.642013 0.514912
O O9 0.859394 0.826091 0.250000
O O10 0.930102 0.857864 0.015485
O O11 0.857051 0.750000 0.000000
O O12 0.804992 0.873540 0.002092
O O13 0.381991 0.421770 0.250000
O O14 0.395284 0.503150 0.484682
O O15 0.318417 0.398959 0.501928
O O16 0.744570 0.414487 0.250000
O O17 0.684004 0.396033 0.509541
O O18 0.758700 0.499821 0.478202
O O19 0.388708 0.913053 0.750000
O O20 0.002289 0.250000 0.500000
O O21 0.002595 0.173077 0.750000
O O22 0.250503 0.413875 0.750000
#
# Coordination Sequence:
#
# PCOD9435427 Si02
#       8
#     8   8   8   8   8   8   8   8
#     4  11  23  38  56  80 109 136 166 208 256 303
#     4   9  17  31  51  74 100 131 170 213 256 303
#     4  10  19  32  51  74 101 132 169 213 259 308
#     4   9  20  38  58  78 102 136 175 213 253 302
#     4   9  19  35  53  74 104 140 174 210 253 303
#     4  10  20  36  58  80 103 135 174 212 253 304
#     4   8  15  28  47  70  96 129 167 208 254 303
#     4  10  20  34  53  76 103 137 174 211 253 302
#
# _framework density 17.936097
#
# number of rings (size 3 to 8) (size 9 to 14) (size 15 to 20)
#    0.000    2.500    0.000    1.875    0.000    4.000 
#    0.000    3.125    0.000    0.000    0.000    0.000 
#    0.000    0.000    0.000    0.000    0.000    0.000 
#
# Total GULP energy -356854.300141 kJ/mol
# GULP energy per Si atom -5575.848440 kJ/mol
# Density = 1.789527 g / cm^3
# Si number density = 17.936097 Si / 1000 Ang^3
#
#
#
# Elastic Constant Matrix: (Units=GPa)
#
#
# Indices 1 2 3 4 5 6 
#
# 1 170.3493 73.5663 25.9302 0.0000 0.0000 0.0000
# 2 73.5663 59.5429 15.0433 0.0000 0.0000 0.0000
# 3 25.9302 15.0433 16.3645 0.0000 0.0000 0.0000
# 4 0.0000 0.0000 0.0000 21.8976 0.0000 0.0000
# 5 0.0000 0.0000 0.0000 0.0000 -30.9452 0.0000
# 6 0.0000 0.0000 0.0000 0.0000 0.0000 38.4384
#
#
#
# Elastic Compliance Matrix: (Units=1/GPa)
#
#
# Indices 1 2 3 4 5 6 
#
# 1 0.013304 -0.014473 -0.007777 0.000000 0.000000 0.000000
# 2 -0.014473 0.037619 -0.011649 0.000000 0.000000 0.000000
# 3 -0.007777 -0.011649 0.084139 0.000000 0.000000 0.000000
# 4 0.000000 0.000000 0.000000 0.045667 0.000000 0.000000
# 5 0.000000 0.000000 0.000000 0.000000 -0.032315 0.000000
# 6 0.000000 0.000000 0.000000 0.000000 0.000000 0.026016
#
#
# Mechanical properties :
#
#
# Convention : Reuss Voigt Hill
#
# Bulk Modulus (GPa) = 14.86655 52.81516 33.84086
# Shear Modulus (GPa) = 18.89290 14.65928 16.77609
#
# Velocity S-wave (km/s) = 3.24905 2.86196 3.06163
# Velocity P-wave (km/s) = 4.73093 6.35856 5.60415
#
# Compressibility (1/GPa) = 0.06726509
#
# Stress axis : x y z
#
# Youngs Moduli (GPa) = 75.16409 26.58216 11.88505
#
# Poissons Ratio (x) = 0.38472 0.09243
# Poissons Ratio (y) = 1.08784 0.13845
# Poissons Ratio (z) = 0.58453 0.30966
#
# Static dielectric constant tensor:
#      x y z
#    x 1.629480 0.000000 0.000000 
#    y 0.000000 1.580060 0.000000 
#    z 0.000000 0.000000 1.603020 
# 
# From -- ./inp_files/7264.got.cif
#   From: 2010.05.17/outbox.cif.g08.bks.cpg/sg57_4_cif.got.tgz:7264.got - 2010.06.03 13:58:18.
