data_PCOD9435522
_publ_section_title
;
Structure prediction by ZEFSAII (Michael W. Deem and Ramdas Pophale) SiO2 
 PCOD9435522
Probable space group: P B C M
;
_chemical_formula_sum "Si O2"
_cell_formula_units_Z 56
_cell_length_a 14.231255
_cell_length_b 25.141244
_cell_length_c 8.430152
_cell_angle_alpha 90.000000
_cell_angle_beta 90.000000
_cell_angle_gamma 90.000000
_cell_volume 3016.236345
_symmetry_space_group_name_H-M "P B C M"
_symmetry_group_IT_number 57
_symmetry_cell_setting 'orthorhombic'
loop_
_space_group_symop_operation_xyz
x,y,z
-x,-y,1/2+z
x,1/2-y,-z
-x,1/2+y,1/2-z
-x,-y,-z
x,y,1/2-z
-x,1/2+y,z
x,1/2-y,1/2+z
loop_
_atom_site_type_symbol
_atom_site_label
_atom_site_fract_x
_atom_site_fract_y
_atom_site_fract_z
Si Si1 0.723815 0.808283 0.060059
Si Si2 0.778130 0.026186 0.056915
Si Si3 0.846044 0.309643 0.060983
Si Si4 0.960582 0.407274 0.939483
Si Si5 0.666109 0.126800 0.442214
Si Si6 0.487827 0.191715 0.059440
Si Si7 0.169848 0.412732 0.058957
O O1 0.726773 0.807144 0.250000
O O2 0.787040 0.857178 0.000404
O O3 0.753197 0.750000 0.000000
O O4 0.616237 0.817308 0.007175
O O5 0.776952 0.025834 0.250000
O O6 0.878076 0.052167 0.008784
O O7 0.697577 0.067641 0.006221
O O8 0.774931 0.965388 0.002353
O O9 0.851189 0.310963 0.250000
O O10 0.857136 0.250000 0.000000
O O11 0.923948 0.349201 0.989837
O O12 0.746052 0.333418 0.005212
O O13 0.967024 0.410127 0.750000
O O14 0.061421 0.418621 0.012660
O O15 0.670054 0.128313 0.250000
O O16 0.564196 0.147935 0.490829
O O17 0.482884 0.192817 0.250000
O O18 0.519105 0.250000 0.000000
O O19 0.175713 0.411777 0.250000
#
# Coordination Sequence:
#
# PCOD9435522 Si02
#       7
#     8   8   8   8   8   8   8
#     4  10  21  36  54  75 101 132 170 214 257 301
#     4   8  16  33  54  76 104 134 168 208 253 305
#     4  11  21  33  50  74 106 139 171 210 254 305
#     4  10  20  34  53  76 103 136 172 213 257 306
#     4   9  18  33  53  78 105 135 168 206 255 307
#     4  10  19  32  53  77 103 134 169 208 252 303
#     4  10  20  35  55  76  99 134 175 215 258 305
#
# _framework density 18.566184
#
# number of rings (size 3 to 8) (size 9 to 14) (size 15 to 20)
#    0.000    2.286    0.000    5.143    0.000    4.000 
#    0.000    5.000    0.000    0.000    0.000    0.000 
#    0.000    0.000    0.000    0.000    0.000    0.000 
#
# Total GULP energy -312483.099400 kJ/mol
# GULP energy per Si atom -5580.055346 kJ/mol
# Density = 1.852393 g / cm^3
# Si number density = 18.566184 Si / 1000 Ang^3
#
#
#
# Elastic Constant Matrix: (Units=GPa)
#
#
# Indices 1 2 3 4 5 6 
#
# 1 42.4858 38.0423 10.8428 0.0000 0.0000 0.0000
# 2 38.0423 137.2750 20.1602 0.0000 0.0000 0.0000
# 3 10.8428 20.1602 19.1761 0.0000 0.0000 0.0000
# 4 0.0000 0.0000 0.0000 17.5969 0.0000 0.0000
# 5 0.0000 0.0000 0.0000 0.0000 24.7630 0.0000
# 6 0.0000 0.0000 0.0000 0.0000 0.0000 24.7055
#
#
#
# Elastic Compliance Matrix: (Units=1/GPa)
#
#
# Indices 1 2 3 4 5 6 
#
# 1 0.033069 -0.007590 -0.010719 0.000000 0.000000 0.000000
# 2 -0.007590 0.010357 -0.006597 0.000000 0.000000 0.000000
# 3 -0.010719 -0.006597 0.065144 0.000000 0.000000 0.000000
# 4 0.000000 0.000000 0.000000 0.056828 0.000000 0.000000
# 5 0.000000 0.000000 0.000000 0.000000 0.040383 0.000000
# 6 0.000000 0.000000 0.000000 0.000000 0.000000 0.040477
#
#
# Mechanical properties :
#
#
# Convention : Reuss Voigt Hill
#
# Bulk Modulus (GPa) = 17.01865 37.44750 27.23307
# Shear Modulus (GPa) = 15.84010 22.07253 18.95632
#
# Velocity S-wave (km/s) = 2.92408 3.45172 3.19880
# Velocity P-wave (km/s) = 4.53725 6.00827 5.32382
#
# Compressibility (1/GPa) = 0.05875908
#
# Stress axis : x y z
#
# Youngs Moduli (GPa) = 30.23978 96.55455 15.35064
#
# Poissons Ratio (x) = 0.73286 0.16454
# Poissons Ratio (y) = 0.22952 0.10126
# Poissons Ratio (z) = 0.32413 0.63693
#
# Static dielectric constant tensor:
#      x y z
#    x 1.620070 0.000000 0.000000 
#    y 0.000000 1.653750 0.000000 
#    z 0.000000 0.000000 1.633490 
# 
# From -- ./inp_files/5172.got.cif
#   From: 2010.05.17/outbox.cif.g08.bks.cpg/sg57_3_cif.got.tgz:5172.got - 2010.06.03 13:58:18.
