data_PCOD9435288
_publ_section_title
;
Structure prediction by ZEFSAII (Michael W. Deem and Ramdas Pophale) SiO2 
 PCOD9435288
Probable space group: P B C M
;
_chemical_formula_sum "Si O2"
_cell_formula_units_Z 56
_cell_length_a 20.185912
_cell_length_b 18.918649
_cell_length_c 8.730048
_cell_angle_alpha 90.000000
_cell_angle_beta 90.000000
_cell_angle_gamma 90.000000
_cell_volume 3333.919636
_symmetry_space_group_name_H-M "P B C M"
_symmetry_group_IT_number 57
_symmetry_cell_setting 'orthorhombic'
loop_
_space_group_symop_operation_xyz
x,y,z
-x,-y,1/2+z
x,1/2-y,-z
-x,1/2+y,1/2-z
-x,-y,-z
x,y,1/2-z
-x,1/2+y,z
x,1/2-y,1/2+z
loop_
_atom_site_type_symbol
_atom_site_label
_atom_site_fract_x
_atom_site_fract_y
_atom_site_fract_z
Si Si1 0.957407 0.064477 0.566094
Si Si2 0.153977 0.037759 0.064082
Si Si3 0.521447 0.326979 0.429379
Si Si4 0.635067 0.826715 0.070565
Si Si5 0.305297 0.460537 0.930877
Si Si6 0.932020 0.829965 0.435194
Si Si7 0.566618 0.034426 0.430003
O O1 0.960496 0.064178 0.750000
O O2 0.995476 0.136491 0.519409
O O3 0.884731 0.035286 0.523631
O O4 0.000000 0.000000 0.500000
O O5 0.151322 0.046010 0.250000
O O6 0.230075 0.028488 0.016376
O O7 0.119328 0.108704 0.994165
O O8 0.530341 0.250000 0.500000
O O9 0.538429 0.328663 0.250000
O O10 0.443054 0.344707 0.441776
O O11 0.561829 0.384051 0.523596
O O12 0.652578 0.829386 0.250000
O O13 0.643461 0.750000 0.000000
O O14 0.677091 0.880341 0.971637
O O15 0.308288 0.473274 0.750000
O O16 0.364662 0.503642 0.008257
O O17 0.922688 0.750000 0.500000
O O18 0.927612 0.826716 0.250000
O O19 0.563692 0.023217 0.250000
O O20 0.500000 0.000000 0.500000
#
# Coordination Sequence:
#
# PCOD9435288 Si02
#       7
#     8   8   8   8   8   8   8
#     4   8  15  30  51  74  99 130 170 209 249 294
#     4   9  19  35  53  74 103 139 176 215 260 312
#     4  10  20  35  55  78 102 131 167 214 269 319
#     4  10  20  33  50  71 100 134 169 211 259 315
#     4  11  22  35  53  76 104 139 177 219 269 319
#     4  10  19  31  52  80 109 140 172 211 253 302
#     4  12  23  36  55  78 105 137 178 228 272 319
#
# _framework density 16.797046999999999
#
# number of rings (size 3 to 8) (size 9 to 14) (size 15 to 20)
#    0.000    2.000    1.429    3.000    0.000    3.429 
#    0.000    0.000    0.000    0.857    0.000    2.000 
#    0.000    0.000    0.000    0.000    0.000    0.000 
#
# Total GULP energy -311955.415468 kJ/mol
# GULP energy per Si atom -5570.632419 kJ/mol
# Density = 1.675882 g / cm^3
# Si number density = 16.797047 Si / 1000 Ang^3
#
#
#
# Elastic Constant Matrix: (Units=GPa)
#
#
# Indices 1 2 3 4 5 6 
#
# 1 127.4507 61.2086 46.8776 0.0000 0.0000 0.0000
# 2 61.2086 59.2817 24.6008 0.0000 0.0000 0.0000
# 3 46.8776 24.6008 60.1169 0.0000 0.0000 0.0000
# 4 0.0000 0.0000 0.0000 25.0966 0.0000 0.0000
# 5 0.0000 0.0000 0.0000 0.0000 18.7705 0.0000
# 6 0.0000 0.0000 0.0000 0.0000 0.0000 35.8331
#
#
#
# Elastic Compliance Matrix: (Units=1/GPa)
#
#
# Indices 1 2 3 4 5 6 
#
# 1 0.018178 -0.015523 -0.007823 0.000000 0.000000 0.000000
# 2 -0.015523 0.033575 -0.001635 0.000000 0.000000 0.000000
# 3 -0.007823 -0.001635 0.023403 0.000000 0.000000 0.000000
# 4 0.000000 0.000000 0.000000 0.039846 0.000000 0.000000
# 5 0.000000 0.000000 0.000000 0.000000 0.053275 0.000000
# 6 0.000000 0.000000 0.000000 0.000000 0.000000 0.027907
#
#
# Mechanical properties :
#
#
# Convention : Reuss Voigt Hill
#
# Bulk Modulus (GPa) = 39.69037 56.91369 48.30203
# Shear Modulus (GPa) = 19.64295 23.55085 21.59690
#
# Velocity S-wave (km/s) = 3.42340 3.74850 3.58963
# Velocity P-wave (km/s) = 6.26952 7.25891 6.78228
#
# Compressibility (1/GPa) = 0.02519503
#
# Stress axis : x y z
#
# Youngs Moduli (GPa) = 55.01018 29.78445 42.72904
#
# Poissons Ratio (x) = 0.46234 0.33426
# Poissons Ratio (y) = 0.85392 0.06985
# Poissons Ratio (z) = 0.43034 0.04869
#
# Static dielectric constant tensor:
#      x y z
#    x 1.599070 0.000000 0.000000 
#    y 0.000000 1.559120 0.000000 
#    z 0.000000 0.000000 1.568130 
# 
# From -- ./inp_files/8281.got.cif
#   From: 2010.05.17/outbox.cif.g08.bks.cpg/sg57_5_cif.got.tgz:8281.got - 2010.06.03 13:58:18.
