data_PCOD9435962
_publ_section_title
;
Structure prediction by ZEFSAII (Michael W. Deem and Ramdas Pophale) SiO2 
 PCOD9435962
Probable space group: P B C M
;
_chemical_formula_sum "Si O2"
_cell_formula_units_Z 56
_cell_length_a 19.508869
_cell_length_b 17.481316
_cell_length_c 8.695413
_cell_angle_alpha 90.000000
_cell_angle_beta 90.000000
_cell_angle_gamma 90.000000
_cell_volume 2965.489769
_symmetry_space_group_name_H-M "P B C M"
_symmetry_group_IT_number 57
_symmetry_cell_setting 'orthorhombic'
loop_
_space_group_symop_operation_xyz
x,y,z
-x,-y,1/2+z
x,1/2-y,-z
-x,1/2+y,1/2-z
-x,-y,-z
x,y,1/2-z
-x,1/2+y,z
x,1/2-y,1/2+z
loop_
_atom_site_type_symbol
_atom_site_label
_atom_site_fract_x
_atom_site_fract_y
_atom_site_fract_z
Si Si1 0.293043 0.431416 0.567771
Si Si2 0.035985 0.075218 0.067340
Si Si3 0.831024 0.665426 0.062399
Si Si4 0.775325 0.403295 0.069951
Si Si5 0.644276 0.332214 0.567649
Si Si6 0.425075 0.984029 0.435644
Si Si7 0.096690 0.667134 0.068067
O O1 0.301041 0.417105 0.750000
O O2 0.243549 0.364921 0.507789
O O3 0.250416 0.510163 0.551070
O O4 0.368776 0.452905 0.508820
O O5 0.042066 0.062621 0.250000
O O6 0.109822 0.105367 0.012246
O O7 0.981317 0.142824 0.039606
O O8 0.000000 0.000000 0.000000
O O9 0.831902 0.666765 0.250000
O O10 0.844816 0.750000 0.000000
O O11 0.769929 0.383882 0.250000
O O12 0.723273 0.349853 0.976146
O O13 0.851831 0.391783 0.011988
O O14 0.624843 0.250000 0.500000
O O15 0.635595 0.333166 0.750000
O O16 0.601948 0.401681 0.492231
O O17 0.425289 0.984419 0.250000
O O18 0.500000 0.000000 0.500000
O O19 0.108720 0.666451 0.250000
O O20 0.111105 0.750000 0.000000
#
# Coordination Sequence:
#
# PCOD9435962 Si02
#       7
#     8   8   8   8   8   8   8
#     4   8  17  34  57  79 104 138 179 220 267 325
#     4  10  22  37  55  77 104 137 181 230 280 332
#     4  10  20  37  57  80 108 143 184 232 282 333
#     4  10  19  34  55  78 105 142 181 222 270 326
#     4  11  21  35  55  82 114 147 182 226 275 333
#     4  10  20  37  59  85 114 149 188 229 279 336
#     4  11  22  34  48  73 105 138 174 217 265 319
#
# _framework density 18.883897000000001
#
# number of rings (size 3 to 8) (size 9 to 14) (size 15 to 20)
#    0.000    2.000    0.000    5.143    0.000    2.857 
#    0.000    5.000    0.000    1.714    0.000    0.000 
#    0.000    0.000    0.000    0.000    0.000    0.000 
#
# Total GULP energy -312521.161524 kJ/mol
# GULP energy per Si atom -5580.735027 kJ/mol
# Density = 1.884092 g / cm^3
# Si number density = 18.883897 Si / 1000 Ang^3
#
#
#
# Elastic Constant Matrix: (Units=GPa)
#
#
# Indices 1 2 3 4 5 6 
#
# 1 121.4917 44.5836 33.8836 0.0000 0.0000 0.0000
# 2 44.5836 63.6268 15.2344 0.0000 0.0000 0.0000
# 3 33.8836 15.2344 50.3785 0.0000 0.0000 0.0000
# 4 0.0000 0.0000 0.0000 26.5868 0.0000 0.0000
# 5 0.0000 0.0000 0.0000 0.0000 24.8755 0.0000
# 6 0.0000 0.0000 0.0000 0.0000 0.0000 18.0135
#
#
#
# Elastic Compliance Matrix: (Units=1/GPa)
#
#
# Indices 1 2 3 4 5 6 
#
# 1 0.012702 -0.007390 -0.006309 0.000000 0.000000 0.000000
# 2 -0.007390 0.021243 -0.001453 0.000000 0.000000 0.000000
# 3 -0.006309 -0.001453 0.024532 0.000000 0.000000 0.000000
# 4 0.000000 0.000000 0.000000 0.037613 0.000000 0.000000
# 5 0.000000 0.000000 0.000000 0.000000 0.040200 0.000000
# 6 0.000000 0.000000 0.000000 0.000000 0.000000 0.055514
#
#
# Mechanical properties :
#
#
# Convention : Reuss Voigt Hill
#
# Bulk Modulus (GPa) = 35.49451 46.98891 41.24171
# Shear Modulus (GPa) = 21.59830 23.34820 22.47325
#
# Velocity S-wave (km/s) = 3.38559 3.52007 3.45349
# Velocity P-wave (km/s) = 5.84123 6.43881 6.14729
#
# Compressibility (1/GPa) = 0.02817337
#
# Stress axis : x y z
#
# Youngs Moduli (GPa) = 78.72517 47.07453 40.76260
#
# Poissons Ratio (x) = 0.34789 0.25716
# Poissons Ratio (y) = 0.58179 0.05924
# Poissons Ratio (z) = 0.49665 0.06842
#
# Static dielectric constant tensor:
#      x y z
#    x 1.678570 0.000000 0.000000 
#    y 0.000000 1.642630 0.000000 
#    z 0.000000 0.000000 1.639640 
# 
# From -- ./inp_files/8076.got.cif
#   From: 2010.05.17/outbox.cif.g08.bks.cpg/sg57_5_cif.got.tgz:8076.got - 2010.06.03 13:58:18.
