data_PCOD9435140
_publ_section_title
;
Structure prediction by ZEFSAII (Michael W. Deem and Ramdas Pophale) SiO2 
 PCOD9435140
Probable space group: P B C M
;
_chemical_formula_sum "Si O2"
_cell_formula_units_Z 64
_cell_length_a 21.884571
_cell_length_b 19.779547
_cell_length_c 9.146269
_cell_angle_alpha 90.000000
_cell_angle_beta 90.000000
_cell_angle_gamma 90.000000
_cell_volume 3959.117115
_symmetry_space_group_name_H-M "P B C M"
_symmetry_group_IT_number 57
_symmetry_cell_setting 'orthorhombic'
loop_
_space_group_symop_operation_xyz
x,y,z
-x,-y,1/2+z
x,1/2-y,-z
-x,1/2+y,1/2-z
-x,-y,-z
x,y,1/2-z
-x,1/2+y,z
x,1/2-y,1/2+z
loop_
_atom_site_type_symbol
_atom_site_label
_atom_site_fract_x
_atom_site_fract_y
_atom_site_fract_z
Si Si1 0.911358 0.963863 0.082842
Si Si2 0.445277 0.184091 0.582985
Si Si3 0.015103 0.606477 0.082144
Si Si4 0.308415 0.457668 0.574820
Si Si5 0.449302 0.454711 0.924622
Si Si6 0.702854 0.682519 0.583347
Si Si7 0.806140 0.041294 0.575234
Si Si8 0.125294 0.678825 0.926002
O O1 0.900609 0.943220 0.250000
O O2 0.951220 0.033278 0.086129
O O3 0.950857 0.908658 0.995845
O O4 0.850241 0.987270 0.002144
O O5 0.468229 0.250000 0.500000
O O6 0.467001 0.178269 0.750000
O O7 0.460168 0.120090 0.484962
O O8 0.371249 0.188100 0.589001
O O9 0.008589 0.629467 0.250000
O O10 0.059823 0.654729 0.990210
O O11 0.307362 0.446618 0.750000
O O12 0.378880 0.471821 0.533992
O O13 0.286231 0.388320 0.498766
O O14 0.262776 0.519099 0.540139
O O15 0.454069 0.458081 0.750000
O O16 0.500000 0.500000 0.000000
O O17 0.724811 0.750000 0.500000
O O18 0.725336 0.680617 0.750000
O O19 0.814713 0.035616 0.750000
O O20 0.828133 0.117116 0.536205
O O21 0.122666 0.685024 0.750000
O O22 0.141918 0.750000 0.000000
#
# Coordination Sequence:
#
# PCOD9435140 Si02
#       8
#     8   8   8   8   8   8   8   8
#     4   9  16  26  43  68  94 118 146 183 228 275
#     4   9  16  27  44  67  93 119 148 184 228 280
#     4   9  16  27  44  66  92 120 150 185 226 272
#     4   9  18  32  49  69  94 126 163 202 245 294
#     4  10  19  31  48  70  96 126 161 203 251 300
#     4   9  16  26  43  67  93 119 147 182 225 276
#     4   9  18  32  49  69  94 126 163 202 246 296
#     4  10  19  31  48  70  96 126 164 208 249 288
#
# _framework density 16.165220999999999
#
# number of rings (size 3 to 8) (size 9 to 14) (size 15 to 20)
#    0.000    2.750    0.000    2.250    0.000    7.500 
#    0.000    0.000    0.000    1.500    0.000    3.500 
#    0.000    0.000    0.000    0.000    0.000    0.000 
#
# Total GULP energy -356414.385270 kJ/mol
# GULP energy per Si atom -5568.974770 kJ/mol
# Density = 1.612843 g / cm^3
# Si number density = 16.165221 Si / 1000 Ang^3
#
#
#
# Elastic Constant Matrix: (Units=GPa)
#
#
# Indices 1 2 3 4 5 6 
#
# 1 76.8158 61.1595 44.5765 0.0000 0.0000 0.0000
# 2 61.1595 99.7881 51.9523 0.0000 0.0000 0.0000
# 3 44.5765 51.9523 79.4380 0.0000 0.0000 0.0000
# 4 0.0000 0.0000 0.0000 28.2630 0.0000 0.0000
# 5 0.0000 0.0000 0.0000 0.0000 17.1015 0.0000
# 6 0.0000 0.0000 0.0000 0.0000 0.0000 15.2825
#
#
#
# Elastic Compliance Matrix: (Units=1/GPa)
#
#
# Indices 1 2 3 4 5 6 
#
# 1 0.027597 -0.013421 -0.006708 0.000000 0.000000 0.000000
# 2 -0.013421 0.021722 -0.006675 0.000000 0.000000 0.000000
# 3 -0.006708 -0.006675 0.020718 0.000000 0.000000 0.000000
# 4 0.000000 0.000000 0.000000 0.035382 0.000000 0.000000
# 5 0.000000 0.000000 0.000000 0.000000 0.058475 0.000000
# 6 0.000000 0.000000 0.000000 0.000000 0.000000 0.065434
#
#
# Mechanical properties :
#
#
# Convention : Reuss Voigt Hill
#
# Bulk Modulus (GPa) = 60.87177 63.49094 62.18135
# Shear Modulus (GPa) = 17.33620 18.68630 18.01125
#
# Velocity S-wave (km/s) = 3.27836 3.40363 3.34158
# Velocity P-wave (km/s) = 7.21581 7.40323 7.31012
#
# Compressibility (1/GPa) = 0.01642798
#
# Stress axis : x y z
#
# Youngs Moduli (GPa) = 36.23583 46.03560 48.26670
#
# Poissons Ratio (x) = 0.61787 0.32379
# Poissons Ratio (y) = 0.48634 0.32218
# Poissons Ratio (z) = 0.24308 0.30728
#
# Static dielectric constant tensor:
#      x y z
#    x 1.540770 0.000000 0.000000 
#    y 0.000000 1.512000 0.000000 
#    z 0.000000 0.000000 1.547350 
# 
# From -- ./inp_files/8772.got.cif
#   From: 2010.05.17/outbox.cif.g08.bks.cpg/sg57_5_cif.got.tgz:8772.got - 2010.06.03 13:58:18.
