data_PCOD9435270
_publ_section_title
;
Structure prediction by ZEFSAII (Michael W. Deem and Ramdas Pophale) SiO2 
 PCOD9435270
Probable space group: P B C M
;
_chemical_formula_sum "Si O2"
_cell_formula_units_Z 56
_cell_length_a 9.279935
_cell_length_b 19.982702
_cell_length_c 14.609704
_cell_angle_alpha 90.000000
_cell_angle_beta 90.000000
_cell_angle_gamma 90.000000
_cell_volume 2709.196857
_symmetry_space_group_name_H-M "P B C M"
_symmetry_group_IT_number 57
_symmetry_cell_setting 'orthorhombic'
loop_
_space_group_symop_operation_xyz
x,y,z
-x,-y,1/2+z
x,1/2-y,-z
-x,1/2+y,1/2-z
-x,-y,-z
x,y,1/2-z
-x,1/2+y,z
x,1/2-y,1/2+z
loop_
_atom_site_type_symbol
_atom_site_label
_atom_site_fract_x
_atom_site_fract_y
_atom_site_fract_z
Si Si1 0.246922 0.910454 0.143925
Si Si2 0.411266 0.048028 0.110272
Si Si3 0.803730 0.781246 0.359755
Si Si4 0.146993 0.128169 0.147661
Si Si5 0.946339 0.590492 0.951926
Si Si6 0.483995 0.166294 0.852155
Si Si7 0.665543 0.967776 0.101263
O O1 0.208311 0.895203 0.250000
O O2 0.329664 0.981146 0.143695
O O3 0.362141 0.855453 0.107654
O O4 0.108088 0.917293 0.081306
O O5 0.579324 0.034157 0.130674
O O6 0.317413 0.109075 0.146657
O O7 0.389345 0.048765 0.001359
O O8 0.804806 0.795645 0.250000
O O9 0.865226 0.707178 0.369847
O O10 0.890348 0.837932 0.413598
O O11 0.636871 0.785401 0.393112
O O12 0.092590 0.111781 0.250000
O O13 0.076277 0.090657 0.061365
O O14 0.837098 0.536697 0.905807
O O15 0.516507 0.190918 0.750000
O O16 0.395410 0.096262 0.845567
#
# Coordination Sequence:
#
# PCOD9435270 Si02
#       7
#     8   8   8   8   8   8   8
#     4  10  19  31  51  78 105 133 169 215 263 305
#     4   9  17  32  50  71 100 133 169 209 260 312
#     4   9  17  32  54  78 101 128 170 217 260 305
#     4  10  20  32  50  74 103 139 173 209 256 315
#     4  10  19  32  53  78 104 135 176 218 255 297
#     4   8  15  29  50  76 102 128 165 215 258 296
#     4   8  16  29  49  73  97 128 167 211 251 297
#
# _framework density 20.670332999999999
#
# number of rings (size 3 to 8) (size 9 to 14) (size 15 to 20)
#    0.000    2.857    0.000    1.286    0.000    3.429 
#    0.000    0.000    0.000   23.143    0.000   40.000 
#    0.000    0.000    0.000    0.000    0.000    0.000 
#
# Total GULP energy -311861.584560 kJ/mol
# GULP energy per Si atom -5568.956867 kJ/mol
# Density = 2.062329 g / cm^3
# Si number density = 20.670333 Si / 1000 Ang^3
#
#
#
# Elastic Constant Matrix: (Units=GPa)
#
#
# Indices 1 2 3 4 5 6 
#
# 1 109.9682 10.6670 32.7315 0.0000 0.0000 0.0000
# 2 10.6670 29.8184 8.7043 0.0000 0.0000 0.0000
# 3 32.7315 8.7043 98.6061 0.0000 0.0000 0.0000
# 4 0.0000 0.0000 0.0000 27.6016 0.0000 0.0000
# 5 0.0000 0.0000 0.0000 0.0000 18.8088 0.0000
# 6 0.0000 0.0000 0.0000 0.0000 0.0000 9.4105
#
#
#
# Elastic Compliance Matrix: (Units=1/GPa)
#
#
# Indices 1 2 3 4 5 6 
#
# 1 0.010307 -0.002760 -0.003178 0.000000 0.000000 0.000000
# 2 -0.002760 0.035162 -0.002188 0.000000 0.000000 0.000000
# 3 -0.003178 -0.002188 0.011389 0.000000 0.000000 0.000000
# 4 0.000000 0.000000 0.000000 0.036230 0.000000 0.000000
# 5 0.000000 0.000000 0.000000 0.000000 0.053167 0.000000
# 6 0.000000 0.000000 0.000000 0.000000 0.000000 0.106264
#
#
# Mechanical properties :
#
#
# Convention : Reuss Voigt Hill
#
# Bulk Modulus (GPa) = 24.62558 38.06649 31.34604
# Shear Modulus (GPa) = 17.71130 23.58351 20.64740
#
# Velocity S-wave (km/s) = 2.93037 3.38144 3.16395
# Velocity P-wave (km/s) = 4.83619 5.80530 5.34276
#
# Compressibility (1/GPa) = 0.04060817
#
# Stress axis : x y z
#
# Youngs Moduli (GPa) = 97.02092 28.43970 87.80158
#
# Poissons Ratio (x) = 0.07848 0.27901
# Poissons Ratio (y) = 0.26773 0.19210
# Poissons Ratio (z) = 0.30831 0.06222
#
# Static dielectric constant tensor:
#      x y z
#    x 1.777490 0.000000 0.000000 
#    y 0.000000 1.761120 0.000000 
#    z 0.000000 0.000000 1.859640 
# 
# From -- ./inp_files/16725.got.cif
#   From: 2010.05.17/outbox.cif.g08.bks.cpg/sg57_9_cif.got.tgz:16725.got - 2010.06.03 13:58:18.
