data_PCOD9435007
_publ_section_title
;
Structure prediction by ZEFSAII (Michael W. Deem and Ramdas Pophale) SiO2 
 PCOD9435007
Probable space group: P B C M
;
_chemical_formula_sum "Si O2"
_cell_formula_units_Z 48
_cell_length_a 9.995322
_cell_length_b 31.845700
_cell_length_c 9.135615
_cell_angle_alpha 90.000000
_cell_angle_beta 90.000000
_cell_angle_gamma 90.000000
_cell_volume 2907.939575
_symmetry_space_group_name_H-M "P B C M"
_symmetry_group_IT_number 57
_symmetry_cell_setting 'orthorhombic'
loop_
_space_group_symop_operation_xyz
x,y,z
-x,-y,1/2+z
x,1/2-y,-z
-x,1/2+y,1/2-z
-x,-y,-z
x,y,1/2-z
-x,1/2+y,z
x,1/2-y,1/2+z
loop_
_atom_site_type_symbol
_atom_site_label
_atom_site_fract_x
_atom_site_fract_y
_atom_site_fract_z
Si Si1 0.337705 0.208564 0.582971
Si Si2 0.651749 0.378722 0.925978
Si Si3 0.147593 0.046484 0.574323
Si Si4 0.363359 0.116386 0.927922
Si Si5 0.663689 0.292311 0.080642
Si Si6 0.135082 0.549661 0.425404
O O1 0.290947 0.250000 0.500000
O O2 0.293293 0.211688 0.750000
O O3 0.303589 0.161948 0.527120
O O4 0.500581 0.208972 0.580638
O O5 0.640594 0.375260 0.750000
O O6 0.754331 0.415881 0.963409
O O7 0.506937 0.388046 0.996041
O O8 0.699782 0.334496 0.993880
O O9 0.133207 0.048508 0.750000
O O10 0.264372 0.078676 0.533406
O O11 0.006724 0.057900 0.501285
O O12 0.177597 0.997973 0.534664
O O13 0.380883 0.117634 0.750000
O O14 0.706028 0.293773 0.250000
O O15 0.709758 0.250000 0.000000
O O16 0.117243 0.550737 0.250000
#
# Coordination Sequence:
#
# PCOD9435007 Si02
#       6
#     8   8   8   8   8   8
#     4   8  14  24  39  61  89 118 147 182 223 269
#     4  10  19  30  46  71 101 128 156 195 240 283
#     4   9  18  34  53  69  90 124 162 200 243 290
#     4   9  18  31  47  70  97 123 157 199 240 284
#     4   9  16  27  44  67  95 126 159 194 233 278
#     4   9  19  34  50  70  95 123 159 200 241 289
#
# _framework density 16.506530999999999
#
# number of rings (size 3 to 8) (size 9 to 14) (size 15 to 20)
#    0.000    3.000    0.000    2.000    0.000    6.667 
#    0.000    0.000    0.000    1.000    0.000    4.667 
#    0.000    0.000    0.000    0.000    0.000    0.000 
#
# Total GULP energy -267315.954950 kJ/mol
# GULP energy per Si atom -5569.082395 kJ/mol
# Density = 1.646896 g / cm^3
# Si number density = 16.506531 Si / 1000 Ang^3
#
#
#
# Elastic Constant Matrix: (Units=GPa)
#
#
# Indices 1 2 3 4 5 6 
#
# 1 64.2273 88.9711 37.7793 0.0000 0.0000 0.0000
# 2 88.9711 172.8658 65.1376 0.0000 0.0000 0.0000
# 3 37.7793 65.1376 49.8300 0.0000 0.0000 0.0000
# 4 0.0000 0.0000 0.0000 27.5411 0.0000 0.0000
# 5 0.0000 0.0000 0.0000 0.0000 20.2755 0.0000
# 6 0.0000 0.0000 0.0000 0.0000 0.0000 -4.6077
#
#
#
# Elastic Compliance Matrix: (Units=1/GPa)
#
#
# Indices 1 2 3 4 5 6 
#
# 1 0.056434 -0.025468 -0.009495 0.000000 0.000000 0.000000
# 2 -0.025468 0.022894 -0.010617 0.000000 0.000000 0.000000
# 3 -0.009495 -0.010617 0.041146 0.000000 0.000000 0.000000
# 4 0.000000 0.000000 0.000000 0.036309 0.000000 0.000000
# 5 0.000000 0.000000 0.000000 0.000000 0.049321 0.000000
# 6 0.000000 0.000000 0.000000 0.000000 0.000000 -0.217028
#
#
# Mechanical properties :
#
#
# Convention : Reuss Voigt Hill
#
# Bulk Modulus (GPa) = 34.11415 74.52212 54.31814
# Shear Modulus (GPa) = 55.55143 14.97748 35.26445
#
# Velocity S-wave (km/s) = 5.80752 3.01552 4.62713
# Velocity P-wave (km/s) = 8.10442 7.57427 7.84382
#
# Compressibility (1/GPa) = 0.02931335
#
# Stress axis : x y z
#
# Youngs Moduli (GPa) = 17.71971 43.68036 24.30388
#
# Poissons Ratio (x) = 1.11246 0.23076
# Poissons Ratio (y) = 0.45129 0.25804
# Poissons Ratio (z) = 0.16824 0.46377
#
# Static dielectric constant tensor:
#      x y z
#    x 1.515710 0.000000 0.000000 
#    y 0.000000 1.578610 0.000000 
#    z 0.000000 0.000000 1.560770 
# 
# From -- ./inp_files/3319.got.cif
#   From: 2010.05.17/outbox.cif.g08.bks.cpg/sg57_2_cif.got.tgz:3319.got - 2010.06.03 13:58:18.
