data_PCOD9435390
_publ_section_title
;
Structure prediction by ZEFSAII (Michael W. Deem and Ramdas Pophale) SiO2 
 PCOD9435390
Probable space group: P B C M
;
_chemical_formula_sum "Si O2"
_cell_formula_units_Z 64
_cell_length_a 23.149479
_cell_length_b 18.217988
_cell_length_c 8.498918
_cell_angle_alpha 90.000000
_cell_angle_beta 90.000000
_cell_angle_gamma 90.000000
_cell_volume 3584.307591
_symmetry_space_group_name_H-M "P B C M"
_symmetry_group_IT_number 57
_symmetry_cell_setting 'orthorhombic'
loop_
_space_group_symop_operation_xyz
x,y,z
-x,-y,1/2+z
x,1/2-y,-z
-x,1/2+y,1/2-z
-x,-y,-z
x,y,1/2-z
-x,1/2+y,z
x,1/2-y,1/2+z
loop_
_atom_site_type_symbol
_atom_site_label
_atom_site_fract_x
_atom_site_fract_y
_atom_site_fract_z
Si Si1 0.757991 0.517173 0.938237
Si Si2 0.886227 0.028082 0.440065
Si Si3 0.953396 0.172847 0.439791
Si Si4 0.078596 0.373902 0.560837
Si Si5 0.794228 0.828144 0.561403
Si Si6 0.539800 0.566266 0.439495
Si Si7 0.361560 0.964532 0.438776
Si Si8 0.558836 0.331718 0.938879
O O1 0.755817 0.518867 0.750000
O O2 0.819190 0.480983 0.986280
O O3 0.760135 0.600665 0.001202
O O4 0.703319 0.473307 0.002234
O O5 0.889284 0.023635 0.250000
O O6 0.915140 0.103814 0.490827
O O7 0.919553 0.958584 0.510348
O O8 0.930577 0.250000 0.500000
O O9 0.954203 0.173220 0.250000
O O10 0.019466 0.162141 0.497146
O O11 0.078819 0.369719 0.750000
O O12 0.139002 0.338858 0.504510
O O13 0.772694 0.750000 0.500000
O O14 0.793824 0.828498 0.750000
O O15 0.500000 0.500000 0.500000
O O16 0.539820 0.567444 0.250000
O O17 0.603099 0.538569 0.489272
O O18 0.505084 0.638850 0.491035
O O19 0.362599 0.960764 0.250000
O O20 0.395271 0.892912 0.502682
O O21 0.560590 0.331069 0.750000
O O22 0.569969 0.250000 0.000000
#
# Coordination Sequence:
#
# PCOD9435390 Si02
#       8
#     8   8   8   8   8   8   8   8
#     4  10  20  35  53  73  99 136 176 215 255 298
#     4   9  19  34  51  70  96 129 168 209 251 299
#     4  10  20  33  48  71  99 127 159 202 253 307
#     4   9  18  31  50  74  98 123 158 201 251 310
#     4  10  19  32  50  74 101 129 162 205 254 308
#     4   8  16  30  50  74 101 130 161 198 243 292
#     4  10  19  34  55  78 103 136 176 215 252 298
#     4  10  19  33  53  80 110 138 168 207 252 298
#
# _framework density 17.855609999999999
#
# number of rings (size 3 to 8) (size 9 to 14) (size 15 to 20)
#    0.000    2.500    0.000    2.250    0.000    3.000 
#    0.000    1.250    0.000    3.000    0.000    0.000 
#    0.000    0.000    0.000    0.000    0.000    0.000 
#
# Total GULP energy -356738.475262 kJ/mol
# GULP energy per Si atom -5574.038676 kJ/mol
# Density = 1.781497 g / cm^3
# Si number density = 17.855610 Si / 1000 Ang^3
#
#
#
# Elastic Constant Matrix: (Units=GPa)
#
#
# Indices 1 2 3 4 5 6 
#
# 1 63.2195 41.5499 15.4978 0.0000 0.0000 0.0000
# 2 41.5499 122.0495 18.8758 0.0000 0.0000 0.0000
# 3 15.4978 18.8758 23.7597 0.0000 0.0000 0.0000
# 4 0.0000 0.0000 0.0000 27.4112 0.0000 0.0000
# 5 0.0000 0.0000 0.0000 0.0000 20.3093 0.0000
# 6 0.0000 0.0000 0.0000 0.0000 0.0000 17.9667
#
#
#
# Elastic Compliance Matrix: (Units=1/GPa)
#
#
# Indices 1 2 3 4 5 6 
#
# 1 0.022160 -0.006052 -0.009646 0.000000 0.000000 0.000000
# 2 -0.006052 0.010994 -0.004786 0.000000 0.000000 0.000000
# 3 -0.009646 -0.004786 0.052183 0.000000 0.000000 0.000000
# 4 0.000000 0.000000 0.000000 0.036481 0.000000 0.000000
# 5 0.000000 0.000000 0.000000 0.000000 0.049239 0.000000
# 6 0.000000 0.000000 0.000000 0.000000 0.000000 0.055658
#
#
# Mechanical properties :
#
#
# Convention : Reuss Voigt Hill
#
# Bulk Modulus (GPa) = 22.53933 40.09729 31.31831
# Shear Modulus (GPa) = 17.70071 22.01114 19.85593
#
# Velocity S-wave (km/s) = 3.15195 3.51483 3.33833
# Velocity P-wave (km/s) = 5.08890 6.24318 5.69535
#
# Compressibility (1/GPa) = 0.04436690
#
# Stress axis : x y z
#
# Youngs Moduli (GPa) = 45.12552 90.95818 19.16347
#
# Poissons Ratio (x) = 0.55051 0.18486
# Poissons Ratio (y) = 0.27311 0.09172
# Poissons Ratio (z) = 0.43530 0.43537
#
# Static dielectric constant tensor:
#      x y z
#    x 1.626010 0.000000 0.000000 
#    y 0.000000 1.593610 0.000000 
#    z 0.000000 0.000000 1.603710 
# 
# From -- ./inp_files/9309.got.cif
#   From: 2010.05.17/outbox.cif.g08.bks.cpg/sg57_5_cif.got.tgz:9309.got - 2010.06.03 13:58:18.
