data_PCOD9435387
_publ_section_title
;
Structure prediction by ZEFSAII (Michael W. Deem and Ramdas Pophale) SiO2 
 PCOD9435387
Probable space group: P B C M
;
_chemical_formula_sum "Si O2"
_cell_formula_units_Z 48
_cell_length_a 18.507147
_cell_length_b 14.185187
_cell_length_c 7.634006
_cell_angle_alpha 90.000000
_cell_angle_beta 90.000000
_cell_angle_gamma 90.000000
_cell_volume 2004.135297
_symmetry_space_group_name_H-M "P B C M"
_symmetry_group_IT_number 57
_symmetry_cell_setting 'orthorhombic'
loop_
_space_group_symop_operation_xyz
x,y,z
-x,-y,1/2+z
x,1/2-y,-z
-x,1/2+y,1/2-z
-x,-y,-z
x,y,1/2-z
-x,1/2+y,z
x,1/2-y,1/2+z
loop_
_atom_site_type_symbol
_atom_site_label
_atom_site_fract_x
_atom_site_fract_y
_atom_site_fract_z
Si Si1 0.164933 0.937306 0.534041
Si Si2 0.012484 0.889952 0.958598
Si Si3 0.465033 0.859603 0.960002
Si Si4 0.142713 0.351722 0.055103
Si Si5 0.626984 0.641016 0.041160
Si Si6 0.680088 0.448676 0.954078
O O1 0.162440 0.938322 0.750000
O O2 0.095295 0.875809 0.481685
O O3 0.156363 0.046262 0.468175
O O4 0.244791 0.907783 0.475816
O O5 0.006771 0.873398 0.750000
O O6 0.944644 0.842934 0.051147
O O7 0.000000 0.000000 0.000000
O O8 0.468549 0.873439 0.750000
O O9 0.545571 0.881929 0.027644
O O10 0.395756 0.914315 0.032967
O O11 0.453521 0.750000 0.000000
O O12 0.169219 0.364355 0.250000
O O13 0.172203 0.250000 0.000000
O O14 0.627854 0.631743 0.250000
O O15 0.642256 0.750000 0.000000
O O16 0.679840 0.562053 0.967315
O O17 0.678021 0.422316 0.750000
#
# Coordination Sequence:
#
# PCOD9435387 Si02
#       6
#     8   8   8   8   8   8
#     4   8  17  32  50  71  99 130 161 197 246 299
#     4   9  16  30  50  70  92 122 157 195 233 281
#     4   9  19  34  54  75 100 133 172 215 259 303
#     4  10  19  32  50  73  97 127 164 204 246 294
#     4  10  20  34  51  76 104 135 173 214 255 303
#     4  10  19  34  54  77 104 137 170 209 260 310
#
# _framework density 23.950478
#
# number of rings (size 3 to 8) (size 9 to 14) (size 15 to 20)
#    0.000    2.667    0.000    3.000    0.000    2.000 
#    0.000    7.500    0.000    2.000    0.000    0.000 
#    0.000    0.000    0.000    0.000    0.000    0.000 
#
# Total GULP energy -267706.778827 kJ/mol
# GULP energy per Si atom -5577.224559 kJ/mol
# Density = 2.389597 g / cm^3
# Si number density = 23.950478 Si / 1000 Ang^3
#
#
#
# Elastic Constant Matrix: (Units=GPa)
#
#
# Indices 1 2 3 4 5 6 
#
# 1 131.7964 8.4719 -2.2661 0.0000 0.0000 0.0000
# 2 8.4719 24.6864 -11.9819 0.0000 0.0000 0.0000
# 3 -2.2661 -11.9819 60.0893 0.0000 0.0000 0.0000
# 4 0.0000 0.0000 0.0000 18.5451 0.0000 0.0000
# 5 0.0000 0.0000 0.0000 0.0000 9.5896 0.0000
# 6 0.0000 0.0000 0.0000 0.0000 0.0000 -346.2136
#
#
#
# Elastic Compliance Matrix: (Units=1/GPa)
#
#
# Indices 1 2 3 4 5 6 
#
# 1 0.007762 -0.002792 -0.000264 0.000000 0.000000 0.000000
# 2 -0.002792 0.045853 0.009038 0.000000 0.000000 0.000000
# 3 -0.000264 0.009038 0.018434 0.000000 0.000000 0.000000
# 4 0.000000 0.000000 0.000000 0.053923 0.000000 0.000000
# 5 0.000000 0.000000 0.000000 0.000000 0.104280 0.000000
# 6 0.000000 0.000000 0.000000 0.000000 0.000000 -0.002888
#
#
# Mechanical properties :
#
#
# Convention : Reuss Voigt Hill
#
# Bulk Modulus (GPa) = 11.90288 22.77996 17.34142
# Shear Modulus (GPa) = 20.54192 -48.79258 -14.12533
#
# Velocity S-wave (km/s) = 2.93180 -4.51846 -2.43116
# Velocity P-wave (km/s) = 4.05477 4.20596 0.79022
#
# Compressibility (1/GPa) = 0.08401329
#
# Stress axis : x y z
#
# Youngs Moduli (GPa) = 128.82625 21.80882 54.24721
#
# Poissons Ratio (x) = 0.06089 0.01432
# Poissons Ratio (y) = 0.35969 -0.49028
# Poissons Ratio (z) = 0.03401 -0.19711
#
# Static dielectric constant tensor:
#      x y z
#    x 1.990470 0.000000 0.000000 
#    y 0.000000 1.868180 0.000000 
#    z 0.000000 0.000000 1.815670 
# 
# From -- ./inp_files/6573.got.cif
#   From: 2010.05.17/outbox.cif.g08.bks.cpg/sg57_4_cif.got.tgz:6573.got - 2010.06.03 13:58:18.
