data_PCOD9435108
_publ_section_title
;
Structure prediction by ZEFSAII (Michael W. Deem and Ramdas Pophale) SiO2 
 PCOD9435108
Probable space group: P B C M
;
_chemical_formula_sum "Si O2"
_cell_formula_units_Z 56
_cell_length_a 18.067112
_cell_length_b 22.206875
_cell_length_c 9.028000
_cell_angle_alpha 90.000000
_cell_angle_beta 90.000000
_cell_angle_gamma 90.000000
_cell_volume 3622.160875
_symmetry_space_group_name_H-M "P B C M"
_symmetry_group_IT_number 57
_symmetry_cell_setting 'orthorhombic'
loop_
_space_group_symop_operation_xyz
x,y,z
-x,-y,1/2+z
x,1/2-y,-z
-x,1/2+y,1/2-z
-x,-y,-z
x,y,1/2-z
-x,1/2+y,z
x,1/2-y,1/2+z
loop_
_atom_site_type_symbol
_atom_site_label
_atom_site_fract_x
_atom_site_fract_y
_atom_site_fract_z
Si Si1 0.214041 0.097081 0.927618
Si Si2 0.390659 0.963912 0.925542
Si Si3 0.907287 0.059152 0.080003
Si Si4 0.240778 0.532618 0.573662
Si Si5 0.550161 0.913634 0.925914
Si Si6 0.350411 0.315222 0.426953
Si Si7 0.947721 0.583798 0.920462
O O1 0.214206 0.083844 0.750000
O O2 0.274346 0.148114 0.956136
O O3 0.129527 0.114240 0.967289
O O4 0.234779 0.036146 0.013498
O O5 0.379059 0.972713 0.750000
O O6 0.462008 0.921434 0.946511
O O7 0.315682 0.941937 0.001853
O O8 0.412757 0.027746 0.998977
O O9 0.892577 0.074724 0.250000
O O10 0.928006 0.987751 0.075282
O O11 0.833443 0.065241 0.983408
O O12 0.979520 0.092622 0.017759
O O13 0.244424 0.532816 0.750000
O O14 0.565506 0.914143 0.750000
O O15 0.584686 0.855335 0.001844
O O16 0.347956 0.250000 0.500000
O O17 0.359729 0.311059 0.250000
O O18 0.963942 0.599169 0.750000
#
# Coordination Sequence:
#
# PCOD9435108 Si02
#       7
#     8   8   8   8   8   8   8
#     4   9  18  31  45  61  85 119 153 190 233 272
#     4  10  19  31  47  67  94 122 151 191 236 284
#     4   9  16  25  37  56  85 117 147 179 220 261
#     4  11  19  26  42  65  90 120 155 189 223 273
#     4  10  20  33  49  69  90 118 156 193 235 285
#     4  11  22  35  51  68  93 124 158 199 239 279
#     4   8  14  25  39  56  80 111 149 183 216 261
#
# _framework density 15.460385
#
# number of rings (size 3 to 8) (size 9 to 14) (size 15 to 20)
#    0.000    2.286    1.429    3.857    0.000    5.714 
#    0.000    0.000    0.000    0.000    0.000    0.000 
#    0.000    1.143    0.000   10.571    0.000    4.714 
#
# Total GULP energy -312174.999750 kJ/mol
# GULP energy per Si atom -5574.553567 kJ/mol
# Density = 1.542520 g / cm^3
# Si number density = 15.460385 Si / 1000 Ang^3
#
#
#
# Elastic Constant Matrix: (Units=GPa)
#
#
# Indices 1 2 3 4 5 6 
#
# 1 138.5575 36.3064 78.8303 0.0000 0.0000 0.0000
# 2 36.3064 46.3818 33.5577 0.0000 0.0000 0.0000
# 3 78.8303 33.5577 104.8941 0.0000 0.0000 0.0000
# 4 0.0000 0.0000 0.0000 15.6714 0.0000 0.0000
# 5 0.0000 0.0000 0.0000 0.0000 29.9351 0.0000
# 6 0.0000 0.0000 0.0000 0.0000 0.0000 10.3579
#
#
#
# Elastic Compliance Matrix: (Units=1/GPa)
#
#
# Indices 1 2 3 4 5 6 
#
# 1 0.013181 -0.004100 -0.008594 0.000000 0.000000 0.000000
# 2 -0.004100 0.029329 -0.006302 0.000000 0.000000 0.000000
# 3 -0.008594 -0.006302 0.018008 0.000000 0.000000 0.000000
# 4 0.000000 0.000000 0.000000 0.063810 0.000000 0.000000
# 5 0.000000 0.000000 0.000000 0.000000 0.033406 0.000000
# 6 0.000000 0.000000 0.000000 0.000000 0.000000 0.096545
#
#
# Mechanical properties :
#
#
# Convention : Reuss Voigt Hill
#
# Bulk Modulus (GPa) = 44.39220 65.24692 54.81956
# Shear Modulus (GPa) = 16.67894 20.60216 18.64055
#
# Velocity S-wave (km/s) = 3.28810 3.65441 3.47608
# Velocity P-wave (km/s) = 6.57201 7.75245 7.18651
#
# Compressibility (1/GPa) = 0.02252648
#
# Stress axis : x y z
#
# Youngs Moduli (GPa) = 75.86624 34.09624 55.52994
#
# Poissons Ratio (x) = 0.13979 0.47724
# Poissons Ratio (y) = 0.31103 0.34994
# Poissons Ratio (z) = 0.65202 0.21487
#
# Static dielectric constant tensor:
#      x y z
#    x 1.553240 0.000000 0.000000 
#    y 0.000000 1.473020 0.000000 
#    z 0.000000 0.000000 1.517030 
# 
# From -- ./inp_files/6978.got.cif
#   From: 2010.05.17/outbox.cif.g08.bks.cpg/sg57_4_cif.got.tgz:6978.got - 2010.06.03 13:58:18.
