data_PCOD9435449
_publ_section_title
;
Structure prediction by ZEFSAII (Michael W. Deem and Ramdas Pophale) SiO2 
 PCOD9435449
Probable space group: P B C M
;
_chemical_formula_sum "Si O2"
_cell_formula_units_Z 48
_cell_length_a 12.123889
_cell_length_b 26.275715
_cell_length_c 8.783948
_cell_angle_alpha 90.000000
_cell_angle_beta 90.000000
_cell_angle_gamma 90.000000
_cell_volume 2798.248311
_symmetry_space_group_name_H-M "P B C M"
_symmetry_group_IT_number 57
_symmetry_cell_setting 'orthorhombic'
loop_
_space_group_symop_operation_xyz
x,y,z
-x,-y,1/2+z
x,1/2-y,-z
-x,1/2+y,1/2-z
-x,-y,-z
x,y,1/2-z
-x,1/2+y,z
x,1/2-y,1/2+z
loop_
_atom_site_type_symbol
_atom_site_label
_atom_site_fract_x
_atom_site_fract_y
_atom_site_fract_z
Si Si1 0.332632 0.193848 0.067569
Si Si2 0.967198 0.055238 0.431511
Si Si3 0.479636 0.613051 0.432028
Si Si4 0.357109 0.032328 0.926147
Si Si5 0.271854 0.571327 0.569091
Si Si6 0.163850 0.116066 0.925704
O O1 0.323732 0.195365 0.250000
O O2 0.442383 0.161006 0.029003
O O3 0.338789 0.250000 0.000000
O O4 0.228528 0.163181 0.999709
O O5 0.963136 0.050425 0.250000
O O6 0.848685 0.072273 0.494793
O O7 0.058934 0.095851 0.482834
O O8 0.000000 0.000000 0.500000
O O9 0.471639 0.609498 0.250000
O O10 0.545289 0.564157 0.496930
O O11 0.358696 0.612401 0.504976
O O12 0.383340 0.019793 0.750000
O O13 0.252014 0.069887 0.926266
O O14 0.323066 0.982825 0.018732
O O15 0.263700 0.574569 0.750000
O O16 0.135047 0.126755 0.750000
#
# Coordination Sequence:
#
# PCOD9435449 Si02
#       6
#     8   8   8   8   8   8
#     4  10  21  38  62  87 111 141 180 231 286 336
#     4  12  23  36  54  78 112 152 192 229 272 327
#     4  10  21  36  53  77 109 142 182 227 277 332
#     4  10  19  32  51  75 108 146 184 225 269 322
#     4  12  23  34  51  75 109 150 189 225 270 325
#     4  10  20  35  56  82 112 146 187 231 276 326
#
# _framework density 17.153587999999999
#
# number of rings (size 3 to 8) (size 9 to 14) (size 15 to 20)
#    0.000    1.333    1.667    5.500    0.000    3.333 
#    0.000    0.000    0.000    1.000    0.000    4.667 
#    0.000    0.000    0.000    0.000    0.000    0.000 
#
# Total GULP energy -268237.378720 kJ/mol
# GULP energy per Si atom -5588.278723 kJ/mol
# Density = 1.711455 g / cm^3
# Si number density = 17.153588 Si / 1000 Ang^3
#
#
#
# Elastic Constant Matrix: (Units=GPa)
#
#
# Indices 1 2 3 4 5 6 
#
# 1 154.5245 61.2219 79.6127 0.0000 0.0000 0.0000
# 2 61.2219 94.3824 49.2219 0.0000 0.0000 0.0000
# 3 79.6127 49.2219 150.3430 0.0000 0.0000 0.0000
# 4 0.0000 0.0000 0.0000 27.2209 0.0000 0.0000
# 5 0.0000 0.0000 0.0000 0.0000 32.5840 0.0000
# 6 0.0000 0.0000 0.0000 0.0000 0.0000 8.5696
#
#
#
# Elastic Compliance Matrix: (Units=1/GPa)
#
#
# Indices 1 2 3 4 5 6 
#
# 1 0.010355 -0.004651 -0.003960 0.000000 0.000000 0.000000
# 2 -0.004651 0.014866 -0.002404 0.000000 0.000000 0.000000
# 3 -0.003960 -0.002404 0.009536 0.000000 0.000000 0.000000
# 4 0.000000 0.000000 0.000000 0.036736 0.000000 0.000000
# 5 0.000000 0.000000 0.000000 0.000000 0.030690 0.000000
# 6 0.000000 0.000000 0.000000 0.000000 0.000000 0.116692
#
#
# Mechanical properties :
#
#
# Convention : Reuss Voigt Hill
#
# Bulk Modulus (GPa) = 78.58554 86.59588 82.59071
# Shear Modulus (GPa) = 20.39585 27.62112 24.00849
#
# Velocity S-wave (km/s) = 3.45195 4.01711 3.74521
# Velocity P-wave (km/s) = 7.86132 8.49167 8.18257
#
# Compressibility (1/GPa) = 0.01272499
#
# Stress axis : x y z
#
# Youngs Moduli (GPa) = 96.57421 67.26750 104.86841
#
# Poissons Ratio (x) = 0.31288 0.41533
# Poissons Ratio (y) = 0.44919 0.25211
# Poissons Ratio (z) = 0.38248 0.16172
#
# Static dielectric constant tensor:
#      x y z
#    x 1.595530 0.000000 0.000000 
#    y 0.000000 1.561630 0.000000 
#    z 0.000000 0.000000 1.574650 
# 
# From -- ./inp_files/3168.got.cif
#   From: 2010.05.17/outbox.cif.g08.bks.cpg/sg57_2_cif.got.tgz:3168.got - 2010.06.03 13:58:18.
