data_PCOD9435782
_publ_section_title
;
Structure prediction by ZEFSAII (Michael W. Deem and Ramdas Pophale) SiO2 
 PCOD9435782
Probable space group: P B C M
;
_chemical_formula_sum "Si O2"
_cell_formula_units_Z 32
_cell_length_a 7.245253
_cell_length_b 18.074305
_cell_length_c 11.788064
_cell_angle_alpha 90.000000
_cell_angle_beta 90.000000
_cell_angle_gamma 90.000000
_cell_volume 1543.681314
_symmetry_space_group_name_H-M "P B C M"
_symmetry_group_IT_number 57
_symmetry_cell_setting 'orthorhombic'
loop_
_space_group_symop_operation_xyz
x,y,z
-x,-y,1/2+z
x,1/2-y,-z
-x,1/2+y,1/2-z
-x,-y,-z
x,y,1/2-z
-x,1/2+y,z
x,1/2-y,1/2+z
loop_
_atom_site_type_symbol
_atom_site_label
_atom_site_fract_x
_atom_site_fract_y
_atom_site_fract_z
Si Si1 0.993527 0.638322 0.379338
Si Si2 0.298582 0.735465 0.624566
Si Si3 0.385480 0.416822 0.620807
Si Si4 0.266805 0.575390 0.953924
O O1 0.006577 0.610987 0.250000
O O2 0.776330 0.641997 0.404670
O O3 0.113938 0.713571 0.383356
O O4 0.090463 0.582277 0.465127
O O5 0.391742 0.750000 0.500000
O O6 0.382400 0.752757 0.750000
O O7 0.258905 0.648234 0.623127
O O8 0.449683 0.408483 0.750000
O O9 0.555672 0.414672 0.535926
O O10 0.292428 0.497745 0.607312
#
# Coordination Sequence:
#
# PCOD9435782 Si02
#       4
#     8   8   8   8
#     4   9  18  34  54  77 109 147 187 230 282 342
#     4   9  18  34  56  78 107 147 185 227 279 333
#     4  10  20  33  54  83 112 147 190 237 289 344
#     4  10  19  33  54  80 113 146 187 235 285 338
#
# _framework density 20.729668
#
# number of rings (size 3 to 8) (size 9 to 14) (size 15 to 20)
#    0.000    2.500    0.000    2.250    0.000    1.000 
#    0.000   11.250    0.000   33.000    0.000    0.000 
#    0.000    0.000    0.000    0.000    0.000    0.000 
#
# Total GULP energy -178241.343615 kJ/mol
# GULP energy per Si atom -5570.041988 kJ/mol
# Density = 2.068249 g / cm^3
# Si number density = 20.729668 Si / 1000 Ang^3
#
#
#
# Elastic Constant Matrix: (Units=GPa)
#
#
# Indices 1 2 3 4 5 6 
#
# 1 48.1956 15.9163 31.4223 0.0000 0.0000 0.0000
# 2 15.9163 97.6267 13.5204 0.0000 0.0000 0.0000
# 3 31.4223 13.5204 138.1147 0.0000 0.0000 0.0000
# 4 0.0000 0.0000 0.0000 -18.5788 0.0000 0.0000
# 5 0.0000 0.0000 0.0000 0.0000 21.6593 0.0000
# 6 0.0000 0.0000 0.0000 0.0000 0.0000 24.7768
#
#
#
# Elastic Compliance Matrix: (Units=1/GPa)
#
#
# Indices 1 2 3 4 5 6 
#
# 1 0.025423 -0.003390 -0.005452 0.000000 0.000000 0.000000
# 2 -0.003390 0.010836 -0.000290 0.000000 0.000000 0.000000
# 3 -0.005452 -0.000290 0.008509 0.000000 0.000000 0.000000
# 4 0.000000 0.000000 0.000000 -0.053825 0.000000 0.000000
# 5 0.000000 0.000000 0.000000 0.000000 0.046170 0.000000
# 6 0.000000 0.000000 0.000000 0.000000 0.000000 0.040360
#
#
# Mechanical properties :
#
#
# Convention : Reuss Voigt Hill
#
# Bulk Modulus (GPa) = 37.72858 45.07277 41.40068
# Shear Modulus (GPa) = 47.81450 20.44331 34.12891
#
# Velocity S-wave (km/s) = 4.80789 3.14377 4.06196
# Velocity P-wave (km/s) = 7.00435 5.91338 6.48186
#
# Compressibility (1/GPa) = 0.02650510
#
# Stress axis : x y z
#
# Youngs Moduli (GPa) = 39.33467 92.28646 117.52114
#
# Poissons Ratio (x) = 0.31282 0.64074
# Poissons Ratio (y) = 0.13333 0.03403
# Poissons Ratio (z) = 0.21446 0.02672
#
# Static dielectric constant tensor:
#      x y z
#    x 1.735480 0.000000 0.000000 
#    y 0.000000 1.763260 0.000000 
#    z 0.000000 0.000000 1.774430 
# 
# From -- ./inp_files/10658.got.cif
#   From: 2010.05.17/outbox.cif.g08.bks.cpg/sg57_6_cif.got.tgz:10658.got - 2010.06.03 13:58:18.
