data_PCOD9435327
_publ_section_title
;
Structure prediction by ZEFSAII (Michael W. Deem and Ramdas Pophale) SiO2 
 PCOD9435327
Probable space group: P B C M
;
_chemical_formula_sum "Si O2"
_cell_formula_units_Z 56
_cell_length_a 14.101324
_cell_length_b 24.870361
_cell_length_c 8.574218
_cell_angle_alpha 90.000000
_cell_angle_beta 90.000000
_cell_angle_gamma 90.000000
_cell_volume 3007.021282
_symmetry_space_group_name_H-M "P B C M"
_symmetry_group_IT_number 57
_symmetry_cell_setting 'orthorhombic'
loop_
_space_group_symop_operation_xyz
x,y,z
-x,-y,1/2+z
x,1/2-y,-z
-x,1/2+y,1/2-z
-x,-y,-z
x,y,1/2-z
-x,1/2+y,z
x,1/2-y,1/2+z
loop_
_atom_site_type_symbol
_atom_site_label
_atom_site_fract_x
_atom_site_fract_y
_atom_site_fract_z
Si Si1 0.732015 0.808443 0.062728
Si Si2 0.771375 0.023163 0.063100
Si Si3 0.835943 0.190428 0.062901
Si Si4 0.955262 0.410811 0.938896
Si Si5 0.661114 0.121540 0.562907
Si Si6 0.487355 0.191731 0.937818
Si Si7 0.169354 0.414009 0.937041
O O1 0.736297 0.808514 0.250000
O O2 0.621711 0.816517 0.013737
O O3 0.761847 0.750000 0.000000
O O4 0.793136 0.856979 0.995854
O O5 0.771013 0.022825 0.250000
O O6 0.871886 0.049242 0.007631
O O7 0.690693 0.063889 0.004970
O O8 0.767675 0.963030 0.999792
O O9 0.827904 0.191298 0.250000
O O10 0.920463 0.149256 0.020437
O O11 0.850080 0.250000 0.000000
O O12 0.741028 0.163576 0.994130
O O13 0.956515 0.414004 0.750000
O O14 0.060952 0.422359 0.994769
O O15 0.663392 0.118713 0.750000
O O16 0.559825 0.145359 0.512093
O O17 0.489171 0.193795 0.750000
O O18 0.518771 0.250000 0.000000
O O19 0.169483 0.414729 0.750000
#
# Coordination Sequence:
#
# PCOD9435327 Si02
#       7
#     8   8   8   8   8   8   8
#     4  10  21  39  58  80 107 137 173 217 261 308
#     4  10  20  36  55  79 108 139 172 213 259 310
#     4  10  19  32  48  73 107 141 173 212 259 312
#     4   8  18  34  52  74 104 138 176 216 259 308
#     4  10  19  33  53  79 106 137 173 214 260 311
#     4   9  19  34  55  79 106 137 173 213 259 310
#     4  11  21  36  57  80 104 137 176 217 260 307
#
# _framework density 18.623080999999999
#
# number of rings (size 3 to 8) (size 9 to 14) (size 15 to 20)
#    0.000    2.286    0.000    3.857    0.000    3.429 
#    0.000   10.000    0.000    0.000    0.000    0.000 
#    0.000    0.000    0.000    0.000    0.000    0.000 
#
# Total GULP energy -312561.702075 kJ/mol
# GULP energy per Si atom -5581.458966 kJ/mol
# Density = 1.858069 g / cm^3
# Si number density = 18.623081 Si / 1000 Ang^3
#
#
#
# Elastic Constant Matrix: (Units=GPa)
#
#
# Indices 1 2 3 4 5 6 
#
# 1 34.8961 16.9797 9.8082 0.0000 0.0000 0.0000
# 2 16.9797 111.4723 23.9587 0.0000 0.0000 0.0000
# 3 9.8082 23.9587 48.5134 0.0000 0.0000 0.0000
# 4 0.0000 0.0000 0.0000 31.9505 0.0000 0.0000
# 5 0.0000 0.0000 0.0000 0.0000 20.3055 0.0000
# 6 0.0000 0.0000 0.0000 0.0000 0.0000 17.0524
#
#
#
# Elastic Compliance Matrix: (Units=1/GPa)
#
#
# Indices 1 2 3 4 5 6 
#
# 1 0.031812 -0.003875 -0.004518 0.000000 0.000000 0.000000
# 2 -0.003875 0.010508 -0.004406 0.000000 0.000000 0.000000
# 3 -0.004518 -0.004406 0.023702 0.000000 0.000000 0.000000
# 4 0.000000 0.000000 0.000000 0.031298 0.000000 0.000000
# 5 0.000000 0.000000 0.000000 0.000000 0.049248 0.000000
# 6 0.000000 0.000000 0.000000 0.000000 0.000000 0.058643
#
#
# Mechanical properties :
#
#
# Convention : Reuss Voigt Hill
#
# Bulk Modulus (GPa) = 24.73747 32.93056 28.83402
# Shear Modulus (GPa) = 20.46806 23.47071 21.96939
#
# Velocity S-wave (km/s) = 3.31882 3.55392 3.43838
# Velocity P-wave (km/s) = 5.29133 5.87891 5.59284
#
# Compressibility (1/GPa) = 0.04042451
#
# Stress axis : x y z
#
# Youngs Moduli (GPa) = 31.43498 95.16530 42.19001
#
# Poissons Ratio (x) = 0.36872 0.19062
# Poissons Ratio (y) = 0.12180 0.18589
# Poissons Ratio (z) = 0.14203 0.41931
#
# Static dielectric constant tensor:
#      x y z
#    x 1.653490 0.000000 0.000000 
#    y 0.000000 1.622900 0.000000 
#    z 0.000000 0.000000 1.627250 
# 
# From -- ./inp_files/5174.got.cif
#   From: 2010.05.17/outbox.cif.g08.bks.cpg/sg57_3_cif.got.tgz:5174.got - 2010.06.03 13:58:18.
