data_PCOD9435521
_publ_section_title
;
Structure prediction by ZEFSAII (Michael W. Deem and Ramdas Pophale) SiO2 
 PCOD9435521
Probable space group: P B C M
;
_chemical_formula_sum "Si O2"
_cell_formula_units_Z 64
_cell_length_a 15.285542
_cell_length_b 23.285008
_cell_length_c 8.975127
_cell_angle_alpha 90.000000
_cell_angle_beta 90.000000
_cell_angle_gamma 90.000000
_cell_volume 3194.462813
_symmetry_space_group_name_H-M "P B C M"
_symmetry_group_IT_number 57
_symmetry_cell_setting 'orthorhombic'
loop_
_space_group_symop_operation_xyz
x,y,z
-x,-y,1/2+z
x,1/2-y,-z
-x,1/2+y,1/2-z
-x,-y,-z
x,y,1/2-z
-x,1/2+y,z
x,1/2-y,1/2+z
loop_
_atom_site_type_symbol
_atom_site_label
_atom_site_fract_x
_atom_site_fract_y
_atom_site_fract_z
Si Si1 0.101017 0.098612 0.571597
Si Si2 0.602141 0.389779 0.928126
Si Si3 0.044060 0.807965 0.073137
Si Si4 0.750400 0.689643 0.928597
Si Si5 0.631301 0.511969 0.422646
Si Si6 0.837531 0.012594 0.578868
Si Si7 0.198515 0.632375 0.072883
Si Si8 0.571667 0.630194 0.571552
O O1 0.104906 0.088702 0.750000
O O2 0.184567 0.137952 0.528747
O O3 0.104628 0.038293 0.488020
O O4 0.017392 0.137773 0.537630
O O5 0.594073 0.393317 0.750000
O O6 0.698324 0.365156 0.964006
O O7 0.600041 0.453718 0.998199
O O8 0.521257 0.355686 0.998024
O O9 0.046033 0.801398 0.250000
O O10 0.008524 0.750000 0.000000
O O11 0.139619 0.821031 0.008916
O O12 0.756009 0.694662 0.750000
O O13 0.651250 0.672422 0.968873
O O14 0.775226 0.750000 0.000000
O O15 0.602301 0.513316 0.250000
O O16 0.736906 0.509462 0.423869
O O17 0.599355 0.567816 0.509281
O O18 0.861365 0.025849 0.750000
O O19 0.835665 0.070337 0.482694
O O20 0.188697 0.637124 0.250000
O O21 0.564246 0.628114 0.750000
#
# Coordination Sequence:
#
# PCOD9435521 Si02
#       8
#     8   8   8   8   8   8   8   8
#     4  10  21  39  61  88 121 155 191 236 293 355
#     4  10  21  36  56  82 113 150 191 238 289 342
#     4  11  24  42  66  91 117 151 196 247 295 350
#     4  10  22  38  57  81 114 154 195 238 289 346
#     4  10  19  32  52  82 117 153 191 234 281 339
#     4  10  20  34  58  91 123 157 196 239 291 351
#     4  10  22  41  63  86 119 158 196 245 301 353
#     4  11  21  34  54  80 113 153 193 237 285 340
#
# _framework density 20.034666999999999
#
# number of rings (size 3 to 8) (size 9 to 14) (size 15 to 20)
#    0.000    1.750    1.250    3.000    0.000    5.500 
#    0.000    0.625    0.000    1.500    0.000    0.000 
#    0.000    0.000    0.000    0.000    0.000    0.000 
#
# Total GULP energy -357785.521115 kJ/mol
# GULP energy per Si atom -5590.398767 kJ/mol
# Density = 1.998907 g / cm^3
# Si number density = 20.034667 Si / 1000 Ang^3
#
#
#
# Elastic Constant Matrix: (Units=GPa)
#
#
# Indices 1 2 3 4 5 6 
#
# 1 76.5647 25.4547 34.6402 0.0000 0.0000 0.0000
# 2 25.4547 21.0699 6.3903 0.0000 0.0000 0.0000
# 3 34.6402 6.3903 44.9196 0.0000 0.0000 0.0000
# 4 0.0000 0.0000 0.0000 32.0833 0.0000 0.0000
# 5 0.0000 0.0000 0.0000 0.0000 27.8082 0.0000
# 6 0.0000 0.0000 0.0000 0.0000 0.0000 14.2857
#
#
#
# Elastic Compliance Matrix: (Units=1/GPa)
#
#
# Indices 1 2 3 4 5 6 
#
# 1 0.034540 -0.035167 -0.021633 0.000000 0.000000 0.000000
# 2 -0.035167 0.085406 0.014969 0.000000 0.000000 0.000000
# 3 -0.021633 0.014969 0.036815 0.000000 0.000000 0.000000
# 4 0.000000 0.000000 0.000000 0.031169 0.000000 0.000000
# 5 0.000000 0.000000 0.000000 0.000000 0.035961 0.000000
# 6 0.000000 0.000000 0.000000 0.000000 0.000000 0.070000
#
#
# Mechanical properties :
#
#
# Convention : Reuss Voigt Hill
#
# Bulk Modulus (GPa) = 13.67984 30.61384 22.14684
# Shear Modulus (GPa) = 12.44037 19.90671 16.17354
#
# Velocity S-wave (km/s) = 2.49457 3.15558 2.84435
# Velocity P-wave (km/s) = 3.89103 5.34701 4.67604
#
# Compressibility (1/GPa) = 0.07310025
#
# Stress axis : x y z
#
# Youngs Moduli (GPa) = 28.95222 11.70876 27.16294
#
# Poissons Ratio (x) = 0.41176 0.58761
# Poissons Ratio (y) = 1.01815 -0.40661
# Poissons Ratio (z) = 0.62632 -0.17527
#
# Static dielectric constant tensor:
#      x y z
#    x 1.750710 0.000000 0.000000 
#    y 0.000000 1.669100 0.000000 
#    z 0.000000 0.000000 1.670020 
# 
# From -- ./inp_files/5607.got.cif
#   From: 2010.05.17/outbox.cif.g08.bks.cpg/sg57_3_cif.got.tgz:5607.got - 2010.06.03 13:58:18.
