data_PCOD9435220
_publ_section_title
;
Structure prediction by ZEFSAII (Michael W. Deem and Ramdas Pophale) SiO2 
 PCOD9435220
Probable space group: P B C M
;
_chemical_formula_sum "Si O2"
_cell_formula_units_Z 48
_cell_length_a 16.473346
_cell_length_b 19.113855
_cell_length_c 8.619439
_cell_angle_alpha 90.000000
_cell_angle_beta 90.000000
_cell_angle_gamma 90.000000
_cell_volume 2713.995404
_symmetry_space_group_name_H-M "P B C M"
_symmetry_group_IT_number 57
_symmetry_cell_setting 'orthorhombic'
loop_
_space_group_symop_operation_xyz
x,y,z
-x,-y,1/2+z
x,1/2-y,-z
-x,1/2+y,1/2-z
-x,-y,-z
x,y,1/2-z
-x,1/2+y,z
x,1/2-y,1/2+z
loop_
_atom_site_type_symbol
_atom_site_label
_atom_site_fract_x
_atom_site_fract_y
_atom_site_fract_z
Si Si1 0.323827 0.578323 0.437905
Si Si2 0.003325 0.670660 0.935875
Si Si3 0.171165 0.671127 0.064009
Si Si4 0.499135 0.079106 0.063128
Si Si5 0.321857 0.420341 0.563854
Si Si6 0.175517 0.171177 0.935738
O O1 0.321961 0.573410 0.250000
O O2 0.248591 0.626013 0.486914
O O3 0.412788 0.608686 0.483756
O O4 0.316389 0.500269 0.505228
O O5 0.010141 0.671996 0.750000
O O6 0.914337 0.641809 0.978615
O O7 0.001973 0.750000 0.000000
O O8 0.085636 0.639333 0.005482
O O9 0.169309 0.674125 0.250000
O O10 0.177969 0.750000 0.000000
O O11 0.498292 0.077449 0.250000
O O12 0.411361 0.108516 0.014330
O O13 0.500000 0.000000 0.000000
O O14 0.318211 0.419717 0.750000
O O15 0.248425 0.375455 0.497784
O O16 0.178811 0.174225 0.750000
O O17 0.182128 0.250000 0.000000
#
# Coordination Sequence:
#
# PCOD9435220 Si02
#       6
#     8   8   8   8   8   8
#     4   9  18  33  51  71  98 130 162 198 240 286
#     4   9  17  30  49  70  93 124 160 196 235 284
#     4  10  19  31  50  73  97 127 160 197 240 284
#     4   8  15  29  48  69  94 125 161 196 233 282
#     4  10  19  31  51  76  99 126 161 201 242 285
#     4  10  20  34  52  73  98 128 161 198 241 287
#
# _framework density 17.686102000000002
#
# number of rings (size 3 to 8) (size 9 to 14) (size 15 to 20)
#    0.000    2.667    0.000    3.000    0.000    4.000 
#    0.000    1.667    0.000    2.000    0.000    0.000 
#    0.000    0.000    0.000    0.000    0.000    0.000 
#
# Total GULP energy -267248.309940 kJ/mol
# GULP energy per Si atom -5567.673124 kJ/mol
# Density = 1.764585 g / cm^3
# Si number density = 17.686102 Si / 1000 Ang^3
#
#
#
# Elastic Constant Matrix: (Units=GPa)
#
#
# Indices 1 2 3 4 5 6 
#
# 1 241.4600 65.4445 47.2232 0.0000 0.0000 0.0000
# 2 65.4445 40.3991 15.9861 0.0000 0.0000 0.0000
# 3 47.2232 15.9861 34.6041 0.0000 0.0000 0.0000
# 4 0.0000 0.0000 0.0000 22.0466 0.0000 0.0000
# 5 0.0000 0.0000 0.0000 0.0000 34.0307 0.0000
# 6 0.0000 0.0000 0.0000 0.0000 0.0000 33.6580
#
#
#
# Elastic Compliance Matrix: (Units=1/GPa)
#
#
# Indices 1 2 3 4 5 6 
#
# 1 0.008378 -0.011072 -0.006318 0.000000 0.000000 0.000000
# 2 -0.011072 0.044922 -0.005643 0.000000 0.000000 0.000000
# 3 -0.006318 -0.005643 0.040128 0.000000 0.000000 0.000000
# 4 0.000000 0.000000 0.000000 0.045359 0.000000 0.000000
# 5 0.000000 0.000000 0.000000 0.000000 0.029385 0.000000
# 6 0.000000 0.000000 0.000000 0.000000 0.000000 0.029711
#
#
# Mechanical properties :
#
#
# Convention : Reuss Voigt Hill
#
# Bulk Modulus (GPa) = 21.11453 63.75235 42.43344
# Shear Modulus (GPa) = 19.25032 30.46768 24.85900
#
# Velocity S-wave (km/s) = 3.30274 4.15503 3.75316
# Velocity P-wave (km/s) = 5.14864 7.69051 6.54417
#
# Compressibility (1/GPa) = 0.04736075
#
# Stress axis : x y z
#
# Youngs Moduli (GPa) = 119.35955 22.26092 24.92035
#
# Poissons Ratio (x) = 0.24647 0.15746
# Poissons Ratio (y) = 1.32152 0.14063
# Poissons Ratio (z) = 0.75416 0.12562
#
# Static dielectric constant tensor:
#      x y z
#    x 1.683220 0.000000 0.000000 
#    y 0.000000 1.550990 0.000000 
#    z 0.000000 0.000000 1.595830 
# 
# From -- ./inp_files/4705.got.cif
#   From: 2010.05.17/outbox.cif.g08.bks.cpg/sg57_3_cif.got.tgz:4705.got - 2010.06.03 13:58:18.
