data_PCOD9435927
_publ_section_title
;
Structure prediction by ZEFSAII (Michael W. Deem and Ramdas Pophale) SiO2 
 PCOD9435927
Probable space group: P B C M
;
_chemical_formula_sum "Si O2"
_cell_formula_units_Z 64
_cell_length_a 22.593102
_cell_length_b 19.962732
_cell_length_c 8.560911
_cell_angle_alpha 90.000000
_cell_angle_beta 90.000000
_cell_angle_gamma 90.000000
_cell_volume 3861.142424
_symmetry_space_group_name_H-M "P B C M"
_symmetry_group_IT_number 57
_symmetry_cell_setting 'orthorhombic'
loop_
_space_group_symop_operation_xyz
x,y,z
-x,-y,1/2+z
x,1/2-y,-z
-x,1/2+y,1/2-z
-x,-y,-z
x,y,1/2-z
-x,1/2+y,z
x,1/2-y,1/2+z
loop_
_atom_site_type_symbol
_atom_site_label
_atom_site_fract_x
_atom_site_fract_y
_atom_site_fract_z
Si Si1 0.696170 0.536044 0.563477
Si Si2 0.982141 0.321779 0.562772
Si Si3 0.636788 0.822466 0.061338
Si Si4 0.942786 0.460250 0.063035
Si Si5 0.119921 0.320681 0.562533
Si Si6 0.174373 0.459375 0.560808
Si Si7 0.414691 0.528755 0.937764
Si Si8 0.522735 0.605516 0.562776
O O1 0.690604 0.534226 0.750000
O O2 0.674782 0.611521 0.513096
O O3 0.762807 0.523065 0.510940
O O4 0.652393 0.480357 0.491757
O O5 0.961669 0.250000 0.500000
O O6 0.980266 0.322807 0.750000
O O7 0.947236 0.384448 0.495264
O O8 0.051287 0.329311 0.513159
O O9 0.638030 0.820435 0.250000
O O10 0.568781 0.837963 0.006791
O O11 0.656412 0.750000 0.000000
O O12 0.945315 0.462953 0.250000
O O13 0.881402 0.494943 0.013823
O O14 0.000000 0.500000 0.000000
O O15 0.141942 0.250000 0.500000
O O16 0.119951 0.319125 0.750000
O O17 0.157638 0.383919 0.511147
O O18 0.178387 0.461159 0.750000
O O19 0.417821 0.523248 0.750000
O O20 0.454562 0.593052 0.986640
O O21 0.445565 0.463849 0.015012
O O22 0.522214 0.610981 0.750000
#
# Coordination Sequence:
#
# PCOD9435927 Si02
#       8
#     8   8   8   8   8   8   8   8
#     4  10  21  34  46  65  94 127 165 205 244 289
#     4  10  19  34  53  77 103 130 163 202 253 311
#     4   9  18  31  45  65  96 130 164 199 231 274
#     4  11  21  35  54  77 104 133 166 214 268 319
#     4   9  18  32  47  67  95 127 163 204 244 295
#     4  10  21  36  50  69  98 131 172 213 255 308
#     4   9  15  26  46  67  88 117 150 189 238 281
#     4   8  15  27  43  66  93 118 150 192 233 273
#
# _framework density 16.575406000000001
#
# number of rings (size 3 to 8) (size 9 to 14) (size 15 to 20)
#    0.000    2.500    1.250    2.250    0.000    5.500 
#    0.000    2.500    0.000    0.000    0.000    0.875 
#    0.000    2.000    0.000    0.000    0.000    0.000 
#
# Total GULP energy -356474.973243 kJ/mol
# GULP energy per Si atom -5569.921457 kJ/mol
# Density = 1.653768 g / cm^3
# Si number density = 16.575406 Si / 1000 Ang^3
#
#
#
# Elastic Constant Matrix: (Units=GPa)
#
#
# Indices 1 2 3 4 5 6 
#
# 1 86.8423 29.9073 -20.4132 0.0000 0.0000 0.0000
# 2 29.9073 47.7317 -3.7819 0.0000 0.0000 0.0000
# 3 -20.4132 -3.7819 -53.2090 0.0000 0.0000 0.0000
# 4 0.0000 0.0000 0.0000 22.1547 0.0000 0.0000
# 5 0.0000 0.0000 0.0000 0.0000 20.8005 0.0000
# 6 0.0000 0.0000 0.0000 0.0000 0.0000 19.8934
#
#
#
# Elastic Compliance Matrix: (Units=1/GPa)
#
#
# Indices 1 2 3 4 5 6 
#
# 1 0.013479 -0.008806 -0.004545 0.000000 0.000000 0.000000
# 2 -0.008806 0.026586 0.001489 0.000000 0.000000 0.000000
# 3 -0.004545 0.001489 -0.017156 0.000000 0.000000 0.000000
# 4 0.000000 0.000000 0.000000 0.045137 0.000000 0.000000
# 5 0.000000 0.000000 0.000000 0.000000 0.048076 0.000000
# 6 0.000000 0.000000 0.000000 0.000000 0.000000 0.050268
#
#
# Mechanical properties :
#
#
# Convention : Reuss Voigt Hill
#
# Bulk Modulus (GPa) = -1225.91863 10.30991 -607.80436
# Shear Modulus (GPa) = 26.33747 17.61323 21.97535
#
# Velocity S-wave (km/s) = 3.99049 3.26331 3.64508
# Velocity P-wave (km/s) = 26.83234 4.52022 18.70217
#
# Compressibility (1/GPa) = -0.00081571
#
# Stress axis : x y z
#
# Youngs Moduli (GPa) = 74.18769 37.61390 -58.28922
#
# Poissons Ratio (x) = 0.33122 -0.26494
# Poissons Ratio (y) = 0.65329 0.08677
# Poissons Ratio (z) = 0.33721 -0.05599
#
# Static dielectric constant tensor:
#      x y z
#    x 1.597150 0.000000 0.000000 
#    y 0.000000 1.552030 0.000000 
#    z 0.000000 0.000000 1.572080 
# 
# From -- ./inp_files/8750.got.cif
#   From: 2010.05.17/outbox.cif.g08.bks.cpg/sg57_5_cif.got.tgz:8750.got - 2010.06.03 13:58:18.
