data_PCOD9435414
_publ_section_title
;
Structure prediction by ZEFSAII (Michael W. Deem and Ramdas Pophale) SiO2 
 PCOD9435414
Probable space group: P B C M
;
_chemical_formula_sum "Si O2"
_cell_formula_units_Z 64
_cell_length_a 16.375856
_cell_length_b 24.090250
_cell_length_c 8.221654
_cell_angle_alpha 90.000000
_cell_angle_beta 90.000000
_cell_angle_gamma 90.000000
_cell_volume 3243.429883
_symmetry_space_group_name_H-M "P B C M"
_symmetry_group_IT_number 57
_symmetry_cell_setting 'orthorhombic'
loop_
_space_group_symop_operation_xyz
x,y,z
-x,-y,1/2+z
x,1/2-y,-z
-x,1/2+y,1/2-z
-x,-y,-z
x,y,1/2-z
-x,1/2+y,z
x,1/2-y,1/2+z
loop_
_atom_site_type_symbol
_atom_site_label
_atom_site_fract_x
_atom_site_fract_y
_atom_site_fract_z
Si Si1 0.550122 0.090026 0.557441
Si Si2 0.906721 0.005097 0.055703
Si Si3 0.663919 0.185530 0.443116
Si Si4 0.151672 0.312003 0.445393
Si Si5 0.818720 0.385685 0.941232
Si Si6 0.033200 0.813161 0.054019
Si Si7 0.393596 0.470381 0.940973
Si Si8 0.770790 0.919319 0.445363
O O1 0.562601 0.095053 0.750000
O O2 0.585802 0.146414 0.481744
O O3 0.456639 0.072636 0.522798
O O4 0.595866 0.033718 0.496441
O O5 0.910266 0.012856 0.250000
O O6 0.856138 0.949741 0.022097
O O7 0.849802 0.055335 0.988737
O O8 0.000000 0.000000 0.000000
O O9 0.660553 0.250000 0.500000
O O10 0.673538 0.188925 0.250000
O O11 0.741612 0.149271 0.509587
O O12 0.168309 0.250000 0.500000
O O13 0.150869 0.313492 0.250000
O O14 0.059387 0.327801 0.495661
O O15 0.217477 0.356397 0.501740
O O16 0.800484 0.394525 0.750000
O O17 0.898745 0.348547 0.965252
O O18 0.040971 0.818792 0.250000
O O19 0.045085 0.750000 0.000000
O O20 0.413704 0.471619 0.750000
O O21 0.302862 0.450225 0.970460
O O22 0.757023 0.921328 0.250000
#
# Coordination Sequence:
#
# PCOD9435414 Si02
#       8
#     8   8   8   8   8   8   8   8
#     4  10  21  39  62  87 115 146 182 225 277 337
#     4  10  21  36  54  79 113 151 191 237 288 339
#     4  11  23  39  59  84 117 155 194 238 289 346
#     4   9  19  34  52  74 101 136 176 219 267 316
#     4  10  21  35  52  77 109 146 187 231 280 334
#     4  10  19  32  51  73 100 137 182 228 269 314
#     4  10  21  37  61  91 116 142 181 229 279 333
#     4  10  20  36  56  79 109 143 180 223 274 330
#
# _framework density 19.732196999999999
#
# number of rings (size 3 to 8) (size 9 to 14) (size 15 to 20)
#    0.000    2.000    0.000    3.375    0.000    7.500 
#    0.000    0.625    0.000    1.500    0.000    0.000 
#    0.000    0.000    0.000    0.000    0.000    0.000 
#
# Total GULP energy -356997.377886 kJ/mol
# GULP energy per Si atom -5578.084029 kJ/mol
# Density = 1.968729 g / cm^3
# Si number density = 19.732197 Si / 1000 Ang^3
#
#
#
# Elastic Constant Matrix: (Units=GPa)
#
#
# Indices 1 2 3 4 5 6 
#
# 1 66.6139 47.1009 8.8572 0.0000 0.0000 0.0000
# 2 47.1009 105.8901 12.9223 0.0000 0.0000 0.0000
# 3 8.8572 12.9223 15.9933 0.0000 0.0000 0.0000
# 4 0.0000 0.0000 0.0000 20.2703 0.0000 0.0000
# 5 0.0000 0.0000 0.0000 0.0000 27.8974 0.0000
# 6 0.0000 0.0000 0.0000 0.0000 0.0000 49.4150
#
#
#
# Elastic Compliance Matrix: (Units=1/GPa)
#
#
# Indices 1 2 3 4 5 6 
#
# 1 0.022226 -0.009301 -0.004794 0.000000 0.000000 0.000000
# 2 -0.009301 0.014369 -0.006459 0.000000 0.000000 0.000000
# 3 -0.004794 -0.006459 0.070399 0.000000 0.000000 0.000000
# 4 0.000000 0.000000 0.000000 0.049333 0.000000 0.000000
# 5 0.000000 0.000000 0.000000 0.000000 0.035846 0.000000
# 6 0.000000 0.000000 0.000000 0.000000 0.000000 0.020237
#
#
# Mechanical properties :
#
#
# Convention : Reuss Voigt Hill
#
# Bulk Modulus (GPa) = 15.17750 36.25091 25.71421
# Shear Modulus (GPa) = 18.15009 27.49098 22.82054
#
# Velocity S-wave (km/s) = 3.03615 3.73661 3.40444
# Velocity P-wave (km/s) = 4.47206 6.08504 5.33981
#
# Compressibility (1/GPa) = 0.06588698
#
# Stress axis : x y z
#
# Youngs Moduli (GPa) = 44.99236 69.59283 14.20465
#
# Poissons Ratio (x) = 0.64731 0.06809
# Poissons Ratio (y) = 0.41849 0.09175
# Poissons Ratio (z) = 0.21568 0.44950
#
# Static dielectric constant tensor:
#      x y z
#    x 1.677620 0.000000 0.000000 
#    y 0.000000 1.705650 0.000000 
#    z 0.000000 0.000000 1.717450 
# 
# From -- ./inp_files/5629.got.cif
#   From: 2010.05.17/outbox.cif.g08.bks.cpg/sg57_3_cif.got.tgz:5629.got - 2010.06.03 13:58:18.
