data_PCOD9435422
_publ_section_title
;
Structure prediction by ZEFSAII (Michael W. Deem and Ramdas Pophale) SiO2 
 PCOD9435422
Probable space group: P B C M
;
_chemical_formula_sum "Si O2"
_cell_formula_units_Z 64
_cell_length_a 15.243904
_cell_length_b 30.338481
_cell_length_c 8.732862
_cell_angle_alpha 90.000000
_cell_angle_beta 90.000000
_cell_angle_gamma 90.000000
_cell_volume 4038.746875
_symmetry_space_group_name_H-M "P B C M"
_symmetry_group_IT_number 57
_symmetry_cell_setting 'orthorhombic'
loop_
_space_group_symop_operation_xyz
x,y,z
-x,-y,1/2+z
x,1/2-y,-z
-x,1/2+y,1/2-z
-x,-y,-z
x,y,1/2-z
-x,1/2+y,z
x,1/2-y,1/2+z
loop_
_atom_site_type_symbol
_atom_site_label
_atom_site_fract_x
_atom_site_fract_y
_atom_site_fract_z
Si Si1 0.822982 0.961317 0.436201
Si Si2 0.784352 0.297241 0.932885
Si Si3 0.622259 0.533034 0.566365
Si Si4 0.447825 0.565728 0.068585
Si Si5 0.708145 0.385109 0.068739
Si Si6 0.132651 0.559656 0.065999
Si Si7 0.992787 0.297418 0.932312
Si Si8 0.035652 0.110262 0.933934
O O1 0.821582 0.961907 0.250000
O O2 0.721718 0.958726 0.485940
O O3 0.883137 0.920506 0.483868
O O4 0.864118 0.008406 0.482651
O O5 0.773075 0.298614 0.750000
O O6 0.888480 0.302927 0.965399
O O7 0.758482 0.250000 0.000000
O O8 0.732530 0.336529 0.012074
O O9 0.617623 0.539306 0.750000
O O10 0.596016 0.482164 0.536151
O O11 0.547818 0.562203 0.486783
O O12 0.443286 0.573184 0.250000
O O13 0.389029 0.600952 0.980798
O O14 0.719403 0.388870 0.250000
O O15 0.776964 0.417649 0.985576
O O16 0.126176 0.561937 0.250000
O O17 0.052287 0.586343 0.993781
O O18 0.003660 0.296888 0.750000
O O19 0.019621 0.250000 0.000000
O O20 0.038980 0.340169 0.002712
O O21 0.033082 0.111658 0.750000
#
# Coordination Sequence:
#
# PCOD9435422 Si02
#       8
#     8   8   8   8   8   8   8   8
#     4   9  19  34  51  70 100 139 175 212 252 295
#     4  10  20  34  52  73 101 132 165 206 253 301
#     4   9  17  33  51  70  98 131 168 209 252 297
#     4  10  19  32  51  73  99 129 165 209 254 298
#     4  12  22  32  50  75 102 135 173 207 248 303
#     4  11  20  34  49  68 101 140 176 211 248 289
#     4  10  20  34  52  72  98 130 165 209 256 298
#     4  11  21  33  50  74 101 135 174 209 250 302
#
# _framework density 15.846498
#
# number of rings (size 3 to 8) (size 9 to 14) (size 15 to 20)
#    0.000    1.750    2.500    3.375    0.000    1.500 
#    0.000    3.125    0.000    0.000    0.000    0.875 
#    0.000    2.000    0.000    0.000    0.000    0.000 
#
# Total GULP energy -357297.306017 kJ/mol
# GULP energy per Si atom -5582.770407 kJ/mol
# Density = 1.581043 g / cm^3
# Si number density = 15.846498 Si / 1000 Ang^3
#
#
#
# Elastic Constant Matrix: (Units=GPa)
#
#
# Indices 1 2 3 4 5 6 
#
# 1 71.6806 50.9979 18.5829 0.0000 0.0000 0.0000
# 2 50.9979 132.0638 43.5770 0.0000 0.0000 0.0000
# 3 18.5829 43.5770 41.9283 0.0000 0.0000 0.0000
# 4 0.0000 0.0000 0.0000 24.2494 0.0000 0.0000
# 5 0.0000 0.0000 0.0000 0.0000 19.1865 0.0000
# 6 0.0000 0.0000 0.0000 0.0000 0.0000 20.1648
#
#
#
# Elastic Compliance Matrix: (Units=1/GPa)
#
#
# Indices 1 2 3 4 5 6 
#
# 1 0.019277 -0.007039 -0.001228 0.000000 0.000000 0.000000
# 2 -0.007039 0.014094 -0.011529 0.000000 0.000000 0.000000
# 3 -0.001228 -0.011529 0.036377 0.000000 0.000000 0.000000
# 4 0.000000 0.000000 0.000000 0.041238 0.000000 0.000000
# 5 0.000000 0.000000 0.000000 0.000000 0.052120 0.000000
# 6 0.000000 0.000000 0.000000 0.000000 0.000000 0.049591
#
#
# Mechanical properties :
#
#
# Convention : Reuss Voigt Hill
#
# Bulk Modulus (GPa) = 33.16035 52.44314 42.80175
# Shear Modulus (GPa) = 19.05911 21.55447 20.30679
#
# Velocity S-wave (km/s) = 3.47181 3.69210 3.58364
# Velocity P-wave (km/s) = 6.08627 7.16531 6.64772
#
# Compressibility (1/GPa) = 0.03015650
#
# Stress axis : x y z
#
# Youngs Moduli (GPa) = 51.87532 70.94996 27.48995
#
# Poissons Ratio (x) = 0.49940 0.03376
# Poissons Ratio (y) = 0.36514 0.31693
# Poissons Ratio (z) = 0.06371 0.81798
#
# Static dielectric constant tensor:
#      x y z
#    x 1.515930 0.000000 0.000000 
#    y 0.000000 1.526000 0.000000 
#    z 0.000000 0.000000 1.528930 
# 
# From -- ./inp_files/5989.got.cif
#   From: 2010.05.17/outbox.cif.g08.bks.cpg/sg57_3_cif.got.tgz:5989.got - 2010.06.03 13:58:18.
