data_PCOD9435538
_publ_section_title
;
Structure prediction by ZEFSAII (Michael W. Deem and Ramdas Pophale) SiO2 
 PCOD9435538
Probable space group: P B C M
;
_chemical_formula_sum "Si O2"
_cell_formula_units_Z 48
_cell_length_a 9.939757
_cell_length_b 14.640025
_cell_length_c 15.198789
_cell_angle_alpha 90.000000
_cell_angle_beta 90.000000
_cell_angle_gamma 90.000000
_cell_volume 2211.701800
_symmetry_space_group_name_H-M "P B C M"
_symmetry_group_IT_number 57
_symmetry_cell_setting 'orthorhombic'
loop_
_space_group_symop_operation_xyz
x,y,z
-x,-y,1/2+z
x,1/2-y,-z
-x,1/2+y,1/2-z
-x,-y,-z
x,y,1/2-z
-x,1/2+y,z
x,1/2-y,1/2+z
loop_
_atom_site_type_symbol
_atom_site_label
_atom_site_fract_x
_atom_site_fract_y
_atom_site_fract_z
Si Si1 0.490289 0.803297 0.649842
Si Si2 0.265625 0.642328 0.470257
Si Si3 0.707884 0.368613 0.154919
Si Si4 0.205437 0.302550 0.857158
Si Si5 0.975641 0.438247 0.642647
Si Si6 0.984662 0.645690 0.648727
O O1 0.494844 0.837482 0.750000
O O2 0.395815 0.864969 0.590468
O O3 0.411533 0.705861 0.653598
O O4 0.640906 0.797221 0.613834
O O5 0.255843 0.750000 0.500000
O O6 0.291248 0.585555 0.559698
O O7 0.137717 0.612907 0.413651
O O8 0.701002 0.418261 0.250000
O O9 0.858969 0.325132 0.153369
O O10 0.210000 0.295797 0.750000
O O11 0.119917 0.392930 0.875379
O O12 0.113797 0.219364 0.892302
O O13 0.952651 0.430395 0.750000
O O14 0.976826 0.543532 0.613744
O O15 0.941585 0.636664 0.750000
#
# Coordination Sequence:
#
# PCOD9435538 Si02
#       6
#     8   8   8   8   8   8
#     4   9  17  31  53  79 110 148 185 225 275 330
#     4  10  19  32  53  80 108 144 188 224 275 333
#     4   9  18  34  53  72 102 143 183 226 275 328
#     4   9  17  32  55  83 115 150 186 227 277 332
#     4  10  20  35  58  87 115 144 184 232 278 333
#     4   9  18  34  57  83 110 146 189 229 278 336
#
# _framework density 21.702745
#
# number of rings (size 3 to 8) (size 9 to 14) (size 15 to 20)
#    0.000    2.667    0.000    2.500    0.000    5.333 
#    0.000    9.167    0.000   13.000    0.000    0.000 
#    0.000    0.000    0.000    0.000    0.000    0.000 
#
# Total GULP energy -267473.812521 kJ/mol
# GULP energy per Si atom -5572.371094 kJ/mol
# Density = 2.165335 g / cm^3
# Si number density = 21.702745 Si / 1000 Ang^3
#
#
#
# Elastic Constant Matrix: (Units=GPa)
#
#
# Indices 1 2 3 4 5 6 
#
# 1 162.9821 35.5873 36.5576 0.0000 0.0000 0.0000
# 2 35.5873 64.6213 23.0696 0.0000 0.0000 0.0000
# 3 36.5576 23.0696 96.3151 0.0000 0.0000 0.0000
# 4 0.0000 0.0000 0.0000 9.7032 0.0000 0.0000
# 5 0.0000 0.0000 0.0000 0.0000 -0.8540 0.0000
# 6 0.0000 0.0000 0.0000 0.0000 0.0000 -9.3700
#
#
#
# Elastic Compliance Matrix: (Units=1/GPa)
#
#
# Indices 1 2 3 4 5 6 
#
# 1 0.007303 -0.003316 -0.001978 0.000000 0.000000 0.000000
# 2 -0.003316 0.018427 -0.003155 0.000000 0.000000 0.000000
# 3 -0.001978 -0.003155 0.011889 0.000000 0.000000 0.000000
# 4 0.000000 0.000000 0.000000 0.103059 0.000000 0.000000
# 5 0.000000 0.000000 0.000000 0.000000 -1.171018 0.000000
# 6 0.000000 0.000000 0.000000 0.000000 0.000000 -0.106724
#
#
# Mechanical properties :
#
#
# Convention : Reuss Voigt Hill
#
# Bulk Modulus (GPa) = 48.25829 57.14972 52.70400
# Shear Modulus (GPa) = -4.49132 15.14279 5.32573
#
# Velocity S-wave (km/s) = -1.44013 2.64433 1.56821
# Velocity P-wave (km/s) = 4.41803 5.97607 5.25512
#
# Compressibility (1/GPa) = 0.02072183
#
# Stress axis : x y z
#
# Youngs Moduli (GPa) = 136.92432 54.26755 84.11119
#
# Poissons Ratio (x) = 0.17995 0.16636
# Poissons Ratio (y) = 0.45403 0.26538
# Poissons Ratio (z) = 0.27081 0.17122
#
# Static dielectric constant tensor:
#      x y z
#    x 1.761510 0.000000 0.000000 
#    y 0.000000 1.803470 0.000000 
#    z 0.000000 0.000000 1.903310 
# 
# From -- ./inp_files/21102.got.cif
#   From: 2010.05.17/outbox.cif.g08.bks.cpg/sg57_11_cif.got.tgz:21102.got - 2010.06.03 13:58:18.
