data_PCOD9435584
_publ_section_title
;
Structure prediction by ZEFSAII (Michael W. Deem and Ramdas Pophale) SiO2 
 PCOD9435584
Probable space group: P B C M
;
_chemical_formula_sum "Si O2"
_cell_formula_units_Z 64
_cell_length_a 14.321303
_cell_length_b 14.698447
_cell_length_c 11.694002
_cell_angle_alpha 90.000000
_cell_angle_beta 90.000000
_cell_angle_gamma 90.000000
_cell_volume 2461.598099
_symmetry_space_group_name_H-M "P B C M"
_symmetry_group_IT_number 57
_symmetry_cell_setting 'orthorhombic'
loop_
_space_group_symop_operation_xyz
x,y,z
-x,-y,1/2+z
x,1/2-y,-z
-x,1/2+y,1/2-z
-x,-y,-z
x,y,1/2-z
-x,1/2+y,z
x,1/2-y,1/2+z
loop_
_atom_site_type_symbol
_atom_site_label
_atom_site_fract_x
_atom_site_fract_y
_atom_site_fract_z
Si Si1 0.154888 0.425299 0.874133
Si Si2 0.957195 0.212169 0.876455
Si Si3 0.451565 0.490037 0.131962
Si Si4 0.892254 0.563053 0.875004
Si Si5 0.343289 0.993057 0.070865
Si Si6 0.553233 0.209667 0.378301
Si Si7 0.240111 0.262614 0.124119
Si Si8 0.738707 0.321701 0.375433
O O1 0.114577 0.452773 0.750000
O O2 0.265511 0.447741 0.870810
O O3 0.158907 0.315672 0.880051
O O4 0.117329 0.470180 0.992225
O O5 0.975634 0.255878 0.750000
O O6 0.844834 0.206589 0.884237
O O7 0.009935 0.116151 0.870883
O O8 0.985971 0.250000 0.000000
O O9 0.408004 0.463849 0.250000
O O10 0.559578 0.462164 0.128221
O O11 0.453647 0.600110 0.120567
O O12 0.386117 0.452976 0.034694
O O13 0.882682 0.512835 0.750000
O O14 0.811850 0.640653 0.873673
O O15 0.289627 0.901022 0.038480
O O16 0.516221 0.250000 0.500000
O O17 0.516525 0.237535 0.250000
O O18 0.660996 0.244072 0.377134
O O19 0.286659 0.251087 0.250000
O O20 0.288934 0.250000 0.000000
O O21 0.729389 0.367114 0.250000
#
# Coordination Sequence:
#
# PCOD9435584 Si02
#       8
#     8   8   8   8   8   8   8   8
#     4  10  19  32  55  81 109 151 199 243 288 349
#     4  10  20  33  55  88 118 151 196 246 299 357
#     4  10  22  39  61  85 116 156 199 248 301 364
#     4   9  18  34  55  79 114 154 192 242 300 351
#     4  11  22  38  59  83 117 158 205 242 298 366
#     4  10  19  36  59  86 115 148 188 238 295 348
#     4   8  14  26  46  70  97 134 177 225 277 326
#     4  10  20  35  59  85 118 154 192 240 296 357
#
# _framework density 25.999371
#
# number of rings (size 3 to 8) (size 9 to 14) (size 15 to 20)
#    0.000    2.250    1.250    2.625    0.000    2.000 
#    0.000    2.500    0.000    1.500    0.000    0.000 
#    0.000    0.000    0.000    0.000    0.000    0.000 
#
# Total GULP energy -356575.882651 kJ/mol
# GULP energy per Si atom -5571.498166 kJ/mol
# Density = 2.594019 g / cm^3
# Si number density = 25.999371 Si / 1000 Ang^3
#
#
#
# Elastic Constant Matrix: (Units=GPa)
#
#
# Indices 1 2 3 4 5 6 
#
# 1 88.8915 25.5047 40.1513 0.0000 0.0000 0.0000
# 2 25.5047 43.4528 7.0942 0.0000 0.0000 0.0000
# 3 40.1513 7.0942 291.2251 0.0000 0.0000 0.0000
# 4 0.0000 0.0000 0.0000 16.5167 0.0000 0.0000
# 5 0.0000 0.0000 0.0000 0.0000 -2.6046 0.0000
# 6 0.0000 0.0000 0.0000 0.0000 0.0000 24.1291
#
#
#
# Elastic Compliance Matrix: (Units=1/GPa)
#
#
# Indices 1 2 3 4 5 6 
#
# 1 0.014397 -0.008159 -0.001786 0.000000 0.000000 0.000000
# 2 -0.008159 0.027729 0.000449 0.000000 0.000000 0.000000
# 3 -0.001786 0.000449 0.003669 0.000000 0.000000 0.000000
# 4 0.000000 0.000000 0.000000 0.060545 0.000000 0.000000
# 5 0.000000 0.000000 0.000000 0.000000 -0.383941 0.000000
# 6 0.000000 0.000000 0.000000 0.000000 0.000000 0.041444
#
#
# Mechanical properties :
#
#
# Convention : Reuss Voigt Hill
#
# Bulk Modulus (GPa) = 37.30791 63.22996 50.26893
# Shear Modulus (GPa) = -24.01182 30.99622 3.49220
#
# Velocity S-wave (km/s) = -3.04230 3.45656 1.16022
# Velocity P-wave (km/s) = 1.42825 6.34846 4.60124
#
# Compressibility (1/GPa) = 0.02680397
#
# Stress axis : x y z
#
# Youngs Moduli (GPa) = 69.45674 36.06331 272.54714
#
# Poissons Ratio (x) = 0.29424 0.48683
# Poissons Ratio (y) = 0.56670 -0.12248
# Poissons Ratio (z) = 0.12407 -0.01621
#
# Static dielectric constant tensor:
#      x y z
#    x 1.966590 0.000000 0.000000 
#    y 0.000000 2.050510 0.000000 
#    z 0.000000 0.000000 2.242090 
# 
# From -- ./inp_files/13908.got.cif
#   From: 2010.05.17/outbox.cif.g08.bks.cpg/sg57_7_cif.got.tgz:13908.got - 2010.06.03 13:58:18.
