data_PCOD9435698
_publ_section_title
;
Structure prediction by ZEFSAII (Michael W. Deem and Ramdas Pophale) SiO2 
 PCOD9435698
Probable space group: P B C M
;
_chemical_formula_sum "Si O2"
_cell_formula_units_Z 64
_cell_length_a 10.427850
_cell_length_b 24.807488
_cell_length_c 14.567999
_cell_angle_alpha 90.000000
_cell_angle_beta 90.000000
_cell_angle_gamma 90.000000
_cell_volume 3768.577651
_symmetry_space_group_name_H-M "P B C M"
_symmetry_group_IT_number 57
_symmetry_cell_setting 'orthorhombic'
loop_
_space_group_symop_operation_xyz
x,y,z
-x,-y,1/2+z
x,1/2-y,-z
-x,1/2+y,1/2-z
-x,-y,-z
x,y,1/2-z
-x,1/2+y,z
x,1/2-y,1/2+z
loop_
_atom_site_type_symbol
_atom_site_label
_atom_site_fract_x
_atom_site_fract_y
_atom_site_fract_z
Si Si1 0.313463 0.601748 0.647427
Si Si2 0.069394 0.688854 0.472062
Si Si3 0.638762 0.315224 0.984839
Si Si4 0.884850 0.958299 0.008096
Si Si5 0.383425 0.010528 0.433435
Si Si6 0.867806 0.634240 0.357214
Si Si7 0.988416 0.384821 0.144329
Si Si8 0.423520 0.130692 0.357443
O O1 0.344688 0.619680 0.750000
O O2 0.360210 0.647784 0.576940
O O3 0.369309 0.542669 0.628113
O O4 0.158848 0.594384 0.642135
O O5 0.073512 0.750000 0.500000
O O6 0.216297 0.673843 0.448065
O O7 0.018414 0.659713 0.564382
O O8 0.972869 0.676911 0.389650
O O9 0.624258 0.250000 0.000000
O O10 0.528789 0.339229 0.919173
O O11 0.910053 0.927429 0.103778
O O12 0.746088 0.984023 0.993804
O O13 0.894497 0.916546 0.923161
O O14 0.000000 0.000000 0.000000
O O15 0.409226 0.066995 0.381672
O O16 0.500000 0.000000 0.500000
O O17 0.878474 0.620477 0.250000
O O18 0.721191 0.652610 0.373906
O O19 0.015389 0.369116 0.250000
O O20 0.454125 0.136577 0.250000
#
# Coordination Sequence:
#
# PCOD9435698 Si02
#       8
#     8   8   8   8   8   8   8   8
#     4  10  19  34  57  80 106 144 187 223 271 331
#     4   9  19  35  56  81 108 139 181 229 272 315
#     4  10  21  37  57  82 111 144 184 232 276 320
#     4  10  19  33  53  77 107 138 177 218 265 321
#     4  11  20  34  57  80 111 144 178 225 276 324
#     4   9  20  35  54  79 107 140 180 218 266 324
#     4   9  18  33  53  78 107 142 179 220 268 324
#     4  10  21  37  56  80 111 147 184 224 273 331
#
# _framework density 16.982533
#
# number of rings (size 3 to 8) (size 9 to 14) (size 15 to 20)
#    0.000    2.250    2.500    0.375    0.000    3.000 
#    0.000    3.750    0.000    0.000    0.000    0.000 
#    0.000    0.000    0.000    0.000    0.000    0.000 
#
# Total GULP energy -356280.159477 kJ/mol
# GULP energy per Si atom -5566.877492 kJ/mol
# Density = 1.694388 g / cm^3
# Si number density = 16.982533 Si / 1000 Ang^3
#
#
#
# Elastic Constant Matrix: (Units=GPa)
#
#
# Indices 1 2 3 4 5 6 
#
# 1 113.3091 45.1795 70.2761 0.0000 0.0000 0.0000
# 2 45.1795 65.5151 31.4064 0.0000 0.0000 0.0000
# 3 70.2761 31.4064 113.3625 0.0000 0.0000 0.0000
# 4 0.0000 0.0000 0.0000 10.5453 0.0000 0.0000
# 5 0.0000 0.0000 0.0000 0.0000 30.0635 0.0000
# 6 0.0000 0.0000 0.0000 0.0000 0.0000 25.2365
#
#
#
# Elastic Compliance Matrix: (Units=1/GPa)
#
#
# Indices 1 2 3 4 5 6 
#
# 1 0.017209 -0.007788 -0.008511 0.000000 0.000000 0.000000
# 2 -0.007788 0.021125 -0.001025 0.000000 0.000000 0.000000
# 3 -0.008511 -0.001025 0.014381 0.000000 0.000000 0.000000
# 4 0.000000 0.000000 0.000000 0.094829 0.000000 0.000000
# 5 0.000000 0.000000 0.000000 0.000000 0.033263 0.000000
# 6 0.000000 0.000000 0.000000 0.000000 0.000000 0.039625
#
#
# Mechanical properties :
#
#
# Convention : Reuss Voigt Hill
#
# Bulk Modulus (GPa) = 55.34336 65.10119 60.22228
# Shear Modulus (GPa) = 19.14960 22.85738 21.00349
#
# Velocity S-wave (km/s) = 3.36163 3.67268 3.52059
# Velocity P-wave (km/s) = 6.90844 7.51014 7.21556
#
# Compressibility (1/GPa) = 0.01806901
#
# Stress axis : x y z
#
# Youngs Moduli (GPa) = 58.10892 47.33657 69.53490
#
# Poissons Ratio (x) = 0.36864 0.59180
# Poissons Ratio (y) = 0.45253 0.07127
# Poissons Ratio (z) = 0.49455 0.04852
#
# Static dielectric constant tensor:
#      x y z
#    x 1.602030 0.000000 0.000000 
#    y 0.000000 1.698030 0.000000 
#    z 0.000000 0.000000 1.656900 
# 
# From -- ./inp_files/16986.got.cif
#   From: 2010.05.17/outbox.cif.g08.bks.cpg/sg57_9_cif.got.tgz:16986.got - 2010.06.03 13:58:18.
