data_PCOD9435827
_publ_section_title
;
Structure prediction by ZEFSAII (Michael W. Deem and Ramdas Pophale) SiO2 
 PCOD9435827
Probable space group: P B C M
;
_chemical_formula_sum "Si O2"
_cell_formula_units_Z 48
_cell_length_a 15.565436
_cell_length_b 19.734351
_cell_length_c 8.410004
_cell_angle_alpha 90.000000
_cell_angle_beta 90.000000
_cell_angle_gamma 90.000000
_cell_volume 2583.332697
_symmetry_space_group_name_H-M "P B C M"
_symmetry_group_IT_number 57
_symmetry_cell_setting 'orthorhombic'
loop_
_space_group_symop_operation_xyz
x,y,z
-x,-y,1/2+z
x,1/2-y,-z
-x,1/2+y,1/2-z
-x,-y,-z
x,y,1/2-z
-x,1/2+y,z
x,1/2-y,1/2+z
loop_
_atom_site_type_symbol
_atom_site_label
_atom_site_fract_x
_atom_site_fract_y
_atom_site_fract_z
Si Si1 0.063172 0.673709 0.059113
Si Si2 0.772784 0.411287 0.944019
Si Si3 0.873450 0.826154 0.440701
Si Si4 0.734101 0.564227 0.555815
Si Si5 0.462578 0.428469 0.059237
Si Si6 0.394539 0.673283 0.059465
O O1 0.061632 0.674641 0.250000
O O2 0.138642 0.623643 0.004770
O O3 0.081056 0.750000 0.000000
O O4 0.968758 0.654282 0.998315
O O5 0.772585 0.411437 0.750000
O O6 0.761268 0.488810 0.995724
O O7 0.691101 0.366599 0.995334
O O8 0.856296 0.750000 0.500000
O O9 0.873787 0.825324 0.250000
O O10 0.801582 0.879031 0.496881
O O11 0.734684 0.564288 0.750000
O O12 0.636293 0.578292 0.505708
O O13 0.463411 0.429019 0.250000
O O14 0.500000 0.500000 0.000000
O O15 0.523133 0.368504 0.998836
O O16 0.394220 0.673172 0.250000
O O17 0.394469 0.750000 0.000000
#
# Coordination Sequence:
#
# PCOD9435827 Si02
#       6
#     8   8   8   8   8   8
#     4  10  19  33  55  79 109 145 182 225 275 329
#     4   9  18  34  56  81 111 147 182 224 279 335
#     4  10  20  36  57  78 107 144 184 229 275 328
#     4   9  19  36  58  81 108 146 184 224 280 337
#     4  11  21  38  61  84 113 151 191 231 284 340
#     4  11  22  38  59  85 117 150 190 236 282 338
#
# _framework density 18.580649000000001
#
# number of rings (size 3 to 8) (size 9 to 14) (size 15 to 20)
#    0.000    2.000    1.667    3.500    0.000    1.333 
#    0.000    7.500    0.000    0.000    0.000    0.000 
#    0.000    0.000    0.000    0.000    0.000    0.000 
#
# Total GULP energy -268051.507076 kJ/mol
# GULP energy per Si atom -5584.406397 kJ/mol
# Density = 1.853836 g / cm^3
# Si number density = 18.580649 Si / 1000 Ang^3
#
#
#
# Elastic Constant Matrix: (Units=GPa)
#
#
# Indices 1 2 3 4 5 6 
#
# 1 212.3761 140.8479 31.8961 0.0000 0.0000 0.0000
# 2 140.8479 166.7954 26.4335 0.0000 0.0000 0.0000
# 3 31.8961 26.4335 41.5663 0.0000 0.0000 0.0000
# 4 0.0000 0.0000 0.0000 26.5635 0.0000 0.0000
# 5 0.0000 0.0000 0.0000 0.0000 15.8535 0.0000
# 6 0.0000 0.0000 0.0000 0.0000 0.0000 43.8119
#
#
#
# Elastic Compliance Matrix: (Units=1/GPa)
#
#
# Indices 1 2 3 4 5 6 
#
# 1 0.010991 -0.008835 -0.002815 0.000000 0.000000 0.000000
# 2 -0.008835 0.013769 -0.001977 0.000000 0.000000 0.000000
# 3 -0.002815 -0.001977 0.027476 0.000000 0.000000 0.000000
# 4 0.000000 0.000000 0.000000 0.037646 0.000000 0.000000
# 5 0.000000 0.000000 0.000000 0.000000 0.063077 0.000000
# 6 0.000000 0.000000 0.000000 0.000000 0.000000 0.022825
#
#
# Mechanical properties :
#
#
# Convention : Reuss Voigt Hill
#
# Bulk Modulus (GPa) = 40.03005 91.01032 65.52018
# Shear Modulus (GPa) = 23.65585 32.01645 27.83615
#
# Velocity S-wave (km/s) = 3.57199 4.15554 3.87476
# Velocity P-wave (km/s) = 6.21312 8.49189 7.44026
#
# Compressibility (1/GPa) = 0.02498123
#
# Stress axis : x y z
#
# Youngs Moduli (GPa) = 90.98638 72.62686 36.39601
#
# Poissons Ratio (x) = 0.64164 0.10247
# Poissons Ratio (y) = 0.80384 0.07195
# Poissons Ratio (z) = 0.25616 0.14357
#
# Static dielectric constant tensor:
#      x y z
#    x 1.632870 0.000000 0.000000 
#    y 0.000000 1.607990 0.000000 
#    z 0.000000 0.000000 1.662110 
# 
# From -- ./inp_files/4632.got.cif
#   From: 2010.05.17/outbox.cif.g08.bks.cpg/sg57_3_cif.got.tgz:4632.got - 2010.06.03 13:58:18.
