data_PCOD9435258
_publ_section_title
;
Structure prediction by ZEFSAII (Michael W. Deem and Ramdas Pophale) SiO2 
 PCOD9435258
Probable space group: P B C M
;
_chemical_formula_sum "Si O2"
_cell_formula_units_Z 56
_cell_length_a 21.554802
_cell_length_b 15.791931
_cell_length_c 8.589605
_cell_angle_alpha 90.000000
_cell_angle_beta 90.000000
_cell_angle_gamma 90.000000
_cell_volume 2923.832360
_symmetry_space_group_name_H-M "P B C M"
_symmetry_group_IT_number 57
_symmetry_cell_setting 'orthorhombic'
loop_
_space_group_symop_operation_xyz
x,y,z
-x,-y,1/2+z
x,1/2-y,-z
-x,1/2+y,1/2-z
-x,-y,-z
x,y,1/2-z
-x,1/2+y,z
x,1/2-y,1/2+z
loop_
_atom_site_type_symbol
_atom_site_label
_atom_site_fract_x
_atom_site_fract_y
_atom_site_fract_z
Si Si1 0.596340 0.662061 0.063553
Si Si2 0.140425 0.341458 0.436339
Si Si3 0.118561 0.661454 0.935174
Si Si4 0.991059 0.904864 0.935946
Si Si5 0.206578 0.985164 0.938253
Si Si6 0.471412 0.587349 0.437611
Si Si7 0.347645 0.512785 0.061744
O O1 0.599088 0.661401 0.250000
O O2 0.523625 0.654063 0.012291
O O3 0.622262 0.750000 0.000000
O O4 0.630826 0.578854 0.000349
O O5 0.159770 0.250000 0.500000
O O6 0.137547 0.337428 0.250000
O O7 0.185144 0.419657 0.479943
O O8 0.072316 0.365139 0.500059
O O9 0.113791 0.664383 0.750000
O O10 0.144134 0.750000 0.000000
O O11 0.050634 0.647121 0.007758
O O12 0.160817 0.582881 0.987010
O O13 0.988949 0.907248 0.750000
O O14 0.000000 0.000000 0.000000
O O15 0.202038 0.977812 0.750000
O O16 0.277478 0.969397 0.986816
O O17 0.500000 0.500000 0.500000
O O18 0.471592 0.587511 0.250000
O O19 0.399548 0.582157 0.487643
O O20 0.348280 0.508702 0.250000
#
# Coordination Sequence:
#
# PCOD9435258 Si02
#       7
#     8   8   8   8   8   8   8
#     4  10  19  31  50  79 111 144 182 230 279 335
#     4  11  23  39  59  85 119 156 196 242 293 351
#     4  12  25  42  65  89 117 154 196 245 297 351
#     4  12  23  39  63  91 120 151 191 241 299 355
#     4  10  22  40  61  85 118 157 198 243 292 349
#     4   8  15  29  50  74 101 134 175 218 268 321
#     4   9  18  35  57  79 107 146 185 230 282 337
#
# _framework density 19.152944000000002
#
# number of rings (size 3 to 8) (size 9 to 14) (size 15 to 20)
#    0.000    1.714    1.429    3.857    0.000    2.286 
#    0.000    2.143    0.000    1.714    0.000    0.000 
#    0.000    0.000    0.000    0.000    0.000    0.000 
#
# Total GULP energy -312584.108674 kJ/mol
# GULP energy per Si atom -5581.859083 kJ/mol
# Density = 1.910935 g / cm^3
# Si number density = 19.152944 Si / 1000 Ang^3
#
#
#
# Elastic Constant Matrix: (Units=GPa)
#
#
# Indices 1 2 3 4 5 6 
#
# 1 83.9212 -8.4929 17.5619 0.0000 0.0000 0.0000
# 2 -8.4929 68.5167 16.4512 0.0000 0.0000 0.0000
# 3 17.5619 16.4512 49.7087 0.0000 0.0000 0.0000
# 4 0.0000 0.0000 0.0000 26.2334 0.0000 0.0000
# 5 0.0000 0.0000 0.0000 0.0000 17.9068 0.0000
# 6 0.0000 0.0000 0.0000 0.0000 0.0000 13.1848
#
#
#
# Elastic Compliance Matrix: (Units=1/GPa)
#
#
# Indices 1 2 3 4 5 6 
#
# 1 0.013428 0.003046 -0.005752 0.000000 0.000000 0.000000
# 2 0.003046 0.016546 -0.006552 0.000000 0.000000 0.000000
# 3 -0.005752 -0.006552 0.024318 0.000000 0.000000 0.000000
# 4 0.000000 0.000000 0.000000 0.038119 0.000000 0.000000
# 5 0.000000 0.000000 0.000000 0.000000 0.055845 0.000000
# 6 0.000000 0.000000 0.000000 0.000000 0.000000 0.075845
#
#
# Mechanical properties :
#
#
# Convention : Reuss Voigt Hill
#
# Bulk Modulus (GPa) = 27.95269 28.13188 28.04229
# Shear Modulus (GPa) = 19.64319 23.24010 21.44164
#
# Velocity S-wave (km/s) = 3.20597 3.48716 3.34952
# Velocity P-wave (km/s) = 5.32264 5.56180 5.44353
#
# Compressibility (1/GPa) = 0.03577473
#
# Stress axis : x y z
#
# Youngs Moduli (GPa) = 74.47211 60.43908 41.12238
#
# Poissons Ratio (x) = -0.18407 0.23653
# Poissons Ratio (y) = -0.22680 0.26942
# Poissons Ratio (z) = 0.42836 0.39598
#
# Static dielectric constant tensor:
#      x y z
#    x 1.686120 0.000000 0.000000 
#    y 0.000000 1.660080 0.000000 
#    z 0.000000 0.000000 1.643070 
# 
# From -- ./inp_files/8130.got.cif
#   From: 2010.05.17/outbox.cif.g08.bks.cpg/sg57_5_cif.got.tgz:8130.got - 2010.06.03 13:58:18.
