data_PCOD9435116
_publ_section_title
;
Structure prediction by ZEFSAII (Michael W. Deem and Ramdas Pophale) SiO2 
 PCOD9435116
Probable space group: P B C M
;
_chemical_formula_sum "Si O2"
_cell_formula_units_Z 56
_cell_length_a 21.294583
_cell_length_b 14.757620
_cell_length_c 8.447845
_cell_angle_alpha 90.000000
_cell_angle_beta 90.000000
_cell_angle_gamma 90.000000
_cell_volume 2654.797501
_symmetry_space_group_name_H-M "P B C M"
_symmetry_group_IT_number 57
_symmetry_cell_setting 'orthorhombic'
loop_
_space_group_symop_operation_xyz
x,y,z
-x,-y,1/2+z
x,1/2-y,-z
-x,1/2+y,1/2-z
-x,-y,-z
x,y,1/2-z
-x,1/2+y,z
x,1/2-y,1/2+z
loop_
_atom_site_type_symbol
_atom_site_label
_atom_site_fract_x
_atom_site_fract_y
_atom_site_fract_z
Si Si1 0.537513 0.649076 0.941144
Si Si2 0.082076 0.404494 0.565380
Si Si3 0.189675 0.655094 0.065857
Si Si4 0.050614 0.899350 0.561403
Si Si5 0.214129 0.045944 0.438847
Si Si6 0.394403 0.649705 0.939341
Si Si7 0.345679 0.468347 0.061471
O O1 0.537483 0.647948 0.750000
O O2 0.466244 0.627606 0.992913
O O3 0.591879 0.582412 0.998981
O O4 0.551289 0.750000 0.000000
O O5 0.087576 0.381008 0.750000
O O6 0.065225 0.510723 0.539939
O O7 0.152588 0.400253 0.496380
O O8 0.016837 0.360103 0.506930
O O9 0.206291 0.646755 0.250000
O O10 0.113672 0.658139 0.051394
O O11 0.215319 0.750000 0.000000
O O12 0.207494 0.560592 0.983213
O O13 0.044622 0.923284 0.750000
O O14 0.213728 0.052818 0.250000
O O15 0.281281 0.076077 0.503124
O O16 0.392416 0.649430 0.750000
O O17 0.379578 0.750000 0.000000
O O18 0.350139 0.571748 0.004689
O O19 0.346368 0.466681 0.250000
#
# Coordination Sequence:
#
# PCOD9435116 Si02
#       7
#     8   8   8   8   8   8   8
#     4   9  20  37  59  84 109 137 174 222 272 320
#     4   8  14  26  44  65  88 113 148 194 240 289
#     4  10  19  31  47  68  97 131 167 210 258 310
#     4   8  14  25  43  65  86 112 147 191 242 289
#     4  10  20  33  49  71  98 133 174 211 252 306
#     4  10  20  36  57  83 112 143 178 218 266 318
#     4  11  22  36  54  80 112 145 181 221 265 317
#
# _framework density 21.093886000000001
#
# number of rings (size 3 to 8) (size 9 to 14) (size 15 to 20)
#    0.000    2.571    0.000    2.143    0.000    3.429 
#    0.000    2.857    0.000    0.857    0.000    4.000 
#    0.000    0.000    0.000    0.000    0.000    0.000 
#
# Total GULP energy -312147.491919 kJ/mol
# GULP energy per Si atom -5574.062356 kJ/mol
# Density = 2.104588 g / cm^3
# Si number density = 21.093886 Si / 1000 Ang^3
#
#
#
# Elastic Constant Matrix: (Units=GPa)
#
#
# Indices 1 2 3 4 5 6 
#
# 1 122.1521 12.2664 12.3759 0.0000 0.0000 0.0000
# 2 12.2664 15.2547 -1.9984 0.0000 0.0000 0.0000
# 3 12.3759 -1.9984 25.9587 0.0000 0.0000 0.0000
# 4 0.0000 0.0000 0.0000 14.5485 0.0000 0.0000
# 5 0.0000 0.0000 0.0000 0.0000 27.2301 0.0000
# 6 0.0000 0.0000 0.0000 0.0000 0.0000 -3.6709
#
#
#
# Elastic Compliance Matrix: (Units=1/GPa)
#
#
# Indices 1 2 3 4 5 6 
#
# 1 0.009553 -0.008363 -0.005198 0.000000 0.000000 0.000000
# 2 -0.008363 0.073542 0.009648 0.000000 0.000000 0.000000
# 3 -0.005198 0.009648 0.041744 0.000000 0.000000 0.000000
# 4 0.000000 0.000000 0.000000 0.068736 0.000000 0.000000
# 5 0.000000 0.000000 0.000000 0.000000 0.036724 0.000000
# 6 0.000000 0.000000 0.000000 0.000000 0.000000 -0.272413
#
#
# Mechanical properties :
#
#
# Convention : Reuss Voigt Hill
#
# Bulk Modulus (GPa) = 8.54600 23.18370 15.86485
# Shear Modulus (GPa) = 1060.55547 17.00299 538.77923
#
# Velocity S-wave (km/s) = 22.44705 2.84220 15.99919
# Velocity P-wave (km/s) = 25.99783 4.66748 18.67716
#
# Compressibility (1/GPa) = 0.11701380
#
# Stress axis : x y z
#
# Youngs Moduli (GPa) = 104.67994 13.59773 23.95571
#
# Poissons Ratio (x) = 0.11371 0.12453
# Poissons Ratio (y) = 0.87539 -0.23114
# Poissons Ratio (z) = 0.54415 -0.13120
#
# Static dielectric constant tensor:
#      x y z
#    x 1.855610 0.000000 0.000000 
#    y 0.000000 1.704690 0.000000 
#    z 0.000000 0.000000 1.736270 
# 
# From -- ./inp_files/8131.got.cif
#   From: 2010.05.17/outbox.cif.g08.bks.cpg/sg57_5_cif.got.tgz:8131.got - 2010.06.03 13:58:18.
