data_PCOD9435670
_publ_section_title
;
Structure prediction by ZEFSAII (Michael W. Deem and Ramdas Pophale) SiO2 
 PCOD9435670
Probable space group: P B C M
;
_chemical_formula_sum "Si O2"
_cell_formula_units_Z 48
_cell_length_a 15.387789
_cell_length_b 19.228823
_cell_length_c 8.013359
_cell_angle_alpha 90.000000
_cell_angle_beta 90.000000
_cell_angle_gamma 90.000000
_cell_volume 2371.065350
_symmetry_space_group_name_H-M "P B C M"
_symmetry_group_IT_number 57
_symmetry_cell_setting 'orthorhombic'
loop_
_space_group_symop_operation_xyz
x,y,z
-x,-y,1/2+z
x,1/2-y,-z
-x,1/2+y,1/2-z
-x,-y,-z
x,y,1/2-z
-x,1/2+y,z
x,1/2-y,1/2+z
loop_
_atom_site_type_symbol
_atom_site_label
_atom_site_fract_x
_atom_site_fract_y
_atom_site_fract_z
Si Si1 0.557072 0.902306 0.951551
Si Si2 0.877204 0.571777 0.045754
Si Si3 0.376541 0.945878 0.050105
Si Si4 0.818196 0.078437 0.548644
Si Si5 0.969626 0.328929 0.552129
Si Si6 0.276544 0.173182 0.049646
O O1 0.556488 0.903037 0.750000
O O2 0.626423 0.845326 0.010001
O O3 0.595327 0.977086 0.010111
O O4 0.457886 0.896869 0.008375
O O5 0.879060 0.570590 0.250000
O O6 0.866593 0.492267 0.990066
O O7 0.791887 0.615059 0.994173
O O8 0.960237 0.615198 0.984677
O O9 0.370168 0.950873 0.250000
O O10 0.281591 0.923859 0.988125
O O11 0.816215 0.076482 0.750000
O O12 0.874483 0.144440 0.497307
O O13 0.987285 0.250000 0.500000
O O14 0.976812 0.331073 0.750000
O O15 0.277515 0.169852 0.250000
O O16 0.249001 0.250000 0.000000
#
# Coordination Sequence:
#
# PCOD9435670 Si02
#       6
#     8   8   8   8   8   8
#     4   9  17  31  51  75 106 141 175 215 263 316
#     4   9  18  35  58  81 108 142 180 222 273 327
#     4   9  17  31  54  79 103 135 175 218 267 316
#     4  10  19  36  60  83 108 142 181 226 274 324
#     4  11  23  38  56  80 110 145 182 224 272 325
#     4  10  19  33  52  77 110 147 181 218 270 326
#
# _framework density 20.244064999999999
#
# number of rings (size 3 to 8) (size 9 to 14) (size 15 to 20)
#    0.000    2.333    1.667    1.500    0.000    1.333 
#    0.000    3.333    0.000    2.000    0.000    0.000 
#    0.000    0.000    0.000    0.000    0.000    0.000 
#
# Total GULP energy -267845.101200 kJ/mol
# GULP energy per Si atom -5580.106275 kJ/mol
# Density = 2.019799 g / cm^3
# Si number density = 20.244065 Si / 1000 Ang^3
#
#
#
# Elastic Constant Matrix: (Units=GPa)
#
#
# Indices 1 2 3 4 5 6 
#
# 1 119.5388 16.0889 8.2679 0.0000 0.0000 0.0000
# 2 16.0889 39.8644 0.6077 0.0000 0.0000 0.0000
# 3 8.2679 0.6077 13.9854 0.0000 0.0000 0.0000
# 4 0.0000 0.0000 0.0000 19.1267 0.0000 0.0000
# 5 0.0000 0.0000 0.0000 0.0000 18.8531 0.0000
# 6 0.0000 0.0000 0.0000 0.0000 0.0000 20.3697
#
#
#
# Elastic Compliance Matrix: (Units=1/GPa)
#
#
# Indices 1 2 3 4 5 6 
#
# 1 0.009222 -0.003641 -0.005293 0.000000 0.000000 0.000000
# 2 -0.003641 0.026539 0.000999 0.000000 0.000000 0.000000
# 3 -0.005293 0.000999 0.074589 0.000000 0.000000 0.000000
# 4 0.000000 0.000000 0.000000 0.052283 0.000000 0.000000
# 5 0.000000 0.000000 0.000000 0.000000 0.053042 0.000000
# 6 0.000000 0.000000 0.000000 0.000000 0.000000 0.049092
#
#
# Mechanical properties :
#
#
# Convention : Reuss Voigt Hill
#
# Bulk Modulus (GPa) = 10.58425 24.81303 17.69864
# Shear Modulus (GPa) = 16.01893 21.56486 18.79189
#
# Velocity S-wave (km/s) = 2.81604 3.26735 3.05005
# Velocity P-wave (km/s) = 3.97657 5.14953 4.60058
#
# Compressibility (1/GPa) = 0.09447998
#
# Stress axis : x y z
#
# Youngs Moduli (GPa) = 108.44035 37.67995 13.40676
#
# Poissons Ratio (x) = 0.13720 0.07097
# Poissons Ratio (y) = 0.39484 -0.01340
# Poissons Ratio (z) = 0.57402 -0.03766
#
# Static dielectric constant tensor:
#      x y z
#    x 1.750470 0.000000 0.000000 
#    y 0.000000 1.693050 0.000000 
#    z 0.000000 0.000000 1.731560 
# 
# From -- ./inp_files/4589.got.cif
#   From: 2010.05.17/outbox.cif.g08.bks.cpg/sg57_3_cif.got.tgz:4589.got - 2010.06.03 13:58:18.
