data_PCOD9435096
_publ_section_title
;
Structure prediction by ZEFSAII (Michael W. Deem and Ramdas Pophale) SiO2 
 PCOD9435096
Probable space group: P B C M
;
_chemical_formula_sum "Si O2"
_cell_formula_units_Z 56
_cell_length_a 16.721599
_cell_length_b 22.625641
_cell_length_c 8.967296
_cell_angle_alpha 90.000000
_cell_angle_beta 90.000000
_cell_angle_gamma 90.000000
_cell_volume 3392.658933
_symmetry_space_group_name_H-M "P B C M"
_symmetry_group_IT_number 57
_symmetry_cell_setting 'orthorhombic'
loop_
_space_group_symop_operation_xyz
x,y,z
-x,-y,1/2+z
x,1/2-y,-z
-x,1/2+y,1/2-z
-x,-y,-z
x,y,1/2-z
-x,1/2+y,z
x,1/2-y,1/2+z
loop_
_atom_site_type_symbol
_atom_site_label
_atom_site_fract_x
_atom_site_fract_y
_atom_site_fract_z
Si Si1 0.010801 0.413625 0.578317
Si Si2 0.904383 0.693480 0.577438
Si Si3 0.250104 0.335859 0.578842
Si Si4 0.735443 0.958203 0.075723
Si Si5 0.545523 0.944219 0.074892
Si Si6 0.869788 0.473547 0.422937
Si Si7 0.561615 0.686097 0.073179
O O1 0.999346 0.397846 0.750000
O O2 0.056985 0.363922 0.490539
O O3 0.070351 0.469899 0.573913
O O4 0.925816 0.425599 0.501714
O O5 0.941358 0.750000 0.500000
O O6 0.915858 0.696044 0.750000
O O7 0.810602 0.691941 0.537545
O O8 0.224212 0.325855 0.750000
O O9 0.246038 0.404797 0.537128
O O10 0.341454 0.315980 0.561605
O O11 0.756142 0.945156 0.250000
O O12 0.639527 0.962219 0.068424
O O13 0.790196 0.011328 0.016004
O O14 0.523580 0.939224 0.250000
O O15 0.535800 0.877934 0.000287
O O16 0.500000 0.000000 0.000000
O O17 0.851809 0.460551 0.250000
O O18 0.541341 0.685794 0.250000
O O19 0.536571 0.750000 0.000000
#
# Coordination Sequence:
#
# PCOD9435096 Si02
#       7
#     8   8   8   8   8   8   8
#     4  10  20  33  48  68  96 126 164 207 249 290
#     4  12  23  33  46  64  93 130 169 208 250 297
#     4  10  19  31  46  68  98 132 170 207 245 293
#     4  10  19  31  50  74 101 133 168 207 252 302
#     4  10  21  36  54  78 108 141 176 216 265 315
#     4  10  19  31  50  72  97 127 162 204 249 293
#     4  10  20  33  51  74 103 138 176 214 255 308
#
# _framework density 16.506228
#
# number of rings (size 3 to 8) (size 9 to 14) (size 15 to 20)
#    0.000    1.714    1.429    4.286    0.000    5.714 
#    0.000    0.000    0.000    0.000    0.000    1.000 
#    0.000    6.857    0.000    0.000    0.000    0.000 
#
# Total GULP energy -312016.214416 kJ/mol
# GULP energy per Si atom -5571.718115 kJ/mol
# Density = 1.646866 g / cm^3
# Si number density = 16.506228 Si / 1000 Ang^3
#
#
#
# Elastic Constant Matrix: (Units=GPa)
#
#
# Indices 1 2 3 4 5 6 
#
# 1 27.1469 23.0929 11.7814 0.0000 0.0000 0.0000
# 2 23.0929 77.3699 60.7908 0.0000 0.0000 0.0000
# 3 11.7814 60.7908 111.0300 0.0000 0.0000 0.0000
# 4 0.0000 0.0000 0.0000 23.4939 0.0000 0.0000
# 5 0.0000 0.0000 0.0000 0.0000 -12.6622 0.0000
# 6 0.0000 0.0000 0.0000 0.0000 0.0000 6.2985
#
#
#
# Elastic Compliance Matrix: (Units=1/GPa)
#
#
# Indices 1 2 3 4 5 6 
#
# 1 0.050983 -0.019246 0.005128 0.000000 0.000000 0.000000
# 2 -0.019246 0.029948 -0.014355 0.000000 0.000000 0.000000
# 3 0.005128 -0.014355 0.016322 0.000000 0.000000 0.000000
# 4 0.000000 0.000000 0.000000 0.042564 0.000000 0.000000
# 5 0.000000 0.000000 0.000000 0.000000 -0.078975 0.000000
# 6 0.000000 0.000000 0.000000 0.000000 0.000000 0.158767
#
#
# Mechanical properties :
#
#
# Convention : Reuss Voigt Hill
#
# Bulk Modulus (GPa) = 24.80967 45.20857 35.00912
# Shear Modulus (GPa) = 17.24183 11.41816 14.32999
#
# Velocity S-wave (km/s) = 3.23548 2.63296 2.94965
# Velocity P-wave (km/s) = 5.38710 6.05736 5.73204
#
# Compressibility (1/GPa) = 0.04030686
#
# Stress axis : x y z
#
# Youngs Moduli (GPa) = 19.61430 33.39081 61.26664
#
# Poissons Ratio (x) = 0.64264 -0.31416
# Poissons Ratio (y) = 0.37750 0.87948
# Poissons Ratio (z) = -0.10058 0.47933
#
# Static dielectric constant tensor:
#      x y z
#    x 1.561870 0.000000 0.000000 
#    y 0.000000 1.573600 0.000000 
#    z 0.000000 0.000000 1.559120 
# 
# From -- ./inp_files/7063.got.cif
#   From: 2010.05.17/outbox.cif.g08.bks.cpg/sg57_4_cif.got.tgz:7063.got - 2010.06.03 13:58:18.
