data_PCOD9435700
_publ_section_title
;
Structure prediction by ZEFSAII (Michael W. Deem and Ramdas Pophale) SiO2 
 PCOD9435700
Probable space group: P B C M
;
_chemical_formula_sum "Si O2"
_cell_formula_units_Z 56
_cell_length_a 17.998307
_cell_length_b 16.345508
_cell_length_c 9.698976
_cell_angle_alpha 90.000000
_cell_angle_beta 90.000000
_cell_angle_gamma 90.000000
_cell_volume 2853.356017
_symmetry_space_group_name_H-M "P B C M"
_symmetry_group_IT_number 57
_symmetry_cell_setting 'orthorhombic'
loop_
_space_group_symop_operation_xyz
x,y,z
-x,-y,1/2+z
x,1/2-y,-z
-x,1/2+y,1/2-z
-x,-y,-z
x,y,1/2-z
-x,1/2+y,z
x,1/2-y,1/2+z
loop_
_atom_site_type_symbol
_atom_site_label
_atom_site_fract_x
_atom_site_fract_y
_atom_site_fract_z
Si Si1 0.377128 0.176922 0.403619
Si Si2 0.841628 0.393428 0.406670
Si Si3 0.123643 0.453922 0.085911
Si Si4 0.674024 0.332368 0.414567
Si Si5 0.423839 0.994251 0.416127
Si Si6 0.998950 0.675297 0.904219
Si Si7 0.799459 0.823923 0.593857
O O1 0.406417 0.250000 0.500000
O O2 0.409511 0.185899 0.250000
O O3 0.288651 0.187357 0.394297
O O4 0.387194 0.082691 0.447397
O O5 0.836310 0.430063 0.250000
O O6 0.866436 0.457207 0.522564
O O7 0.761354 0.354540 0.436298
O O8 0.912239 0.334037 0.402529
O O9 0.136734 0.452744 0.250000
O O10 0.044675 0.408426 0.058782
O O11 0.182190 0.402323 0.996871
O O12 0.655606 0.250000 0.500000
O O13 0.664229 0.317919 0.250000
O O14 0.625236 0.413521 0.451374
O O15 0.435321 0.990690 0.250000
O O16 0.500000 0.000000 0.500000
O O17 0.973614 0.694251 0.750000
O O18 0.980641 0.750000 0.000000
O O19 0.827350 0.750000 0.500000
O O20 0.829444 0.827850 0.750000
#
# Coordination Sequence:
#
# PCOD9435700 Si02
#       7
#     8   8   8   8   8   8   8
#     4   9  19  36  58  83 113 148 188 232 281 338
#     4  10  21  39  60  81 109 148 192 242 295 346
#     4  11  22  34  51  80 113 147 190 238 289 348
#     4  10  22  41  65  91 120 156 201 247 296 352
#     4  10  22  40  60  86 119 153 188 231 285 347
#     4  10  22  37  54  78 109 146 190 239 295 352
#     4  10  19  33  53  77 107 144 183 227 278 335
#
# _framework density 19.626013
#
# number of rings (size 3 to 8) (size 9 to 14) (size 15 to 20)
#    0.000    2.000    0.000    3.000    0.000    8.000 
#    0.000    4.286    0.000    0.000    0.000    0.000 
#    0.000    0.000    0.000    0.000    0.000    0.000 
#
# Total GULP energy -312093.471332 kJ/mol
# GULP energy per Si atom -5573.097702 kJ/mol
# Density = 1.958134 g / cm^3
# Si number density = 19.626013 Si / 1000 Ang^3
#
#
#
# Elastic Constant Matrix: (Units=GPa)
#
#
# Indices 1 2 3 4 5 6 
#
# 1 68.8854 42.1019 38.1639 0.0000 0.0000 0.0000
# 2 42.1019 141.2455 82.5387 0.0000 0.0000 0.0000
# 3 38.1639 82.5387 103.8103 0.0000 0.0000 0.0000
# 4 0.0000 0.0000 0.0000 40.5356 0.0000 0.0000
# 5 0.0000 0.0000 0.0000 0.0000 -37.0377 0.0000
# 6 0.0000 0.0000 0.0000 0.0000 0.0000 19.7176
#
#
#
# Elastic Compliance Matrix: (Units=1/GPa)
#
#
# Indices 1 2 3 4 5 6 
#
# 1 0.018858 -0.002932 -0.004601 0.000000 0.000000 0.000000
# 2 -0.002932 0.013680 -0.009799 0.000000 0.000000 0.000000
# 3 -0.004601 -0.009799 0.019116 0.000000 0.000000 0.000000
# 4 0.000000 0.000000 0.000000 0.024670 0.000000 0.000000
# 5 0.000000 0.000000 0.000000 0.000000 -0.027000 0.000000
# 6 0.000000 0.000000 0.000000 0.000000 0.000000 0.050716
#
#
# Mechanical properties :
#
#
# Convention : Reuss Voigt Hill
#
# Bulk Modulus (GPa) = 58.86266 71.06114 64.96190
# Shear Modulus (GPa) = 35.62058 14.71889 25.16974
#
# Velocity S-wave (km/s) = 4.26487 2.74153 3.58504
# Velocity P-wave (km/s) = 7.36949 6.80496 7.09284
#
# Compressibility (1/GPa) = 0.01698870
#
# Stress axis : x y z
#
# Youngs Moduli (GPa) = 53.02693 73.09935 52.31332
#
# Poissons Ratio (x) = 0.21435 0.24072
# Poissons Ratio (y) = 0.15549 0.51261
# Poissons Ratio (z) = 0.24400 0.71629
#
# Static dielectric constant tensor:
#      x y z
#    x 1.698370 0.000000 0.000000 
#    y 0.000000 1.626800 0.000000 
#    z 0.000000 0.000000 1.686210 
# 
# From -- ./inp_files/8090.got.cif
#   From: 2010.05.17/outbox.cif.g08.bks.cpg/sg57_5_cif.got.tgz:8090.got - 2010.06.03 13:58:18.
