data_PCOD9435315
_publ_section_title
;
Structure prediction by ZEFSAII (Michael W. Deem and Ramdas Pophale) SiO2 
 PCOD9435315
Probable space group: P B C M
;
_chemical_formula_sum "Si O2"
_cell_formula_units_Z 48
_cell_length_a 15.343950
_cell_length_b 19.445695
_cell_length_c 8.033164
_cell_angle_alpha 90.000000
_cell_angle_beta 90.000000
_cell_angle_gamma 90.000000
_cell_volume 2396.885442
_symmetry_space_group_name_H-M "P B C M"
_symmetry_group_IT_number 57
_symmetry_cell_setting 'orthorhombic'
loop_
_space_group_symop_operation_xyz
x,y,z
-x,-y,1/2+z
x,1/2-y,-z
-x,1/2+y,1/2-z
-x,-y,-z
x,y,1/2-z
-x,1/2+y,z
x,1/2-y,1/2+z
loop_
_atom_site_type_symbol
_atom_site_label
_atom_site_fract_x
_atom_site_fract_y
_atom_site_fract_z
Si Si1 0.622092 0.455264 0.550490
Si Si2 0.034863 0.828498 0.052003
Si Si3 0.279530 0.174313 0.049072
Si Si4 0.125737 0.075980 0.049481
Si Si5 0.445149 0.103214 0.053930
Si Si6 0.817999 0.073354 0.548216
O O1 0.613762 0.463469 0.750000
O O2 0.601819 0.529276 0.469565
O O3 0.543319 0.405930 0.489272
O O4 0.718357 0.429725 0.509601
O O5 0.038112 0.828758 0.250000
O O6 0.125521 0.861714 0.989275
O O7 0.020001 0.750000 0.000000
O O8 0.958154 0.880462 0.000902
O O9 0.281296 0.170133 0.250000
O O10 0.210821 0.117624 0.989443
O O11 0.376418 0.157623 0.982975
O O12 0.250626 0.250000 0.000000
O O13 0.127862 0.074602 0.250000
O O14 0.133760 0.997170 0.992505
O O15 0.453446 0.117483 0.250000
O O16 0.816726 0.073237 0.750000
#
# Coordination Sequence:
#
# PCOD9435315 Si02
#       6
#     8   8   8   8   8   8
#     4  10  19  31  56  86 108 139 185 233 272 320
#     4  11  24  40  59  82 112 150 188 230 282 337
#     4  10  20  34  53  77 112 151 183 225 278 333
#     4  10  20  37  60  83 110 146 185 231 283 334
#     4   9  18  35  53  75 112 150 181 221 277 331
#     4  10  21  39  60  83 113 149 184 228 286 336
#
# _framework density 20.025988000000002
#
# number of rings (size 3 to 8) (size 9 to 14) (size 15 to 20)
#    0.000    2.000    1.667    2.000    0.000    5.333 
#    0.000    0.833    0.000    4.000    0.000    0.000 
#    0.000    0.000    0.000    0.000    0.000    0.000 
#
# Total GULP energy -267868.826214 kJ/mol
# GULP energy per Si atom -5580.600546 kJ/mol
# Density = 1.998041 g / cm^3
# Si number density = 20.025988 Si / 1000 Ang^3
#
#
#
# Elastic Constant Matrix: (Units=GPa)
#
#
# Indices 1 2 3 4 5 6 
#
# 1 125.4668 24.0334 -0.0720 0.0000 0.0000 0.0000
# 2 24.0334 43.2649 6.4249 0.0000 0.0000 0.0000
# 3 -0.0720 6.4249 6.0674 0.0000 0.0000 0.0000
# 4 0.0000 0.0000 0.0000 10.2119 0.0000 0.0000
# 5 0.0000 0.0000 0.0000 0.0000 24.4757 0.0000
# 6 0.0000 0.0000 0.0000 0.0000 0.0000 20.8450
#
#
#
# Elastic Compliance Matrix: (Units=1/GPa)
#
#
# Indices 1 2 3 4 5 6 
#
# 1 0.009130 -0.006037 0.006501 0.000000 0.000000 0.000000
# 2 -0.006037 0.031418 -0.033341 0.000000 0.000000 0.000000
# 3 0.006501 -0.033341 0.200199 0.000000 0.000000 0.000000
# 4 0.000000 0.000000 0.000000 0.097925 0.000000 0.000000
# 5 0.000000 0.000000 0.000000 0.000000 0.040857 0.000000
# 6 0.000000 0.000000 0.000000 0.000000 0.000000 0.047973
#
#
# Mechanical properties :
#
#
# Convention : Reuss Voigt Hill
#
# Bulk Modulus (GPa) = 5.71450 26.17462 15.94456
# Shear Modulus (GPa) = 9.06474 20.73404 14.89939
#
# Velocity S-wave (km/s) = 2.12986 3.22119 2.73060
# Velocity P-wave (km/s) = 2.98465 5.18974 4.23330
#
# Compressibility (1/GPa) = 0.17499337
#
# Stress axis : x y z
#
# Youngs Moduli (GPa) = 109.52379 31.82853 4.99503
#
# Poissons Ratio (x) = 0.19216 -0.03247
# Poissons Ratio (y) = 0.66124 0.16654
# Poissons Ratio (z) = -0.71206 1.06120
#
# Static dielectric constant tensor:
#      x y z
#    x 1.737400 0.000000 0.000000 
#    y 0.000000 0.064560 0.000000 
#    z 0.000000 0.000000 1.702800 
# 
# From -- ./inp_files/4531.got.cif
#   From: 2010.05.17/outbox.cif.g08.bks.cpg/sg57_3_cif.got.tgz:4531.got - 2010.06.03 13:58:18.
