data_PCOD9435144
_publ_section_title
;
Structure prediction by ZEFSAII (Michael W. Deem and Ramdas Pophale) SiO2 
 PCOD9435144
Probable space group: P B C M
;
_chemical_formula_sum "Si O2"
_cell_formula_units_Z 48
_cell_length_a 12.787250
_cell_length_b 8.170193
_cell_length_c 24.599055
_cell_angle_alpha 90.000000
_cell_angle_beta 90.000000
_cell_angle_gamma 90.000000
_cell_volume 2569.969063
_symmetry_space_group_name_H-M "P B C M"
_symmetry_group_IT_number 57
_symmetry_cell_setting 'orthorhombic'
loop_
_space_group_symop_operation_xyz
x,y,z
-x,-y,1/2+z
x,1/2-y,-z
-x,1/2+y,1/2-z
-x,-y,-z
x,y,1/2-z
-x,1/2+y,z
x,1/2-y,1/2+z
loop_
_atom_site_type_symbol
_atom_site_label
_atom_site_fract_x
_atom_site_fract_y
_atom_site_fract_z
Si Si1 0.460018 0.852563 0.250000
Si Si2 0.346397 0.303853 0.439399
Si Si3 0.315378 0.778352 0.836625
Si Si4 0.432060 0.826475 0.559953
Si Si5 0.059301 0.031368 0.750000
Si Si6 0.341331 0.308343 0.750000
Si Si7 0.217830 0.357582 0.337645
Si Si8 0.843653 0.328774 0.250000
O O1 0.419172 0.753895 0.198018
O O2 0.582882 0.848594 0.250000
O O3 0.409029 0.029788 0.250000
O O4 0.316895 0.250000 0.500000
O O5 0.397730 0.484806 0.441752
O O6 0.446745 0.193592 0.421373
O O7 0.246424 0.309048 0.399448
O O8 0.350386 0.743859 0.898076
O O9 0.229192 0.673500 0.803637
O O10 0.275368 0.965179 0.832231
O O11 0.426008 0.750000 0.500000
O O12 0.108973 0.112291 0.694932
O O13 0.934943 0.040542 0.750000
O O14 0.097491 0.845255 0.750000
O O15 0.272093 0.283814 0.697340
#
# Coordination Sequence:
#
# PCOD9435144 Si02
#       8
#     4   8   8   8   4   4   8   4
#     4  11  20  28  43  67  95 125 157 193 234 282
#     4  10  19  31  48  70  98 132 164 195 231 274
#     4   9  19  34  49  67  95 127 158 196 240 284
#     4  10  19  31  48  70  98 132 164 195 231 274
#     4   9  18  34  53  73  95 119 153 199 250 296
#     4  11  20  28  43  67  95 125 157 193 234 282
#     4   9  19  34  49  67  95 127 158 196 240 284
#     4   9  18  34  53  73  95 119 153 199 250 296
#
# _framework density 18.677265999999999
#
# number of rings (size 3 to 8) (size 9 to 14) (size 15 to 20)
#    0.000    2.333    0.000    5.500    0.000    8.000 
#    0.000    0.000    0.000    1.000    0.000    7.000 
#    0.000    0.000    0.000    0.000    0.000    0.000 
#
# Total GULP energy -267391.048495 kJ/mol
# GULP energy per Si atom -5570.646844 kJ/mol
# Density = 1.863476 g / cm^3
# Si number density = 18.677266 Si / 1000 Ang^3
#
#
#
# Elastic Constant Matrix: (Units=GPa)
#
#
# Indices 1 2 3 4 5 6 
#
# 1 58.5249 1.5800 33.5655 0.0000 0.0000 0.0000
# 2 1.5800 36.6642 6.4997 0.0000 0.0000 0.0000
# 3 33.5655 6.4997 96.2166 0.0000 0.0000 0.0000
# 4 0.0000 0.0000 0.0000 678.5251 0.0000 0.0000
# 5 0.0000 0.0000 0.0000 0.0000 14.2424 0.0000
# 6 0.0000 0.0000 0.0000 0.0000 0.0000 27.1255
#
#
#
# Elastic Compliance Matrix: (Units=1/GPa)
#
#
# Indices 1 2 3 4 5 6 
#
# 1 0.021366 0.000405 -0.007481 0.000000 0.000000 0.000000
# 2 0.000405 0.027613 -0.002007 0.000000 0.000000 0.000000
# 3 -0.007481 -0.002007 0.013139 0.000000 0.000000 0.000000
# 4 0.000000 0.000000 0.000000 0.001474 0.000000 0.000000
# 5 0.000000 0.000000 0.000000 0.000000 0.070213 0.000000
# 6 0.000000 0.000000 0.000000 0.000000 0.000000 0.036866
#
#
# Mechanical properties :
#
#
# Convention : Reuss Voigt Hill
#
# Bulk Modulus (GPa) = 22.75158 30.52177 26.63668
# Shear Modulus (GPa) = 24.57174 153.96265 89.26719
#
# Velocity S-wave (km/s) = 3.63105 9.08912 6.92086
# Velocity P-wave (km/s) = 5.45777 11.24841 8.84064
#
# Compressibility (1/GPa) = 0.04395300
#
# Stress axis : x y z
#
# Youngs Moduli (GPa) = 46.80250 36.21500 76.11168
#
# Poissons Ratio (x) = -0.01468 0.56940
# Poissons Ratio (y) = -0.01898 0.15274
# Poissons Ratio (z) = 0.35013 0.07268
#
# Static dielectric constant tensor:
#      x y z
#    x 1.654230 0.000000 0.000000 
#    y 0.000000 1.695290 0.000000 
#    z 0.000000 0.000000 1.945710 
# 
# From -- ./inp_files/27171.got.cif
#   From: 2010.05.17/outbox.cif.g08.bks.cpg/sg57_14_cif.got.tgz:27171.got - 2010.06.03 13:58:18.
