data_PCOD9435781
_publ_section_title
;
Structure prediction by ZEFSAII (Michael W. Deem and Ramdas Pophale) SiO2 
 PCOD9435781
Probable space group: P B C M
;
_chemical_formula_sum "Si O2"
_cell_formula_units_Z 40
_cell_length_a 12.966578
_cell_length_b 20.231490
_cell_length_c 8.770197
_cell_angle_alpha 90.000000
_cell_angle_beta 90.000000
_cell_angle_gamma 90.000000
_cell_volume 2300.713783
_symmetry_space_group_name_H-M "P B C M"
_symmetry_group_IT_number 57
_symmetry_cell_setting 'orthorhombic'
loop_
_space_group_symop_operation_xyz
x,y,z
-x,-y,1/2+z
x,1/2-y,-z
-x,1/2+y,1/2-z
-x,-y,-z
x,y,1/2-z
-x,1/2+y,z
x,1/2-y,1/2+z
loop_
_atom_site_type_symbol
_atom_site_label
_atom_site_fract_x
_atom_site_fract_y
_atom_site_fract_z
Si Si1 0.460498 0.569255 0.931121
Si Si2 0.015577 0.926632 0.932788
Si Si3 0.386802 0.177541 0.431991
Si Si4 0.192836 0.395845 0.431604
Si Si5 0.757475 0.051389 0.068600
O O1 0.474924 0.568513 0.750000
O O2 0.500000 0.500000 0.000000
O O3 0.527642 0.627457 0.003687
O O4 0.340629 0.575131 0.975275
O O5 0.004582 0.928559 0.750000
O O6 0.135172 0.911296 0.967168
O O7 0.922739 0.885391 0.005562
O O8 0.000000 0.000000 0.000000
O O9 0.402756 0.250000 0.500000
O O10 0.390686 0.178973 0.250000
O O11 0.276539 0.149600 0.487329
O O12 0.195395 0.386098 0.250000
O O13 0.223920 0.472887 0.460657
O O14 0.737489 0.057821 0.250000
#
# Coordination Sequence:
#
# PCOD9435781 Si02
#       5
#     8   8   8   8   8
#     4  12  23  36  57  84 115 151 194 239 288 342
#     4   9  17  29  48  76 111 145 181 224 275 329
#     4  12  25  41  60  82 113 151 192 238 291 349
#     4  10  19  33  54  80 113 146 185 230 280 339
#     4   9  18  32  52  80 114 148 186 232 281 333
#
# _framework density 17.385909000000002
#
# number of rings (size 3 to 8) (size 9 to 14) (size 15 to 20)
#    0.000    1.600    2.000    6.000    0.000    4.000 
#    0.000    0.000    0.000    1.200    0.000    0.000 
#    0.000    0.000    0.000    0.000    0.000    0.000 
#
# Total GULP energy -223315.137081 kJ/mol
# GULP energy per Si atom -5582.878427 kJ/mol
# Density = 1.734634 g / cm^3
# Si number density = 17.385909 Si / 1000 Ang^3
#
#
#
# Elastic Constant Matrix: (Units=GPa)
#
#
# Indices 1 2 3 4 5 6 
#
# 1 155.9350 64.8927 89.3144 0.0000 0.0000 0.0000
# 2 64.8927 90.9212 62.8579 0.0000 0.0000 0.0000
# 3 89.3144 62.8579 140.5679 0.0000 0.0000 0.0000
# 4 0.0000 0.0000 0.0000 23.2922 0.0000 0.0000
# 5 0.0000 0.0000 0.0000 0.0000 35.6981 0.0000
# 6 0.0000 0.0000 0.0000 0.0000 0.0000 15.5310
#
#
#
# Elastic Compliance Matrix: (Units=1/GPa)
#
#
# Indices 1 2 3 4 5 6 
#
# 1 0.011202 -0.004450 -0.005127 0.000000 0.000000 0.000000
# 2 -0.004450 0.017688 -0.005082 0.000000 0.000000 0.000000
# 3 -0.005127 -0.005082 0.012644 0.000000 0.000000 0.000000
# 4 0.000000 0.000000 0.000000 0.042933 0.000000 0.000000
# 5 0.000000 0.000000 0.000000 0.000000 0.028013 0.000000
# 6 0.000000 0.000000 0.000000 0.000000 0.000000 0.064387
#
#
# Mechanical properties :
#
#
# Convention : Reuss Voigt Hill
#
# Bulk Modulus (GPa) = 81.86625 91.28378 86.57501
# Shear Modulus (GPa) = 23.78032 26.26155 25.02093
#
# Velocity S-wave (km/s) = 3.70238 3.89074 3.79773
# Velocity P-wave (km/s) = 8.09115 8.53242 8.31472
#
# Compressibility (1/GPa) = 0.01221505
#
# Stress axis : x y z
#
# Youngs Moduli (GPa) = 89.27265 56.53498 79.08622
#
# Poissons Ratio (x) = 0.25159 0.40551
# Poissons Ratio (y) = 0.39727 0.40193
# Poissons Ratio (z) = 0.45773 0.28732
#
# Static dielectric constant tensor:
#      x y z
#    x 1.624440 0.000000 0.000000 
#    y 0.000000 1.560600 0.000000 
#    z 0.000000 0.000000 1.571380 
# 
# From -- ./inp_files/2647.got.cif
#   From: 2010.05.17/outbox.cif.g08.bks.cpg/sg57_2_cif.got.tgz:2647.got - 2010.06.03 13:58:18.
