data_PCOD9435290
_publ_section_title
;
Structure prediction by ZEFSAII (Michael W. Deem and Ramdas Pophale) SiO2 
 PCOD9435290
Probable space group: P B C M
;
_chemical_formula_sum "Si O2"
_cell_formula_units_Z 48
_cell_length_a 17.019812
_cell_length_b 18.488305
_cell_length_c 8.759634
_cell_angle_alpha 90.000000
_cell_angle_beta 90.000000
_cell_angle_gamma 90.000000
_cell_volume 2756.371915
_symmetry_space_group_name_H-M "P B C M"
_symmetry_group_IT_number 57
_symmetry_cell_setting 'orthorhombic'
loop_
_space_group_symop_operation_xyz
x,y,z
-x,-y,1/2+z
x,1/2-y,-z
-x,1/2+y,1/2-z
-x,-y,-z
x,y,1/2-z
-x,1/2+y,z
x,1/2-y,1/2+z
loop_
_atom_site_type_symbol
_atom_site_label
_atom_site_fract_x
_atom_site_fract_y
_atom_site_fract_z
Si Si1 0.834735 0.326538 0.567177
Si Si2 0.354484 0.170495 0.566379
Si Si3 0.507407 0.080705 0.565677
Si Si4 0.754825 0.541162 0.934179
Si Si5 0.917902 0.025306 0.433127
Si Si6 0.317223 0.896602 0.432476
O O1 0.860387 0.250000 0.500000
O O2 0.834558 0.323943 0.750000
O O3 0.889108 0.394455 0.518500
O O4 0.746776 0.344920 0.509952
O O5 0.348097 0.250000 0.500000
O O6 0.356605 0.175118 0.750000
O O7 0.434448 0.130077 0.516090
O O8 0.282269 0.117878 0.524499
O O9 0.505053 0.075225 0.750000
O O10 0.591988 0.114057 0.523207
O O11 0.500000 0.000000 0.500000
O O12 0.747071 0.531537 0.750000
O O13 0.845753 0.528063 0.973920
O O14 0.706215 0.477341 0.014255
O O15 0.923911 0.026186 0.250000
O O16 0.000000 0.000000 0.500000
O O17 0.310145 0.890434 0.250000
#
# Coordination Sequence:
#
# PCOD9435290 Si02
#       6
#     8   8   8   8   8   8
#     4  10  21  37  56  80 111 145 178 218 272 322
#     4  10  21  36  52  73 105 141 179 222 265 309
#     4  10  20  33  52  77 105 141 184 224 265 314
#     4   9  18  35  55  74 102 139 176 215 265 318
#     4   9  19  35  57  83 107 136 173 214 263 320
#     4  10  19  31  52  81 106 135 180 221 262 318
#
# _framework density 17.414196
#
# number of rings (size 3 to 8) (size 9 to 14) (size 15 to 20)
#    0.000    2.333    1.667    2.000    0.000    6.000 
#    0.000    2.500    0.000    4.000    0.000    0.000 
#    0.000    0.000    0.000    0.000    0.000    0.000 
#
# Total GULP energy -267760.443799 kJ/mol
# GULP energy per Si atom -5578.342579 kJ/mol
# Density = 1.737456 g / cm^3
# Si number density = 17.414196 Si / 1000 Ang^3
#
#
#
# Elastic Constant Matrix: (Units=GPa)
#
#
# Indices 1 2 3 4 5 6 
#
# 1 157.6781 84.2137 34.7909 0.0000 0.0000 0.0000
# 2 84.2137 136.9074 29.8296 0.0000 0.0000 0.0000
# 3 34.7909 29.8296 21.7174 0.0000 0.0000 0.0000
# 4 0.0000 0.0000 0.0000 33.5256 0.0000 0.0000
# 5 0.0000 0.0000 0.0000 0.0000 26.8326 0.0000
# 6 0.0000 0.0000 0.0000 0.0000 0.0000 17.8650
#
#
#
# Elastic Compliance Matrix: (Units=1/GPa)
#
#
# Indices 1 2 3 4 5 6 
#
# 1 0.011349 -0.004309 -0.012262 0.000000 0.000000 0.000000
# 2 -0.004309 0.012060 -0.009661 0.000000 0.000000 0.000000
# 3 -0.012262 -0.009661 0.078960 0.000000 0.000000 0.000000
# 4 0.000000 0.000000 0.000000 0.029828 0.000000 0.000000
# 5 0.000000 0.000000 0.000000 0.000000 0.037268 0.000000
# 6 0.000000 0.000000 0.000000 0.000000 0.000000 0.055975
#
#
# Mechanical properties :
#
#
# Convention : Reuss Voigt Hill
#
# Bulk Modulus (GPa) = 20.03872 68.21904 44.12888
# Shear Modulus (GPa) = 16.97562 26.80922 21.89242
#
# Velocity S-wave (km/s) = 3.12559 3.92791 3.54949
# Velocity P-wave (km/s) = 4.95559 7.73503 6.49571
#
# Compressibility (1/GPa) = 0.04990338
#
# Stress axis : x y z
#
# Youngs Moduli (GPa) = 88.11211 82.91897 12.66469
#
# Poissons Ratio (x) = 0.35733 0.15530
# Poissons Ratio (y) = 0.37971 0.12236
# Poissons Ratio (z) = 1.08044 0.80110
#
# Static dielectric constant tensor:
#      x y z
#    x 1.596170 0.000000 0.000000 
#    y 0.000000 1.574860 0.000000 
#    z 0.000000 0.000000 1.620930 
# 
# From -- ./inp_files/4656.got.cif
#   From: 2010.05.17/outbox.cif.g08.bks.cpg/sg57_3_cif.got.tgz:4656.got - 2010.06.03 13:58:18.
