data_PCOD9435023
_publ_section_title
;
Structure prediction by ZEFSAII (Michael W. Deem and Ramdas Pophale) SiO2 
 PCOD9435023
Probable space group: P B C M
;
_chemical_formula_sum "Si O2"
_cell_formula_units_Z 48
_cell_length_a 24.258052
_cell_length_b 14.044904
_cell_length_c 8.905740
_cell_angle_alpha 90.000000
_cell_angle_beta 90.000000
_cell_angle_gamma 90.000000
_cell_volume 3034.203532
_symmetry_space_group_name_H-M "P B C M"
_symmetry_group_IT_number 57
_symmetry_cell_setting 'orthorhombic'
loop_
_space_group_symop_operation_xyz
x,y,z
-x,-y,1/2+z
x,1/2-y,-z
-x,1/2+y,1/2-z
-x,-y,-z
x,y,1/2-z
-x,1/2+y,z
x,1/2-y,1/2+z
loop_
_atom_site_type_symbol
_atom_site_label
_atom_site_fract_x
_atom_site_fract_y
_atom_site_fract_z
Si Si1 0.085210 0.475408 0.569541
Si Si2 0.811663 0.852880 0.569595
Si Si3 0.583888 0.956704 0.070731
Si Si4 0.520190 0.148679 0.429335
Si Si5 0.023166 0.853494 0.571039
Si Si6 0.315399 0.146059 0.430100
O O1 0.085427 0.488382 0.750000
O O2 0.143255 0.430224 0.521982
O O3 0.068601 0.573737 0.492190
O O4 0.036197 0.400760 0.533403
O O5 0.824432 0.750000 0.500000
O O6 0.815121 0.844488 0.750000
O O7 0.748313 0.876981 0.531855
O O8 0.585492 0.943250 0.250000
O O9 0.564311 0.064817 0.040051
O O10 0.536936 0.888595 0.000757
O O11 0.641647 0.928232 0.998044
O O12 0.534996 0.250000 0.500000
O O13 0.513813 0.157223 0.250000
O O14 0.027734 0.750000 0.500000
O O15 0.027150 0.847513 0.750000
O O16 0.327387 0.250000 0.500000
O O17 0.320793 0.150587 0.250000
#
# Coordination Sequence:
#
# PCOD9435023 Si02
#       6
#     8   8   8   8   8   8
#     4   9  18  32  48  68  95 124 156 192 231 277
#     4   9  18  31  48  70  95 124 155 190 231 274
#     4  10  20  33  49  70  96 125 156 190 229 273
#     4  10  20  33  50  71  95 123 154 190 231 275
#     4  10  19  30  47  70  95 124 155 191 234 278
#     4  10  19  31  48  70  96 125 156 190 230 274
#
# _framework density 15.819637
#
# number of rings (size 3 to 8) (size 9 to 14) (size 15 to 20)
#    0.000    2.333    0.000    3.000    0.000    4.000 
#    0.000    0.000    0.000    1.000    0.000    2.333 
#    0.000    0.000    0.000    0.000    0.000    0.000 
#
# Total GULP energy -267807.658784 kJ/mol
# GULP energy per Si atom -5579.326225 kJ/mol
# Density = 1.578363 g / cm^3
# Si number density = 15.819637 Si / 1000 Ang^3
#
#
#
# Elastic Constant Matrix: (Units=GPa)
#
#
# Indices 1 2 3 4 5 6 
#
# 1 96.1085 73.2252 46.4061 0.0000 0.0000 0.0000
# 2 73.2252 135.6363 58.9716 0.0000 0.0000 0.0000
# 3 46.4061 58.9716 52.3949 0.0000 0.0000 0.0000
# 4 0.0000 0.0000 0.0000 29.9477 0.0000 0.0000
# 5 0.0000 0.0000 0.0000 0.0000 21.7582 0.0000
# 6 0.0000 0.0000 0.0000 0.0000 0.0000 22.5705
#
#
#
# Elastic Compliance Matrix: (Units=1/GPa)
#
#
# Indices 1 2 3 4 5 6 
#
# 1 0.020558 -0.006231 -0.011195 0.000000 0.000000 0.000000
# 2 -0.006231 0.016327 -0.012857 0.000000 0.000000 0.000000
# 3 -0.011195 -0.012857 0.043472 0.000000 0.000000 0.000000
# 4 0.000000 0.000000 0.000000 0.033392 0.000000 0.000000
# 5 0.000000 0.000000 0.000000 0.000000 0.045960 0.000000
# 6 0.000000 0.000000 0.000000 0.000000 0.000000 0.044306
#
#
# Mechanical properties :
#
#
# Convention : Reuss Voigt Hill
#
# Bulk Modulus (GPa) = 50.52943 71.26062 60.89502
# Shear Modulus (GPa) = 18.43825 21.89105 20.16465
#
# Velocity S-wave (km/s) = 3.41769 3.72397 3.57411
# Velocity P-wave (km/s) = 6.89815 7.97710 7.45716
#
# Compressibility (1/GPa) = 0.01979045
#
# Stress axis : x y z
#
# Youngs Moduli (GPa) = 48.64313 61.24979 23.00353
#
# Poissons Ratio (x) = 0.38167 0.25752
# Poissons Ratio (y) = 0.30311 0.29575
# Poissons Ratio (z) = 0.54454 0.78748
#
# Static dielectric constant tensor:
#      x y z
#    x 1.525560 0.000000 0.000000 
#    y 0.000000 1.502350 0.000000 
#    z 0.000000 0.000000 1.525700 
# 
# From -- ./inp_files/9113.got.cif
#   From: 2010.05.17/outbox.cif.g08.bks.cpg/sg57_5_cif.got.tgz:9113.got - 2010.06.03 13:58:18.
