data_PCOD9435519
_publ_section_title
;
Structure prediction by ZEFSAII (Michael W. Deem and Ramdas Pophale) SiO2 
 PCOD9435519
Probable space group: P B C M
;
_chemical_formula_sum "Si O2"
_cell_formula_units_Z 32
_cell_length_a 8.419295
_cell_length_b 14.856752
_cell_length_c 11.166174
_cell_angle_alpha 90.000000
_cell_angle_beta 90.000000
_cell_angle_gamma 90.000000
_cell_volume 1396.702761
_symmetry_space_group_name_H-M "P B C M"
_symmetry_group_IT_number 57
_symmetry_cell_setting 'orthorhombic'
loop_
_space_group_symop_operation_xyz
x,y,z
-x,-y,1/2+z
x,1/2-y,-z
-x,1/2+y,1/2-z
-x,-y,-z
x,y,1/2-z
-x,1/2+y,z
x,1/2-y,1/2+z
loop_
_atom_site_type_symbol
_atom_site_label
_atom_site_fract_x
_atom_site_fract_y
_atom_site_fract_z
Si Si1 0.966998 0.135305 0.250000
Si Si2 0.661643 0.921421 0.750000
Si Si3 0.667702 0.642677 0.506168
Si Si4 0.837241 0.334426 0.250000
Si Si5 0.036148 0.859769 0.005270
Si Si6 0.518236 0.385775 0.250000
O O1 0.154042 0.111062 0.250000
O O2 0.899110 0.104719 0.378012
O O3 0.945263 0.243968 0.250000
O O4 0.596663 0.888096 0.621351
O O5 0.626457 0.026123 0.750000
O O6 0.668848 0.750000 0.500000
O O7 0.851943 0.613749 0.513387
O O8 0.581019 0.616076 0.628291
O O9 0.652125 0.307635 0.250000
O O10 0.878129 0.385394 0.372788
O O11 0.046785 0.750000 0.000000
#
# Coordination Sequence:
#
# PCOD9435519 Si02
#       6
#     4   4   8   4   8   4
#     4   8  16  33  56  75 101 152 202 230 266 347
#     4  10  21  40  62  88 119 158 201 242 294 358
#     4  10  20  38  63  87 114 159 206 239 284 358
#     4  10  19  32  52  82 114 148 189 234 288 348
#     4   8  15  31  56  77  99 143 198 233 266 338
#     4  12  24  35  56  95 130 148 184 260 314 333
#
# _framework density 22.911104000000002
#
# number of rings (size 3 to 8) (size 9 to 14) (size 15 to 20)
#    0.000    2.500    0.000    3.750    0.000    5.000 
#    0.000    6.250    0.000    6.000    0.000    0.000 
#    0.000    0.000    0.000    0.000    0.000    0.000 
#
# Total GULP energy -178508.117998 kJ/mol
# GULP energy per Si atom -5578.378687 kJ/mol
# Density = 2.285896 g / cm^3
# Si number density = 22.911104 Si / 1000 Ang^3
#
#
#
# Elastic Constant Matrix: (Units=GPa)
#
#
# Indices 1 2 3 4 5 6 
#
# 1 34.8782 -4.4636 74.9730 0.0000 0.0000 0.0000
# 2 -4.4636 33.6821 19.7488 0.0000 0.0000 0.0000
# 3 74.9730 19.7488 320.9979 0.0000 0.0000 0.0000
# 4 0.0000 0.0000 0.0000 21.4373 0.0000 0.0000
# 5 0.0000 0.0000 0.0000 0.0000 2.8035 0.0000
# 6 0.0000 0.0000 0.0000 0.0000 0.0000 -8.4623
#
#
#
# Elastic Compliance Matrix: (Units=1/GPa)
#
#
# Indices 1 2 3 4 5 6 
#
# 1 0.067430 0.018850 -0.016909 0.000000 0.000000 0.000000
# 2 0.018850 0.036070 -0.006622 0.000000 0.000000 0.000000
# 3 -0.016909 -0.006622 0.007472 0.000000 0.000000 0.000000
# 4 0.000000 0.000000 0.000000 0.046648 0.000000 0.000000
# 5 0.000000 0.000000 0.000000 0.000000 0.356695 0.000000
# 6 0.000000 0.000000 0.000000 0.000000 0.000000 -0.118171
#
#
# Mechanical properties :
#
#
# Convention : Reuss Voigt Hill
#
# Bulk Modulus (GPa) = 9.84147 63.34162 36.59154
# Shear Modulus (GPa) = 11.37979 23.10904 17.24442
#
# Velocity S-wave (km/s) = 2.23108 3.17935 2.74645
# Velocity P-wave (km/s) = 3.30784 6.41751 5.10520
#
# Compressibility (1/GPa) = 0.10161084
#
# Stress axis : x y z
#
# Youngs Moduli (GPa) = 14.83013 27.72398 133.83385
#
# Poissons Ratio (x) = -0.52260 2.26298
# Poissons Ratio (y) = -0.27955 0.88622
# Poissons Ratio (z) = 0.25076 0.18358
#
# Static dielectric constant tensor:
#      x y z
#    x 1.850220 0.000000 0.000000 
#    y 0.000000 1.860470 0.000000 
#    z 0.000000 0.000000 1.909950 
# 
# From -- ./inp_files/11337.got.cif
#   From: 2010.05.17/outbox.cif.g08.bks.cpg/sg57_6_cif.got.tgz:11337.got - 2010.06.03 13:58:18.
