data_PCOD9435594
_publ_section_title
;
Structure prediction by ZEFSAII (Michael W. Deem and Ramdas Pophale) SiO2 
 PCOD9435594
Probable space group: P B C M
;
_chemical_formula_sum "Si O2"
_cell_formula_units_Z 48
_cell_length_a 7.540514
_cell_length_b 8.345989
_cell_length_c 31.270261
_cell_angle_alpha 90.000000
_cell_angle_beta 90.000000
_cell_angle_gamma 90.000000
_cell_volume 1967.932802
_symmetry_space_group_name_H-M "P B C M"
_symmetry_group_IT_number 57
_symmetry_cell_setting 'orthorhombic'
loop_
_space_group_symop_operation_xyz
x,y,z
-x,-y,1/2+z
x,1/2-y,-z
-x,1/2+y,1/2-z
-x,-y,-z
x,y,1/2-z
-x,1/2+y,z
x,1/2-y,1/2+z
loop_
_atom_site_type_symbol
_atom_site_label
_atom_site_fract_x
_atom_site_fract_y
_atom_site_fract_z
Si Si1 0.555581 0.194163 0.120621
Si Si2 0.267874 0.819584 0.298705
Si Si3 0.647367 0.484847 0.063374
Si Si4 0.840666 0.572782 0.613379
Si Si5 0.073631 0.368401 0.831828
Si Si6 0.270960 0.420622 0.020957
O O1 0.579858 0.270124 0.167505
O O2 0.655529 0.322258 0.090323
O O3 0.377117 0.136012 0.095921
O O4 0.665839 0.030647 0.122290
O O5 0.326905 0.808028 0.250000
O O6 0.100483 0.697740 0.306571
O O7 0.194379 0.000210 0.308081
O O8 0.452961 0.486715 0.040949
O O9 0.777038 0.483482 0.022358
O O10 0.842609 0.707865 0.649647
O O11 0.850115 0.601483 0.562648
O O12 0.004299 0.461024 0.626199
O O13 0.309487 0.250000 0.000000
#
# Coordination Sequence:
#
# PCOD9435594 Si02
#       6
#     8   8   8   8   8   8
#     4  10  21  35  58  83 111 147 188 232 288 331
#     4  10  20  36  61  87 108 140 183 228 278 345
#     4  10  20  35  54  80 112 150 186 236 277 320
#     4   9  20  35  57  82 111 152 187 231 279 334
#     4   9  19  38  59  80 117 146 179 229 290 331
#     4  10  19  32  56  82 108 147 202 225 262 330
#
# _framework density 24.391075000000001
#
# number of rings (size 3 to 8) (size 9 to 14) (size 15 to 20)
#    0.000    2.333    1.667    0.500    2.333    0.000 
#    0.000    2.500    0.000    0.000    0.000    0.000 
#    0.000    0.000    0.000    0.000    0.000    0.000 
#
# Total GULP energy -267732.879000 kJ/mol
# GULP energy per Si atom -5577.768312 kJ/mol
# Density = 2.433556 g / cm^3
# Si number density = 24.391075 Si / 1000 Ang^3
#
#
#
# Elastic Constant Matrix: (Units=GPa)
#
#
# Indices 1 2 3 4 5 6 
#
# 1 39.9843 6.6599 29.6370 0.0000 0.0000 0.0000
# 2 6.6599 87.0340 54.8925 0.0000 0.0000 0.0000
# 3 29.6370 54.8925 208.9017 0.0000 0.0000 0.0000
# 4 0.0000 0.0000 0.0000 26.3444 0.0000 0.0000
# 5 0.0000 0.0000 0.0000 0.0000 29.7632 0.0000
# 6 0.0000 0.0000 0.0000 0.0000 0.0000 31.5952
#
#
#
# Elastic Compliance Matrix: (Units=1/GPa)
#
#
# Indices 1 2 3 4 5 6 
#
# 1 0.027962 0.000434 -0.004081 0.000000 0.000000 0.000000
# 2 0.000434 0.013779 -0.003682 0.000000 0.000000 0.000000
# 3 -0.004081 -0.003682 0.006334 0.000000 0.000000 0.000000
# 4 0.000000 0.000000 0.000000 0.037959 0.000000 0.000000
# 5 0.000000 0.000000 0.000000 0.000000 0.033599 0.000000
# 6 0.000000 0.000000 0.000000 0.000000 0.000000 0.031650
#
#
# Mechanical properties :
#
#
# Convention : Reuss Voigt Hill
#
# Bulk Modulus (GPa) = 29.92521 57.58877 43.75699
# Shear Modulus (GPa) = 28.23586 33.85594 31.04590
#
# Velocity S-wave (km/s) = 3.40609 3.72969 3.57156
# Velocity P-wave (km/s) = 5.26917 6.49687 5.91496
#
# Compressibility (1/GPa) = 0.03341664
#
# Stress axis : x y z
#
# Youngs Moduli (GPa) = 35.76221 72.57448 157.89016
#
# Poissons Ratio (x) = -0.03152 0.64438
# Poissons Ratio (y) = -0.01553 0.58139
# Poissons Ratio (z) = 0.14595 0.26724
#
# Static dielectric constant tensor:
#      x y z
#    x 2.046460 0.000000 0.000000 
#    y 0.000000 2.019100 0.000000 
#    z 0.000000 0.000000 1.970740 
# 
# From -- ./inp_files/28508.got.cif
#   From: 2010.05.17/outbox.cif.g08.bks.cpg/sg57_15_cif.got.tgz:28508.got - 2010.06.03 13:58:18.
