data_PCOD9435078
_publ_section_title
;
Structure prediction by ZEFSAII (Michael W. Deem and Ramdas Pophale) SiO2 
 PCOD9435078
Probable space group: P B C M
;
_chemical_formula_sum "Si O2"
_cell_formula_units_Z 56
_cell_length_a 18.458930
_cell_length_b 22.674452
_cell_length_c 8.806583
_cell_angle_alpha 90.000000
_cell_angle_beta 90.000000
_cell_angle_gamma 90.000000
_cell_volume 3685.961165
_symmetry_space_group_name_H-M "P B C M"
_symmetry_group_IT_number 57
_symmetry_cell_setting 'orthorhombic'
loop_
_space_group_symop_operation_xyz
x,y,z
-x,-y,1/2+z
x,1/2-y,-z
-x,1/2+y,1/2-z
-x,-y,-z
x,y,1/2-z
-x,1/2+y,z
x,1/2-y,1/2+z
loop_
_atom_site_type_symbol
_atom_site_label
_atom_site_fract_x
_atom_site_fract_y
_atom_site_fract_z
Si Si1 0.876669 0.098533 0.567556
Si Si2 0.673045 0.966911 0.068178
Si Si3 0.481908 0.435558 0.432723
Si Si4 0.746387 0.315167 0.432564
Si Si5 0.625296 0.399644 0.567549
Si Si6 0.980805 0.935881 0.931991
Si Si7 0.173831 0.033348 0.067829
O O1 0.884210 0.096934 0.750000
O O2 0.819055 0.148457 0.526279
O O3 0.956109 0.105571 0.495715
O O4 0.844382 0.034424 0.520523
O O5 0.678578 0.966667 0.250000
O O6 0.602778 0.927639 0.027042
O O7 0.655213 0.034971 0.023133
O O8 0.749415 0.948690 0.999361
O O9 0.500000 0.500000 0.500000
O O10 0.488110 0.436623 0.250000
O O11 0.543789 0.394548 0.503040
O O12 0.748387 0.250000 0.500000
O O13 0.741437 0.313475 0.250000
O O14 0.678784 0.351459 0.499007
O O15 0.624060 0.396854 0.750000
O O16 0.985209 0.938178 0.750000
O O17 0.896425 0.927494 0.974280
O O18 0.000000 0.000000 0.000000
O O19 0.179180 0.033112 0.250000
#
# Coordination Sequence:
#
# PCOD9435078 Si02
#       7
#     8   8   8   8   8   8   8
#     4   9  18  31  44  60  83 114 148 184 225 263
#     4   9  17  26  40  63  88 115 148 179 213 261
#     4   9  17  28  41  61  86 115 149 183 220 264
#     4  11  22  35  49  66  88 116 153 194 230 267
#     4  10  19  31  45  63  85 115 152 186 226 268
#     4   9  17  27  40  60  84 113 147 180 216 263
#     4   9  16  26  40  61  87 115 146 177 216 260
#
# _framework density 15.192781
#
# number of rings (size 3 to 8) (size 9 to 14) (size 15 to 20)
#    0.000    2.571    1.429    3.429    0.000    6.857 
#    0.000    0.000    0.000    0.000    0.000    0.000 
#    0.000    1.143    0.000   10.286    0.000    7.714 
#
# Total GULP energy -311815.945518 kJ/mol
# GULP energy per Si atom -5568.141884 kJ/mol
# Density = 1.515820 g / cm^3
# Si number density = 15.192781 Si / 1000 Ang^3
#
#
#
# Elastic Constant Matrix: (Units=GPa)
#
#
# Indices 1 2 3 4 5 6 
#
# 1 186.8632 49.1974 50.7893 0.0000 0.0000 0.0000
# 2 49.1974 48.7237 23.2093 0.0000 0.0000 0.0000
# 3 50.7893 23.2093 37.7366 0.0000 0.0000 0.0000
# 4 0.0000 0.0000 0.0000 15.6265 0.0000 0.0000
# 5 0.0000 0.0000 0.0000 0.0000 31.4520 0.0000
# 6 0.0000 0.0000 0.0000 0.0000 0.0000 13.1865
#
#
#
# Elastic Compliance Matrix: (Units=1/GPa)
#
#
# Indices 1 2 3 4 5 6 
#
# 1 0.009162 -0.004777 -0.009394 0.000000 0.000000 0.000000
# 2 -0.004777 0.031519 -0.012956 0.000000 0.000000 0.000000
# 3 -0.009394 -0.012956 0.047111 0.000000 0.000000 0.000000
# 4 0.000000 0.000000 0.000000 0.063994 0.000000 0.000000
# 5 0.000000 0.000000 0.000000 0.000000 0.031794 0.000000
# 6 0.000000 0.000000 0.000000 0.000000 0.000000 0.075835
#
#
# Mechanical properties :
#
#
# Convention : Reuss Voigt Hill
#
# Bulk Modulus (GPa) = 29.81623 57.74618 43.78121
# Shear Modulus (GPa) = 15.39184 22.06150 18.72667
#
# Velocity S-wave (km/s) = 3.18638 3.81478 3.51465
# Velocity P-wave (km/s) = 5.76240 7.58254 6.73425
#
# Compressibility (1/GPa) = 0.03353878
#
# Stress axis : x y z
#
# Youngs Moduli (GPa) = 109.14278 31.72721 21.22666
#
# Poissons Ratio (x) = 0.15156 0.19939
# Poissons Ratio (y) = 0.52136 0.27501
# Poissons Ratio (z) = 1.02524 0.41106
#
# Static dielectric constant tensor:
#      x y z
#    x 1.551520 0.000000 0.000000 
#    y 0.000000 1.481590 0.000000 
#    z 0.000000 0.000000 1.507520 
# 
# From -- ./inp_files/7302.got.cif
#   From: 2010.05.17/outbox.cif.g08.bks.cpg/sg57_4_cif.got.tgz:7302.got - 2010.06.03 13:58:18.
