data_PCOD9435042
_publ_section_title
;
Structure prediction by ZEFSAII (Michael W. Deem and Ramdas Pophale) SiO2 
 PCOD9435042
Probable space group: P B C M
;
_chemical_formula_sum "Si O2"
_cell_formula_units_Z 64
_cell_length_a 12.935700
_cell_length_b 12.363709
_cell_length_c 20.938319
_cell_angle_alpha 90.000000
_cell_angle_beta 90.000000
_cell_angle_gamma 90.000000
_cell_volume 3348.732999
_symmetry_space_group_name_H-M "P B C M"
_symmetry_group_IT_number 57
_symmetry_cell_setting 'orthorhombic'
loop_
_space_group_symop_operation_xyz
x,y,z
-x,-y,1/2+z
x,1/2-y,-z
-x,1/2+y,1/2-z
-x,-y,-z
x,y,1/2-z
-x,1/2+y,z
x,1/2-y,1/2+z
loop_
_atom_site_type_symbol
_atom_site_label
_atom_site_fract_x
_atom_site_fract_y
_atom_site_fract_z
Si Si1 0.073269 0.364834 0.100556
Si Si2 0.004858 0.827789 0.822650
Si Si3 0.205246 0.539975 0.324729
Si Si4 0.393880 0.823511 0.827261
Si Si5 0.887815 0.001628 0.587621
Si Si6 0.629987 0.865675 0.675962
Si Si7 0.281300 0.603565 0.676023
Si Si8 0.233267 0.307555 0.556198
O O1 0.017360 0.292928 0.154798
O O2 0.151485 0.448425 0.133365
O O3 0.139917 0.277019 0.063905
O O4 0.982687 0.426445 0.062292
O O5 0.970849 0.842823 0.750000
O O6 0.942334 0.913908 0.865509
O O7 0.125220 0.859264 0.826974
O O8 0.211770 0.506410 0.250000
O O9 0.315962 0.581710 0.348358
O O10 0.390700 0.826975 0.750000
O O11 0.512991 0.839428 0.844080
O O12 0.346398 0.707642 0.845258
O O13 0.813336 0.076971 0.629657
O O14 0.814507 0.927019 0.543542
O O15 0.647506 0.829604 0.750000
O O16 0.707516 0.816157 0.623720
O O17 0.649571 0.994615 0.675303
O O18 0.247458 0.619800 0.750000
O O19 0.298042 0.250000 0.500000
#
# Coordination Sequence:
#
# PCOD9435042 Si02
#       8
#     8   8   8   8   8   8   8   8
#     4  10  19  30  48  72 100 134 169 208 248 293
#     4   9  16  26  42  71 110 143 169 202 249 303
#     4   9  17  27  43  73 108 137 168 207 253 303
#     4   9  17  29  48  75 104 134 171 215 258 298
#     4   9  18  31  48  71  99 135 174 204 244 307
#     4   9  19  35  54  76 100 130 173 216 253 300
#     4   9  16  28  48  73 104 139 169 205 254 302
#     4  10  22  38  55  75 100 133 171 208 251 306
#
# _framework density 19.111705000000001
#
# number of rings (size 3 to 8) (size 9 to 14) (size 15 to 20)
#    0.000    2.750    0.000    1.500    0.000    7.500 
#    0.000    2.500    0.000    6.750    0.000    3.500 
#    0.000    0.000    0.000    0.000    0.000    0.000 
#
# Total GULP energy -356684.396818 kJ/mol
# GULP energy per Si atom -5573.193700 kJ/mol
# Density = 1.906821 g / cm^3
# Si number density = 19.111705 Si / 1000 Ang^3
#
#
#
# Elastic Constant Matrix: (Units=GPa)
#
#
# Indices 1 2 3 4 5 6 
#
# 1 100.5044 42.4818 17.7330 0.0000 0.0000 0.0000
# 2 42.4818 81.4146 19.3866 0.0000 0.0000 0.0000
# 3 17.7330 19.3866 26.1281 0.0000 0.0000 0.0000
# 4 0.0000 0.0000 0.0000 12.2652 0.0000 0.0000
# 5 0.0000 0.0000 0.0000 0.0000 6.1297 0.0000
# 6 0.0000 0.0000 0.0000 0.0000 0.0000 23.3516
#
#
#
# Elastic Compliance Matrix: (Units=1/GPa)
#
#
# Indices 1 2 3 4 5 6 
#
# 1 0.013220 -0.005784 -0.004681 0.000000 0.000000 0.000000
# 2 -0.005784 0.017449 -0.009021 0.000000 0.000000 0.000000
# 3 -0.004681 -0.009021 0.048144 0.000000 0.000000 0.000000
# 4 0.000000 0.000000 0.000000 0.081532 0.000000 0.000000
# 5 0.000000 0.000000 0.000000 0.000000 0.163141 0.000000
# 6 0.000000 0.000000 0.000000 0.000000 0.000000 0.042824
#
#
# Mechanical properties :
#
#
# Convention : Reuss Voigt Hill
#
# Bulk Modulus (GPa) = 25.10012 40.80553 32.95282
# Shear Modulus (GPa) = 11.94566 16.91234 14.42900
#
# Velocity S-wave (km/s) = 2.50280 2.97799 2.75068
# Velocity P-wave (km/s) = 4.63831 5.76385 5.23144
#
# Compressibility (1/GPa) = 0.03984045
#
# Stress axis : x y z
#
# Youngs Moduli (GPa) = 75.64042 57.31018 20.77111
#
# Poissons Ratio (x) = 0.33146 0.09723
# Poissons Ratio (y) = 0.43748 0.18739
# Poissons Ratio (z) = 0.35409 0.51702
#
# Static dielectric constant tensor:
#      x y z
#    x 1.686730 0.000000 0.000000 
#    y 0.000000 1.676610 0.000000 
#    z 0.000000 0.000000 1.699870 
# 
# From -- ./inp_files/27278.got.cif
#   From: 2010.05.17/outbox.cif.g08.bks.cpg/sg57_14_cif.got.tgz:27278.got - 2010.06.03 13:58:18.
