data_PCOD9435178
_publ_section_title
;
Structure prediction by ZEFSAII (Michael W. Deem and Ramdas Pophale) SiO2 
 PCOD9435178
Probable space group: P B C M
;
_chemical_formula_sum "Si O2"
_cell_formula_units_Z 64
_cell_length_a 23.251517
_cell_length_b 16.041718
_cell_length_c 9.268097
_cell_angle_alpha 90.000000
_cell_angle_beta 90.000000
_cell_angle_gamma 90.000000
_cell_volume 3456.947156
_symmetry_space_group_name_H-M "P B C M"
_symmetry_group_IT_number 57
_symmetry_cell_setting 'orthorhombic'
loop_
_space_group_symop_operation_xyz
x,y,z
-x,-y,1/2+z
x,1/2-y,-z
-x,1/2+y,1/2-z
-x,-y,-z
x,y,1/2-z
-x,1/2+y,z
x,1/2-y,1/2+z
loop_
_atom_site_type_symbol
_atom_site_label
_atom_site_fract_x
_atom_site_fract_y
_atom_site_fract_z
Si Si1 0.054493 0.665203 0.920484
Si Si2 0.311894 0.167720 0.079241
Si Si3 0.637912 0.413269 0.584757
Si Si4 0.583795 0.597465 0.913828
Si Si5 0.916597 0.664086 0.578873
Si Si6 0.740631 0.487948 0.420250
Si Si7 0.874768 0.497836 0.077579
Si Si8 0.535465 0.332463 0.079574
O O1 0.065835 0.674573 0.750000
O O2 0.086156 0.580666 0.968822
O O3 0.985799 0.656421 0.939887
O O4 0.072843 0.750000 0.000000
O O5 0.311469 0.179841 0.250000
O O6 0.275816 0.084122 0.044995
O O7 0.289794 0.250000 0.000000
O O8 0.376253 0.148793 0.022286
O O9 0.642060 0.384562 0.750000
O O10 0.607148 0.503758 0.583655
O O11 0.699696 0.428613 0.513131
O O12 0.595660 0.357022 0.491090
O O13 0.592239 0.630285 0.750000
O O14 0.516159 0.602096 0.944674
O O15 0.898711 0.750000 0.500000
O O16 0.904405 0.668387 0.750000
O O17 0.889400 0.582372 0.506700
O O18 0.727762 0.476298 0.250000
O O19 0.807967 0.475569 0.443989
O O20 0.883813 0.511540 0.250000
O O21 0.542230 0.320451 0.250000
O O22 0.514399 0.250000 0.000000
#
# Coordination Sequence:
#
# PCOD9435178 Si02
#       8
#     8   8   8   8   8   8   8   8
#     4   9  19  35  56  82 112 145 181 225 275 326
#     4  10  19  31  49  72 100 135 171 210 258 310
#     4  10  20  36  56  76 100 132 170 210 255 307
#     4   9  19  34  53  77 102 129 163 205 253 310
#     4  10  20  34  54  83 117 150 182 219 268 326
#     4   9  20  37  54  73 101 139 179 218 261 309
#     4  10  20  36  57  81 110 145 186 231 276 320
#     4  11  22  35  52  76 104 131 163 206 257 310
#
# _framework density 18.513445999999998
#
# number of rings (size 3 to 8) (size 9 to 14) (size 15 to 20)
#    0.000    2.250    0.000    2.625    0.000    5.000 
#    0.000    1.875    0.000    1.500    0.000    0.000 
#    0.000    0.000    0.000    0.000    0.000    0.000 
#
# Total GULP energy -357146.550616 kJ/mol
# GULP energy per Si atom -5580.414853 kJ/mol
# Density = 1.847131 g / cm^3
# Si number density = 18.513446 Si / 1000 Ang^3
#
#
#
# Elastic Constant Matrix: (Units=GPa)
#
#
# Indices 1 2 3 4 5 6 
#
# 1 46.6570 19.3711 32.6542 0.0000 0.0000 0.0000
# 2 19.3711 50.4043 25.9654 0.0000 0.0000 0.0000
# 3 32.6542 25.9654 62.5803 0.0000 0.0000 0.0000
# 4 0.0000 0.0000 0.0000 32.6691 0.0000 0.0000
# 5 0.0000 0.0000 0.0000 0.0000 23.5959 0.0000
# 6 0.0000 0.0000 0.0000 0.0000 0.0000 9.4092
#
#
#
# Elastic Compliance Matrix: (Units=1/GPa)
#
#
# Indices 1 2 3 4 5 6 
#
# 1 0.034767 -0.005108 -0.016022 0.000000 0.000000 0.000000
# 2 -0.005108 0.025983 -0.008116 0.000000 0.000000 0.000000
# 3 -0.016022 -0.008116 0.027707 0.000000 0.000000 0.000000
# 4 0.000000 0.000000 0.000000 0.030610 0.000000 0.000000
# 5 0.000000 0.000000 0.000000 0.000000 0.042380 0.000000
# 6 0.000000 0.000000 0.000000 0.000000 0.000000 0.106279
#
#
# Mechanical properties :
#
#
# Convention : Reuss Voigt Hill
#
# Bulk Modulus (GPa) = 33.37063 35.06922 34.21993
# Shear Modulus (GPa) = 14.87182 18.57823 16.72503
#
# Velocity S-wave (km/s) = 2.83733 3.17124 3.00892
# Velocity P-wave (km/s) = 5.36639 5.69146 5.53131
#
# Compressibility (1/GPa) = 0.02996647
#
# Stress axis : x y z
#
# Youngs Moduli (GPa) = 28.76268 38.48631 36.09199
#
# Poissons Ratio (x) = 0.19658 0.57827
# Poissons Ratio (y) = 0.14692 0.29290
# Poissons Ratio (z) = 0.46084 0.31234
#
# Static dielectric constant tensor:
#      x y z
#    x 1.630580 0.000000 0.000000 
#    y 0.000000 1.645400 0.000000 
#    z 0.000000 0.000000 1.627150 
# 
# From -- ./inp_files/9516.got.cif
#   From: 2010.05.17/outbox.cif.g08.bks.cpg/sg57_5_cif.got.tgz:9516.got - 2010.06.03 13:58:18.
