data_PCOD9435228
_publ_section_title
;
Structure prediction by ZEFSAII (Michael W. Deem and Ramdas Pophale) SiO2 
 PCOD9435228
Probable space group: P B C M
;
_chemical_formula_sum "Si O2"
_cell_formula_units_Z 64
_cell_length_a 15.779083
_cell_length_b 24.859262
_cell_length_c 8.675463
_cell_angle_alpha 90.000000
_cell_angle_beta 90.000000
_cell_angle_gamma 90.000000
_cell_volume 3403.005524
_symmetry_space_group_name_H-M "P B C M"
_symmetry_group_IT_number 57
_symmetry_cell_setting 'orthorhombic'
loop_
_space_group_symop_operation_xyz
x,y,z
-x,-y,1/2+z
x,1/2-y,-z
-x,1/2+y,1/2-z
-x,-y,-z
x,y,1/2-z
-x,1/2+y,z
x,1/2-y,1/2+z
loop_
_atom_site_type_symbol
_atom_site_label
_atom_site_fract_x
_atom_site_fract_y
_atom_site_fract_z
Si Si1 0.250250 0.501369 0.571622
Si Si2 0.769162 0.616224 0.566204
Si Si3 0.923517 0.807889 0.434830
Si Si4 0.722447 0.379978 0.435122
Si Si5 0.621748 0.690041 0.434221
Si Si6 0.097297 0.653445 0.075204
Si Si7 0.078670 0.528343 0.425705
Si Si8 0.429737 0.810214 0.565461
O O1 0.273314 0.494782 0.750000
O O2 0.254450 0.443530 0.491510
O O3 0.290614 0.557559 0.511265
O O4 0.152916 0.516773 0.545110
O O5 0.772448 0.614880 0.750000
O O6 0.858765 0.644029 0.514441
O O7 0.694058 0.654304 0.508815
O O8 0.894153 0.750000 0.500000
O O9 0.921764 0.806142 0.250000
O O10 0.020676 0.816834 0.489017
O O11 0.729502 0.381159 0.250000
O O12 0.809164 0.352819 0.500201
O O13 0.642256 0.346254 0.489701
O O14 0.628632 0.750000 0.500000
O O15 0.631777 0.690994 0.250000
O O16 0.525775 0.670713 0.468853
O O17 0.105983 0.674606 0.250000
O O18 0.066331 0.591817 0.082769
O O19 0.097993 0.509403 0.250000
O O20 0.000000 0.500000 0.500000
O O21 0.422395 0.750000 0.500000
O O22 0.419179 0.809291 0.750000
#
# Coordination Sequence:
#
# PCOD9435228 Si02
#       8
#     8   8   8   8   8   8   8   8
#     4  10  21  36  55  80 112 149 189 234 283 337
#     4  11  23  38  59  85 114 151 193 238 287 341
#     4  11  24  39  55  79 111 147 189 236 285 338
#     4  10  21  38  60  86 117 152 190 235 284 336
#     4  10  21  38  61  88 117 148 187 235 286 341
#     4  10  21  36  54  77 107 144 183 224 272 326
#     4  10  19  31  50  75 103 138 181 227 273 322
#     4  10  21  38  62  90 117 147 185 231 282 339
#
# _framework density 18.806906000000001
#
# number of rings (size 3 to 8) (size 9 to 14) (size 15 to 20)
#    0.000    1.750    0.000    4.125    0.000   10.000 
#    0.000    3.125    0.000    0.000    0.000    0.000 
#    0.000    0.000    0.000    0.000    0.000    0.000 
#
# Total GULP energy -356892.830082 kJ/mol
# GULP energy per Si atom -5576.450470 kJ/mol
# Density = 1.876410 g / cm^3
# Si number density = 18.806906 Si / 1000 Ang^3
#
#
#
# Elastic Constant Matrix: (Units=GPa)
#
#
# Indices 1 2 3 4 5 6 
#
# 1 82.2630 58.5208 28.5924 0.0000 0.0000 0.0000
# 2 58.5208 82.3236 27.1933 0.0000 0.0000 0.0000
# 3 28.5924 27.1933 58.3617 0.0000 0.0000 0.0000
# 4 0.0000 0.0000 0.0000 32.4225 0.0000 0.0000
# 5 0.0000 0.0000 0.0000 0.0000 22.3515 0.0000
# 6 0.0000 0.0000 0.0000 0.0000 0.0000 22.8885
#
#
#
# Elastic Compliance Matrix: (Units=1/GPa)
#
#
# Indices 1 2 3 4 5 6 
#
# 1 0.025690 -0.016670 -0.004819 0.000000 0.000000 0.000000
# 2 -0.016670 0.025174 -0.003563 0.000000 0.000000 0.000000
# 3 -0.004819 -0.003563 0.021155 0.000000 0.000000 0.000000
# 4 0.000000 0.000000 0.000000 0.030843 0.000000 0.000000
# 5 0.000000 0.000000 0.000000 0.000000 0.044740 0.000000
# 6 0.000000 0.000000 0.000000 0.000000 0.000000 0.043690
#
#
# Mechanical properties :
#
#
# Convention : Reuss Voigt Hill
#
# Bulk Modulus (GPa) = 45.62806 50.17347 47.90077
# Shear Modulus (GPa) = 20.10445 22.77528 21.43987
#
# Velocity S-wave (km/s) = 3.27309 3.48373 3.38005
# Velocity P-wave (km/s) = 6.21274 6.55118 6.38420
#
# Compressibility (1/GPa) = 0.02191634
#
# Stress axis : x y z
#
# Youngs Moduli (GPa) = 38.92559 39.72286 47.26957
#
# Poissons Ratio (x) = 0.66220 0.22777
# Poissons Ratio (y) = 0.64891 0.16841
# Poissons Ratio (z) = 0.18756 0.14152
#
# Static dielectric constant tensor:
#      x y z
#    x 1.673360 0.000000 0.000000 
#    y 0.000000 1.890500 0.000000 
#    z 0.000000 0.000000 1.593450 
# 
# From -- ./inp_files/5742.got.cif
#   From: 2010.05.17/outbox.cif.g08.bks.cpg/sg57_3_cif.got.tgz:5742.got - 2010.06.03 13:58:18.
