data_PCOD9435850
_publ_section_title
;
Structure prediction by ZEFSAII (Michael W. Deem and Ramdas Pophale) SiO2 
 PCOD9435850
Probable space group: P B C M
;
_chemical_formula_sum "Si O2"
_cell_formula_units_Z 64
_cell_length_a 15.028076
_cell_length_b 9.965105
_cell_length_c 22.446303
_cell_angle_alpha 90.000000
_cell_angle_beta 90.000000
_cell_angle_gamma 90.000000
_cell_volume 3361.476527
_symmetry_space_group_name_H-M "P B C M"
_symmetry_group_IT_number 57
_symmetry_cell_setting 'orthorhombic'
loop_
_space_group_symop_operation_xyz
x,y,z
-x,-y,1/2+z
x,1/2-y,-z
-x,1/2+y,1/2-z
-x,-y,-z
x,y,1/2-z
-x,1/2+y,z
x,1/2-y,1/2+z
loop_
_atom_site_type_symbol
_atom_site_label
_atom_site_fract_x
_atom_site_fract_y
_atom_site_fract_z
Si Si1 0.042298 0.833047 0.386823
Si Si2 0.526988 0.010313 0.394451
Si Si3 0.397960 0.607679 0.507974
Si Si4 0.430335 0.241642 0.321261
Si Si5 0.207860 0.933523 0.451941
Si Si6 0.769100 0.688302 0.363820
Si Si7 0.046176 0.398673 0.683545
Si Si8 0.137998 0.372088 0.046967
O O1 0.134777 0.839595 0.421670
O O2 0.013341 0.690134 0.360951
O O3 0.961552 0.881428 0.428544
O O4 0.047950 0.946633 0.335863
O O5 0.604776 0.044213 0.442052
O O6 0.493976 0.131663 0.352933
O O7 0.449115 0.978292 0.442510
O O8 0.549222 0.882797 0.353775
O O9 0.447023 0.750000 0.500000
O O10 0.301411 0.632275 0.534690
O O11 0.444590 0.247818 0.250000
O O12 0.327183 0.202976 0.334408
O O13 0.227797 0.060953 0.408697
O O14 0.168434 0.997063 0.512140
O O15 0.853448 0.659206 0.321418
O O16 0.796124 0.821186 0.401106
O O17 0.011979 0.384209 0.750000
O O18 0.137792 0.250000 0.000000
#
# Coordination Sequence:
#
# PCOD9435850 Si02
#       8
#     8   8   8   8   8   8   8   8
#     4  10  21  34  55  84 116 150 195 237 284 353
#     4  11  24  41  61  92 117 152 205 241 314 361
#     4  11  22  38  61  86 121 155 192 258 296 368
#     4  12  23  41  65  88 122 157 197 250 299 365
#     4  10  19  33  55  85 116 152 189 235 299 349
#     4   9  19  35  57  86 111 149 202 236 285 353
#     4  10  20  37  57  80 112 154 200 243 279 329
#     4   9  18  33  54  84 119 151 185 236 286 346
#
# _framework density 19.039252999999999
#
# number of rings (size 3 to 8) (size 9 to 14) (size 15 to 20)
#    0.000    1.750    2.500    3.000    0.000    1.500 
#    0.000    0.000    0.000    0.000    0.000    0.000 
#    0.000    0.000    0.000    0.000    0.000    0.000 
#
# Total GULP energy -357111.674701 kJ/mol
# GULP energy per Si atom -5579.869917 kJ/mol
# Density = 1.899592 g / cm^3
# Si number density = 19.039253 Si / 1000 Ang^3
#
#
#
# Elastic Constant Matrix: (Units=GPa)
#
#
# Indices 1 2 3 4 5 6 
#
# 1 59.7372 3.1016 8.3333 0.0000 0.0000 0.0000
# 2 3.1016 62.0637 18.5155 0.0000 0.0000 0.0000
# 3 8.3333 18.5155 92.6382 0.0000 0.0000 0.0000
# 4 0.0000 0.0000 0.0000 20.8337 0.0000 0.0000
# 5 0.0000 0.0000 0.0000 0.0000 11.8780 0.0000
# 6 0.0000 0.0000 0.0000 0.0000 0.0000 19.9045
#
#
#
# Elastic Compliance Matrix: (Units=1/GPa)
#
#
# Indices 1 2 3 4 5 6 
#
# 1 0.016963 -0.000417 -0.001442 0.000000 0.000000 0.000000
# 2 -0.000417 0.017144 -0.003389 0.000000 0.000000 0.000000
# 3 -0.001442 -0.003389 0.011602 0.000000 0.000000 0.000000
# 4 0.000000 0.000000 0.000000 0.047999 0.000000 0.000000
# 5 0.000000 0.000000 0.000000 0.000000 0.084189 0.000000
# 6 0.000000 0.000000 0.000000 0.000000 0.000000 0.050240
#
#
# Mechanical properties :
#
#
# Convention : Reuss Voigt Hill
#
# Bulk Modulus (GPa) = 28.40005 30.48221 29.44113
# Shear Modulus (GPa) = 19.97024 22.82248 21.39636
#
# Velocity S-wave (km/s) = 3.24218 3.46599 3.35595
# Velocity P-wave (km/s) = 5.38188 5.66237 5.52390
#
# Compressibility (1/GPa) = 0.03521121
#
# Stress axis : x y z
#
# Youngs Moduli (GPa) = 58.95224 58.32808 86.19343
#
# Poissons Ratio (x) = 0.02434 0.12433
# Poissons Ratio (y) = 0.02461 0.29212
# Poissons Ratio (z) = 0.08504 0.19768
#
# Static dielectric constant tensor:
#      x y z
#    x 1.660190 0.000000 0.000000 
#    y 0.000000 1.665480 0.000000 
#    z 0.000000 0.000000 1.664740 
# 
# From -- ./inp_files/27459.got.cif
#   From: 2010.05.17/outbox.cif.g08.bks.cpg/sg57_14_cif.got.tgz:27459.got - 2010.06.03 13:58:18.
