data_PCOD9435426
_publ_section_title
;
Structure prediction by ZEFSAII (Michael W. Deem and Ramdas Pophale) SiO2 
 PCOD9435426
Probable space group: P B C M
;
_chemical_formula_sum "Si O2"
_cell_formula_units_Z 56
_cell_length_a 17.143276
_cell_length_b 21.836943
_cell_length_c 9.136889
_cell_angle_alpha 90.000000
_cell_angle_beta 90.000000
_cell_angle_gamma 90.000000
_cell_volume 3420.455988
_symmetry_space_group_name_H-M "P B C M"
_symmetry_group_IT_number 57
_symmetry_cell_setting 'orthorhombic'
loop_
_space_group_symop_operation_xyz
x,y,z
-x,-y,1/2+z
x,1/2-y,-z
-x,1/2+y,1/2-z
-x,-y,-z
x,y,1/2-z
-x,1/2+y,z
x,1/2-y,1/2+z
loop_
_atom_site_type_symbol
_atom_site_label
_atom_site_fract_x
_atom_site_fract_y
_atom_site_fract_z
Si Si1 0.116920 0.466192 0.078053
Si Si2 0.136304 0.684698 0.575356
Si Si3 0.023285 0.594039 0.079507
Si Si4 0.707527 0.992571 0.074723
Si Si5 0.539200 0.185718 0.926133
Si Si6 0.542714 0.941879 0.425737
Si Si7 0.300797 0.877053 0.074785
O O1 0.113916 0.448852 0.250000
O O2 0.078061 0.533602 0.066626
O O3 0.206787 0.469455 0.029196
O O4 0.061296 0.423242 0.982837
O O5 0.136687 0.750000 0.500000
O O6 0.133094 0.690105 0.750000
O O7 0.064512 0.645675 0.515247
O O8 0.216939 0.650474 0.536017
O O9 0.019721 0.610691 0.250000
O O10 0.711214 0.001273 0.250000
O O11 0.634810 0.948452 0.042783
O O12 0.690003 0.057676 0.001458
O O13 0.533253 0.192020 0.750000
O O14 0.490770 0.124605 0.969550
O O15 0.628710 0.168363 0.964385
O O16 0.516933 0.250000 0.000000
O O17 0.531214 0.947174 0.250000
O O18 0.500000 0.000000 0.500000
O O19 0.304029 0.885862 0.250000
#
# Coordination Sequence:
#
# PCOD9435426 Si02
#       7
#     8   8   8   8   8   8   8
#     4   9  18  32  50  74 102 131 166 209 258 307
#     4  11  22  34  50  73 105 142 176 210 256 308
#     4  10  19  32  51  74 100 132 172 211 252 306
#     4  10  19  32  53  79 106 138 173 214 265 316
#     4  10  21  36  52  75 106 141 180 219 260 313
#     4  10  20  34  54  79 107 138 177 222 268 319
#     4  10  20  33  50  75 107 140 173 213 259 312
#
# _framework density 16.372085999999999
#
# number of rings (size 3 to 8) (size 9 to 14) (size 15 to 20)
#    0.000    2.000    2.857    1.286    0.000    2.857 
#    0.000    0.000    0.000    0.857    0.000    2.000 
#    0.000    0.000    0.000    0.000    0.000    0.000 
#
# Total GULP energy -312395.908393 kJ/mol
# GULP energy per Si atom -5578.498364 kJ/mol
# Density = 1.633482 g / cm^3
# Si number density = 16.372086 Si / 1000 Ang^3
#
#
#
# Elastic Constant Matrix: (Units=GPa)
#
#
# Indices 1 2 3 4 5 6 
#
# 1 107.8314 52.7039 28.9850 0.0000 0.0000 0.0000
# 2 52.7039 108.3773 38.2130 0.0000 0.0000 0.0000
# 3 28.9850 38.2130 29.4904 0.0000 0.0000 0.0000
# 4 0.0000 0.0000 0.0000 30.6354 0.0000 0.0000
# 5 0.0000 0.0000 0.0000 0.0000 17.8868 0.0000
# 6 0.0000 0.0000 0.0000 0.0000 0.0000 18.0967
#
#
#
# Elastic Compliance Matrix: (Units=1/GPa)
#
#
# Indices 1 2 3 4 5 6 
#
# 1 0.013255 -0.003411 -0.008608 0.000000 0.000000 0.000000
# 2 -0.003411 0.017867 -0.019799 0.000000 0.000000 0.000000
# 3 -0.008608 -0.019799 0.068025 0.000000 0.000000 0.000000
# 4 0.000000 0.000000 0.000000 0.032642 0.000000 0.000000
# 5 0.000000 0.000000 0.000000 0.000000 0.055907 0.000000
# 6 0.000000 0.000000 0.000000 0.000000 0.000000 0.055259
#
#
# Mechanical properties :
#
#
# Convention : Reuss Voigt Hill
#
# Bulk Modulus (GPa) = 28.16042 53.94478 41.05260
# Shear Modulus (GPa) = 15.70224 21.71026 18.70625
#
# Velocity S-wave (km/s) = 3.10027 3.64545 3.38386
# Velocity P-wave (km/s) = 5.48208 7.12319 6.35583
#
# Compressibility (1/GPa) = 0.03551084
#
# Stress axis : x y z
#
# Youngs Moduli (GPa) = 75.44592 55.97053 14.70049
#
# Poissons Ratio (x) = 0.19089 0.12654
# Poissons Ratio (y) = 0.25731 0.29105
# Poissons Ratio (z) = 0.64944 1.10816
#
# Static dielectric constant tensor:
#      x y z
#    x 1.564640 0.000000 0.000000 
#    y 0.000000 1.526640 0.000000 
#    z 0.000000 0.000000 1.543840 
# 
# From -- ./inp_files/6989.got.cif
#   From: 2010.05.17/outbox.cif.g08.bks.cpg/sg57_4_cif.got.tgz:6989.got - 2010.06.03 13:58:18.
