data_PCOD9435142
_publ_section_title
;
Structure prediction by ZEFSAII (Michael W. Deem and Ramdas Pophale) SiO2 
 PCOD9435142
Probable space group: P B C M
;
_chemical_formula_sum "Si O2"
_cell_formula_units_Z 40
_cell_length_a 27.607947
_cell_length_b 9.248975
_cell_length_c 8.498912
_cell_angle_alpha 90.000000
_cell_angle_beta 90.000000
_cell_angle_gamma 90.000000
_cell_volume 2170.156483
_symmetry_space_group_name_H-M "P B C M"
_symmetry_group_IT_number 57
_symmetry_cell_setting 'orthorhombic'
loop_
_space_group_symop_operation_xyz
x,y,z
-x,-y,1/2+z
x,1/2-y,-z
-x,1/2+y,1/2-z
-x,-y,-z
x,y,1/2-z
-x,1/2+y,z
x,1/2-y,1/2+z
loop_
_atom_site_type_symbol
_atom_site_label
_atom_site_fract_x
_atom_site_fract_y
_atom_site_fract_z
Si Si1 0.453755 0.587271 0.062716
Si Si2 0.744745 0.584680 0.060064
Si Si3 0.954001 0.913946 0.561343
Si Si4 0.151270 0.415692 0.940158
Si Si5 0.638612 0.915083 0.939469
O O1 0.455141 0.588339 0.250000
O O2 0.455363 0.750000 0.000000
O O3 0.500000 0.500000 0.000000
O O4 0.404920 0.509144 0.005818
O O5 0.744785 0.585803 0.250000
O O6 0.796703 0.519539 0.008045
O O7 0.692076 0.526344 0.011323
O O8 0.744956 0.750000 0.000000
O O9 0.956618 0.750000 0.500000
O O10 0.955141 0.912832 0.750000
O O11 0.901135 0.976358 0.509992
O O12 0.000000 0.000000 0.500000
O O13 0.151362 0.414469 0.750000
O O14 0.151293 0.250000 0.000000
O O15 0.636095 0.913607 0.750000
O O16 0.634358 0.750000 0.000000
#
# Coordination Sequence:
#
# PCOD9435142 Si02
#       5
#     8   8   8   8   8
#     4  12  25  42  61  82 108 139 175 214 255 300
#     4   8  14  25  44  70 100 130 163 202 246 294
#     4  10  19  31  48  70  98 130 168 211 258 307
#     4   8  14  25  42  66  94 126 162 204 249 296
#     4  10  19  33  54  82 112 141 171 207 251 301
#
# _framework density 18.431851000000002
#
# number of rings (size 3 to 8) (size 9 to 14) (size 15 to 20)
#    0.000    2.400    0.000    3.600    0.000    1.600 
#    0.000    0.000    0.000    1.200    0.000    0.000 
#    0.000    0.000    0.000    0.000    0.000    0.000 
#
# Total GULP energy -222780.807834 kJ/mol
# GULP energy per Si atom -5569.520196 kJ/mol
# Density = 1.838990 g / cm^3
# Si number density = 18.431851 Si / 1000 Ang^3
#
#
#
# Elastic Constant Matrix: (Units=GPa)
#
#
# Indices 1 2 3 4 5 6 
#
# 1 264.0594 73.6331 55.2503 0.0000 0.0000 0.0000
# 2 73.6331 58.1113 23.5092 0.0000 0.0000 0.0000
# 3 55.2503 23.5092 69.4116 0.0000 0.0000 0.0000
# 4 0.0000 0.0000 0.0000 24.1591 0.0000 0.0000
# 5 0.0000 0.0000 0.0000 0.0000 23.3068 0.0000
# 6 0.0000 0.0000 0.0000 0.0000 0.0000 22.7233
#
#
#
# Elastic Compliance Matrix: (Units=1/GPa)
#
#
# Indices 1 2 3 4 5 6 
#
# 1 0.006253 -0.006847 -0.002658 0.000000 0.000000 0.000000
# 2 -0.006847 0.027440 -0.003843 0.000000 0.000000 0.000000
# 3 -0.002658 -0.003843 0.017824 0.000000 0.000000 0.000000
# 4 0.000000 0.000000 0.000000 0.041392 0.000000 0.000000
# 5 0.000000 0.000000 0.000000 0.000000 0.042906 0.000000
# 6 0.000000 0.000000 0.000000 0.000000 0.000000 0.044008
#
#
# Mechanical properties :
#
#
# Convention : Reuss Voigt Hill
#
# Bulk Modulus (GPa) = 40.29105 77.37415 58.83260
# Shear Modulus (GPa) = 23.27838 29.98382 26.63110
#
# Velocity S-wave (km/s) = 3.55765 4.03766 3.80523
# Velocity P-wave (km/s) = 6.22758 7.98790 7.16203
#
# Compressibility (1/GPa) = 0.02481941
#
# Stress axis : x y z
#
# Youngs Moduli (GPa) = 159.93573 36.44377 56.10422
#
# Poissons Ratio (x) = 0.24955 0.14911
# Poissons Ratio (y) = 1.09514 0.21562
# Poissons Ratio (z) = 0.42506 0.14006
#
# Static dielectric constant tensor:
#      x y z
#    x 1.724630 0.000000 0.000000 
#    y 0.000000 1.586430 0.000000 
#    z 0.000000 0.000000 1.634880 
# 
# From -- ./inp_files/9634.got.cif
#   From: 2010.05.17/outbox.cif.g08.bks.cpg/sg57_5_cif.got.tgz:9634.got - 2010.06.03 13:58:18.
