data_PCOD9435395
_publ_section_title
;
Structure prediction by ZEFSAII (Michael W. Deem and Ramdas Pophale) SiO2 
 PCOD9435395
Probable space group: P B C M
;
_chemical_formula_sum "Si O2"
_cell_formula_units_Z 48
_cell_length_a 14.340999
_cell_length_b 21.960005
_cell_length_c 8.765745
_cell_angle_alpha 90.000000
_cell_angle_beta 90.000000
_cell_angle_gamma 90.000000
_cell_volume 2760.582133
_symmetry_space_group_name_H-M "P B C M"
_symmetry_group_IT_number 57
_symmetry_cell_setting 'orthorhombic'
loop_
_space_group_symop_operation_xyz
x,y,z
-x,-y,1/2+z
x,1/2-y,-z
-x,1/2+y,1/2-z
-x,-y,-z
x,y,1/2-z
-x,1/2+y,z
x,1/2-y,1/2+z
loop_
_atom_site_type_symbol
_atom_site_label
_atom_site_fract_x
_atom_site_fract_y
_atom_site_fract_z
Si Si1 0.970186 0.434130 0.565526
Si Si2 0.771522 0.035769 0.074747
Si Si3 0.847079 0.897406 0.074783
Si Si4 0.429102 0.550799 0.932083
Si Si5 0.497592 0.815183 0.067251
Si Si6 0.702566 0.688517 0.071071
O O1 0.976793 0.434680 0.750000
O O2 0.861423 0.424350 0.524658
O O3 0.000000 0.500000 0.500000
O O4 0.048554 0.391738 0.490938
O O5 0.748122 0.051638 0.250000
O O6 0.813010 0.967483 0.075556
O O7 0.677546 0.037930 0.978641
O O8 0.842183 0.875751 0.250000
O O9 0.774686 0.863703 0.967196
O O10 0.439787 0.548213 0.750000
O O11 0.450855 0.620787 0.981046
O O12 0.500000 0.500000 0.000000
O O13 0.492835 0.811032 0.250000
O O14 0.463438 0.750000 0.000000
O O15 0.604639 0.821416 0.013731
O O16 0.685203 0.694818 0.250000
O O17 0.743138 0.750000 0.000000
#
# Coordination Sequence:
#
# PCOD9435395 Si02
#       6
#     8   8   8   8   8   8
#     4   9  17  30  48  72  99 130 164 200 245 301
#     4   9  19  33  50  73 103 134 166 205 251 299
#     4  10  19  32  50  74 103 133 165 206 250 300
#     4  11  23  35  52  78 107 136 172 216 263 310
#     4  10  21  37  54  75 102 136 176 215 255 308
#     4  11  21  33  51  74  99 131 167 206 252 304
#
# _framework density 17.387637000000002
#
# number of rings (size 3 to 8) (size 9 to 14) (size 15 to 20)
#    0.000    2.000    0.000    6.500    0.000   10.667 
#    0.000    0.000    0.000    1.000    0.000    2.333 
#    0.000    0.000    0.000    0.000    0.000    0.000 
#
# Total GULP energy -267458.103028 kJ/mol
# GULP energy per Si atom -5572.043813 kJ/mol
# Density = 1.734806 g / cm^3
# Si number density = 17.387637 Si / 1000 Ang^3
#
#
#
# Elastic Constant Matrix: (Units=GPa)
#
#
# Indices 1 2 3 4 5 6 
#
# 1 90.8741 34.8081 23.5371 0.0000 0.0000 0.0000
# 2 34.8081 62.2058 24.8207 0.0000 0.0000 0.0000
# 3 23.5371 24.8207 56.3597 0.0000 0.0000 0.0000
# 4 0.0000 0.0000 0.0000 25.9150 0.0000 0.0000
# 5 0.0000 0.0000 0.0000 0.0000 24.3016 0.0000
# 6 0.0000 0.0000 0.0000 0.0000 0.0000 17.2362
#
#
#
# Elastic Compliance Matrix: (Units=1/GPa)
#
#
# Indices 1 2 3 4 5 6 
#
# 1 0.014411 -0.006870 -0.002993 0.000000 0.000000 0.000000
# 2 -0.006870 0.022777 -0.007162 0.000000 0.000000 0.000000
# 3 -0.002993 -0.007162 0.022147 0.000000 0.000000 0.000000
# 4 0.000000 0.000000 0.000000 0.038588 0.000000 0.000000
# 5 0.000000 0.000000 0.000000 0.000000 0.041150 0.000000
# 6 0.000000 0.000000 0.000000 0.000000 0.000000 0.058018
#
#
# Mechanical properties :
#
#
# Convention : Reuss Voigt Hill
#
# Bulk Modulus (GPa) = 39.54749 41.75239 40.64994
# Shear Modulus (GPa) = 20.87087 21.90879 21.38983
#
# Velocity S-wave (km/s) = 3.46833 3.55353 3.51119
# Velocity P-wave (km/s) = 6.23162 6.39543 6.31406
#
# Compressibility (1/GPa) = 0.02528606
#
# Stress axis : x y z
#
# Youngs Moduli (GPa) = 69.39286 43.90310 45.15212
#
# Poissons Ratio (x) = 0.30159 0.13514
# Poissons Ratio (y) = 0.47669 0.32339
# Poissons Ratio (z) = 0.20769 0.31445
#
# Static dielectric constant tensor:
#      x y z
#    x 1.592790 0.000000 0.000000 
#    y 0.000000 1.764760 0.000000 
#    z 0.000000 0.000000 1.585090 
# 
# From -- ./inp_files/4847.got.cif
#   From: 2010.05.17/outbox.cif.g08.bks.cpg/sg57_3_cif.got.tgz:4847.got - 2010.06.03 13:58:18.
