data_PCOD9435358
_publ_section_title
;
Structure prediction by ZEFSAII (Michael W. Deem and Ramdas Pophale) SiO2 
 PCOD9435358
Probable space group: P B C M
;
_chemical_formula_sum "Si O2"
_cell_formula_units_Z 64
_cell_length_a 22.198545
_cell_length_b 8.863932
_cell_length_c 14.302040
_cell_angle_alpha 90.000000
_cell_angle_beta 90.000000
_cell_angle_gamma 90.000000
_cell_volume 2814.160829
_symmetry_space_group_name_H-M "P B C M"
_symmetry_group_IT_number 57
_symmetry_cell_setting 'orthorhombic'
loop_
_space_group_symop_operation_xyz
x,y,z
-x,-y,1/2+z
x,1/2-y,-z
-x,1/2+y,1/2-z
-x,-y,-z
x,y,1/2-z
-x,1/2+y,z
x,1/2-y,1/2+z
loop_
_atom_site_type_symbol
_atom_site_label
_atom_site_fract_x
_atom_site_fract_y
_atom_site_fract_z
Si Si1 0.564151 0.620722 0.135240
Si Si2 0.320160 0.188606 0.863550
Si Si3 0.445239 0.711779 0.642695
Si Si4 0.943088 0.346337 0.594425
Si Si5 0.188364 0.837879 0.598295
Si Si6 0.190601 0.183885 0.862415
Si Si7 0.680605 0.157549 0.403585
Si Si8 0.061091 0.179754 0.856836
O O1 0.566053 0.617284 0.250000
O O2 0.623343 0.712099 0.107561
O O3 0.565017 0.450899 0.097941
O O4 0.501754 0.696490 0.104687
O O5 0.323812 0.167709 0.750000
O O6 0.254368 0.259966 0.885305
O O7 0.321530 0.023362 0.908841
O O8 0.462949 0.682825 0.750000
O O9 0.381860 0.796382 0.643515
O O10 0.941591 0.250000 0.500000
O O11 0.877936 0.310323 0.641498
O O12 0.946942 0.527335 0.583399
O O13 0.004601 0.289459 0.640136
O O14 0.188312 0.750000 0.500000
O O15 0.254055 0.803234 0.642072
O O16 0.189304 0.019867 0.589387
O O17 0.193040 0.158013 0.750000
O O18 0.125402 0.255840 0.881775
O O19 0.680189 0.250000 0.500000
O O20 0.066096 0.123341 0.750000
#
# Coordination Sequence:
#
# PCOD9435358 Si02
#       8
#     8   8   8   8   8   8   8   8
#     4   9  18  32  53  75  96 124 163 204 239 279
#     4   9  16  31  53  72  90 124 168 203 236 287
#     4  10  19  33  51  73  98 126 159 198 240 285
#     4  10  19  33  52  73  97 132 173 209 245 298
#     4   8  16  30  48  68  94 126 164 203 239 283
#     4   8  15  27  47  70  93 123 160 196 240 296
#     4  10  19  32  50  74 100 127 158 199 246 291
#     4  10  19  32  49  73 102 130 161 206 257 301
#
# _framework density 22.742125999999999
#
# number of rings (size 3 to 8) (size 9 to 14) (size 15 to 20)
#    0.000    2.750    0.000    1.875    0.000    3.000 
#    0.000    4.375    0.000    1.500    0.000    0.000 
#    0.000    0.000    0.000    0.000    0.000    0.000 
#
# Total GULP energy -356663.667086 kJ/mol
# GULP energy per Si atom -5572.869798 kJ/mol
# Density = 2.269036 g / cm^3
# Si number density = 22.742126 Si / 1000 Ang^3
#
#
#
# Elastic Constant Matrix: (Units=GPa)
#
#
# Indices 1 2 3 4 5 6 
#
# 1 271.6111 77.8673 -0.2746 0.0000 0.0000 0.0000
# 2 77.8673 54.8549 -14.5001 0.0000 0.0000 0.0000
# 3 -0.2746 -14.5001 40.6559 0.0000 0.0000 0.0000
# 4 0.0000 0.0000 0.0000 12.8142 0.0000 0.0000
# 5 0.0000 0.0000 0.0000 0.0000 16.2861 0.0000
# 6 0.0000 0.0000 0.0000 0.0000 0.0000 28.0169
#
#
#
# Elastic Compliance Matrix: (Units=1/GPa)
#
#
# Indices 1 2 3 4 5 6 
#
# 1 0.006672 -0.010444 -0.003680 0.000000 0.000000 0.000000
# 2 -0.010444 0.036475 0.012939 0.000000 0.000000 0.000000
# 3 -0.003680 0.012939 0.029186 0.000000 0.000000 0.000000
# 4 0.000000 0.000000 0.000000 0.078039 0.000000 0.000000
# 5 0.000000 0.000000 0.000000 0.000000 0.061402 0.000000
# 6 0.000000 0.000000 0.000000 0.000000 0.000000 0.035693
#
#
# Mechanical properties :
#
#
# Convention : Reuss Voigt Hill
#
# Bulk Modulus (GPa) = 14.29313 54.81189 34.55251
# Shear Modulus (GPa) = 18.30437 31.69206 24.99821
#
# Velocity S-wave (km/s) = 2.84009 3.73706 3.31902
# Velocity P-wave (km/s) = 4.12957 6.54023 5.46937
#
# Compressibility (1/GPa) = 0.06996366
#
# Stress axis : x y z
#
# Youngs Moduli (GPa) = 149.87690 27.41578 34.26249
#
# Poissons Ratio (x) = 0.28633 0.12608
# Poissons Ratio (y) = 1.56530 -0.44331
# Poissons Ratio (z) = 0.55152 -0.35472
#
# Static dielectric constant tensor:
#      x y z
#    x 1.903870 0.000000 0.000000 
#    y 0.000000 1.791540 0.000000 
#    z 0.000000 0.000000 1.937560 
# 
# From -- ./inp_files/23135.got.cif
#   From: 2010.05.17/outbox.cif.g08.bks.cpg/sg57_12_cif.got.tgz:23135.got - 2010.06.03 13:58:18.
