data_PCOD9435757
_publ_section_title
;
Structure prediction by ZEFSAII (Michael W. Deem and Ramdas Pophale) SiO2 
 PCOD9435757
Probable space group: P B C M
;
_chemical_formula_sum "Si O2"
_cell_formula_units_Z 56
_cell_length_a 19.078647
_cell_length_b 17.209080
_cell_length_c 9.207214
_cell_angle_alpha 90.000000
_cell_angle_beta 90.000000
_cell_angle_gamma 90.000000
_cell_volume 3022.967399
_symmetry_space_group_name_H-M "P B C M"
_symmetry_group_IT_number 57
_symmetry_cell_setting 'orthorhombic'
loop_
_space_group_symop_operation_xyz
x,y,z
-x,-y,1/2+z
x,1/2-y,-z
-x,1/2+y,1/2-z
-x,-y,-z
x,y,1/2-z
-x,1/2+y,z
x,1/2-y,1/2+z
loop_
_atom_site_type_symbol
_atom_site_label
_atom_site_fract_x
_atom_site_fract_y
_atom_site_fract_z
Si Si1 0.150556 0.673479 0.922200
Si Si2 0.200767 0.065424 0.581044
Si Si3 0.670260 0.832705 0.073781
Si Si4 0.597946 0.330948 0.418153
Si Si5 0.720221 0.098860 0.419197
Si Si6 0.537677 0.570196 0.917981
Si Si7 0.926174 0.009352 0.921431
O O1 0.159265 0.685709 0.750000
O O2 0.103217 0.596900 0.944073
O O3 0.121270 0.750000 0.000000
O O4 0.224530 0.653906 0.998435
O O5 0.180625 0.075534 0.750000
O O6 0.252531 0.134764 0.536946
O O7 0.132295 0.048564 0.486716
O O8 0.248139 0.987431 0.572997
O O9 0.665582 0.826646 0.250000
O O10 0.611315 0.895555 0.027388
O O11 0.657574 0.750000 0.000000
O O12 0.606736 0.250000 0.500000
O O13 0.619126 0.324594 0.250000
O O14 0.646766 0.392797 0.500104
O O15 0.518071 0.359412 0.422815
O O16 0.714008 0.120287 0.250000
O O17 0.547786 0.546503 0.750000
O O18 0.500000 0.500000 0.000000
O O19 0.933417 0.996756 0.750000
O O20 0.000000 0.000000 0.000000
#
# Coordination Sequence:
#
# PCOD9435757 Si02
#       7
#     8   8   8   8   8   8   8
#     4  10  20  34  53  80 111 142 177 218 263 319
#     4   9  19  36  58  81 107 140 179 220 266 322
#     4  10  21  38  58  82 111 145 188 237 285 336
#     4  11  22  34  49  73 105 139 175 218 265 316
#     4  10  19  33  54  77 105 142 178 218 266 318
#     4  10  22  38  56  78 105 139 183 232 282 333
#     4  10  21  37  59  85 113 143 179 221 267 322
#
# _framework density 18.524844000000002
#
# number of rings (size 3 to 8) (size 9 to 14) (size 15 to 20)
#    0.000    2.000    0.000    3.429    0.000    5.714 
#    0.000    0.714    0.000    0.000    0.000    0.000 
#    0.000    0.000    0.000    0.000    0.000    0.000 
#
# Total GULP energy -312693.550454 kJ/mol
# GULP energy per Si atom -5583.813401 kJ/mol
# Density = 1.848268 g / cm^3
# Si number density = 18.524844 Si / 1000 Ang^3
#
#
#
# Elastic Constant Matrix: (Units=GPa)
#
#
# Indices 1 2 3 4 5 6 
#
# 1 115.8887 29.1174 55.7167 0.0000 0.0000 0.0000
# 2 29.1174 69.7120 38.3935 0.0000 0.0000 0.0000
# 3 55.7167 38.3935 92.2273 0.0000 0.0000 0.0000
# 4 0.0000 0.0000 0.0000 29.1285 0.0000 0.0000
# 5 0.0000 0.0000 0.0000 0.0000 29.6883 0.0000
# 6 0.0000 0.0000 0.0000 0.0000 0.0000 13.5400
#
#
#
# Elastic Compliance Matrix: (Units=1/GPa)
#
#
# Indices 1 2 3 4 5 6 
#
# 1 0.012259 -0.001351 -0.006843 0.000000 0.000000 0.000000
# 2 -0.001351 0.018761 -0.006994 0.000000 0.000000 0.000000
# 3 -0.006843 -0.006994 0.017888 0.000000 0.000000 0.000000
# 4 0.000000 0.000000 0.000000 0.034331 0.000000 0.000000
# 5 0.000000 0.000000 0.000000 0.000000 0.033683 0.000000
# 6 0.000000 0.000000 0.000000 0.000000 0.000000 0.073855
#
#
# Mechanical properties :
#
#
# Convention : Reuss Voigt Hill
#
# Bulk Modulus (GPa) = 53.96223 58.25370 56.10797
# Shear Modulus (GPa) = 21.99446 24.77805 23.38625
#
# Velocity S-wave (km/s) = 3.44945 3.66123 3.55692
# Velocity P-wave (km/s) = 6.71252 7.02761 6.87187
#
# Compressibility (1/GPa) = 0.01853148
#
# Stress axis : x y z
#
# Youngs Moduli (GPa) = 81.57602 53.30244 55.90263
#
# Poissons Ratio (x) = 0.07203 0.38255
# Poissons Ratio (y) = 0.11024 0.39096
# Poissons Ratio (z) = 0.55823 0.37278
#
# Static dielectric constant tensor:
#      x y z
#    x 1.635640 0.000000 0.000000 
#    y 0.000000 1.646170 0.000000 
#    z 0.000000 0.000000 1.622160 
# 
# From -- ./inp_files/8181.got.cif
#   From: 2010.05.17/outbox.cif.g08.bks.cpg/sg57_5_cif.got.tgz:8181.got - 2010.06.03 13:58:18.
