data_PCOD9435756
_publ_section_title
;
Structure prediction by ZEFSAII (Michael W. Deem and Ramdas Pophale) SiO2 
 PCOD9435756
Probable space group: P B C M
;
_chemical_formula_sum "Si O2"
_cell_formula_units_Z 64
_cell_length_a 12.582171
_cell_length_b 32.076504
_cell_length_c 8.814792
_cell_angle_alpha 90.000000
_cell_angle_beta 90.000000
_cell_angle_gamma 90.000000
_cell_volume 3557.580048
_symmetry_space_group_name_H-M "P B C M"
_symmetry_group_IT_number 57
_symmetry_cell_setting 'orthorhombic'
loop_
_space_group_symop_operation_xyz
x,y,z
-x,-y,1/2+z
x,1/2-y,-z
-x,1/2+y,1/2-z
-x,-y,-z
x,y,1/2-z
-x,1/2+y,z
x,1/2-y,1/2+z
loop_
_atom_site_type_symbol
_atom_site_label
_atom_site_fract_x
_atom_site_fract_y
_atom_site_fract_z
Si Si1 0.724145 0.098033 0.069284
Si Si2 0.051536 0.870363 0.568412
Si Si3 0.882498 0.569214 0.569025
Si Si4 0.725160 0.855021 0.066429
Si Si5 0.206124 0.510097 0.921697
Si Si6 0.569311 0.535287 0.422889
Si Si7 0.898720 0.704455 0.068328
Si Si8 0.498138 0.118464 0.928974
O O1 0.714950 0.093732 0.250000
O O2 0.824193 0.127575 0.032901
O O3 0.758276 0.052906 0.002168
O O4 0.613451 0.116069 0.006084
O O5 0.039151 0.875986 0.750000
O O6 0.988703 0.907955 0.488260
O O7 0.994295 0.827237 0.526576
O O8 0.879981 0.567007 0.750000
O O9 0.787572 0.601904 0.521577
O O10 0.871390 0.522565 0.504212
O O11 0.728730 0.853541 0.250000
O O12 0.600943 0.852675 0.020049
O O13 0.793636 0.817873 0.996433
O O14 0.169918 0.519226 0.750000
O O15 0.313259 0.482642 0.914631
O O16 0.500000 0.500000 0.500000
O O17 0.534504 0.545273 0.250000
O O18 0.553871 0.573983 0.532524
O O19 0.892761 0.706771 0.250000
O O20 0.912947 0.750000 0.000000
O O21 0.513794 0.123810 0.750000
#
# Coordination Sequence:
#
# PCOD9435756 Si02
#       8
#     8   8   8   8   8   8   8   8
#     4  11  23  37  53  73 104 147 195 235 272 318
#     4   9  21  40  57  78 108 142 180 226 271 323
#     4  10  19  33  54  77 103 140 184 233 282 324
#     4   9  19  34  54  82 113 140 171 214 266 321
#     4  11  22  33  48  72 104 143 190 238 282 325
#     4  11  21  31  47  70 101 141 188 236 276 317
#     4  10  20  37  64  92 115 135 164 208 263 324
#     4  11  21  34  52  76 109 144 181 224 271 320
#
# _framework density 17.989757000000001
#
# number of rings (size 3 to 8) (size 9 to 14) (size 15 to 20)
#    0.000    1.750    2.500    2.250    0.000    4.500 
#    0.000    0.000    0.000    0.750    0.000    3.500 
#    0.000    0.000    0.000    0.000    0.000    0.000 
#
# Total GULP energy -356917.426912 kJ/mol
# GULP energy per Si atom -5576.834795 kJ/mol
# Density = 1.794881 g / cm^3
# Si number density = 17.989757 Si / 1000 Ang^3
#
#
#
# Elastic Constant Matrix: (Units=GPa)
#
#
# Indices 1 2 3 4 5 6 
#
# 1 133.7473 56.5640 40.1655 0.0000 0.0000 0.0000
# 2 56.5640 71.5163 26.3021 0.0000 0.0000 0.0000
# 3 40.1655 26.3021 39.5000 0.0000 0.0000 0.0000
# 4 0.0000 0.0000 0.0000 17.4641 0.0000 0.0000
# 5 0.0000 0.0000 0.0000 0.0000 22.5019 0.0000
# 6 0.0000 0.0000 0.0000 0.0000 0.0000 14.1031
#
#
#
# Elastic Compliance Matrix: (Units=1/GPa)
#
#
# Indices 1 2 3 4 5 6 
#
# 1 0.013082 -0.007224 -0.008493 0.000000 0.000000 0.000000
# 2 -0.007224 0.022506 -0.007641 0.000000 0.000000 0.000000
# 3 -0.008493 -0.007641 0.039040 0.000000 0.000000 0.000000
# 4 0.000000 0.000000 0.000000 0.057260 0.000000 0.000000
# 5 0.000000 0.000000 0.000000 0.000000 0.044441 0.000000
# 6 0.000000 0.000000 0.000000 0.000000 0.000000 0.070906
#
#
# Mechanical properties :
#
#
# Convention : Reuss Voigt Hill
#
# Bulk Modulus (GPa) = 35.82422 54.53630 45.18026
# Shear Modulus (GPa) = 16.48776 18.92930 17.70853
#
# Velocity S-wave (km/s) = 3.03067 3.24732 3.14087
# Velocity P-wave (km/s) = 5.67482 6.66642 6.19050
#
# Compressibility (1/GPa) = 0.02791408
#
# Stress axis : x y z
#
# Youngs Moduli (GPa) = 76.43994 44.43182 25.61472
#
# Poissons Ratio (x) = 0.32096 0.21753
# Poissons Ratio (y) = 0.55217 0.19572
# Poissons Ratio (z) = 0.64917 0.33951
#
# Static dielectric constant tensor:
#      x y z
#    x 1.662660 0.000000 0.000000 
#    y 0.000000 1.604210 0.000000 
#    z 0.000000 0.000000 1.617600 
# 
# From -- ./inp_files/3801.got.cif
#   From: 2010.05.17/outbox.cif.g08.bks.cpg/sg57_2_cif.got.tgz:3801.got - 2010.06.03 13:58:18.
