data_PCOD9435702
_publ_section_title
;
Structure prediction by ZEFSAII (Michael W. Deem and Ramdas Pophale) SiO2 
 PCOD9435702
Probable space group: P B C M
;
_chemical_formula_sum "Si O2"
_cell_formula_units_Z 40
_cell_length_a 9.530444
_cell_length_b 20.275372
_cell_length_c 10.537954
_cell_angle_alpha 90.000000
_cell_angle_beta 90.000000
_cell_angle_gamma 90.000000
_cell_volume 2036.283600
_symmetry_space_group_name_H-M "P B C M"
_symmetry_group_IT_number 57
_symmetry_cell_setting 'orthorhombic'
loop_
_space_group_symop_operation_xyz
x,y,z
-x,-y,1/2+z
x,1/2-y,-z
-x,1/2+y,1/2-z
-x,-y,-z
x,y,1/2-z
-x,1/2+y,z
x,1/2-y,1/2+z
loop_
_atom_site_type_symbol
_atom_site_label
_atom_site_fract_x
_atom_site_fract_y
_atom_site_fract_z
Si Si1 0.119248 0.592630 0.042112
Si Si2 0.373618 0.812822 0.595401
Si Si3 0.142170 0.441431 0.109209
Si Si4 0.312814 0.366424 0.606686
Si Si5 0.049235 0.287431 0.880028
O O1 0.262514 0.633595 0.042608
O O2 0.143981 0.520503 0.098423
O O3 0.019025 0.640834 0.121748
O O4 0.018501 0.580768 0.920298
O O5 0.365862 0.750000 0.500000
O O6 0.348057 0.800199 0.750000
O O7 0.528314 0.844468 0.586375
O O8 0.183317 0.420057 0.250000
O O9 0.246096 0.411917 0.002600
O O10 0.300894 0.395387 0.750000
O O11 0.213650 0.301623 0.607381
O O12 0.018787 0.250966 0.750000
O O13 0.992307 0.250000 0.000000
#
# Coordination Sequence:
#
# PCOD9435702 Si02
#       5
#     8   8   8   8   8
#     4  10  22  37  57  85 119 150 186 240 298 337
#     4  11  23  40  61  87 121 156 190 235 291 346
#     4  10  21  39  63  86 112 152 200 241 282 345
#     4   9  21  39  58  83 117 154 189 235 294 345
#     4  10  19  33  53  77 108 146 187 230 279 336
#
# _framework density 19.643630999999999
#
# number of rings (size 3 to 8) (size 9 to 14) (size 15 to 20)
#    0.000    2.000    0.000    3.000    0.000   11.200 
#    0.000    0.000    0.000    0.000    0.000    0.000 
#    0.000    0.000    0.000    0.000    0.000    0.000 
#
# Total GULP energy -222725.201002 kJ/mol
# GULP energy per Si atom -5568.130025 kJ/mol
# Density = 1.959892 g / cm^3
# Si number density = 19.643631 Si / 1000 Ang^3
#
#
#
# Elastic Constant Matrix: (Units=GPa)
#
#
# Indices 1 2 3 4 5 6 
#
# 1 124.5512 31.8565 54.8961 0.0000 0.0000 0.0000
# 2 31.8565 84.8238 87.2103 0.0000 0.0000 0.0000
# 3 54.8961 87.2103 181.9155 0.0000 0.0000 0.0000
# 4 0.0000 0.0000 0.0000 12.1826 0.0000 0.0000
# 5 0.0000 0.0000 0.0000 0.0000 10.6504 0.0000
# 6 0.0000 0.0000 0.0000 0.0000 0.0000 22.7364
#
#
#
# Elastic Compliance Matrix: (Units=1/GPa)
#
#
# Indices 1 2 3 4 5 6 
#
# 1 0.009322 -0.001200 -0.002238 0.000000 0.000000 0.000000
# 2 -0.001200 0.023402 -0.010857 0.000000 0.000000 0.000000
# 3 -0.002238 -0.010857 0.011377 0.000000 0.000000 0.000000
# 4 0.000000 0.000000 0.000000 0.082084 0.000000 0.000000
# 5 0.000000 0.000000 0.000000 0.000000 0.093893 0.000000
# 6 0.000000 0.000000 0.000000 0.000000 0.000000 0.043982
#
#
# Mechanical properties :
#
#
# Convention : Reuss Voigt Hill
#
# Bulk Modulus (GPa) = 64.46751 82.13513 73.30132
# Shear Modulus (GPa) = 16.78861 23.60239 20.19550
#
# Velocity S-wave (km/s) = 2.92663 3.47007 3.20987
# Velocity P-wave (km/s) = 6.65657 7.61305 7.15082
#
# Compressibility (1/GPa) = 0.01551169
#
# Stress axis : x y z
#
# Youngs Moduli (GPa) = 107.27206 42.73102 87.89644
#
# Poissons Ratio (x) = 0.05130 0.19668
# Poissons Ratio (y) = 0.12878 0.95427
# Poissons Ratio (z) = 0.24003 0.46392
#
# Static dielectric constant tensor:
#      x y z
#    x 1.717030 0.000000 0.000000 
#    y 0.000000 1.688020 0.000000 
#    z 0.000000 0.000000 1.756280 
# 
# From -- ./inp_files/11583.got.cif
#   From: 2010.05.17/outbox.cif.g08.bks.cpg/sg57_6_cif.got.tgz:11583.got - 2010.06.03 13:58:18.
