data_PCOD9435932
_publ_section_title
;
Structure prediction by ZEFSAII (Michael W. Deem and Ramdas Pophale) SiO2 
 PCOD9435932
Probable space group: P B C M
;
_chemical_formula_sum "Si O2"
_cell_formula_units_Z 48
_cell_length_a 15.452395
_cell_length_b 9.588779
_cell_length_c 14.772723
_cell_angle_alpha 90.000000
_cell_angle_beta 90.000000
_cell_angle_gamma 90.000000
_cell_volume 2188.868468
_symmetry_space_group_name_H-M "P B C M"
_symmetry_group_IT_number 57
_symmetry_cell_setting 'orthorhombic'
loop_
_space_group_symop_operation_xyz
x,y,z
-x,-y,1/2+z
x,1/2-y,-z
-x,1/2+y,1/2-z
-x,-y,-z
x,y,1/2-z
-x,1/2+y,z
x,1/2-y,1/2+z
loop_
_atom_site_type_symbol
_atom_site_label
_atom_site_fract_x
_atom_site_fract_y
_atom_site_fract_z
Si Si1 0.570929 0.869115 0.076996
Si Si2 0.616730 0.115552 0.555143
Si Si3 0.915089 0.039776 0.148169
Si Si4 0.755867 0.860174 0.119396
Si Si5 0.776469 0.944845 0.908710
Si Si6 0.068370 0.648269 0.860728
O O1 0.472111 0.854485 0.109660
O O2 0.653886 0.859938 0.141501
O O3 0.581091 0.750000 0.000000
O O4 0.584793 0.014610 0.025581
O O5 0.650503 0.250000 0.500000
O O6 0.690075 0.035014 0.610892
O O7 0.949346 0.059612 0.250000
O O8 0.919931 0.192920 0.105824
O O9 0.819167 0.978189 0.155675
O O10 0.977450 0.920199 0.109035
O O11 0.787277 0.703492 0.140511
O O12 0.763394 0.896736 0.012469
O O13 0.857147 0.045160 0.894991
O O14 0.074588 0.651709 0.750000
#
# Coordination Sequence:
#
# PCOD9435932 Si02
#       6
#     8   8   8   8   8   8
#     4   9  15  30  46  73 109 141 171 209 249 306
#     4   9  17  26  48  75 107 141 173 207 254 302
#     4  10  22  39  58  77 100 137 178 217 265 323
#     4  10  19  34  53  79 112 138 174 217 263 313
#     4  10  20  33  52  82 111 138 173 218 265 311
#     4  10  22  39  57  77 101 135 179 218 264 324
#
# _framework density 21.929138999999999
#
# number of rings (size 3 to 8) (size 9 to 14) (size 15 to 20)
#    0.000    2.333    3.333    1.000    4.667    2.667 
#    0.000    0.000    0.000    1.000    0.000    0.000 
#    0.000    0.000    0.000    0.000    0.000    0.000 
#
# Total GULP energy -267432.025090 kJ/mol
# GULP energy per Si atom -5571.500523 kJ/mol
# Density = 2.187923 g / cm^3
# Si number density = 21.929139 Si / 1000 Ang^3
#
#
#
# Elastic Constant Matrix: (Units=GPa)
#
#
# Indices 1 2 3 4 5 6 
#
# 1 125.7980 49.4734 2.7462 0.0000 0.0000 0.0000
# 2 49.4734 167.0383 6.6571 0.0000 0.0000 0.0000
# 3 2.7462 6.6571 36.7280 0.0000 0.0000 0.0000
# 4 0.0000 0.0000 0.0000 9.8405 0.0000 0.0000
# 5 0.0000 0.0000 0.0000 0.0000 41.4319 0.0000
# 6 0.0000 0.0000 0.0000 0.0000 0.0000 40.8308
#
#
#
# Elastic Compliance Matrix: (Units=1/GPa)
#
#
# Indices 1 2 3 4 5 6 
#
# 1 0.008999 -0.002658 -0.000191 0.000000 0.000000 0.000000
# 2 -0.002658 0.006815 -0.001037 0.000000 0.000000 0.000000
# 3 -0.000191 -0.001037 0.027429 0.000000 0.000000 0.000000
# 4 0.000000 0.000000 0.000000 0.101621 0.000000 0.000000
# 5 0.000000 0.000000 0.000000 0.000000 0.024136 0.000000
# 6 0.000000 0.000000 0.000000 0.000000 0.000000 0.024491
#
#
# Mechanical properties :
#
#
# Convention : Reuss Voigt Hill
#
# Bulk Modulus (GPa) = 28.19088 49.70199 38.94643
# Shear Modulus (GPa) = 23.46467 36.46647 29.96557
#
# Velocity S-wave (km/s) = 3.27467 4.08232 3.70059
# Velocity P-wave (km/s) = 5.21357 6.70332 6.00482
#
# Compressibility (1/GPa) = 0.03547246
#
# Stress axis : x y z
#
# Youngs Moduli (GPa) = 111.12849 146.73327 36.45729
#
# Poissons Ratio (x) = 0.38996 0.00697
# Poissons Ratio (y) = 0.29533 0.03779
# Poissons Ratio (z) = 0.02124 0.15210
#
# Static dielectric constant tensor:
#      x y z
#    x 1.865550 0.000000 0.000000 
#    y 0.000000 1.832760 0.000000 
#    z 0.000000 0.000000 2.099560 
# 
# From -- ./inp_files/25266.got.cif
#   From: 2010.05.17/outbox.cif.g08.bks.cpg/sg57_13_cif.got.tgz:25266.got - 2010.06.03 13:58:18.
