data_PCOD9435717
_publ_section_title
;
Structure prediction by ZEFSAII (Michael W. Deem and Ramdas Pophale) SiO2 
 PCOD9435717
Probable space group: P B C M
;
_chemical_formula_sum "Si O2"
_cell_formula_units_Z 64
_cell_length_a 23.948887
_cell_length_b 15.607306
_cell_length_c 8.554099
_cell_angle_alpha 90.000000
_cell_angle_beta 90.000000
_cell_angle_gamma 90.000000
_cell_volume 3197.330661
_symmetry_space_group_name_H-M "P B C M"
_symmetry_group_IT_number 57
_symmetry_cell_setting 'orthorhombic'
loop_
_space_group_symop_operation_xyz
x,y,z
-x,-y,1/2+z
x,1/2-y,-z
-x,1/2+y,1/2-z
-x,-y,-z
x,y,1/2-z
-x,1/2+y,z
x,1/2-y,1/2+z
loop_
_atom_site_type_symbol
_atom_site_label
_atom_site_fract_x
_atom_site_fract_y
_atom_site_fract_z
Si Si1 0.367281 0.021944 0.062565
Si Si2 0.803512 0.153114 0.062310
Si Si3 0.970391 0.915958 0.066997
Si Si4 0.149268 0.347112 0.439949
Si Si5 0.544254 0.656943 0.937516
Si Si6 0.585625 0.158018 0.938036
Si Si7 0.752699 0.521903 0.938820
Si Si8 0.923707 0.160895 0.065267
O O1 0.366346 0.022834 0.250000
O O2 0.380152 0.924701 0.008637
O O3 0.416435 0.083526 0.004611
O O4 0.307597 0.050403 0.997688
O O5 0.800803 0.161728 0.250000
O O6 0.866120 0.110500 0.034716
O O7 0.763666 0.076332 0.006765
O O8 0.792012 0.250000 0.000000
O O9 0.963015 0.929883 0.250000
O O10 0.910890 0.884713 0.004515
O O11 0.019857 0.850837 0.029916
O O12 0.000000 0.000000 0.000000
O O13 0.156237 0.250000 0.500000
O O14 0.147851 0.344319 0.250000
O O15 0.198811 0.411566 0.487745
O O16 0.546679 0.655973 0.750000
O O17 0.479352 0.645733 0.985641
O O18 0.562204 0.750000 0.000000
O O19 0.587033 0.160809 0.750000
O O20 0.605093 0.250000 0.000000
O O21 0.753509 0.520076 0.750000
O O22 0.935550 0.157707 0.250000
O O23 0.902335 0.250000 0.000000
#
# Coordination Sequence:
#
# PCOD9435717 Si02
#       8
#     8   8   8   8   8   8   8   8
#     4  11  23  38  57  86 119 152 193 242 288 339
#     4   9  19  36  58  81 111 149 189 236 292 350
#     4  11  22  36  56  83 112 143 179 228 287 348
#     4  10  23  42  62  83 112 151 197 243 291 343
#     4  10  20  37  61  88 117 153 191 232 283 340
#     4   9  20  37  59  88 122 155 190 231 281 341
#     4  10  22  41  59  78 109 153 198 241 289 342
#     4  10  19  33  53  79 108 138 173 217 270 333
#
# _framework density 20.016697000000001
#
# number of rings (size 3 to 8) (size 9 to 14) (size 15 to 20)
#    0.000    2.000    0.000    3.000    0.000    8.000 
#    0.000    5.000    0.000    0.000    0.000    0.000 
#    0.000    0.000    0.000    0.000    0.000    0.000 
#
# Total GULP energy -356726.881832 kJ/mol
# GULP energy per Si atom -5573.857529 kJ/mol
# Density = 1.997114 g / cm^3
# Si number density = 20.016697 Si / 1000 Ang^3
#
#
#
# Elastic Constant Matrix: (Units=GPa)
#
#
# Indices 1 2 3 4 5 6 
#
# 1 55.6234 28.9281 15.0023 0.0000 0.0000 0.0000
# 2 28.9281 103.1580 18.9316 0.0000 0.0000 0.0000
# 3 15.0023 18.9316 21.1707 0.0000 0.0000 0.0000
# 4 0.0000 0.0000 0.0000 33.6368 0.0000 0.0000
# 5 0.0000 0.0000 0.0000 0.0000 20.0805 0.0000
# 6 0.0000 0.0000 0.0000 0.0000 0.0000 9.8591
#
#
#
# Elastic Compliance Matrix: (Units=1/GPa)
#
#
# Indices 1 2 3 4 5 6 
#
# 1 0.023696 -0.004263 -0.012980 0.000000 0.000000 0.000000
# 2 -0.004263 0.012364 -0.008036 0.000000 0.000000 0.000000
# 3 -0.012980 -0.008036 0.063619 0.000000 0.000000 0.000000
# 4 0.000000 0.000000 0.000000 0.029729 0.000000 0.000000
# 5 0.000000 0.000000 0.000000 0.000000 0.049800 0.000000
# 6 0.000000 0.000000 0.000000 0.000000 0.000000 0.101430
#
#
# Mechanical properties :
#
#
# Convention : Reuss Voigt Hill
#
# Bulk Modulus (GPa) = 20.35732 33.96399 27.16065
# Shear Modulus (GPa) = 14.38570 20.52126 17.45348
#
# Velocity S-wave (km/s) = 2.68374 3.20536 2.95608
# Velocity P-wave (km/s) = 4.44922 5.54110 5.02490
#
# Compressibility (1/GPa) = 0.04912239
#
# Stress axis : x y z
#
# Youngs Moduli (GPa) = 42.20155 80.88020 15.71863
#
# Poissons Ratio (x) = 0.34478 0.20402
# Poissons Ratio (y) = 0.17990 0.12631
# Poissons Ratio (z) = 0.54776 0.64992
#
# Static dielectric constant tensor:
#      x y z
#    x 2.279060 0.000000 0.000000 
#    y 0.000000 1.655310 0.000000 
#    z 0.000000 0.000000 1.680770 
# 
# From -- ./inp_files/9507.got.cif
#   From: 2010.05.17/outbox.cif.g08.bks.cpg/sg57_5_cif.got.tgz:9507.got - 2010.06.03 13:58:18.
