data_PCOD9435369
_publ_section_title
;
Structure prediction by ZEFSAII (Michael W. Deem and Ramdas Pophale) SiO2 
 PCOD9435369
Probable space group: P B C M
;
_chemical_formula_sum "Si O2"
_cell_formula_units_Z 48
_cell_length_a 17.724498
_cell_length_b 13.307015
_cell_length_c 9.381513
_cell_angle_alpha 90.000000
_cell_angle_beta 90.000000
_cell_angle_gamma 90.000000
_cell_volume 2212.725164
_symmetry_space_group_name_H-M "P B C M"
_symmetry_group_IT_number 57
_symmetry_cell_setting 'orthorhombic'
loop_
_space_group_symop_operation_xyz
x,y,z
-x,-y,1/2+z
x,1/2-y,-z
-x,1/2+y,1/2-z
-x,-y,-z
x,y,1/2-z
-x,1/2+y,z
x,1/2-y,1/2+z
loop_
_atom_site_type_symbol
_atom_site_label
_atom_site_fract_x
_atom_site_fract_y
_atom_site_fract_z
Si Si1 0.725454 0.055353 0.581479
Si Si2 0.891996 0.455731 0.416926
Si Si3 0.585733 0.109018 0.409387
Si Si4 0.722055 0.843954 0.086207
Si Si5 0.450654 0.370405 0.402514
Si Si6 0.948856 0.646865 0.580951
O O1 0.710759 0.042931 0.750000
O O2 0.727947 0.946395 0.503769
O O3 0.810598 0.094848 0.561096
O O4 0.658404 0.118653 0.510037
O O5 0.895127 0.487296 0.250000
O O6 0.902313 0.553951 0.514857
O O7 0.963334 0.384166 0.442578
O O8 0.602369 0.143171 0.250000
O O9 0.507797 0.150963 0.470726
O O10 0.568461 0.989427 0.405894
O O11 0.749513 0.854055 0.250000
O O12 0.632056 0.823956 0.097534
O O13 0.755811 0.750000 0.000000
O O14 0.488474 0.349823 0.250000
O O15 0.933427 0.750000 0.500000
O O16 0.936409 0.655871 0.750000
#
# Coordination Sequence:
#
# PCOD9435369 Si02
#       6
#     8   8   8   8   8   8
#     4  10  19  32  50  71  99 132 167 209 255 304
#     4   9  20  37  56  81 110 142 180 219 262 316
#     4   9  16  26  43  67  91 117 155 199 245 295
#     4  10  20  32  46  67  96 131 171 213 261 314
#     4   8  15  27  42  61  86 118 157 199 241 290
#     4  10  20  36  59  84 110 140 176 218 264 316
#
# _framework density 21.692708
#
# number of rings (size 3 to 8) (size 9 to 14) (size 15 to 20)
#    0.000    2.667    0.000    3.000    0.000    7.333 
#    0.000    0.000    0.000    1.000    0.000    2.333 
#    0.000    0.000    0.000    0.000    0.000    0.000 
#
# Total GULP energy -267910.815685 kJ/mol
# GULP energy per Si atom -5581.475327 kJ/mol
# Density = 2.164333 g / cm^3
# Si number density = 21.692708 Si / 1000 Ang^3
#
#
#
# Elastic Constant Matrix: (Units=GPa)
#
#
# Indices 1 2 3 4 5 6 
#
# 1 137.7903 -1.9591 56.6961 0.0000 0.0000 0.0000
# 2 -1.9591 51.6415 16.8803 0.0000 0.0000 0.0000
# 3 56.6961 16.8803 124.1103 0.0000 0.0000 0.0000
# 4 0.0000 0.0000 0.0000 15.2312 0.0000 0.0000
# 5 0.0000 0.0000 0.0000 0.0000 24.3735 0.0000
# 6 0.0000 0.0000 0.0000 0.0000 0.0000 -1.4970
#
#
#
# Elastic Compliance Matrix: (Units=1/GPa)
#
#
# Indices 1 2 3 4 5 6 
#
# 1 0.009091 0.001782 -0.004395 0.000000 0.000000 0.000000
# 2 0.001782 0.020614 -0.003618 0.000000 0.000000 0.000000
# 3 -0.004395 -0.003618 0.010557 0.000000 0.000000 0.000000
# 4 0.000000 0.000000 0.000000 0.065655 0.000000 0.000000
# 5 0.000000 0.000000 0.000000 0.000000 0.041028 0.000000
# 6 0.000000 0.000000 0.000000 0.000000 0.000000 -0.667991
#
#
# Mechanical properties :
#
#
# Convention : Reuss Voigt Hill
#
# Bulk Modulus (GPa) = 35.97105 50.75294 43.36199
# Shear Modulus (GPa) = -10.01372 23.74986 6.86807
#
# Velocity S-wave (km/s) = -2.15086 3.31241 1.78128
# Velocity P-wave (km/s) = 3.23262 6.17062 4.92577
#
# Compressibility (1/GPa) = 0.02780014
#
# Stress axis : x y z
#
# Youngs Moduli (GPa) = 109.99526 48.50984 94.72124
#
# Poissons Ratio (x) = -0.08643 0.41634
# Poissons Ratio (y) = -0.19597 0.34267
# Poissons Ratio (z) = 0.48347 0.17549
#
# Static dielectric constant tensor:
#      x y z
#    x 1.806500 0.000000 0.000000 
#    y 0.000000 1.848140 0.000000 
#    z 0.000000 0.000000 1.781530 
# 
# From -- ./inp_files/6536.got.cif
#   From: 2010.05.17/outbox.cif.g08.bks.cpg/sg57_4_cif.got.tgz:6536.got - 2010.06.03 13:58:18.
