data_PCOD9435868
_publ_section_title
;
Structure prediction by ZEFSAII (Michael W. Deem and Ramdas Pophale) SiO2 
 PCOD9435868
Probable space group: P B C M
;
_chemical_formula_sum "Si O2"
_cell_formula_units_Z 48
_cell_length_a 12.464444
_cell_length_b 22.527008
_cell_length_c 8.189068
_cell_angle_alpha 90.000000
_cell_angle_beta 90.000000
_cell_angle_gamma 90.000000
_cell_volume 2299.380804
_symmetry_space_group_name_H-M "P B C M"
_symmetry_group_IT_number 57
_symmetry_cell_setting 'orthorhombic'
loop_
_space_group_symop_operation_xyz
x,y,z
-x,-y,1/2+z
x,1/2-y,-z
-x,1/2+y,1/2-z
-x,-y,-z
x,y,1/2-z
-x,1/2+y,z
x,1/2-y,1/2+z
loop_
_atom_site_type_symbol
_atom_site_label
_atom_site_fract_x
_atom_site_fract_y
_atom_site_fract_z
Si Si1 0.146254 0.843187 0.444682
Si Si2 0.115740 0.523208 0.946751
Si Si3 0.251955 0.414275 0.551084
Si Si4 0.621983 0.185278 0.441475
Si Si5 0.089613 0.312430 0.945380
Si Si6 0.492744 0.069616 0.447477
O O1 0.162424 0.841479 0.250000
O O2 0.250629 0.815469 0.525509
O O3 0.030005 0.816710 0.483433
O O4 0.137592 0.910905 0.505520
O O5 0.116583 0.524544 0.750000
O O6 0.206220 0.477659 0.002793
O O7 0.000000 0.500000 0.000000
O O8 0.250648 0.413056 0.750000
O O9 0.166912 0.365069 0.495947
O O10 0.374450 0.407838 0.501515
O O11 0.580131 0.250000 0.500000
O O12 0.601339 0.183938 0.250000
O O13 0.573783 0.122074 0.507423
O O14 0.081371 0.315630 0.750000
O O15 0.137326 0.250000 0.000000
O O16 0.499408 0.068010 0.250000
O O17 0.500000 0.000000 0.500000
#
# Coordination Sequence:
#
# PCOD9435868 Si02
#       6
#     8   8   8   8   8   8
#     4  11  22  37  60  88 120 156 197 247 300 360
#     4  10  19  33  56  85 116 150 187 232 287 350
#     4   9  19  37  59  83 115 153 186 230 293 352
#     4  11  24  41  63  90 122 163 211 261 311 370
#     4  11  22  37  57  81 116 155 193 238 289 351
#     4  10  22  42  66  92 122 159 204 254 310 367
#
# _framework density 20.875184000000001
#
# number of rings (size 3 to 8) (size 9 to 14) (size 15 to 20)
#    0.000    1.667    1.667    3.000    0.000    4.000 
#    0.000    2.500    0.000    0.000    0.000    0.000 
#    0.000    0.000    0.000    0.000    0.000    0.000 
#
# Total GULP energy -267928.189167 kJ/mol
# GULP energy per Si atom -5581.837274 kJ/mol
# Density = 2.082767 g / cm^3
# Si number density = 20.875184 Si / 1000 Ang^3
#
#
#
# Elastic Constant Matrix: (Units=GPa)
#
#
# Indices 1 2 3 4 5 6 
#
# 1 92.1960 40.5914 -4.2052 0.0000 0.0000 0.0000
# 2 40.5914 167.9028 13.5490 0.0000 0.0000 0.0000
# 3 -4.2052 13.5490 23.7519 0.0000 0.0000 0.0000
# 4 0.0000 0.0000 0.0000 29.8145 0.0000 0.0000
# 5 0.0000 0.0000 0.0000 0.0000 12.7872 0.0000
# 6 0.0000 0.0000 0.0000 0.0000 0.0000 18.9507
#
#
#
# Elastic Compliance Matrix: (Units=1/GPa)
#
#
# Indices 1 2 3 4 5 6 
#
# 1 0.012514 -0.003359 0.004131 0.000000 0.000000 0.000000
# 2 -0.003359 0.007145 -0.004670 0.000000 0.000000 0.000000
# 3 0.004131 -0.004670 0.045497 0.000000 0.000000 0.000000
# 4 0.000000 0.000000 0.000000 0.033541 0.000000 0.000000
# 5 0.000000 0.000000 0.000000 0.000000 0.078203 0.000000
# 6 0.000000 0.000000 0.000000 0.000000 0.000000 0.052769
#
#
# Mechanical properties :
#
#
# Convention : Reuss Voigt Hill
#
# Bulk Modulus (GPa) = 17.43353 42.63570 30.03462
# Shear Modulus (GPa) = 19.48684 27.90484 23.69584
#
# Velocity S-wave (km/s) = 3.05863 3.66012 3.37281
# Velocity P-wave (km/s) = 4.56542 6.19116 5.43937
#
# Compressibility (1/GPa) = 0.05736072
#
# Stress axis : x y z
#
# Youngs Moduli (GPa) = 79.91305 139.96467 21.97928
#
# Poissons Ratio (x) = 0.47009 -0.09080
# Poissons Ratio (y) = 0.26840 0.10265
# Poissons Ratio (z) = -0.33015 0.65367
#
# Static dielectric constant tensor:
#      x y z
#    x 1.726550 0.000000 0.000000 
#    y 0.000000 1.797470 0.000000 
#    z 0.000000 0.000000 1.732110 
# 
# From -- ./inp_files/3125.got.cif
#   From: 2010.05.17/outbox.cif.g08.bks.cpg/sg57_2_cif.got.tgz:3125.got - 2010.06.03 13:58:18.
