data_PCOD9435225
_publ_section_title
;
Structure prediction by ZEFSAII (Michael W. Deem and Ramdas Pophale) SiO2 
 PCOD9435225
Probable space group: P B C M
;
_chemical_formula_sum "Si O2"
_cell_formula_units_Z 64
_cell_length_a 20.046353
_cell_length_b 22.285975
_cell_length_c 7.772458
_cell_angle_alpha 90.000000
_cell_angle_beta 90.000000
_cell_angle_gamma 90.000000
_cell_volume 3472.365212
_symmetry_space_group_name_H-M "P B C M"
_symmetry_group_IT_number 57
_symmetry_cell_setting 'orthorhombic'
loop_
_space_group_symop_operation_xyz
x,y,z
-x,-y,1/2+z
x,1/2-y,-z
-x,1/2+y,1/2-z
-x,-y,-z
x,y,1/2-z
-x,1/2+y,z
x,1/2-y,1/2+z
loop_
_atom_site_type_symbol
_atom_site_label
_atom_site_fract_x
_atom_site_fract_y
_atom_site_fract_z
Si Si1 0.667480 0.881666 0.959350
Si Si2 0.912253 0.609339 0.952843
Si Si3 0.796831 0.683635 0.453719
Si Si4 0.172495 0.502911 0.451937
Si Si5 0.957633 0.439898 0.454783
Si Si6 0.541023 0.061155 0.458380
Si Si7 0.678977 0.016460 0.451542
Si Si8 0.464955 0.181413 0.043581
O O1 0.667479 0.884905 0.750000
O O2 0.740025 0.860890 0.020690
O O3 0.610575 0.834815 0.012268
O O4 0.655203 0.947714 0.029733
O O5 0.918397 0.596034 0.750000
O O6 0.865125 0.555943 0.028172
O O7 0.988279 0.609101 0.017183
O O8 0.869291 0.668391 0.974909
O O9 0.775684 0.750000 0.500000
O O10 0.799870 0.677277 0.250000
O O11 0.183678 0.490350 0.250000
O O12 0.115635 0.553792 0.466813
O O13 0.245495 0.518080 0.525638
O O14 0.947675 0.436318 0.250000
O O15 0.000000 0.500000 0.500000
O O16 0.542409 0.063384 0.250000
O O17 0.508202 0.123938 0.518643
O O18 0.500000 0.000000 0.500000
O O19 0.617160 0.054376 0.523838
O O20 0.684351 0.032407 0.250000
O O21 0.466170 0.178366 0.250000
O O22 0.483541 0.250000 0.000000
#
# Coordination Sequence:
#
# PCOD9435225 Si02
#       8
#     8   8   8   8   8   8   8   8
#     4  10  20  33  48  70  98 130 169 211 246 291
#     4   9  17  30  45  63  90 122 157 198 238 281
#     4  11  22  32  45  65  92 129 169 205 244 288
#     4   9  17  29  45  68  96 123 156 195 236 290
#     4   9  17  28  44  66  92 122 153 188 232 278
#     4  10  20  34  53  76 103 133 169 213 259 309
#     4  10  19  31  50  74 100 134 166 201 256 307
#     4  10  21  36  52  73 101 132 172 215 255 304
#
# _framework density 18.431242000000001
#
# number of rings (size 3 to 8) (size 9 to 14) (size 15 to 20)
#    0.000    2.250    2.500    1.875    0.000    4.500 
#    0.000    0.000    0.000    0.000    0.000    0.875 
#    0.000    4.000    0.000    0.000    0.000    0.000 
#
# Total GULP energy -356429.114885 kJ/mol
# GULP energy per Si atom -5569.204920 kJ/mol
# Density = 1.838929 g / cm^3
# Si number density = 18.431242 Si / 1000 Ang^3
#
#
#
# Elastic Constant Matrix: (Units=GPa)
#
#
# Indices 1 2 3 4 5 6 
#
# 1 122.9405 43.2887 3.7726 0.0000 0.0000 0.0000
# 2 43.2887 70.7299 -4.6051 0.0000 0.0000 0.0000
# 3 3.7726 -4.6051 23.8378 0.0000 0.0000 0.0000
# 4 0.0000 0.0000 0.0000 18.8917 0.0000 0.0000
# 5 0.0000 0.0000 0.0000 0.0000 12.8652 0.0000
# 6 0.0000 0.0000 0.0000 0.0000 0.0000 25.9583
#
#
#
# Elastic Compliance Matrix: (Units=1/GPa)
#
#
# Indices 1 2 3 4 5 6 
#
# 1 0.010571 -0.006662 -0.002960 0.000000 0.000000 0.000000
# 2 -0.006662 0.018517 0.004632 0.000000 0.000000 0.000000
# 3 -0.002960 0.004632 0.043313 0.000000 0.000000 0.000000
# 4 0.000000 0.000000 0.000000 0.052933 0.000000 0.000000
# 5 0.000000 0.000000 0.000000 0.000000 0.077729 0.000000
# 6 0.000000 0.000000 0.000000 0.000000 0.000000 0.038523
#
#
# Mechanical properties :
#
#
# Convention : Reuss Voigt Hill
#
# Bulk Modulus (GPa) = 16.02045 33.60229 24.81137
# Shear Modulus (GPa) = 18.35702 23.21317 20.78510
#
# Velocity S-wave (km/s) = 3.15933 3.55272 3.36178
# Velocity P-wave (km/s) = 4.69248 5.92451 5.34412
#
# Compressibility (1/GPa) = 0.06242021
#
# Stress axis : x y z
#
# Youngs Moduli (GPa) = 94.60101 54.00337 23.08756
#
# Poissons Ratio (x) = 0.35979 0.06834
# Poissons Ratio (y) = 0.63026 -0.10693
# Poissons Ratio (z) = 0.28002 -0.25013
#
# Static dielectric constant tensor:
#      x y z
#    x 1.703570 0.000000 0.000000 
#    y 0.000000 1.643910 0.000000 
#    z 0.000000 0.000000 1.693480 
# 
# From -- ./inp_files/7388.got.cif
#   From: 2010.05.17/outbox.cif.g08.bks.cpg/sg57_4_cif.got.tgz:7388.got - 2010.06.03 13:58:18.
