data_PCOD9435525
_publ_section_title
;
Structure prediction by ZEFSAII (Michael W. Deem and Ramdas Pophale) SiO2 
 PCOD9435525
Probable space group: P B C M
;
_chemical_formula_sum "Si O2"
_cell_formula_units_Z 48
_cell_length_a 15.825287
_cell_length_b 17.728486
_cell_length_c 7.604285
_cell_angle_alpha 90.000000
_cell_angle_beta 90.000000
_cell_angle_gamma 90.000000
_cell_volume 2133.445873
_symmetry_space_group_name_H-M "P B C M"
_symmetry_group_IT_number 57
_symmetry_cell_setting 'orthorhombic'
loop_
_space_group_symop_operation_xyz
x,y,z
-x,-y,1/2+z
x,1/2-y,-z
-x,1/2+y,1/2-z
-x,-y,-z
x,y,1/2-z
-x,1/2+y,z
x,1/2-y,1/2+z
loop_
_atom_site_type_symbol
_atom_site_label
_atom_site_fract_x
_atom_site_fract_y
_atom_site_fract_z
Si Si1 0.767297 0.338969 0.039530
Si Si2 0.530141 0.833147 0.959510
Si Si3 0.693988 0.591155 0.544369
Si Si4 0.612392 0.058614 0.047235
Si Si5 0.048758 0.839546 0.460605
Si Si6 0.134564 0.339259 0.037968
O O1 0.762841 0.348738 0.250000
O O2 0.859838 0.367397 0.975389
O O3 0.761648 0.250000 0.000000
O O4 0.689984 0.383188 0.956857
O O5 0.534242 0.839985 0.750000
O O6 0.468209 0.898324 0.031175
O O7 0.496170 0.750000 0.000000
O O8 0.624163 0.843585 0.032347
O O9 0.709181 0.573915 0.750000
O O10 0.648135 0.517949 0.464172
O O11 0.783743 0.616633 0.468860
O O12 0.590008 0.041700 0.250000
O O13 0.048630 0.750000 0.500000
O O14 0.049346 0.849101 0.250000
O O15 0.957569 0.867013 0.527422
O O16 0.133897 0.345892 0.250000
O O17 0.142879 0.250000 0.000000
#
# Coordination Sequence:
#
# PCOD9435525 Si02
#       6
#     8   8   8   8   8   8
#     4  10  19  32  53  78 104 136 175 218 259 303
#     4  11  23  38  57  79 103 133 171 215 260 309
#     4  10  21  37  56  78 106 139 173 212 259 309
#     4  10  22  38  54  76 107 141 174 210 258 311
#     4   8  15  28  47  73 102 132 169 212 257 301
#     4   9  17  31  52  76 103 135 171 213 258 305
#
# _framework density 22.498812999999998
#
# number of rings (size 3 to 8) (size 9 to 14) (size 15 to 20)
#    0.000    2.333    0.000    2.500    0.000    6.000 
#    0.000    0.833    0.000    0.000    0.000    0.000 
#    0.000    0.000    0.000    0.000    0.000    0.000 
#
# Total GULP energy -267899.458739 kJ/mol
# GULP energy per Si atom -5581.238724 kJ/mol
# Density = 2.244761 g / cm^3
# Si number density = 22.498813 Si / 1000 Ang^3
#
#
#
# Elastic Constant Matrix: (Units=GPa)
#
#
# Indices 1 2 3 4 5 6 
#
# 1 133.0968 10.0177 -5.4424 0.0000 0.0000 0.0000
# 2 10.0177 46.5241 -6.8677 0.0000 0.0000 0.0000
# 3 -5.4424 -6.8677 59.7957 0.0000 0.0000 0.0000
# 4 0.0000 0.0000 0.0000 12.7662 0.0000 0.0000
# 5 0.0000 0.0000 0.0000 0.0000 -23.6793 0.0000
# 6 0.0000 0.0000 0.0000 0.0000 0.0000 6.7785
#
#
#
# Elastic Compliance Matrix: (Units=1/GPa)
#
#
# Indices 1 2 3 4 5 6 
#
# 1 0.007653 -0.001572 0.000516 0.000000 0.000000 0.000000
# 2 -0.001572 0.022188 0.002405 0.000000 0.000000 0.000000
# 3 0.000516 0.002405 0.017047 0.000000 0.000000 0.000000
# 4 0.000000 0.000000 0.000000 0.078332 0.000000 0.000000
# 5 0.000000 0.000000 0.000000 0.000000 -0.042231 0.000000
# 6 0.000000 0.000000 0.000000 0.000000 0.000000 0.147525
#
#
# Mechanical properties :
#
#
# Convention : Reuss Voigt Hill
#
# Bulk Modulus (GPa) = 20.16675 26.09243 23.12959
# Shear Modulus (GPa) = 20.46305 15.28700 17.87503
#
# Velocity S-wave (km/s) = 3.01909 2.60947 2.82172
# Velocity P-wave (km/s) = 4.59741 4.54989 4.57371
#
# Compressibility (1/GPa) = 0.04958657
#
# Stress axis : x y z
#
# Youngs Moduli (GPa) = 130.67248 45.06999 58.66195
#
# Poissons Ratio (x) = 0.07083 -0.03027
# Poissons Ratio (y) = 0.20537 -0.14110
# Poissons Ratio (z) = -0.06743 -0.10841
#
# Static dielectric constant tensor:
#      x y z
#    x 1.879300 0.000000 0.000000 
#    y 0.000000 1.820160 0.000000 
#    z 0.000000 0.000000 1.835060 
# 
# From -- ./inp_files/4619.got.cif
#   From: 2010.05.17/outbox.cif.g08.bks.cpg/sg57_3_cif.got.tgz:4619.got - 2010.06.03 13:58:18.
