data_PCOD9435908
_publ_section_title
;
Structure prediction by ZEFSAII (Michael W. Deem and Ramdas Pophale) SiO2 
 PCOD9435908
Probable space group: P B C M
;
_chemical_formula_sum "Si O2"
_cell_formula_units_Z 48
_cell_length_a 10.145497
_cell_length_b 17.809208
_cell_length_c 11.567688
_cell_angle_alpha 90.000000
_cell_angle_beta 90.000000
_cell_angle_gamma 90.000000
_cell_volume 2090.087652
_symmetry_space_group_name_H-M "P B C M"
_symmetry_group_IT_number 57
_symmetry_cell_setting 'orthorhombic'
loop_
_space_group_symop_operation_xyz
x,y,z
-x,-y,1/2+z
x,1/2-y,-z
-x,1/2+y,1/2-z
-x,-y,-z
x,y,1/2-z
-x,1/2+y,z
x,1/2-y,1/2+z
loop_
_atom_site_type_symbol
_atom_site_label
_atom_site_fract_x
_atom_site_fract_y
_atom_site_fract_z
Si Si1 0.314621 0.147975 0.879450
Si Si2 0.577546 0.252156 0.376953
Si Si3 0.042326 0.532850 0.624818
Si Si4 0.024737 0.207941 0.881191
Si Si5 0.317643 0.011546 0.441086
Si Si6 0.420316 0.919207 0.630305
O O1 0.315153 0.115111 0.750000
O O2 0.449646 0.194959 0.890047
O O3 0.184492 0.199199 0.886782
O O4 0.303626 0.082417 0.972969
O O5 0.653858 0.250000 0.500000
O O6 0.639549 0.270076 0.250000
O O7 0.531558 0.165889 0.369020
O O8 0.976793 0.513016 0.750000
O O9 0.190185 0.502166 0.632057
O O10 0.000000 0.500000 0.500000
O O11 0.030307 0.622844 0.616020
O O12 0.993961 0.238565 0.750000
O O13 0.984651 0.250000 0.000000
O O14 0.453941 0.026483 0.376491
O O15 0.335036 0.938225 0.520073
O O16 0.346116 0.931150 0.750000
#
# Coordination Sequence:
#
# PCOD9435908 Si02
#       6
#     8   8   8   8   8   8
#     4  10  19  33  60  90 124 161 203 261 321 376
#     4  10  19  34  54  85 119 155 202 251 308 371
#     4  11  24  42  67  99 133 169 215 269 327 394
#     4  10  22  40  61  93 127 165 212 261 320 384
#     4  11  21  38  61  89 126 166 211 258 321 382
#     4  10  22  37  58  88 125 164 210 259 311 378
#
# _framework density 22.965543
#
# number of rings (size 3 to 8) (size 9 to 14) (size 15 to 20)
#    0.000    1.667    3.333    1.500    0.000    1.333 
#    0.000    1.667    0.000    4.000    0.000    0.000 
#    0.000    0.000    0.000    0.000    0.000    0.000 
#
# Total GULP energy -267565.940310 kJ/mol
# GULP energy per Si atom -5574.290423 kJ/mol
# Density = 2.291327 g / cm^3
# Si number density = 22.965543 Si / 1000 Ang^3
#
#
#
# Elastic Constant Matrix: (Units=GPa)
#
#
# Indices 1 2 3 4 5 6 
#
# 1 42.2812 2.0808 23.4143 0.0000 0.0000 0.0000
# 2 2.0808 69.7335 49.6103 0.0000 0.0000 0.0000
# 3 23.4143 49.6103 245.9881 0.0000 0.0000 0.0000
# 4 0.0000 0.0000 0.0000 -94.8815 0.0000 0.0000
# 5 0.0000 0.0000 0.0000 0.0000 28.1515 0.0000
# 6 0.0000 0.0000 0.0000 0.0000 0.0000 16.8134
#
#
#
# Elastic Compliance Matrix: (Units=1/GPa)
#
#
# Indices 1 2 3 4 5 6 
#
# 1 0.025040 0.001107 -0.002607 0.000000 0.000000 0.000000
# 2 0.001107 0.016791 -0.003492 0.000000 0.000000 0.000000
# 3 -0.002607 -0.003492 0.005018 0.000000 0.000000 0.000000
# 4 0.000000 0.000000 0.000000 -0.010539 0.000000 0.000000
# 5 0.000000 0.000000 0.000000 0.000000 0.035522 0.000000
# 6 0.000000 0.000000 0.000000 0.000000 0.000000 0.059476
#
#
# Mechanical properties :
#
#
# Convention : Reuss Voigt Hill
#
# Bulk Modulus (GPa) = 27.12473 56.46819 41.79646
# Shear Modulus (GPa) = 32.55640 8.87652 20.71646
#
# Velocity S-wave (km/s) = 3.76921 1.96813 3.00670
# Velocity P-wave (km/s) = 5.54791 5.45952 5.50389
#
# Compressibility (1/GPa) = 0.03686673
#
# Stress axis : x y z
#
# Youngs Moduli (GPa) = 39.93571 59.55403 199.29873
#
# Poissons Ratio (x) = -0.06595 0.51953
# Poissons Ratio (y) = -0.04422 0.69592
# Poissons Ratio (z) = 0.10410 0.20795
#
# Static dielectric constant tensor:
#      x y z
#    x 1.838810 0.000000 0.000000 
#    y 0.000000 1.830030 0.000000 
#    z 0.000000 0.000000 2.051800 
# 
# From -- ./inp_files/12939.got.cif
#   From: 2010.05.17/outbox.cif.g08.bks.cpg/sg57_7_cif.got.tgz:12939.got - 2010.06.03 13:58:18.
