data_PCOD9435031
_publ_section_title
;
Structure prediction by ZEFSAII (Michael W. Deem and Ramdas Pophale) SiO2 
 PCOD9435031
Probable space group: P B C M
;
_chemical_formula_sum "Si O2"
_cell_formula_units_Z 56
_cell_length_a 21.269332
_cell_length_b 14.451700
_cell_length_c 9.269787
_cell_angle_alpha 90.000000
_cell_angle_beta 90.000000
_cell_angle_gamma 90.000000
_cell_volume 2849.328637
_symmetry_space_group_name_H-M "P B C M"
_symmetry_group_IT_number 57
_symmetry_cell_setting 'orthorhombic'
loop_
_space_group_symop_operation_xyz
x,y,z
-x,-y,1/2+z
x,1/2-y,-z
-x,1/2+y,1/2-z
-x,-y,-z
x,y,1/2-z
-x,1/2+y,z
x,1/2-y,1/2+z
loop_
_atom_site_type_symbol
_atom_site_label
_atom_site_fract_x
_atom_site_fract_y
_atom_site_fract_z
Si Si1 0.651518 0.110007 0.588545
Si Si2 0.766674 0.045839 0.078586
Si Si3 0.091112 0.521703 0.078274
Si Si4 0.029442 0.350304 0.923131
Si Si5 0.603856 0.901218 0.590778
Si Si6 0.281785 0.339350 0.080501
Si Si7 0.527209 0.337961 0.580619
O O1 0.653330 0.150366 0.750000
O O2 0.718371 0.109714 0.509134
O O3 0.593943 0.146544 0.493769
O O4 0.633212 0.002407 0.600890
O O5 0.756068 0.058984 0.250000
O O6 0.839646 0.059507 0.044338
O O7 0.751616 0.937256 0.047438
O O8 0.089282 0.499794 0.250000
O O9 0.038366 0.599940 0.051065
O O10 0.076061 0.427841 0.990537
O O11 0.038298 0.340971 0.750000
O O12 0.033848 0.250000 0.000000
O O13 0.610544 0.856221 0.750000
O O14 0.646268 0.851416 0.472662
O O15 0.529710 0.910037 0.562201
O O16 0.278652 0.324856 0.250000
O O17 0.254593 0.250000 0.000000
O O18 0.498730 0.250000 0.500000
O O19 0.536765 0.324104 0.750000
#
# Coordination Sequence:
#
# PCOD9435031 Si02
#       7
#     8   8   8   8   8   8   8
#     4  10  20  35  54  76 101 131 169 211 257 312
#     4   9  19  36  55  75 103 141 179 216 260 309
#     4   9  19  37  59  83 113 149 188 228 270 317
#     4  10  20  35  58  87 118 149 182 224 270 320
#     4   9  19  34  52  73  97 127 166 212 262 317
#     4  10  19  30  47  71 101 135 171 214 264 318
#     4  11  22  35  51  72  98 129 167 214 265 313
#
# _framework density 19.653752999999998
#
# number of rings (size 3 to 8) (size 9 to 14) (size 15 to 20)
#    0.000    2.286    0.000    2.571    0.000    5.143 
#    0.000    2.143    0.000    1.714    0.000    0.000 
#    0.000    0.000    0.000    0.000    0.000    0.000 
#
# Total GULP energy -312158.572464 kJ/mol
# GULP energy per Si atom -5574.260223 kJ/mol
# Density = 1.960902 g / cm^3
# Si number density = 19.653753 Si / 1000 Ang^3
#
#
#
# Elastic Constant Matrix: (Units=GPa)
#
#
# Indices 1 2 3 4 5 6 
#
# 1 97.7568 -15.1297 20.4082 0.0000 0.0000 0.0000
# 2 -15.1297 19.9124 2.1626 0.0000 0.0000 0.0000
# 3 20.4082 2.1626 56.1716 0.0000 0.0000 0.0000
# 4 0.0000 0.0000 0.0000 26.2531 0.0000 0.0000
# 5 0.0000 0.0000 0.0000 0.0000 26.7580 0.0000
# 6 0.0000 0.0000 0.0000 0.0000 0.0000 14.7322
#
#
#
# Elastic Compliance Matrix: (Units=1/GPa)
#
#
# Indices 1 2 3 4 5 6 
#
# 1 0.012892 0.010347 -0.005082 0.000000 0.000000 0.000000
# 2 0.010347 0.058736 -0.006021 0.000000 0.000000 0.000000
# 3 -0.005082 -0.006021 0.019881 0.000000 0.000000 0.000000
# 4 0.000000 0.000000 0.000000 0.038091 0.000000 0.000000
# 5 0.000000 0.000000 0.000000 0.000000 0.037372 0.000000
# 6 0.000000 0.000000 0.000000 0.000000 0.000000 0.067878
#
#
# Mechanical properties :
#
#
# Convention : Reuss Voigt Hill
#
# Bulk Modulus (GPa) = 11.11144 20.96923 16.04033
# Shear Modulus (GPa) = 18.77160 24.64199 21.70680
#
# Velocity S-wave (km/s) = 3.09385 3.54475 3.32695
# Velocity P-wave (km/s) = 4.29283 5.23891 4.78929
#
# Compressibility (1/GPa) = 0.08999736
#
# Stress axis : x y z
#
# Youngs Moduli (GPa) = 77.56808 17.02541 50.29965
#
# Poissons Ratio (x) = -0.17617 0.25563
# Poissons Ratio (y) = -0.80262 0.30284
# Poissons Ratio (z) = 0.39422 0.10250
#
# Static dielectric constant tensor:
#      x y z
#    x 1.692470 0.000000 0.000000 
#    y 0.000000 1.641330 0.000000 
#    z 0.000000 0.000000 1.693280 
# 
# From -- ./inp_files/8166.got.cif
#   From: 2010.05.17/outbox.cif.g08.bks.cpg/sg57_5_cif.got.tgz:8166.got - 2010.06.03 13:58:18.
