data_PCOD9435002
_publ_section_title
;
Structure prediction by ZEFSAII (Michael W. Deem and Ramdas Pophale) SiO2 
 PCOD9435002
Probable space group: P B C M
;
_chemical_formula_sum "Si O2"
_cell_formula_units_Z 48
_cell_length_a 16.561642
_cell_length_b 18.912711
_cell_length_c 8.815714
_cell_angle_alpha 90.000000
_cell_angle_beta 90.000000
_cell_angle_gamma 90.000000
_cell_volume 2761.306856
_symmetry_space_group_name_H-M "P B C M"
_symmetry_group_IT_number 57
_symmetry_cell_setting 'orthorhombic'
loop_
_space_group_symop_operation_xyz
x,y,z
-x,-y,1/2+z
x,1/2-y,-z
-x,1/2+y,1/2-z
-x,-y,-z
x,y,1/2-z
-x,1/2+y,z
x,1/2-y,1/2+z
loop_
_atom_site_type_symbol
_atom_site_label
_atom_site_fract_x
_atom_site_fract_y
_atom_site_fract_z
Si Si1 0.766363 0.459798 0.931238
Si Si2 0.328126 0.102342 0.570903
Si Si3 0.479584 0.327161 0.930734
Si Si4 0.337175 0.673042 0.432850
Si Si5 0.158785 0.327045 0.067077
Si Si6 0.080559 0.466249 0.569123
O O1 0.784826 0.458122 0.750000
O O2 0.701169 0.522274 0.952596
O O3 0.726837 0.386177 0.978983
O O4 0.845330 0.483089 0.021194
O O5 0.341375 0.113215 0.750000
O O6 0.409380 0.121500 0.485372
O O7 0.251189 0.150845 0.526043
O O8 0.477989 0.322052 0.750000
O O9 0.570935 0.347396 0.977482
O O10 0.463178 0.250000 0.000000
O O11 0.320255 0.750000 0.500000
O O12 0.335507 0.676957 0.250000
O O13 0.153129 0.326920 0.250000
O O14 0.140560 0.250000 0.000000
O O15 0.102528 0.389447 0.001321
O O16 0.074555 0.460486 0.750000
O O17 0.000000 0.500000 0.500000
#
# Coordination Sequence:
#
# PCOD9435002 Si02
#       6
#     8   8   8   8   8   8
#     4   9  19  37  56  75 102 135 171 213 265 318
#     4   9  18  31  49  73 103 138 173 212 258 308
#     4  10  19  30  46  70 101 138 178 217 258 304
#     4   9  19  35  53  73 101 137 176 219 263 306
#     4  10  20  35  55  81 112 144 177 215 262 313
#     4  11  22  38  60  84 109 138 173 214 263 318
#
# _framework density 17.383073
#
# number of rings (size 3 to 8) (size 9 to 14) (size 15 to 20)
#    0.000    2.333    0.000    4.000    0.000    6.667 
#    0.000    0.833    0.000    2.000    0.000    0.000 
#    0.000    0.000    0.000    0.000    0.000    0.000 
#
# Total GULP energy -267837.584005 kJ/mol
# GULP energy per Si atom -5579.949667 kJ/mol
# Density = 1.734351 g / cm^3
# Si number density = 17.383073 Si / 1000 Ang^3
#
#
#
# Elastic Constant Matrix: (Units=GPa)
#
#
# Indices 1 2 3 4 5 6 
#
# 1 90.8056 83.1133 50.6290 0.0000 0.0000 0.0000
# 2 83.1133 121.0543 54.5282 0.0000 0.0000 0.0000
# 3 50.6290 54.5282 65.5367 0.0000 0.0000 0.0000
# 4 0.0000 0.0000 0.0000 28.4245 0.0000 0.0000
# 5 0.0000 0.0000 0.0000 0.0000 28.8096 0.0000
# 6 0.0000 0.0000 0.0000 0.0000 0.0000 19.1743
#
#
#
# Elastic Compliance Matrix: (Units=1/GPa)
#
#
# Indices 1 2 3 4 5 6 
#
# 1 0.033904 -0.018361 -0.010915 0.000000 0.000000 0.000000
# 2 -0.018361 0.023156 -0.005082 0.000000 0.000000 0.000000
# 3 -0.010915 -0.005082 0.027919 0.000000 0.000000 0.000000
# 4 0.000000 0.000000 0.000000 0.035181 0.000000 0.000000
# 5 0.000000 0.000000 0.000000 0.000000 0.034711 0.000000
# 6 0.000000 0.000000 0.000000 0.000000 0.000000 0.052153
#
#
# Mechanical properties :
#
#
# Convention : Reuss Voigt Hill
#
# Bulk Modulus (GPa) = 61.48869 72.65972 67.07421
# Shear Modulus (GPa) = 17.78339 21.22341 19.50340
#
# Velocity S-wave (km/s) = 3.20195 3.49796 3.35323
# Velocity P-wave (km/s) = 7.00853 7.62917 7.32543
#
# Compressibility (1/GPa) = 0.01626315
#
# Stress axis : x y z
#
# Youngs Moduli (GPa) = 29.49519 43.18462 35.81783
#
# Poissons Ratio (x) = 0.79292 0.39094
# Poissons Ratio (y) = 0.54157 0.18203
# Poissons Ratio (z) = 0.32193 0.21947
#
# Static dielectric constant tensor:
#      x y z
#    x 1.579180 0.000000 0.000000 
#    y 0.000000 1.574920 0.000000 
#    z 0.000000 0.000000 1.585480 
# 
# From -- ./inp_files/4628.got.cif
#   From: 2010.05.17/outbox.cif.g08.bks.cpg/sg57_3_cif.got.tgz:4628.got - 2010.06.03 13:58:18.
