data_PCOD9435147
_publ_section_title
;
Structure prediction by ZEFSAII (Michael W. Deem and Ramdas Pophale) SiO2 
 PCOD9435147
Probable space group: P B C M
;
_chemical_formula_sum "Si O2"
_cell_formula_units_Z 64
_cell_length_a 14.977803
_cell_length_b 28.874485
_cell_length_c 8.536553
_cell_angle_alpha 90.000000
_cell_angle_beta 90.000000
_cell_angle_gamma 90.000000
_cell_volume 3691.857266
_symmetry_space_group_name_H-M "P B C M"
_symmetry_group_IT_number 57
_symmetry_cell_setting 'orthorhombic'
loop_
_space_group_symop_operation_xyz
x,y,z
-x,-y,1/2+z
x,1/2-y,-z
-x,1/2+y,1/2-z
-x,-y,-z
x,y,1/2-z
-x,1/2+y,z
x,1/2-y,1/2+z
loop_
_atom_site_type_symbol
_atom_site_label
_atom_site_fract_x
_atom_site_fract_y
_atom_site_fract_z
Si Si1 0.524403 0.885133 0.936703
Si Si2 0.650719 0.698441 0.438330
Si Si3 0.028414 0.115000 0.558739
Si Si4 0.353739 0.928980 0.062512
Si Si5 0.149045 0.028345 0.938153
Si Si6 0.847482 0.698529 0.561634
Si Si7 0.642432 0.968794 0.436835
Si Si8 0.848591 0.426685 0.061721
O O1 0.515822 0.883645 0.750000
O O2 0.577938 0.839398 0.988613
O O3 0.427243 0.892275 0.010278
O O4 0.582803 0.929766 0.984126
O O5 0.631088 0.750000 0.500000
O O6 0.654417 0.699505 0.250000
O O7 0.748817 0.685222 0.501610
O O8 0.028650 0.115456 0.750000
O O9 0.085953 0.070148 0.510486
O O10 0.079345 0.161238 0.508340
O O11 0.926713 0.107382 0.505838
O O12 0.353113 0.932568 0.250000
O O13 0.252767 0.918099 0.006584
O O14 0.379008 0.979400 0.994298
O O15 0.141844 0.023681 0.750000
O O16 0.252778 0.039043 0.973982
O O17 0.126790 0.979081 0.013945
O O18 0.866356 0.750000 0.500000
O O19 0.845054 0.699315 0.750000
O O20 0.630523 0.966378 0.250000
O O21 0.846967 0.424397 0.250000
#
# Coordination Sequence:
#
# PCOD9435147 Si02
#       8
#     8   8   8   8   8   8   8   8
#     4  11  22  34  50  72  97 126 162 202 242 287
#     4  10  21  36  54  76 101 126 154 193 241 292
#     4   9  17  30  49  71  96 127 161 194 233 282
#     4  10  20  33  49  69  96 131 168 205 243 282
#     4   9  17  29  46  70  98 128 159 192 234 281
#     4  10  19  33  53  75 101 129 156 191 235 285
#     4  10  19  31  48  71 101 133 164 198 238 287
#     4   9  18  32  48  68  95 128 164 199 234 274
#
# _framework density 17.335448
#
# number of rings (size 3 to 8) (size 9 to 14) (size 15 to 20)
#    0.000    2.250    0.000    4.125    0.000    4.000 
#    0.000    2.500    0.000    0.750    0.000    3.500 
#    0.000    0.000    0.000    0.000    0.000    0.000 
#
# Total GULP energy -357210.492164 kJ/mol
# GULP energy per Si atom -5581.413940 kJ/mol
# Density = 1.729599 g / cm^3
# Si number density = 17.335448 Si / 1000 Ang^3
#
#
#
# Elastic Constant Matrix: (Units=GPa)
#
#
# Indices 1 2 3 4 5 6 
#
# 1 107.6550 79.7683 9.8530 0.0000 0.0000 0.0000
# 2 79.7683 85.9012 5.2056 0.0000 0.0000 0.0000
# 3 9.8530 5.2056 11.7394 0.0000 0.0000 0.0000
# 4 0.0000 0.0000 0.0000 20.1698 0.0000 0.0000
# 5 0.0000 0.0000 0.0000 0.0000 17.9332 0.0000
# 6 0.0000 0.0000 0.0000 0.0000 0.0000 32.9995
#
#
#
# Elastic Compliance Matrix: (Units=1/GPa)
#
#
# Indices 1 2 3 4 5 6 
#
# 1 0.031871 -0.028747 -0.014002 0.000000 0.000000 0.000000
# 2 -0.028747 0.037892 0.007325 0.000000 0.000000 0.000000
# 3 -0.014002 0.007325 0.093687 0.000000 0.000000 0.000000
# 4 0.000000 0.000000 0.000000 0.049579 0.000000 0.000000
# 5 0.000000 0.000000 0.000000 0.000000 0.055762 0.000000
# 6 0.000000 0.000000 0.000000 0.000000 0.000000 0.030304
#
#
# Mechanical properties :
#
#
# Convention : Reuss Voigt Hill
#
# Bulk Modulus (GPa) = 10.79893 43.88326 27.34109
# Shear Modulus (GPa) = 12.47475 21.58507 17.02991
#
# Velocity S-wave (km/s) = 2.68546 3.53248 3.13769
# Velocity P-wave (km/s) = 3.98228 6.48128 5.37892
#
# Compressibility (1/GPa) = 0.09260179
#
# Stress axis : x y z
#
# Youngs Moduli (GPa) = 31.37677 26.39095 10.67383
#
# Poissons Ratio (x) = 0.75865 0.14946
# Poissons Ratio (y) = 0.90198 -0.07819
# Poissons Ratio (z) = 0.43934 -0.19331
#
# Static dielectric constant tensor:
#      x y z
#    x 1.612290 0.000000 0.000000 
#    y 0.000000 1.563050 0.000000 
#    z 0.000000 0.000000 1.587130 
# 
# From -- ./inp_files/6002.got.cif
#   From: 2010.05.17/outbox.cif.g08.bks.cpg/sg57_4_cif.got.tgz:6002.got - 2010.06.03 13:58:18.
