data_PCOD9435363
_publ_section_title
;
Structure prediction by ZEFSAII (Michael W. Deem and Ramdas Pophale) SiO2 
 PCOD9435363
Probable space group: P B C M
;
_chemical_formula_sum "Si O2"
_cell_formula_units_Z 56
_cell_length_a 21.652105
_cell_length_b 14.985029
_cell_length_c 8.689986
_cell_angle_alpha 90.000000
_cell_angle_beta 90.000000
_cell_angle_gamma 90.000000
_cell_volume 2819.530449
_symmetry_space_group_name_H-M "P B C M"
_symmetry_group_IT_number 57
_symmetry_cell_setting 'orthorhombic'
loop_
_space_group_symop_operation_xyz
x,y,z
-x,-y,1/2+z
x,1/2-y,-z
-x,1/2+y,1/2-z
-x,-y,-z
x,y,1/2-z
-x,1/2+y,z
x,1/2-y,1/2+z
loop_
_atom_site_type_symbol
_atom_site_label
_atom_site_fract_x
_atom_site_fract_y
_atom_site_fract_z
Si Si1 0.728796 0.971226 0.066363
Si Si2 0.773469 0.158678 0.564037
Si Si3 0.152886 0.397109 0.922886
Si Si4 0.410708 0.023138 0.935005
Si Si5 0.973995 0.842546 0.433322
Si Si6 0.099694 0.903325 0.425384
Si Si7 0.475021 0.851101 0.065088
O O1 0.734853 0.977863 0.250000
O O2 0.658617 0.946854 0.026640
O O3 0.781311 0.903878 0.005485
O O4 0.741114 0.068898 0.994160
O O5 0.745467 0.250000 0.500000
O O6 0.773846 0.158644 0.750000
O O7 0.844471 0.151990 0.501382
O O8 0.160301 0.362575 0.750000
O O9 0.128461 0.498857 0.917167
O O10 0.094790 0.352127 0.003087
O O11 0.415194 0.012735 0.750000
O O12 0.460569 0.098848 0.980347
O O13 0.426093 0.926155 0.007639
O O14 0.998373 0.750000 0.500000
O O15 0.968288 0.846353 0.250000
O O16 0.030270 0.906210 0.488519
O O17 0.092925 0.869492 0.250000
O O18 0.472130 0.845427 0.250000
O O19 0.469237 0.750000 0.000000
#
# Coordination Sequence:
#
# PCOD9435363 Si02
#       7
#     8   8   8   8   8   8   8
#     4  10  20  36  56  77 104 141 181 220 263 311
#     4  10  19  32  49  74 106 139 177 221 271 326
#     4  10  20  36  54  75 102 133 171 214 261 316
#     4   9  20  38  59  84 115 150 188 228 268 316
#     4  11  21  34  51  73  99 130 169 216 269 318
#     4   8  17  32  51  73  98 128 167 215 266 322
#     4  10  20  36  60  89 119 149 182 223 270 320
#
# _framework density 19.861464000000002
#
# number of rings (size 3 to 8) (size 9 to 14) (size 15 to 20)
#    0.000    2.286    0.000    3.857    0.000    2.286 
#    0.000    7.857    0.000    1.714    0.000    0.000 
#    0.000    0.000    0.000    0.000    0.000    0.000 
#
# Total GULP energy -311862.774187 kJ/mol
# GULP energy per Si atom -5568.978110 kJ/mol
# Density = 1.981626 g / cm^3
# Si number density = 19.861464 Si / 1000 Ang^3
#
#
#
# Elastic Constant Matrix: (Units=GPa)
#
#
# Indices 1 2 3 4 5 6 
#
# 1 114.0007 -6.3613 27.1185 0.0000 0.0000 0.0000
# 2 -6.3613 24.7133 -2.0983 0.0000 0.0000 0.0000
# 3 27.1185 -2.0983 53.5216 0.0000 0.0000 0.0000
# 4 0.0000 0.0000 0.0000 23.9298 0.0000 0.0000
# 5 0.0000 0.0000 0.0000 0.0000 27.6646 0.0000
# 6 0.0000 0.0000 0.0000 0.0000 0.0000 16.6421
#
#
#
# Elastic Compliance Matrix: (Units=1/GPa)
#
#
# Indices 1 2 3 4 5 6 
#
# 1 0.010089 0.002170 -0.005027 0.000000 0.000000 0.000000
# 2 0.002170 0.041066 0.000510 0.000000 0.000000 0.000000
# 3 -0.005027 0.000510 0.021251 0.000000 0.000000 0.000000
# 4 0.000000 0.000000 0.000000 0.041789 0.000000 0.000000
# 5 0.000000 0.000000 0.000000 0.000000 0.036147 0.000000
# 6 0.000000 0.000000 0.000000 0.000000 0.000000 0.060088
#
#
# Mechanical properties :
#
#
# Convention : Reuss Voigt Hill
#
# Bulk Modulus (GPa) = 14.76815 25.50594 20.13704
# Shear Modulus (GPa) = 21.03548 25.21910 23.12729
#
# Velocity S-wave (km/s) = 3.25793 3.56722 3.41608
# Velocity P-wave (km/s) = 4.64799 5.46229 5.07151
#
# Compressibility (1/GPa) = 0.06771328
#
# Stress axis : x y z
#
# Youngs Moduli (GPa) = 99.12061 24.35110 47.05654
#
# Poissons Ratio (x) = -0.05284 0.23654
# Poissons Ratio (y) = -0.21510 -0.02402
# Poissons Ratio (z) = 0.49825 -0.01243
#
# Static dielectric constant tensor:
#      x y z
#    x 1.751400 0.000000 0.000000 
#    y 0.000000 1.717160 0.000000 
#    z 0.000000 0.000000 1.699650 
# 
# From -- ./inp_files/8001.got.cif
#   From: 2010.05.17/outbox.cif.g08.bks.cpg/sg57_5_cif.got.tgz:8001.got - 2010.06.03 13:58:18.
