data_PCOD9435520
_publ_section_title
;
Structure prediction by ZEFSAII (Michael W. Deem and Ramdas Pophale) SiO2 
 PCOD9435520
Probable space group: P B C M
;
_chemical_formula_sum "Si O2"
_cell_formula_units_Z 64
_cell_length_a 15.359346
_cell_length_b 23.592646
_cell_length_c 8.965572
_cell_angle_alpha 90.000000
_cell_angle_beta 90.000000
_cell_angle_gamma 90.000000
_cell_volume 3248.832925
_symmetry_space_group_name_H-M "P B C M"
_symmetry_group_IT_number 57
_symmetry_cell_setting 'orthorhombic'
loop_
_space_group_symop_operation_xyz
x,y,z
-x,-y,1/2+z
x,1/2-y,-z
-x,1/2+y,1/2-z
-x,-y,-z
x,y,1/2-z
-x,1/2+y,z
x,1/2-y,1/2+z
loop_
_atom_site_type_symbol
_atom_site_label
_atom_site_fract_x
_atom_site_fract_y
_atom_site_fract_z
Si Si1 0.100215 0.105246 0.571809
Si Si2 0.604595 0.391077 0.928703
Si Si3 0.033363 0.809360 0.927320
Si Si4 0.744039 0.690326 0.928378
Si Si5 0.630920 0.512279 0.423770
Si Si6 0.838136 0.005510 0.578053
Si Si7 0.197885 0.623649 0.072138
Si Si8 0.568974 0.628872 0.570928
O O1 0.090565 0.104921 0.750000
O O2 0.188134 0.140549 0.533328
O O3 0.109030 0.041794 0.511043
O O4 0.023426 0.140220 0.495682
O O5 0.596152 0.392103 0.750000
O O6 0.700994 0.368624 0.969191
O O7 0.601588 0.455077 0.993410
O O8 0.524805 0.357644 0.001659
O O9 0.020731 0.806939 0.750000
O O10 0.134050 0.824437 0.959692
O O11 0.008139 0.750000 0.000000
O O12 0.746017 0.696320 0.750000
O O13 0.646744 0.671367 0.972477
O O14 0.768535 0.750000 0.000000
O O15 0.603483 0.511416 0.250000
O O16 0.736045 0.512154 0.427746
O O17 0.596292 0.567650 0.506219
O O18 0.865887 0.007022 0.750000
O O19 0.839175 0.067812 0.507850
O O20 0.195760 0.613051 0.250000
O O21 0.564270 0.626324 0.750000
#
# Coordination Sequence:
#
# PCOD9435520 Si02
#       8
#     8   8   8   8   8   8   8   8
#     4  11  22  39  62  89 120 156 192 236 293 353
#     4  10  20  35  56  82 112 150 191 237 286 339
#     4  11  24  43  65  90 115 149 196 245 295 349
#     4  10  23  39  57  80 112 153 194 237 288 344
#     4  10  19  32  52  82 116 153 190 232 280 337
#     4  10  20  34  58  91 123 155 194 238 289 349
#     4   9  21  41  62  84 118 156 194 241 295 352
#     4  11  21  35  53  79 113 151 192 236 283 340
#
# _framework density 19.699380999999999
#
# number of rings (size 3 to 8) (size 9 to 14) (size 15 to 20)
#    0.000    1.750    1.250    3.000    0.000    6.000 
#    0.000    0.625    0.000    3.000    0.000    0.000 
#    0.000    0.000    0.000    0.000    0.000    0.000 
#
# Total GULP energy -357695.624324 kJ/mol
# GULP energy per Si atom -5588.994130 kJ/mol
# Density = 1.965454 g / cm^3
# Si number density = 19.699381 Si / 1000 Ang^3
#
#
#
# Elastic Constant Matrix: (Units=GPa)
#
#
# Indices 1 2 3 4 5 6 
#
# 1 66.8290 21.4496 31.2631 0.0000 0.0000 0.0000
# 2 21.4496 17.4911 13.0770 0.0000 0.0000 0.0000
# 3 31.2631 13.0770 52.5309 0.0000 0.0000 0.0000
# 4 0.0000 0.0000 0.0000 23.5198 0.0000 0.0000
# 5 0.0000 0.0000 0.0000 0.0000 26.9677 0.0000
# 6 0.0000 0.0000 0.0000 0.0000 0.0000 16.4870
#
#
#
# Elastic Compliance Matrix: (Units=1/GPa)
#
#
# Indices 1 2 3 4 5 6 
#
# 1 0.028488 -0.027350 -0.010146 0.000000 0.000000 0.000000
# 2 -0.027350 0.096503 -0.007746 0.000000 0.000000 0.000000
# 3 -0.010146 -0.007746 0.027003 0.000000 0.000000 0.000000
# 4 0.000000 0.000000 0.000000 0.042517 0.000000 0.000000
# 5 0.000000 0.000000 0.000000 0.000000 0.037081 0.000000
# 6 0.000000 0.000000 0.000000 0.000000 0.000000 0.060654
#
#
# Mechanical properties :
#
#
# Convention : Reuss Voigt Hill
#
# Bulk Modulus (GPa) = 16.25760 29.82560 23.04160
# Shear Modulus (GPa) = 12.39972 18.13231 15.26602
#
# Velocity S-wave (km/s) = 2.51160 3.03718 2.78681
# Velocity P-wave (km/s) = 4.08431 5.24143 4.69863
#
# Compressibility (1/GPa) = 0.06150969
#
# Stress axis : x y z
#
# Youngs Moduli (GPa) = 35.10219 10.36237 37.03298
#
# Poissons Ratio (x) = 0.28341 0.37573
# Poissons Ratio (y) = 0.96005 0.28687
# Poissons Ratio (z) = 0.35614 0.08027
#
# Static dielectric constant tensor:
#      x y z
#    x 1.741840 0.000000 0.000000 
#    y 0.000000 1.635940 0.000000 
#    z 0.000000 0.000000 1.656160 
# 
# From -- ./inp_files/5606.got.cif
#   From: 2010.05.17/outbox.cif.g08.bks.cpg/sg57_3_cif.got.tgz:5606.got - 2010.06.03 13:58:18.
