data_PCOD9435948
_publ_section_title
;
Structure prediction by ZEFSAII (Michael W. Deem and Ramdas Pophale) SiO2 
 PCOD9435948
Probable space group: P B C M
;
_chemical_formula_sum "Si O2"
_cell_formula_units_Z 64
_cell_length_a 24.706330
_cell_length_b 15.087916
_cell_length_c 8.734990
_cell_angle_alpha 90.000000
_cell_angle_beta 90.000000
_cell_angle_gamma 90.000000
_cell_volume 3256.116294
_symmetry_space_group_name_H-M "P B C M"
_symmetry_group_IT_number 57
_symmetry_cell_setting 'orthorhombic'
loop_
_space_group_symop_operation_xyz
x,y,z
-x,-y,1/2+z
x,1/2-y,-z
-x,1/2+y,1/2-z
-x,-y,-z
x,y,1/2-z
-x,1/2+y,z
x,1/2-y,1/2+z
loop_
_atom_site_type_symbol
_atom_site_label
_atom_site_fract_x
_atom_site_fract_y
_atom_site_fract_z
Si Si1 0.868121 0.970751 0.564146
Si Si2 0.249544 0.466464 0.565739
Si Si3 0.440657 0.488069 0.931868
Si Si4 0.033138 0.346812 0.564859
Si Si5 0.738373 0.159146 0.423145
Si Si6 0.085733 0.654238 0.933925
Si Si7 0.391867 0.839922 0.923172
Si Si8 0.647847 0.651066 0.435781
O O1 0.868476 0.968979 0.750000
O O2 0.809912 0.934095 0.514189
O O3 0.920149 0.914636 0.515833
O O4 0.875806 0.073321 0.519337
O O5 0.251389 0.465152 0.750000
O O6 0.252562 0.568383 0.513590
O O7 0.299937 0.406926 0.512439
O O8 0.444787 0.483171 0.750000
O O9 0.406060 0.402678 0.984207
O O10 0.500000 0.500000 0.000000
O O11 0.407185 0.574818 0.979466
O O12 0.047060 0.250000 0.500000
O O13 0.029555 0.344806 0.750000
O O14 0.974327 0.368325 0.495954
O O15 0.758771 0.250000 0.500000
O O16 0.759153 0.151937 0.250000
O O17 0.673021 0.167109 0.415876
O O18 0.083920 0.659625 0.750000
O O19 0.100727 0.750000 0.000000
O O20 0.412653 0.849466 0.750000
O O21 0.412942 0.750000 0.000000
O O22 0.649488 0.750000 0.500000
O O23 0.648629 0.654263 0.250000
#
# Coordination Sequence:
#
# PCOD9435948 Si02
#       8
#     8   8   8   8   8   8   8   8
#     4   9  20  35  55  80 111 147 186 231 286 338
#     4  10  20  39  60  82 114 152 191 239 288 342
#     4  11  23  40  61  90 120 155 194 240 292 344
#     4  10  19  34  54  79 108 144 186 233 285 340
#     4  10  20  34  56  85 113 146 185 228 280 339
#     4  10  19  34  54  79 108 146 186 229 282 340
#     4  10  20  35  58  86 116 149 184 230 281 338
#     4  10  23  41  64  87 115 154 197 236 286 339
#
# _framework density 19.655318000000001
#
# number of rings (size 3 to 8) (size 9 to 14) (size 15 to 20)
#    0.000    2.000    1.250    3.000    0.000    4.000 
#    0.000    6.875    0.000    0.000    0.000    0.000 
#    0.000    0.000    0.000    0.000    0.000    0.000 
#
# Total GULP energy -357257.482324 kJ/mol
# GULP energy per Si atom -5582.148161 kJ/mol
# Density = 1.961058 g / cm^3
# Si number density = 19.655318 Si / 1000 Ang^3
#
#
#
# Elastic Constant Matrix: (Units=GPa)
#
#
# Indices 1 2 3 4 5 6 
#
# 1 104.1634 60.7110 27.9689 0.0000 0.0000 0.0000
# 2 60.7110 120.4532 19.0470 0.0000 0.0000 0.0000
# 3 27.9689 19.0470 42.2058 0.0000 0.0000 0.0000
# 4 0.0000 0.0000 0.0000 31.1355 0.0000 0.0000
# 5 0.0000 0.0000 0.0000 0.0000 14.7389 0.0000
# 6 0.0000 0.0000 0.0000 0.0000 0.0000 -3.0090
#
#
#
# Elastic Compliance Matrix: (Units=1/GPa)
#
#
# Indices 1 2 3 4 5 6 
#
# 1 0.015395 -0.006619 -0.007215 0.000000 0.000000 0.000000
# 2 -0.006619 0.011785 -0.000933 0.000000 0.000000 0.000000
# 3 -0.007215 -0.000933 0.028896 0.000000 0.000000 0.000000
# 4 0.000000 0.000000 0.000000 0.032118 0.000000 0.000000
# 5 0.000000 0.000000 0.000000 0.000000 0.067848 0.000000
# 6 0.000000 0.000000 0.000000 0.000000 0.000000 -0.332333
#
#
# Mechanical properties :
#
#
# Convention : Reuss Voigt Hill
#
# Bulk Modulus (GPa) = 37.67403 53.58623 45.63013
# Shear Modulus (GPa) = -36.25525 19.17945 -8.53790
#
# Velocity S-wave (km/s) = -4.29948 3.12715 -2.08644
# Velocity P-wave (km/s) = 2.33205 6.35302 4.17866
#
# Compressibility (1/GPa) = 0.02654348
#
# Stress axis : x y z
#
# Youngs Moduli (GPa) = 64.95500 84.85091 34.60725
#
# Poissons Ratio (x) = 0.56160 0.24970
# Poissons Ratio (y) = 0.42991 0.03227
# Poissons Ratio (z) = 0.46866 0.07913
#
# Static dielectric constant tensor:
#      x y z
#    x 1.717640 0.000000 0.000000 
#    y 0.000000 1.668640 0.000000 
#    z 0.000000 0.000000 1.677840 
# 
# From -- ./inp_files/9432.got.cif
#   From: 2010.05.17/outbox.cif.g08.bks.cpg/sg57_5_cif.got.tgz:9432.got - 2010.06.03 13:58:18.
