data_PCOD9435436
_publ_section_title
;
Structure prediction by ZEFSAII (Michael W. Deem and Ramdas Pophale) SiO2 
 PCOD9435436
Probable space group: P B C M
;
_chemical_formula_sum "Si O2"
_cell_formula_units_Z 64
_cell_length_a 11.709287
_cell_length_b 34.503713
_cell_length_c 8.956467
_cell_angle_alpha 90.000000
_cell_angle_beta 90.000000
_cell_angle_gamma 90.000000
_cell_volume 3618.536967
_symmetry_space_group_name_H-M "P B C M"
_symmetry_group_IT_number 57
_symmetry_cell_setting 'orthorhombic'
loop_
_space_group_symop_operation_xyz
x,y,z
-x,-y,1/2+z
x,1/2-y,-z
-x,1/2+y,1/2-z
-x,-y,-z
x,y,1/2-z
-x,1/2+y,z
x,1/2-y,1/2+z
loop_
_atom_site_type_symbol
_atom_site_label
_atom_site_fract_x
_atom_site_fract_y
_atom_site_fract_z
Si Si1 0.728446 0.208710 0.570697
Si Si2 0.750574 0.974910 0.429248
Si Si3 0.361911 0.105050 0.930372
Si Si4 0.970285 0.558809 0.423868
Si Si5 0.765629 0.059888 0.430470
Si Si6 0.853643 0.642718 0.075966
Si Si7 0.381727 0.628142 0.930373
Si Si8 0.995152 0.208714 0.571526
O O1 0.695888 0.250000 0.500000
O O2 0.720519 0.212182 0.750000
O O3 0.655204 0.171450 0.522789
O O4 0.861835 0.200962 0.533153
O O5 0.752997 0.974593 0.250000
O O6 0.671686 0.938877 0.478216
O O7 0.878664 0.966291 0.486053
O O8 0.713933 0.018047 0.475427
O O9 0.353450 0.106634 0.750000
O O10 0.489135 0.117270 0.973609
O O11 0.267279 0.133102 0.000625
O O12 0.966940 0.546811 0.250000
O O13 0.925633 0.602889 0.433730
O O14 0.100961 0.558139 0.474499
O O15 0.760997 0.063531 0.250000
O O16 0.702305 0.095976 0.502880
O O17 0.839162 0.652350 0.250000
O O18 0.923374 0.675902 0.993080
O O19 0.374105 0.626765 0.750000
O O20 0.024692 0.250000 0.500000
O O21 0.004102 0.210442 0.750000
#
# Coordination Sequence:
#
# PCOD9435436 Si02
#       8
#     8   8   8   8   8   8   8   8
#     4   9  19  35  55  79 104 130 161 199 246 299
#     4   9  18  32  50  72  99 134 173 211 254 303
#     4   9  19  36  53  69  97 137 176 214 253 293
#     4   9  18  31  48  72 101 131 164 208 259 308
#     4  10  20  32  48  74 105 133 166 211 259 304
#     4  10  19  32  51  74  99 129 167 206 250 303
#     4  10  21  36  53  74 100 133 174 212 249 300
#     4  10  19  32  52  78 106 131 157 195 246 302
#
# _framework density 17.686706000000001
#
# number of rings (size 3 to 8) (size 9 to 14) (size 15 to 20)
#    0.000    2.500    0.000    1.875    0.000    3.500 
#    0.000    0.625    0.000    1.500    0.000    0.000 
#    0.000    0.000    0.000    0.000    0.000    0.000 
#
# Total GULP energy -357032.252761 kJ/mol
# GULP energy per Si atom -5578.628949 kJ/mol
# Density = 1.764645 g / cm^3
# Si number density = 17.686706 Si / 1000 Ang^3
#
#
#
# Elastic Constant Matrix: (Units=GPa)
#
#
# Indices 1 2 3 4 5 6 
#
# 1 90.0819 88.6892 23.4185 0.0000 0.0000 0.0000
# 2 88.6892 141.2427 38.2967 0.0000 0.0000 0.0000
# 3 23.4185 38.2967 18.1967 0.0000 0.0000 0.0000
# 4 0.0000 0.0000 0.0000 25.0566 0.0000 0.0000
# 5 0.0000 0.0000 0.0000 0.0000 22.0667 0.0000
# 6 0.0000 0.0000 0.0000 0.0000 0.0000 18.6103
#
#
#
# Elastic Compliance Matrix: (Units=1/GPa)
#
#
# Indices 1 2 3 4 5 6 
#
# 1 0.029119 -0.018920 0.002344 0.000000 0.000000 0.000000
# 2 -0.018920 0.028783 -0.036227 0.000000 0.000000 0.000000
# 3 0.002344 -0.036227 0.128183 0.000000 0.000000 0.000000
# 4 0.000000 0.000000 0.000000 0.039910 0.000000 0.000000
# 5 0.000000 0.000000 0.000000 0.000000 0.045317 0.000000
# 6 0.000000 0.000000 0.000000 0.000000 0.000000 0.053734
#
#
# Mechanical properties :
#
#
# Convention : Reuss Voigt Hill
#
# Bulk Modulus (GPa) = 12.42580 61.14778 36.78679
# Shear Modulus (GPa) = 10.92946 19.75450 15.34198
#
# Velocity S-wave (km/s) = 2.48855 3.34565 2.94841
# Velocity P-wave (km/s) = 3.91126 7.04076 5.69518
#
# Compressibility (1/GPa) = 0.08047775
#
# Stress axis : x y z
#
# Youngs Moduli (GPa) = 34.34150 34.74276 7.80136
#
# Poissons Ratio (x) = 0.65733 -0.01828
# Poissons Ratio (y) = 0.64974 0.28262
# Poissons Ratio (z) = -0.08048 1.25863
#
# Static dielectric constant tensor:
#      x y z
#    x 1.581230 0.000000 0.000000 
#    y 0.000000 1.600560 0.000000 
#    z 0.000000 0.000000 1.593320 
# 
# From -- ./inp_files/3866.got.cif
#   From: 2010.05.17/outbox.cif.g08.bks.cpg/sg57_2_cif.got.tgz:3866.got - 2010.06.03 13:58:18.
