data_PCOD9435624
_publ_section_title
;
Structure prediction by ZEFSAII (Michael W. Deem and Ramdas Pophale) SiO2 
 PCOD9435624
Probable space group: P B C M
;
_chemical_formula_sum "Si O2"
_cell_formula_units_Z 52
_cell_length_a 25.530479
_cell_length_b 5.158412
_cell_length_c 17.705778
_cell_angle_alpha 90.000000
_cell_angle_beta 90.000000
_cell_angle_gamma 90.000000
_cell_volume 2331.793051
_symmetry_space_group_name_H-M "P B C M"
_symmetry_group_IT_number 57
_symmetry_cell_setting 'orthorhombic'
loop_
_space_group_symop_operation_xyz
x,y,z
-x,-y,1/2+z
x,1/2-y,-z
-x,1/2+y,1/2-z
-x,-y,-z
x,y,1/2-z
-x,1/2+y,z
x,1/2-y,1/2+z
loop_
_atom_site_type_symbol
_atom_site_label
_atom_site_fract_x
_atom_site_fract_y
_atom_site_fract_z
Si Si1 0.290254 0.464715 0.341388
Si Si2 0.183651 0.672251 0.089336
Si Si3 0.469002 0.123968 0.342226
Si Si4 0.858454 0.828447 0.923057
Si Si5 0.964655 0.437825 0.415295
Si Si6 0.646659 0.033114 0.658387
Si Si7 0.030354 0.443667 0.750000
O O1 0.283213 0.467374 0.250000
O O2 0.237114 0.551974 0.381243
O O3 0.311095 0.183173 0.364891
O O4 0.334056 0.680187 0.361001
O O5 0.139077 0.458669 0.111684
O O6 0.171354 0.954782 0.124274
O O7 0.184454 0.750000 0.000000
O O8 0.467631 0.124682 0.250000
O O9 0.510793 0.905607 0.365346
O O10 0.411123 0.045000 0.368386
O O11 0.911431 0.968159 0.953134
O O12 0.828069 0.750000 0.000000
O O13 0.989821 0.155327 0.426616
O O14 0.945940 0.473966 0.328674
O O15 0.644836 0.023565 0.750000
O O16 0.979385 0.636070 0.750000
#
# Coordination Sequence:
#
# PCOD9435624 Si02
#       7
#     8   8   8   8   8   8   4
#     4  10  19  33  51  73  99 127 167 208 250 292
#     4  10  21  38  54  71 101 132 161 204 252 293
#     4   9  15  23  37  61  96 135 167 191 235 300
#     4  10  21  36  53  74  99 127 159 198 246 291
#     4  10  19  33  52  73  99 126 158 191 234 286
#     4   9  17  28  45  69 101 134 162 208 253 284
#     4   8  16  30  46  66  94 126 152 184 224 268
#
# _framework density 22.300435
#
# number of rings (size 3 to 8) (size 9 to 14) (size 15 to 20)
#    0.000    2.462    0.000    2.769    0.000    4.308 
#    2.769    0.000    0.000    0.000    0.000    0.000 
#    0.000   12.308    0.000    0.000    0.000    0.000 
#
# Total GULP energy -289716.983671 kJ/mol
# GULP energy per Si atom -5571.480455 kJ/mol
# Density = 2.224968 g / cm^3
# Si number density = 22.300435 Si / 1000 Ang^3
#
#
#
# Elastic Constant Matrix: (Units=GPa)
#
#
# Indices 1 2 3 4 5 6 
#
# 1 67.2367 -10.5083 1.8481 0.0000 0.0000 0.0000
# 2 -10.5083 110.4284 -3.0342 0.0000 0.0000 0.0000
# 3 1.8481 -3.0342 23.5846 0.0000 0.0000 0.0000
# 4 0.0000 0.0000 0.0000 1.7303 0.0000 0.0000
# 5 0.0000 0.0000 0.0000 0.0000 0.7978 0.0000
# 6 0.0000 0.0000 0.0000 0.0000 0.0000 33.7944
#
#
#
# Elastic Compliance Matrix: (Units=1/GPa)
#
#
# Indices 1 2 3 4 5 6 
#
# 1 0.015121 0.001411 -0.001003 0.000000 0.000000 0.000000
# 2 0.001411 0.009219 0.001076 0.000000 0.000000 0.000000
# 3 -0.001003 0.001076 0.042618 0.000000 0.000000 0.000000
# 4 0.000000 0.000000 0.000000 0.577944 0.000000 0.000000
# 5 0.000000 0.000000 0.000000 0.000000 1.253501 0.000000
# 6 0.000000 0.000000 0.000000 0.000000 0.000000 0.029591
#
#
# Mechanical properties :
#
#
# Convention : Reuss Voigt Hill
#
# Bulk Modulus (GPa) = 14.30101 19.76232 17.03167
# Shear Modulus (GPa) = 2.56629 21.46076 12.01352
#
# Velocity S-wave (km/s) = 1.07391 3.10554 2.32354
# Velocity P-wave (km/s) = 2.82215 4.66264 3.85388
#
# Compressibility (1/GPa) = 0.06992511
#
# Stress axis : x y z
#
# Youngs Moduli (GPa) = 66.13323 108.46578 23.46447
#
# Poissons Ratio (x) = -0.15308 0.02354
# Poissons Ratio (y) = -0.09334 -0.02524
# Poissons Ratio (z) = 0.06635 -0.11666
#
# Static dielectric constant tensor:
#      x y z
#    x 1.825110 0.000000 0.000000 
#    y 0.000000 1.964420 0.000000 
#    z 0.000000 0.000000 1.911220 
# 
# From -- ./inp_files/25729.got.cif
#   From: 2010.05.17/outbox.cif.g08.bks.cpg/sg57_13_cif.got.tgz:25729.got - 2010.06.03 13:58:18.
