data_PCOD9435498
_publ_section_title
;
Structure prediction by ZEFSAII (Michael W. Deem and Ramdas Pophale) SiO2 
 PCOD9435498
Probable space group: P B C M
;
_chemical_formula_sum "Si O2"
_cell_formula_units_Z 64
_cell_length_a 17.262241
_cell_length_b 24.207619
_cell_length_c 8.610520
_cell_angle_alpha 90.000000
_cell_angle_beta 90.000000
_cell_angle_gamma 90.000000
_cell_volume 3598.144752
_symmetry_space_group_name_H-M "P B C M"
_symmetry_group_IT_number 57
_symmetry_cell_setting 'orthorhombic'
loop_
_space_group_symop_operation_xyz
x,y,z
-x,-y,1/2+z
x,1/2-y,-z
-x,1/2+y,1/2-z
-x,-y,-z
x,y,1/2-z
-x,1/2+y,z
x,1/2-y,1/2+z
loop_
_atom_site_type_symbol
_atom_site_label
_atom_site_fract_x
_atom_site_fract_y
_atom_site_fract_z
Si Si1 0.745388 0.807873 0.936946
Si Si2 0.435080 0.191170 0.437329
Si Si3 0.336649 0.983348 0.435048
Si Si4 0.915292 0.487858 0.063638
Si Si5 0.560772 0.394024 0.562977
Si Si6 0.301369 0.810853 0.935542
Si Si7 0.198641 0.593702 0.063628
Si Si8 0.779589 0.572104 0.439215
O O1 0.748031 0.806156 0.750000
O O2 0.654772 0.812018 0.983463
O O3 0.784466 0.864684 0.990807
O O4 0.776633 0.750000 0.000000
O O5 0.466551 0.250000 0.500000
O O6 0.439337 0.193278 0.250000
O O7 0.482326 0.136756 0.487235
O O8 0.344115 0.984406 0.250000
O O9 0.413133 0.953910 0.501546
O O10 0.265946 0.943438 0.486241
O O11 0.301802 0.042683 0.485936
O O12 0.915839 0.486678 0.250000
O O13 0.852645 0.534664 0.012902
O O14 0.881145 0.430427 0.999005
O O15 0.000000 0.500000 0.000000
O O16 0.560675 0.397873 0.750000
O O17 0.627467 0.350073 0.514828
O O18 0.306069 0.807838 0.750000
O O19 0.222780 0.843863 0.975912
O O20 0.305885 0.750000 0.000000
O O21 0.202960 0.587257 0.250000
O O22 0.779097 0.571899 0.250000
#
# Coordination Sequence:
#
# PCOD9435498 Si02
#       8
#     8   8   8   8   8   8   8   8
#     4   9  17  32  51  70  92 121 156 196 236 279
#     4   9  17  28  44  63  87 120 159 201 246 285
#     4   9  16  27  44  65  87 120 159 192 229 277
#     4  10  19  32  52  77  98 120 148 181 224 276
#     4   9  17  28  39  59  90 122 155 197 244 281
#     4   9  17  26  39  59  86 119 154 187 222 262
#     4   9  17  30  45  65  94 123 149 185 227 268
#     4   8  16  31  50  70  95 123 151 183 229 282
#
# _framework density 17.786943999999998
#
# number of rings (size 3 to 8) (size 9 to 14) (size 15 to 20)
#    0.000    3.000    0.000    3.000    0.000    3.000 
#    0.000    4.375    0.000    0.750    0.000    1.750 
#    0.000    0.000    0.000    0.000    0.000    0.000 
#
# Total GULP energy -356308.916277 kJ/mol
# GULP energy per Si atom -5567.326817 kJ/mol
# Density = 1.774646 g / cm^3
# Si number density = 17.786944 Si / 1000 Ang^3
#
#
#
# Elastic Constant Matrix: (Units=GPa)
#
#
# Indices 1 2 3 4 5 6 
#
# 1 39.5291 17.0207 5.9560 0.0000 0.0000 0.0000
# 2 17.0207 94.3336 12.4625 0.0000 0.0000 0.0000
# 3 5.9560 12.4625 8.2916 0.0000 0.0000 0.0000
# 4 0.0000 0.0000 0.0000 24.2076 0.0000 0.0000
# 5 0.0000 0.0000 0.0000 0.0000 6.0868 0.0000
# 6 0.0000 0.0000 0.0000 0.0000 0.0000 20.6774
#
#
#
# Elastic Compliance Matrix: (Units=1/GPa)
#
#
# Indices 1 2 3 4 5 6 
#
# 1 0.029078 -0.003103 -0.016223 0.000000 0.000000 0.000000
# 2 -0.003103 0.013558 -0.018149 0.000000 0.000000 0.000000
# 3 -0.016223 -0.018149 0.159535 0.000000 0.000000 0.000000
# 4 0.000000 0.000000 0.000000 0.041309 0.000000 0.000000
# 5 0.000000 0.000000 0.000000 0.000000 0.164289 0.000000
# 6 0.000000 0.000000 0.000000 0.000000 0.000000 0.048362
#
#
# Mechanical properties :
#
#
# Convention : Reuss Voigt Hill
#
# Bulk Modulus (GPa) = 7.86036 23.67032 15.76534
# Shear Modulus (GPa) = 8.71854 17.30871 13.01363
#
# Velocity S-wave (km/s) = 2.21637 3.12286 2.70782
# Velocity P-wave (km/s) = 3.31338 5.13221 4.31961
#
# Compressibility (1/GPa) = 0.12722063
#
# Stress axis : x y z
#
# Youngs Moduli (GPa) = 34.38968 73.75533 6.26821
#
# Poissons Ratio (x) = 0.22889 0.10169
# Poissons Ratio (y) = 0.10673 0.11376
# Poissons Ratio (z) = 0.55791 1.33860
#
# Static dielectric constant tensor:
#      x y z
#    x 1.636330 0.000000 0.000000 
#    y 0.000000 1.638740 0.000000 
#    z 0.000000 0.000000 1.606230 
# 
# From -- ./inp_files/7385.got.cif
#   From: 2010.05.17/outbox.cif.g08.bks.cpg/sg57_4_cif.got.tgz:7385.got - 2010.06.03 13:58:18.
