data_PCOD9435987
_publ_section_title
;
Structure prediction by ZEFSAII (Michael W. Deem and Ramdas Pophale) SiO2 
 PCOD9435987
Probable space group: P B C M
;
_chemical_formula_sum "Si O2"
_cell_formula_units_Z 60
_cell_length_a 9.775279
_cell_length_b 14.121306
_cell_length_c 18.160461
_cell_angle_alpha 90.000000
_cell_angle_beta 90.000000
_cell_angle_gamma 90.000000
_cell_volume 2506.864697
_symmetry_space_group_name_H-M "P B C M"
_symmetry_group_IT_number 57
_symmetry_cell_setting 'orthorhombic'
loop_
_space_group_symop_operation_xyz
x,y,z
-x,-y,1/2+z
x,1/2-y,-z
-x,1/2+y,1/2-z
-x,-y,-z
x,y,1/2-z
-x,1/2+y,z
x,1/2-y,1/2+z
loop_
_atom_site_type_symbol
_atom_site_label
_atom_site_fract_x
_atom_site_fract_y
_atom_site_fract_z
Si Si1 0.215242 0.745537 0.330678
Si Si2 0.439049 0.676701 0.565403
Si Si3 0.095520 0.489928 0.614139
Si Si4 0.322988 0.951051 0.837953
Si Si5 0.965280 0.113646 0.750000
Si Si6 0.280279 0.131271 0.937040
Si Si7 0.389550 0.460603 0.585207
Si Si8 0.988504 0.148316 0.503729
O O1 0.282693 0.741226 0.250000
O O2 0.319757 0.803931 0.378166
O O3 0.224687 0.637390 0.355072
O O4 0.078354 0.804501 0.313639
O O5 0.420018 0.750000 0.500000
O O6 0.594292 0.692342 0.594824
O O7 0.423502 0.564389 0.551283
O O8 0.021252 0.533377 0.684631
O O9 0.253975 0.472030 0.635001
O O10 0.034189 0.397780 0.573668
O O11 0.092697 0.567692 0.547817
O O12 0.326770 0.970310 0.750000
O O13 0.476023 0.930088 0.869693
O O14 0.272533 0.040658 0.884433
O O15 0.129078 0.167902 0.950824
O O16 0.337651 0.104355 0.018214
O O17 0.915784 0.250000 0.500000
#
# Coordination Sequence:
#
# PCOD9435987 Si02
#       8
#     8   8   8   8   4   8   8   8
#     4   9  19  34  53  89 127 160 202 255 309 389
#     4  11  18  28  52  86 117 159 203 257 313 385
#     4  10  22  42  68  93 123 167 216 279 324 383
#     4  10  20  34  54  88 130 166 198 246 326 388
#     4  10  20  42  62  94 128 158 204 264 324 386
#     4  10  21  35  56  79 121 161 205 259 317 384
#     4  10  19  34  55  85 118 160 202 256 317 383
#     4  10  23  46  66  92 122 167 223 277 327 378
#
# _framework density 23.934280000000001
#
# number of rings (size 3 to 8) (size 9 to 14) (size 15 to 20)
#    0.400    1.600    1.333    3.600    0.933    3.733 
#    8.400    0.667    0.000    0.000    0.000    0.000 
#    0.000    0.000    0.000    0.000    0.000    0.000 
#
# Total GULP energy -334088.597532 kJ/mol
# GULP energy per Si atom -5568.143292 kJ/mol
# Density = 2.387980 g / cm^3
# Si number density = 23.934280 Si / 1000 Ang^3
#
#
#
# Elastic Constant Matrix: (Units=GPa)
#
#
# Indices 1 2 3 4 5 6 
#
# 1 108.9022 7.4159 29.4850 0.0000 0.0000 0.0000
# 2 7.4159 119.0989 44.2237 0.0000 0.0000 0.0000
# 3 29.4850 44.2237 65.6372 0.0000 0.0000 0.0000
# 4 0.0000 0.0000 0.0000 -6.7476 0.0000 0.0000
# 5 0.0000 0.0000 0.0000 0.0000 -14.2449 0.0000
# 6 0.0000 0.0000 0.0000 0.0000 0.0000 18.1360
#
#
#
# Elastic Compliance Matrix: (Units=1/GPa)
#
#
# Indices 1 2 3 4 5 6 
#
# 1 0.010647 0.001484 -0.005783 0.000000 0.000000 0.000000
# 2 0.001484 0.011405 -0.008351 0.000000 0.000000 0.000000
# 3 -0.005783 -0.008351 0.023459 0.000000 0.000000 0.000000
# 4 0.000000 0.000000 0.000000 -0.148202 0.000000 0.000000
# 5 0.000000 0.000000 0.000000 0.000000 -0.070201 0.000000
# 6 0.000000 0.000000 0.000000 0.000000 0.000000 0.055139
#
#
# Mechanical properties :
#
#
# Convention : Reuss Voigt Hill
#
# Bulk Modulus (GPa) = 49.47419 50.65418 50.06419
# Shear Modulus (GPa) = -58.33257 13.59629 -22.36814
#
# Velocity S-wave (km/s) = -4.94215 2.38600 -3.06038
# Velocity P-wave (km/s) = 3.44250 5.36661 2.91116
#
# Compressibility (1/GPa) = 0.02021256
#
# Stress axis : x y z
#
# Youngs Moduli (GPa) = 93.92157 87.68239 42.62667
#
# Poissons Ratio (x) = -0.13015 0.24651
# Poissons Ratio (y) = -0.13941 0.35597
# Poissons Ratio (z) = 0.54314 0.73223
#
# Static dielectric constant tensor:
#      x y z
#    x 2.009170 0.000000 0.000000 
#    y 0.000000 2.071900 0.000000 
#    z 0.000000 0.000000 1.926130 
# 
# From -- ./inp_files/21972.got.cif
#   From: 2010.05.17/outbox.cif.g08.bks.cpg/sg57_11_cif.got.tgz:21972.got - 2010.06.03 13:58:18.
