data_PCOD9435569
_publ_section_title
;
Structure prediction by ZEFSAII (Michael W. Deem and Ramdas Pophale) SiO2 
 PCOD9435569
Probable space group: P B C M
;
_chemical_formula_sum "Si O2"
_cell_formula_units_Z 64
_cell_length_a 11.090441
_cell_length_b 34.478864
_cell_length_c 8.913523
_cell_angle_alpha 90.000000
_cell_angle_beta 90.000000
_cell_angle_gamma 90.000000
_cell_volume 3408.404685
_symmetry_space_group_name_H-M "P B C M"
_symmetry_group_IT_number 57
_symmetry_cell_setting 'orthorhombic'
loop_
_space_group_symop_operation_xyz
x,y,z
-x,-y,1/2+z
x,1/2-y,-z
-x,1/2+y,1/2-z
-x,-y,-z
x,y,1/2-z
-x,1/2+y,z
x,1/2-y,1/2+z
loop_
_atom_site_type_symbol
_atom_site_label
_atom_site_fract_x
_atom_site_fract_y
_atom_site_fract_z
Si Si1 0.944600 0.055943 0.572899
Si Si2 0.651859 0.871206 0.570959
Si Si3 0.173657 0.637134 0.925260
Si Si4 0.295606 0.980372 0.571082
Si Si5 0.947520 0.290536 0.571715
Si Si6 0.417442 0.591182 0.570785
Si Si7 0.772003 0.708965 0.430949
Si Si8 0.202456 0.052678 0.072318
O O1 0.939830 0.046088 0.750000
O O2 0.921179 0.101979 0.558472
O O3 0.833226 0.036157 0.487572
O O4 0.072612 0.045992 0.502173
O O5 0.626970 0.870164 0.750000
O O6 0.536110 0.887429 0.485668
O O7 0.695187 0.828569 0.522925
O O8 0.756471 0.903110 0.548287
O O9 0.178381 0.647935 0.750000
O O10 0.302197 0.618376 0.966498
O O11 0.133035 0.673777 0.019337
O O12 0.299637 0.981543 0.750000
O O13 0.393231 0.950190 0.507417
O O14 0.298024 0.023354 0.502127
O O15 0.907944 0.250000 0.500000
O O16 0.945048 0.287221 0.750000
O O17 0.087534 0.297123 0.525482
O O18 0.418202 0.585506 0.750000
O O19 0.732447 0.750000 0.500000
O O20 0.767392 0.711463 0.250000
O O21 0.196566 0.045368 0.250000
#
# Coordination Sequence:
#
# PCOD9435569 Si02
#       8
#     8   8   8   8   8   8   8   8
#     4  10  20  35  55  81 112 144 181 226 277 332
#     4  10  22  39  58  81 110 145 187 230 271 322
#     4   9  19  35  54  77 106 139 177 222 270 323
#     4  11  22  37  57  80 109 146 185 226 278 332
#     4  10  19  32  54  83 114 144 174 215 268 327
#     4  10  22  40  59  79 106 142 186 232 275 322
#     4   9  19  36  57  84 114 142 175 215 265 321
#     4  11  22  36  55  81 113 146 184 230 275 324
#
# _framework density 18.777111000000001
#
# number of rings (size 3 to 8) (size 9 to 14) (size 15 to 20)
#    0.000    2.000    0.000    4.500    0.000    6.500 
#    0.000    0.625    0.000    1.500    0.000    0.000 
#    0.000    0.000    0.000    0.000    0.000    0.000 
#
# Total GULP energy -357524.168723 kJ/mol
# GULP energy per Si atom -5586.315136 kJ/mol
# Density = 1.873437 g / cm^3
# Si number density = 18.777111 Si / 1000 Ang^3
#
#
#
# Elastic Constant Matrix: (Units=GPa)
#
#
# Indices 1 2 3 4 5 6 
#
# 1 39.5101 14.7677 15.7862 0.0000 0.0000 0.0000
# 2 14.7677 103.9606 37.7322 0.0000 0.0000 0.0000
# 3 15.7862 37.7322 58.5495 0.0000 0.0000 0.0000
# 4 0.0000 0.0000 0.0000 34.8192 0.0000 0.0000
# 5 0.0000 0.0000 0.0000 0.0000 25.5577 0.0000
# 6 0.0000 0.0000 0.0000 0.0000 0.0000 20.8150
#
#
#
# Elastic Compliance Matrix: (Units=1/GPa)
#
#
# Indices 1 2 3 4 5 6 
#
# 1 0.028581 -0.001649 -0.006643 0.000000 0.000000 0.000000
# 2 -0.001649 0.012651 -0.007708 0.000000 0.000000 0.000000
# 3 -0.006643 -0.007708 0.023838 0.000000 0.000000 0.000000
# 4 0.000000 0.000000 0.000000 0.028720 0.000000 0.000000
# 5 0.000000 0.000000 0.000000 0.000000 0.039127 0.000000
# 6 0.000000 0.000000 0.000000 0.000000 0.000000 0.048042
#
#
# Mechanical properties :
#
#
# Convention : Reuss Voigt Hill
#
# Bulk Modulus (GPa) = 30.23984 37.62139 33.93062
# Shear Modulus (GPa) = 22.32310 25.15399 23.73854
#
# Velocity S-wave (km/s) = 3.45171 3.66404 3.55946
# Velocity P-wave (km/s) = 5.65909 6.16275 5.91628
#
# Compressibility (1/GPa) = 0.03306896
#
# Stress axis : x y z
#
# Youngs Moduli (GPa) = 34.98880 79.04526 41.94903
#
# Poissons Ratio (x) = 0.13032 0.27869
# Poissons Ratio (y) = 0.05769 0.32336
# Poissons Ratio (z) = 0.23245 0.60931
#
# Static dielectric constant tensor:
#      x y z
#    x 1.639280 0.000000 0.000000 
#    y 0.000000 1.652600 0.000000 
#    z 0.000000 0.000000 1.627130 
# 
# From -- ./inp_files/3852.got.cif
#   From: 2010.05.17/outbox.cif.g08.bks.cpg/sg57_2_cif.got.tgz:3852.got - 2010.06.03 13:58:18.
