data_PCOD9435009
_publ_section_title
;
Structure prediction by ZEFSAII (Michael W. Deem and Ramdas Pophale) SiO2 
 PCOD9435009
Probable space group: P B C M
;
_chemical_formula_sum "Si O2"
_cell_formula_units_Z 56
_cell_length_a 15.002905
_cell_length_b 21.074435
_cell_length_c 9.570723
_cell_angle_alpha 90.000000
_cell_angle_beta 90.000000
_cell_angle_gamma 90.000000
_cell_volume 3026.049628
_symmetry_space_group_name_H-M "P B C M"
_symmetry_group_IT_number 57
_symmetry_cell_setting 'orthorhombic'
loop_
_space_group_symop_operation_xyz
x,y,z
-x,-y,1/2+z
x,1/2-y,-z
-x,1/2+y,1/2-z
-x,-y,-z
x,y,1/2-z
-x,1/2+y,z
x,1/2-y,1/2+z
loop_
_atom_site_type_symbol
_atom_site_label
_atom_site_fract_x
_atom_site_fract_y
_atom_site_fract_z
Si Si1 0.341753 0.191477 0.406058
Si Si2 0.960180 0.687768 0.584463
Si Si3 0.427861 0.956743 0.917953
Si Si4 0.775814 0.875901 0.407367
Si Si5 0.944030 0.054175 0.582512
Si Si6 0.555592 0.310609 0.590817
Si Si7 0.780356 0.478767 0.591680
O O1 0.311753 0.250000 0.500000
O O2 0.306955 0.195782 0.250000
O O3 0.303845 0.130797 0.484237
O O4 0.448085 0.192810 0.402797
O O5 0.986959 0.750000 0.500000
O O6 0.966118 0.700124 0.750000
O O7 0.857666 0.669031 0.553298
O O8 0.015321 0.623805 0.555118
O O9 0.447562 0.959070 0.750000
O O10 0.427776 0.882251 0.961549
O O11 0.325385 0.978097 0.937295
O O12 0.500000 0.000000 0.000000
O O13 0.744666 0.860578 0.250000
O O14 0.809070 0.947676 0.405607
O O15 0.946952 0.457529 0.250000
O O16 0.843825 0.053307 0.521240
O O17 0.000000 0.000000 0.500000
O O18 0.585948 0.250000 0.500000
O O19 0.590005 0.305631 0.750000
O O20 0.793156 0.453004 0.750000
#
# Coordination Sequence:
#
# PCOD9435009 Si02
#       7
#     8   8   8   8   8   8   8
#     4  10  19  30  46  71 104 141 185 231 282 344
#     4  10  22  38  56  82 115 149 190 237 287 345
#     4  10  21  37  59  87 121 155 195 246 299 352
#     4  10  19  33  51  76 111 144 182 230 284 348
#     4  11  22  40  63  87 116 152 195 241 286 345
#     4   9  19  35  53  76 107 148 195 241 289 347
#     4  10  21  38  59  85 116 153 193 240 295 349
#
# _framework density 18.505976
#
# number of rings (size 3 to 8) (size 9 to 14) (size 15 to 20)
#    0.000    2.000    1.429    2.143    0.000    5.143 
#    0.000    0.714    0.000    3.429    0.000    0.000 
#    0.000    0.000    0.000    0.000    0.000    0.000 
#
# Total GULP energy -312200.147990 kJ/mol
# GULP energy per Si atom -5575.002643 kJ/mol
# Density = 1.846386 g / cm^3
# Si number density = 18.505976 Si / 1000 Ang^3
#
#
#
# Elastic Constant Matrix: (Units=GPa)
#
#
# Indices 1 2 3 4 5 6 
#
# 1 63.3474 31.3457 39.2229 0.0000 0.0000 0.0000
# 2 31.3457 122.8328 51.8121 0.0000 0.0000 0.0000
# 3 39.2229 51.8121 80.7691 0.0000 0.0000 0.0000
# 4 0.0000 0.0000 0.0000 31.3650 0.0000 0.0000
# 5 0.0000 0.0000 0.0000 0.0000 24.4709 0.0000
# 6 0.0000 0.0000 0.0000 0.0000 0.0000 30.3262
#
#
#
# Elastic Compliance Matrix: (Units=1/GPa)
#
#
# Indices 1 2 3 4 5 6 
#
# 1 0.022793 -0.001573 -0.010059 0.000000 0.000000 0.000000
# 2 -0.001573 0.011270 -0.006465 0.000000 0.000000 0.000000
# 3 -0.010059 -0.006465 0.021413 0.000000 0.000000 0.000000
# 4 0.000000 0.000000 0.000000 0.031883 0.000000 0.000000
# 5 0.000000 0.000000 0.000000 0.000000 0.040865 0.000000
# 6 0.000000 0.000000 0.000000 0.000000 0.000000 0.032975
#
#
# Mechanical properties :
#
#
# Convention : Reuss Voigt Hill
#
# Bulk Modulus (GPa) = 51.86726 56.85674 54.36200
# Shear Modulus (GPa) = 24.53129 26.87033 25.70081
#
# Velocity S-wave (km/s) = 3.64481 3.81462 3.73068
# Velocity P-wave (km/s) = 6.76764 7.08463 6.92795
#
# Compressibility (1/GPa) = 0.01927999
#
# Stress axis : x y z
#
# Youngs Moduli (GPa) = 43.87316 88.73260 46.69975
#
# Poissons Ratio (x) = 0.13961 0.46977
# Poissons Ratio (y) = 0.06903 0.30193
# Poissons Ratio (z) = 0.44134 0.57369
#
# Static dielectric constant tensor:
#      x y z
#    x 1.644720 0.000000 0.000000 
#    y 0.000000 1.674500 0.000000 
#    z 0.000000 0.000000 1.640460 
# 
# From -- ./inp_files/5111.got.cif
#   From: 2010.05.17/outbox.cif.g08.bks.cpg/sg57_3_cif.got.tgz:5111.got - 2010.06.03 13:58:18.
