data_PCOD9435083
_publ_section_title
;
Structure prediction by ZEFSAII (Michael W. Deem and Ramdas Pophale) SiO2 
 PCOD9435083
Probable space group: P B C M
;
_chemical_formula_sum "Si O2"
_cell_formula_units_Z 64
_cell_length_a 18.846801
_cell_length_b 25.799648
_cell_length_c 9.049931
_cell_angle_alpha 90.000000
_cell_angle_beta 90.000000
_cell_angle_gamma 90.000000
_cell_volume 4400.445977
_symmetry_space_group_name_H-M "P B C M"
_symmetry_group_IT_number 57
_symmetry_cell_setting 'orthorhombic'
loop_
_space_group_symop_operation_xyz
x,y,z
-x,-y,1/2+z
x,1/2-y,-z
-x,1/2+y,1/2-z
-x,-y,-z
x,y,1/2-z
-x,1/2+y,z
x,1/2-y,1/2+z
loop_
_atom_site_type_symbol
_atom_site_label
_atom_site_fract_x
_atom_site_fract_y
_atom_site_fract_z
Si Si1 0.599192 0.542616 0.579477
Si Si2 0.783098 0.197423 0.426659
Si Si3 0.735559 0.993334 0.573698
Si Si4 0.112623 0.489385 0.426512
Si Si5 0.007300 0.580948 0.427648
Si Si6 0.051381 0.803991 0.572119
Si Si7 0.313195 0.899711 0.928504
Si Si8 0.464610 0.574731 0.420588
O O1 0.614389 0.553668 0.750000
O O2 0.671457 0.542602 0.486309
O O3 0.535112 0.577172 0.517185
O O4 0.567478 0.483866 0.571380
O O5 0.757044 0.250000 0.500000
O O6 0.781257 0.202546 0.250000
O O7 0.865460 0.190104 0.469190
O O8 0.735278 0.148752 0.466707
O O9 0.737767 0.992129 0.750000
O O10 0.812231 0.981542 0.504993
O O11 0.715056 0.050312 0.513753
O O12 0.120415 0.484887 0.250000
O O13 0.078124 0.546391 0.456917
O O14 0.055859 0.448083 0.487953
O O15 0.995709 0.578170 0.250000
O O16 0.015372 0.641300 0.469297
O O17 0.025713 0.750000 0.500000
O O18 0.046907 0.799236 0.750000
O O19 0.308880 0.909336 0.750000
O O20 0.396315 0.891403 0.963517
O O21 0.483142 0.584310 0.250000
#
# Coordination Sequence:
#
# PCOD9435083 Si02
#       8
#     8   8   8   8   8   8   8   8
#     4   9  16  26  39  55  79 108 135 166 203 240
#     4   9  17  29  43  60  83 111 141 175 213 248
#     4  11  20  28  41  61  84 110 143 177 208 249
#     4  10  19  31  46  63  86 115 145 177 217 263
#     4   9  18  32  47  63  85 113 144 179 217 257
#     4   9  17  29  45  63  85 112 143 179 216 254
#     4   9  17  29  43  58  81 113 145 176 212 251
#     4   8  14  24  38  56  77 104 137 169 201 238
#
# _framework density 14.543981
#
# number of rings (size 3 to 8) (size 9 to 14) (size 15 to 20)
#    0.000    2.750    0.000    3.375    0.000    6.500 
#    0.000    2.500    0.000    0.000    0.000    0.000 
#    0.000    1.000    0.000    6.250    0.000    4.625 
#
# Total GULP energy -356430.988585 kJ/mol
# GULP energy per Si atom -5569.234197 kJ/mol
# Density = 1.451088 g / cm^3
# Si number density = 14.543981 Si / 1000 Ang^3
#
#
#
# Elastic Constant Matrix: (Units=GPa)
#
#
# Indices 1 2 3 4 5 6 
#
# 1 92.9896 29.3657 49.3446 0.0000 0.0000 0.0000
# 2 29.3657 68.8560 26.1163 0.0000 0.0000 0.0000
# 3 49.3446 26.1163 57.1444 0.0000 0.0000 0.0000
# 4 0.0000 0.0000 0.0000 19.0668 0.0000 0.0000
# 5 0.0000 0.0000 0.0000 0.0000 25.7200 0.0000
# 6 0.0000 0.0000 0.0000 0.0000 0.0000 17.3023
#
#
#
# Elastic Compliance Matrix: (Units=1/GPa)
#
#
# Indices 1 2 3 4 5 6 
#
# 1 0.020176 -0.002415 -0.016318 0.000000 0.000000 0.000000
# 2 -0.002415 0.017858 -0.006076 0.000000 0.000000 0.000000
# 3 -0.016318 -0.006076 0.034367 0.000000 0.000000 0.000000
# 4 0.000000 0.000000 0.000000 0.052447 0.000000 0.000000
# 5 0.000000 0.000000 0.000000 0.000000 0.038880 0.000000
# 6 0.000000 0.000000 0.000000 0.000000 0.000000 0.057796
#
#
# Mechanical properties :
#
#
# Convention : Reuss Voigt Hill
#
# Bulk Modulus (GPa) = 43.89385 47.62702 45.76044
# Shear Modulus (GPa) = 17.93815 20.02872 18.98343
#
# Velocity S-wave (km/s) = 3.51575 3.71497 3.61673
# Velocity P-wave (km/s) = 6.83566 7.15677 6.99806
#
# Compressibility (1/GPa) = 0.02278223
#
# Stress axis : x y z
#
# Youngs Moduli (GPa) = 49.56452 55.99862 29.09771
#
# Poissons Ratio (x) = 0.13525 0.47482
# Poissons Ratio (y) = 0.11971 0.17679
# Poissons Ratio (z) = 0.80879 0.34023
#
# Static dielectric constant tensor:
#      x y z
#    x 1.488010 0.000000 0.000000 
#    y 0.000000 1.467810 0.000000 
#    z 0.000000 0.000000 1.485230 
# 
# From -- ./inp_files/7471.got.cif
#   From: 2010.05.17/outbox.cif.g08.bks.cpg/sg57_4_cif.got.tgz:7471.got - 2010.06.03 13:58:18.
