data_PCOD9435649
_publ_section_title
;
Structure prediction by ZEFSAII (Michael W. Deem and Ramdas Pophale) SiO2 
 PCOD9435649
Probable space group: P B C M
;
_chemical_formula_sum "Si O2"
_cell_formula_units_Z 48
_cell_length_a 9.412811
_cell_length_b 33.309642
_cell_length_c 8.893445
_cell_angle_alpha 90.000000
_cell_angle_beta 90.000000
_cell_angle_gamma 90.000000
_cell_volume 2788.427308
_symmetry_space_group_name_H-M "P B C M"
_symmetry_group_IT_number 57
_symmetry_cell_setting 'orthorhombic'
loop_
_space_group_symop_operation_xyz
x,y,z
-x,-y,1/2+z
x,1/2-y,-z
-x,1/2+y,1/2-z
-x,-y,-z
x,y,1/2-z
-x,1/2+y,z
x,1/2-y,1/2+z
loop_
_atom_site_type_symbol
_atom_site_label
_atom_site_fract_x
_atom_site_fract_y
_atom_site_fract_z
Si Si1 0.436053 0.040185 0.930694
Si Si2 0.913373 0.707451 0.067977
Si Si3 0.179885 0.417492 0.576055
Si Si4 0.363902 0.334902 0.922474
Si Si5 0.934285 0.129900 0.931339
Si Si6 0.608190 0.379830 0.429896
O O1 0.431746 0.037971 0.750000
O O2 0.536760 0.077862 0.975150
O O3 0.279671 0.050254 0.994448
O O4 0.500000 0.000000 0.000000
O O5 0.920233 0.706905 0.250000
O O6 0.749327 0.697885 0.022642
O O7 0.956636 0.750000 0.000000
O O8 0.006953 0.671247 0.001724
O O9 0.154705 0.428077 0.750000
O O10 0.271934 0.376172 0.574133
O O11 0.035295 0.405677 0.492063
O O12 0.400165 0.326187 0.750000
O O13 0.506491 0.344446 0.011432
O O14 0.943765 0.131639 0.750000
O O15 0.771090 0.123644 0.977989
O O16 0.605987 0.378701 0.250000
#
# Coordination Sequence:
#
# PCOD9435649 Si02
#       6
#     8   8   8   8   8   8
#     4  10  19  33  52  75 101 131 167 211 256 300
#     4  10  20  34  52  76 101 130 166 205 246 293
#     4   9  17  31  50  73  98 129 167 204 242 293
#     4   8  16  30  49  71  95 123 160 199 238 284
#     4  10  19  33  52  75 102 134 167 203 247 299
#     4   9  19  33  51  74 100 129 164 202 246 297
#
# _framework density 17.214005
#
# number of rings (size 3 to 8) (size 9 to 14) (size 15 to 20)
#    0.000    2.667    0.000    3.000    0.000    6.667 
#    0.000    1.667    0.000    2.000    0.000    0.000 
#    0.000    0.000    0.000    0.000    0.000    0.000 
#
# Total GULP energy -267484.974888 kJ/mol
# GULP energy per Si atom -5572.603644 kJ/mol
# Density = 1.717483 g / cm^3
# Si number density = 17.214005 Si / 1000 Ang^3
#
#
#
# Elastic Constant Matrix: (Units=GPa)
#
#
# Indices 1 2 3 4 5 6 
#
# 1 134.4897 27.9726 41.9931 0.0000 0.0000 0.0000
# 2 27.9726 51.6475 23.3033 0.0000 0.0000 0.0000
# 3 41.9931 23.3033 58.3830 0.0000 0.0000 0.0000
# 4 0.0000 0.0000 0.0000 17.6877 0.0000 0.0000
# 5 0.0000 0.0000 0.0000 0.0000 26.2548 0.0000
# 6 0.0000 0.0000 0.0000 0.0000 0.0000 14.8481
#
#
#
# Elastic Compliance Matrix: (Units=1/GPa)
#
#
# Indices 1 2 3 4 5 6 
#
# 1 0.009870 -0.002613 -0.006056 0.000000 0.000000 0.000000
# 2 -0.002613 0.024307 -0.007822 0.000000 0.000000 0.000000
# 3 -0.006056 -0.007822 0.024607 0.000000 0.000000 0.000000
# 4 0.000000 0.000000 0.000000 0.056537 0.000000 0.000000
# 5 0.000000 0.000000 0.000000 0.000000 0.038088 0.000000
# 6 0.000000 0.000000 0.000000 0.000000 0.000000 0.067349
#
#
# Mechanical properties :
#
#
# Convention : Reuss Voigt Hill
#
# Bulk Modulus (GPa) = 38.75978 47.89536 43.32757
# Shear Modulus (GPa) = 19.05922 21.84153 20.45037
#
# Velocity S-wave (km/s) = 3.33106 3.56592 3.45049
# Velocity P-wave (km/s) = 6.11228 6.69614 6.41086
#
# Compressibility (1/GPa) = 0.02579994
#
# Stress axis : x y z
#
# Youngs Moduli (GPa) = 101.31720 41.14083 40.63952
#
# Poissons Ratio (x) = 0.10751 0.24612
# Poissons Ratio (y) = 0.26475 0.31790
# Poissons Ratio (z) = 0.61359 0.32182
#
# Static dielectric constant tensor:
#      x y z
#    x 1.587680 0.000000 0.000000 
#    y 0.000000 1.579120 0.000000 
#    z 0.000000 0.000000 1.580610 
# 
# From -- ./inp_files/1980.got.cif
#   From: 2010.05.17/outbox.cif.g08.bks.cpg/sg57_1_cif.got.tgz:1980.got - 2010.06.03 13:58:18.
