data_PCOD9435587
_publ_section_title
;
Structure prediction by ZEFSAII (Michael W. Deem and Ramdas Pophale) SiO2 
 PCOD9435587
Probable space group: P B C M
;
_chemical_formula_sum "Si O2"
_cell_formula_units_Z 48
_cell_length_a 16.178777
_cell_length_b 18.499054
_cell_length_c 8.581912
_cell_angle_alpha 90.000000
_cell_angle_beta 90.000000
_cell_angle_gamma 90.000000
_cell_volume 2568.498202
_symmetry_space_group_name_H-M "P B C M"
_symmetry_group_IT_number 57
_symmetry_cell_setting 'orthorhombic'
loop_
_space_group_symop_operation_xyz
x,y,z
-x,-y,1/2+z
x,1/2-y,-z
-x,1/2+y,1/2-z
-x,-y,-z
x,y,1/2-z
-x,1/2+y,z
x,1/2-y,1/2+z
loop_
_atom_site_type_symbol
_atom_site_label
_atom_site_fract_x
_atom_site_fract_y
_atom_site_fract_z
Si Si1 0.681309 0.583607 0.437154
Si Si2 0.001635 0.581249 0.937252
Si Si3 0.679890 0.419570 0.561316
Si Si4 0.158436 0.668874 0.437264
Si Si5 0.161829 0.330914 0.436556
Si Si6 0.500514 0.918110 0.562331
O O1 0.685638 0.584793 0.250000
O O2 0.688493 0.500456 0.493754
O O3 0.755351 0.630245 0.505244
O O4 0.589830 0.612111 0.487094
O O5 0.004320 0.580053 0.750000
O O6 0.918422 0.623193 0.986529
O O7 0.000000 0.500000 0.000000
O O8 0.081234 0.623185 0.000611
O O9 0.681540 0.425450 0.750000
O O10 0.756309 0.369982 0.512975
O O11 0.589420 0.388405 0.514696
O O12 0.154474 0.750000 0.500000
O O13 0.155872 0.669840 0.250000
O O14 0.156416 0.250000 0.500000
O O15 0.162665 0.328973 0.250000
O O16 0.501498 0.919216 0.750000
O O17 0.500000 0.000000 0.500000
#
# Coordination Sequence:
#
# PCOD9435587 Si02
#       6
#     8   8   8   8   8   8
#     4  10  19  32  55  84 111 142 182 227 272 320
#     4  11  24  41  62  86 111 141 179 223 270 323
#     4   9  18  34  55  79 110 146 184 226 270 320
#     4  11  23  38  57  81 111 147 183 223 273 325
#     4  11  24  40  57  79 109 145 181 220 270 323
#     4   8  15  29  50  77 108 141 179 223 269 315
#
# _framework density 18.687963
#
# number of rings (size 3 to 8) (size 9 to 14) (size 15 to 20)
#    0.000    2.000    0.000    3.500    0.000   10.000 
#    0.000    0.833    0.000    2.000    0.000    0.000 
#    0.000    0.000    0.000    0.000    0.000    0.000 
#
# Total GULP energy -267885.132865 kJ/mol
# GULP energy per Si atom -5580.940268 kJ/mol
# Density = 1.864543 g / cm^3
# Si number density = 18.687963 Si / 1000 Ang^3
#
#
#
# Elastic Constant Matrix: (Units=GPa)
#
#
# Indices 1 2 3 4 5 6 
#
# 1 239.4258 110.0932 47.7923 0.0000 0.0000 0.0000
# 2 110.0932 134.2164 32.4658 0.0000 0.0000 0.0000
# 3 47.7923 32.4658 33.0103 0.0000 0.0000 0.0000
# 4 0.0000 0.0000 0.0000 31.6448 0.0000 0.0000
# 5 0.0000 0.0000 0.0000 0.0000 19.0977 0.0000
# 6 0.0000 0.0000 0.0000 0.0000 0.0000 -17.9088
#
#
#
# Elastic Compliance Matrix: (Units=1/GPa)
#
#
# Indices 1 2 3 4 5 6 
#
# 1 0.007615 -0.004697 -0.006406 0.000000 0.000000 0.000000
# 2 -0.004697 0.012674 -0.005664 0.000000 0.000000 0.000000
# 3 -0.006406 -0.005664 0.045139 0.000000 0.000000 0.000000
# 4 0.000000 0.000000 0.000000 0.031601 0.000000 0.000000
# 5 0.000000 0.000000 0.000000 0.000000 0.052362 0.000000
# 6 0.000000 0.000000 0.000000 0.000000 0.000000 -0.055839
#
#
# Mechanical properties :
#
#
# Convention : Reuss Voigt Hill
#
# Bulk Modulus (GPa) = 31.35443 87.48387 59.41915
# Shear Modulus (GPa) = 36.30649 20.98683 28.64666
#
# Velocity S-wave (km/s) = 4.41247 3.35477 3.91947
# Velocity P-wave (km/s) = 6.54020 7.86896 7.23515
#
# Compressibility (1/GPa) = 0.03189342
#
# Stress axis : x y z
#
# Youngs Moduli (GPa) = 131.31923 78.90479 22.15403
#
# Poissons Ratio (x) = 0.37061 0.14191
# Poissons Ratio (y) = 0.61679 0.12549
# Poissons Ratio (z) = 0.84118 0.44694
#
# Static dielectric constant tensor:
#      x y z
#    x 1.683470 0.000000 0.000000 
#    y 0.000000 1.585430 0.000000 
#    z 0.000000 0.000000 1.631380 
# 
# From -- ./inp_files/4536.got.cif
#   From: 2010.05.17/outbox.cif.g08.bks.cpg/sg57_3_cif.got.tgz:4536.got - 2010.06.03 13:58:18.
