data_PCOD9435957
_publ_section_title
;
Structure prediction by ZEFSAII (Michael W. Deem and Ramdas Pophale) SiO2 
 PCOD9435957
Probable space group: P B C M
;
_chemical_formula_sum "Si O2"
_cell_formula_units_Z 64
_cell_length_a 15.631069
_cell_length_b 25.128011
_cell_length_c 9.218533
_cell_angle_alpha 90.000000
_cell_angle_beta 90.000000
_cell_angle_gamma 90.000000
_cell_volume 3620.833947
_symmetry_space_group_name_H-M "P B C M"
_symmetry_group_IT_number 57
_symmetry_cell_setting 'orthorhombic'
loop_
_space_group_symop_operation_xyz
x,y,z
-x,-y,1/2+z
x,1/2-y,-z
-x,1/2+y,1/2-z
-x,-y,-z
x,y,1/2-z
-x,1/2+y,z
x,1/2-y,1/2+z
loop_
_atom_site_type_symbol
_atom_site_label
_atom_site_fract_x
_atom_site_fract_y
_atom_site_fract_z
Si Si1 0.293435 0.979343 0.581194
Si Si2 0.019200 0.447463 0.410827
Si Si3 0.827580 0.096001 0.587652
Si Si4 0.112854 0.694766 0.422522
Si Si5 0.075920 0.149646 0.079814
Si Si6 0.261557 0.305436 0.923703
Si Si7 0.480369 0.555772 0.078292
Si Si8 0.637114 0.598638 0.575351
O O1 0.267418 0.978483 0.750000
O O2 0.222007 0.953569 0.481166
O O3 0.377848 0.941930 0.566474
O O4 0.319720 0.040388 0.546271
O O5 0.051216 0.460058 0.250000
O O6 0.926930 0.419598 0.401303
O O7 0.000000 0.500000 0.500000
O O8 0.079202 0.404884 0.489558
O O9 0.795685 0.107452 0.750000
O O10 0.828426 0.147676 0.485862
O O11 0.132390 0.750000 0.500000
O O12 0.122111 0.698643 0.250000
O O13 0.012877 0.679919 0.453383
O O14 0.072782 0.135636 0.250000
O O15 0.160089 0.184217 0.054046
O O16 0.277354 0.304256 0.750000
O O17 0.285282 0.250000 0.000000
O O18 0.310350 0.354421 0.999512
O O19 0.501254 0.553925 0.250000
O O20 0.500000 0.500000 0.000000
O O21 0.542309 0.596329 0.995452
O O22 0.633016 0.604551 0.750000
#
# Coordination Sequence:
#
# PCOD9435957 Si02
#       8
#     8   8   8   8   8   8   8   8
#     4   9  19  34  54  81 112 141 174 217 267 321
#     4  10  21  34  49  71 103 142 180 221 266 319
#     4  10  21  34  50  76 105 137 177 216 262 315
#     4  10  19  34  55  75 101 135 175 222 267 314
#     4   9  20  36  53  75 101 136 180 225 272 318
#     4  11  23  38  56  79 109 143 185 232 275 325
#     4   9  17  32  54  81 109 138 172 210 256 311
#     4  10  21  36  55  81 110 143 181 219 270 326
#
# _framework density 17.675487
#
# number of rings (size 3 to 8) (size 9 to 14) (size 15 to 20)
#    0.000    2.250    0.000    3.375    1.750    6.000 
#    0.000    0.000    0.000    0.750    0.000    0.000 
#    0.000    0.000    0.000    0.000    0.000    0.000 
#
# Total GULP energy -356852.938965 kJ/mol
# GULP energy per Si atom -5575.827171 kJ/mol
# Density = 1.763526 g / cm^3
# Si number density = 17.675487 Si / 1000 Ang^3
#
#
#
# Elastic Constant Matrix: (Units=GPa)
#
#
# Indices 1 2 3 4 5 6 
#
# 1 48.0847 21.7698 33.7598 0.0000 0.0000 0.0000
# 2 21.7698 109.2325 65.0341 0.0000 0.0000 0.0000
# 3 33.7598 65.0341 93.8189 0.0000 0.0000 0.0000
# 4 0.0000 0.0000 0.0000 32.0358 0.0000 0.0000
# 5 0.0000 0.0000 0.0000 0.0000 24.2082 0.0000
# 6 0.0000 0.0000 0.0000 0.0000 0.0000 18.8283
#
#
#
# Elastic Compliance Matrix: (Units=1/GPa)
#
#
# Indices 1 2 3 4 5 6 
#
# 1 0.027859 0.000709 -0.010516 0.000000 0.000000 0.000000
# 2 0.000709 0.015606 -0.011073 0.000000 0.000000 0.000000
# 3 -0.010516 -0.011073 0.022119 0.000000 0.000000 0.000000
# 4 0.000000 0.000000 0.000000 0.031215 0.000000 0.000000
# 5 0.000000 0.000000 0.000000 0.000000 0.041308 0.000000
# 6 0.000000 0.000000 0.000000 0.000000 0.000000 0.053112
#
#
# Mechanical properties :
#
#
# Convention : Reuss Voigt Hill
#
# Bulk Modulus (GPa) = 41.97617 54.69595 48.33606
# Shear Modulus (GPa) = 20.75376 23.71929 22.23653
#
# Velocity S-wave (km/s) = 3.43031 3.66721 3.55074
# Velocity P-wave (km/s) = 6.28404 6.99592 6.64952
#
# Compressibility (1/GPa) = 0.02382304
#
# Stress axis : x y z
#
# Youngs Moduli (GPa) = 35.89512 64.07747 45.21083
#
# Poissons Ratio (x) = -0.04541 0.47544
# Poissons Ratio (y) = -0.02544 0.50062
# Poissons Ratio (z) = 0.37747 0.70953
#
# Static dielectric constant tensor:
#      x y z
#    x 1.623500 0.000000 0.000000 
#    y 0.000000 1.591790 0.000000 
#    z 0.000000 0.000000 1.611910 
# 
# From -- ./inp_files/5735.got.cif
#   From: 2010.05.17/outbox.cif.g08.bks.cpg/sg57_3_cif.got.tgz:5735.got - 2010.06.03 13:58:18.
