data_PCOD9435158
_publ_section_title
;
Structure prediction by ZEFSAII (Michael W. Deem and Ramdas Pophale) SiO2 
 PCOD9435158
Probable space group: P B C M
;
_chemical_formula_sum "Si O2"
_cell_formula_units_Z 64
_cell_length_a 17.314188
_cell_length_b 24.574869
_cell_length_c 8.472051
_cell_angle_alpha 90.000000
_cell_angle_beta 90.000000
_cell_angle_gamma 90.000000
_cell_volume 3604.806037
_symmetry_space_group_name_H-M "P B C M"
_symmetry_group_IT_number 57
_symmetry_cell_setting 'orthorhombic'
loop_
_space_group_symop_operation_xyz
x,y,z
-x,-y,1/2+z
x,1/2-y,-z
-x,1/2+y,1/2-z
-x,-y,-z
x,y,1/2-z
-x,1/2+y,z
x,1/2-y,1/2+z
loop_
_atom_site_type_symbol
_atom_site_label
_atom_site_fract_x
_atom_site_fract_y
_atom_site_fract_z
Si Si1 0.766054 0.811925 0.560362
Si Si2 0.724595 0.124537 0.438823
Si Si3 0.870531 0.190152 0.561263
Si Si4 0.573257 0.187737 0.058739
Si Si5 0.595747 0.811876 0.940087
Si Si6 0.966327 0.413404 0.441216
Si Si7 0.185460 0.523139 0.938945
Si Si8 0.859635 0.912231 0.438930
O O1 0.776292 0.750000 0.500000
O O2 0.768839 0.810833 0.750000
O O3 0.680002 0.832688 0.509231
O O4 0.827971 0.854503 0.496765
O O5 0.723129 0.120761 0.250000
O O6 0.791568 0.166520 0.489574
O O7 0.643090 0.149216 0.494438
O O8 0.750276 0.066198 0.506260
O O9 0.886415 0.250000 0.500000
O O10 0.862627 0.190348 0.750000
O O11 0.937345 0.147233 0.519381
O O12 0.575076 0.189645 0.250000
O O13 0.488129 0.166269 0.008824
O O14 0.583146 0.250000 0.000000
O O15 0.595960 0.812694 0.750000
O O16 0.594951 0.750000 0.000000
O O17 0.967718 0.417819 0.250000
O O18 0.897723 0.453010 0.497207
O O19 0.052798 0.422419 0.499492
O O20 0.184389 0.522833 0.750000
O O21 0.192229 0.462215 0.001515
O O22 0.861027 0.912301 0.250000
#
# Coordination Sequence:
#
# PCOD9435158 Si02
#       8
#     8   8   8   8   8   8   8   8
#     4  10  20  35  54  77 104 132 162 198 244 293
#     4  10  19  31  48  72 100 131 166 203 244 287
#     4  10  19  32  47  67  98 134 168 200 241 291
#     4   9  17  28  46  73 102 131 164 200 239 286
#     4   8  15  29  48  70  98 130 161 196 238 285
#     4   8  18  34  51  71  96 127 163 205 247 290
#     4  10  20  36  54  73  98 128 164 203 245 290
#     4  11  21  35  55  77  99 125 161 203 247 293
#
# _framework density 17.754075
#
# number of rings (size 3 to 8) (size 9 to 14) (size 15 to 20)
#    0.000    2.500    0.000    3.375    0.000    3.000 
#    0.000    8.125    0.000    0.750    0.000    0.000 
#    0.000    0.000    0.000    0.000    0.000    0.000 
#
# Total GULP energy -356683.936484 kJ/mol
# GULP energy per Si atom -5573.186508 kJ/mol
# Density = 1.771367 g / cm^3
# Si number density = 17.754075 Si / 1000 Ang^3
#
#
#
# Elastic Constant Matrix: (Units=GPa)
#
#
# Indices 1 2 3 4 5 6 
#
# 1 55.3736 14.8544 11.1635 0.0000 0.0000 0.0000
# 2 14.8544 86.8018 17.7072 0.0000 0.0000 0.0000
# 3 11.1635 17.7072 36.2665 0.0000 0.0000 0.0000
# 4 0.0000 0.0000 0.0000 25.3804 0.0000 0.0000
# 5 0.0000 0.0000 0.0000 0.0000 13.7245 0.0000
# 6 0.0000 0.0000 0.0000 0.0000 0.0000 17.9864
#
#
#
# Elastic Compliance Matrix: (Units=1/GPa)
#
#
# Indices 1 2 3 4 5 6 
#
# 1 0.019683 -0.002368 -0.004902 0.000000 0.000000 0.000000
# 2 -0.002368 0.013080 -0.005657 0.000000 0.000000 0.000000
# 3 -0.004902 -0.005657 0.031845 0.000000 0.000000 0.000000
# 4 0.000000 0.000000 0.000000 0.039400 0.000000 0.000000
# 5 0.000000 0.000000 0.000000 0.000000 0.072862 0.000000
# 6 0.000000 0.000000 0.000000 0.000000 0.000000 0.055597
#
#
# Mechanical properties :
#
#
# Convention : Reuss Voigt Hill
#
# Bulk Modulus (GPa) = 25.80533 29.54355 27.67444
# Shear Modulus (GPa) = 18.43381 20.39940 19.41661
#
# Velocity S-wave (km/s) = 3.22574 3.39337 3.31061
# Velocity P-wave (km/s) = 5.33295 5.65949 5.49864
#
# Compressibility (1/GPa) = 0.03875168
#
# Stress axis : x y z
#
# Youngs Moduli (GPa) = 50.80579 76.45362 31.40222
#
# Poissons Ratio (x) = 0.18106 0.15395
# Poissons Ratio (y) = 0.12032 0.17765
# Poissons Ratio (z) = 0.24907 0.43252
#
# Static dielectric constant tensor:
#      x y z
#    x 1.648350 0.000000 0.000000 
#    y 0.000000 1.571070 0.000000 
#    z 0.000000 0.000000 1.613260 
# 
# From -- ./inp_files/7439.got.cif
#   From: 2010.05.17/outbox.cif.g08.bks.cpg/sg57_4_cif.got.tgz:7439.got - 2010.06.03 13:58:18.
