data_PCOD9435877
_publ_section_title
;
Structure prediction by ZEFSAII (Michael W. Deem and Ramdas Pophale) SiO2 
 PCOD9435877
Probable space group: P B C M
;
_chemical_formula_sum "Si O2"
_cell_formula_units_Z 56
_cell_length_a 24.730323
_cell_length_b 14.019736
_cell_length_c 8.216284
_cell_angle_alpha 90.000000
_cell_angle_beta 90.000000
_cell_angle_gamma 90.000000
_cell_volume 2848.689185
_symmetry_space_group_name_H-M "P B C M"
_symmetry_group_IT_number 57
_symmetry_cell_setting 'orthorhombic'
loop_
_space_group_symop_operation_xyz
x,y,z
-x,-y,1/2+z
x,1/2-y,-z
-x,1/2+y,1/2-z
-x,-y,-z
x,y,1/2-z
-x,1/2+y,z
x,1/2-y,1/2+z
loop_
_atom_site_type_symbol
_atom_site_label
_atom_site_fract_x
_atom_site_fract_y
_atom_site_fract_z
Si Si1 0.473275 0.361127 0.446670
Si Si2 0.082029 0.548674 0.053489
Si Si3 0.192829 0.640974 0.056325
Si Si4 0.409939 0.860273 0.052749
Si Si5 0.301181 0.961394 0.056718
Si Si6 0.354588 0.141117 0.554945
Si Si7 0.972579 0.855509 0.055398
O O1 0.474355 0.250000 0.500000
O O2 0.472917 0.366427 0.250000
O O3 0.531434 0.400322 0.505046
O O4 0.414246 0.394299 0.505586
O O5 0.084014 0.546147 0.250000
O O6 0.139051 0.588293 0.991258
O O7 0.065899 0.442103 0.996759
O O8 0.032684 0.617446 0.004674
O O9 0.188888 0.641647 0.250000
O O10 0.194991 0.750000 0.000000
O O11 0.247266 0.586051 0.009627
O O12 0.410044 0.864796 0.250000
O O13 0.355816 0.910791 0.990971
O O14 0.407406 0.750000 0.000000
O O15 0.300708 0.949855 0.250000
O O16 0.309045 0.071701 0.012782
O O17 0.348118 0.250000 0.500000
O O18 0.354307 0.137585 0.750000
O O19 0.973009 0.857387 0.250000
O O20 0.957037 0.750000 0.000000
#
# Coordination Sequence:
#
# PCOD9435877 Si02
#       7
#     8   8   8   8   8   8   8
#     4   8  15  29  49  73 100 131 167 210 265 326
#     4   9  20  37  57  83 115 153 194 232 272 322
#     4  11  23  40  60  82 111 146 186 229 272 320
#     4   9  18  32  50  74 105 137 171 215 267 324
#     4  11  23  37  54  78 107 141 183 226 271 323
#     4  10  20  36  57  78 102 134 174 221 274 331
#     4  10  19  33  56  87 121 153 186 227 275 324
#
# _framework density 19.658163999999999
#
# number of rings (size 3 to 8) (size 9 to 14) (size 15 to 20)
#    0.000    2.286    0.000    2.571    0.000    6.286 
#    0.000    0.714    0.000    1.714    0.000    0.000 
#    0.000    0.000    0.000    0.000    0.000    0.000 
#
# Total GULP energy -312539.036601 kJ/mol
# GULP energy per Si atom -5581.054225 kJ/mol
# Density = 1.961342 g / cm^3
# Si number density = 19.658164 Si / 1000 Ang^3
#
#
#
# Elastic Constant Matrix: (Units=GPa)
#
#
# Indices 1 2 3 4 5 6 
#
# 1 162.9631 85.6342 21.1042 0.0000 0.0000 0.0000
# 2 85.6342 122.0541 5.5794 0.0000 0.0000 0.0000
# 3 21.1042 5.5794 20.3927 0.0000 0.0000 0.0000
# 4 0.0000 0.0000 0.0000 27.1087 0.0000 0.0000
# 5 0.0000 0.0000 0.0000 0.0000 17.3893 0.0000
# 6 0.0000 0.0000 0.0000 0.0000 0.0000 36.9356
#
#
#
# Elastic Compliance Matrix: (Units=1/GPa)
#
#
# Indices 1 2 3 4 5 6 
#
# 1 0.011337 -0.007512 -0.009677 0.000000 0.000000 0.000000
# 2 -0.007512 0.013274 0.004142 0.000000 0.000000 0.000000
# 3 -0.009677 0.004142 0.057919 0.000000 0.000000 0.000000
# 4 0.000000 0.000000 0.000000 0.036889 0.000000 0.000000
# 5 0.000000 0.000000 0.000000 0.000000 0.057507 0.000000
# 6 0.000000 0.000000 0.000000 0.000000 0.000000 0.027074
#
#
# Mechanical properties :
#
#
# Convention : Reuss Voigt Hill
#
# Bulk Modulus (GPa) = 17.71924 58.89395 38.30660
# Shear Modulus (GPa) = 20.08802 29.15952 24.62377
#
# Velocity S-wave (km/s) = 3.20013 3.85558 3.54304
# Velocity P-wave (km/s) = 4.76316 7.06008 6.02214
#
# Compressibility (1/GPa) = 0.05643582
#
# Stress axis : x y z
#
# Youngs Moduli (GPa) = 88.20821 75.33536 17.26558
#
# Poissons Ratio (x) = 0.56589 0.16708
# Poissons Ratio (y) = 0.66259 -0.07151
# Poissons Ratio (z) = 0.85361 -0.31204
#
# Static dielectric constant tensor:
#      x y z
#    x 1.707070 0.000000 0.000000 
#    y 0.000000 2.185330 0.000000 
#    z 0.000000 0.000000 1.682360 
# 
# From -- ./inp_files/8039.got.cif
#   From: 2010.05.17/outbox.cif.g08.bks.cpg/sg57_5_cif.got.tgz:8039.got - 2010.06.03 13:58:18.
