data_PCOD9435165
_publ_section_title
;
Structure prediction by ZEFSAII (Michael W. Deem and Ramdas Pophale) SiO2 
 PCOD9435165
Probable space group: P B C M
;
_chemical_formula_sum "Si O2"
_cell_formula_units_Z 64
_cell_length_a 16.131140
_cell_length_b 29.257639
_cell_length_c 8.620138
_cell_angle_alpha 90.000000
_cell_angle_beta 90.000000
_cell_angle_gamma 90.000000
_cell_volume 4068.352320
_symmetry_space_group_name_H-M "P B C M"
_symmetry_group_IT_number 57
_symmetry_cell_setting 'orthorhombic'
loop_
_space_group_symop_operation_xyz
x,y,z
-x,-y,1/2+z
x,1/2-y,-z
-x,1/2+y,1/2-z
-x,-y,-z
x,y,1/2-z
-x,1/2+y,z
x,1/2-y,1/2+z
loop_
_atom_site_type_symbol
_atom_site_label
_atom_site_fract_x
_atom_site_fract_y
_atom_site_fract_z
Si Si1 0.320483 0.948175 0.936161
Si Si2 0.502170 0.551455 0.436534
Si Si3 0.001128 0.551145 0.937076
Si Si4 0.838547 0.608294 0.563807
Si Si5 0.165609 0.606282 0.562760
Si Si6 0.097302 0.299316 0.564992
Si Si7 0.684445 0.551710 0.436661
Si Si8 0.911233 0.201083 0.936269
O O1 0.318102 0.952738 0.750000
O O2 0.412096 0.929386 0.982472
O O3 0.247424 0.915516 0.991686
O O4 0.309207 0.998932 0.007785
O O5 0.500000 0.500000 0.500000
O O6 0.503472 0.550363 0.250000
O O7 0.592476 0.569766 0.484415
O O8 0.000606 0.549784 0.750000
O O9 0.084888 0.577022 0.985643
O O10 0.919730 0.579243 0.986222
O O11 0.000000 0.500000 0.000000
O O12 0.839741 0.611474 0.750000
O O13 0.847539 0.658671 0.493061
O O14 0.757297 0.581625 0.508717
O O15 0.171149 0.603891 0.750000
O O16 0.146788 0.658682 0.519668
O O17 0.124321 0.250000 0.500000
O O18 0.094824 0.297699 0.750000
O O19 0.003867 0.307037 0.501122
O O20 0.690828 0.552526 0.250000
O O21 0.917193 0.202725 0.750000
O O22 0.882938 0.250000 0.000000
#
# Coordination Sequence:
#
# PCOD9435165 Si02
#       8
#     8   8   8   8   8   8   8   8
#     4  10  19  31  48  72  98 129 166 204 242 284
#     4   8  16  30  47  67  95 125 159 202 245 286
#     4  10  21  34  45  61  93 131 164 194 231 275
#     4  11  21  35  50  70  98 130 165 204 242 287
#     4  10  20  34  48  66  96 131 161 197 242 288
#     4  11  21  34  53  74  96 126 162 203 247 290
#     4  10  19  32  49  71  98 131 165 200 245 294
#     4  10  19  34  52  71  95 124 160 203 248 287
#
# _framework density 15.731185999999999
#
# number of rings (size 3 to 8) (size 9 to 14) (size 15 to 20)
#    0.000    2.000    1.250    4.125    0.000    5.500 
#    0.000    0.000    0.000    0.000    0.000    0.875 
#    0.000    2.000    0.000    0.000    0.000    0.000 
#
# Total GULP energy -356941.156344 kJ/mol
# GULP energy per Si atom -5577.205568 kJ/mol
# Density = 1.569538 g / cm^3
# Si number density = 15.731186 Si / 1000 Ang^3
#
#
#
# Elastic Constant Matrix: (Units=GPa)
#
#
# Indices 1 2 3 4 5 6 
#
# 1 137.3550 64.7181 32.9774 0.0000 0.0000 0.0000
# 2 64.7181 109.4552 33.7594 0.0000 0.0000 0.0000
# 3 32.9774 33.7594 49.7138 0.0000 0.0000 0.0000
# 4 0.0000 0.0000 0.0000 25.1038 0.0000 0.0000
# 5 0.0000 0.0000 0.0000 0.0000 19.1915 0.0000
# 6 0.0000 0.0000 0.0000 0.0000 0.0000 6.3312
#
#
#
# Elastic Compliance Matrix: (Units=1/GPa)
#
#
# Indices 1 2 3 4 5 6 
#
# 1 0.010551 -0.005161 -0.003494 0.000000 0.000000 0.000000
# 2 -0.005161 0.014081 -0.006139 0.000000 0.000000 0.000000
# 3 -0.003494 -0.006139 0.026602 0.000000 0.000000 0.000000
# 4 0.000000 0.000000 0.000000 0.039835 0.000000 0.000000
# 5 0.000000 0.000000 0.000000 0.000000 0.052106 0.000000
# 6 0.000000 0.000000 0.000000 0.000000 0.000000 0.157948
#
#
# Mechanical properties :
#
#
# Convention : Reuss Voigt Hill
#
# Bulk Modulus (GPa) = 46.19782 62.15932 54.17857
# Shear Modulus (GPa) = 14.79613 21.12989 17.96301
#
# Velocity S-wave (km/s) = 3.07018 3.66892 3.38283
# Velocity P-wave (km/s) = 6.48065 7.58599 7.05500
#
# Compressibility (1/GPa) = 0.02164604
#
# Stress axis : x y z
#
# Youngs Moduli (GPa) = 94.77794 71.01809 37.59148
#
# Poissons Ratio (x) = 0.36651 0.13136
# Poissons Ratio (y) = 0.48912 0.23076
# Poissons Ratio (z) = 0.33119 0.43596
#
# Static dielectric constant tensor:
#      x y z
#    x 1.540840 0.000000 0.000000 
#    y 0.000000 1.501770 0.000000 
#    z 0.000000 0.000000 1.531410 
# 
# From -- ./inp_files/6023.got.cif
#   From: 2010.05.17/outbox.cif.g08.bks.cpg/sg57_4_cif.got.tgz:6023.got - 2010.06.03 13:58:18.
