data_PCOD9435133
_publ_section_title
;
Structure prediction by ZEFSAII (Michael W. Deem and Ramdas Pophale) SiO2 
 PCOD9435133
Probable space group: P B C M
;
_chemical_formula_sum "Si O2"
_cell_formula_units_Z 64
_cell_length_a 5.730080
_cell_length_b 12.991469
_cell_length_c 29.659101
_cell_angle_alpha 90.000000
_cell_angle_beta 90.000000
_cell_angle_gamma 90.000000
_cell_volume 2207.887444
_symmetry_space_group_name_H-M "P B C M"
_symmetry_group_IT_number 57
_symmetry_cell_setting 'orthorhombic'
loop_
_space_group_symop_operation_xyz
x,y,z
-x,-y,1/2+z
x,1/2-y,-z
-x,1/2+y,1/2-z
-x,-y,-z
x,y,1/2-z
-x,1/2+y,z
x,1/2-y,1/2+z
loop_
_atom_site_type_symbol
_atom_site_label
_atom_site_fract_x
_atom_site_fract_y
_atom_site_fract_z
Si Si1 0.657872 0.753984 0.801920
Si Si2 0.614844 0.508938 0.329399
Si Si3 0.384402 0.529577 0.937529
Si Si4 0.842751 0.241877 0.674832
Si Si5 0.839566 0.756131 0.948129
Si Si6 0.116655 0.013189 0.569028
Si Si7 0.885240 0.021497 0.323244
Si Si8 0.339799 0.761914 0.926396
O O1 0.720804 0.767605 0.750000
O O2 0.625703 0.866546 0.824877
O O3 0.398581 0.704963 0.802746
O O4 0.888632 0.702970 0.824194
O O5 0.611250 0.477461 0.382331
O O6 0.365681 0.480188 0.308423
O O7 0.865063 0.475832 0.309591
O O8 0.633160 0.485338 0.952524
O O9 0.377451 0.650591 0.949145
O O10 0.134009 0.487745 0.952282
O O11 0.880045 0.359284 0.691467
O O12 0.750953 0.245118 0.623967
O O13 0.872486 0.639134 0.929927
O O14 0.606392 0.803660 0.925220
O O15 0.098241 0.806835 0.946141
O O16 0.777898 0.750000 0.000000
O O17 0.115016 0.978504 0.621659
#
# Coordination Sequence:
#
# PCOD9435133 Si02
#       8
#     8   8   8   8   8   8   8   8
#     4  10  19  31  48  69  93 120 150 186 227 271
#     4   8  14  25  42  64  85 108 142 184 221 251
#     4   8  14  25  42  64  85 108 144 189 223 256
#     4  10  19  31  48  70  94 123 156 189 225 277
#     4  10  19  31  48  69  94 122 156 202 246 280
#     4   8  14  25  42  63  85 112 147 185 228 268
#     4   8  14  25  42  63  86 112 148 186 216 255
#     4  10  19  31  48  70  94 123 159 193 231 284
#
# _framework density 28.986986999999999
#
# number of rings (size 3 to 8) (size 9 to 14) (size 15 to 20)
#    0.000    3.000    0.000    1.500    0.000    0.000 
#    0.000    0.000    0.000    3.000    0.000    0.000 
#    0.000    0.000    0.000    0.000    0.000    0.000 
#
# Total GULP energy -357884.709405 kJ/mol
# GULP energy per Si atom -5591.948584 kJ/mol
# Density = 2.892101 g / cm^3
# Si number density = 28.986987 Si / 1000 Ang^3
#
#
#
# Elastic Constant Matrix: (Units=GPa)
#
#
# Indices 1 2 3 4 5 6 
#
# 1 438.8126 84.4549 27.7322 0.0000 0.0000 0.0000
# 2 84.4549 91.0752 -12.2121 0.0000 0.0000 0.0000
# 3 27.7322 -12.2121 97.0925 0.0000 0.0000 0.0000
# 4 0.0000 0.0000 0.0000 23.4515 0.0000 0.0000
# 5 0.0000 0.0000 0.0000 0.0000 48.7166 0.0000
# 6 0.0000 0.0000 0.0000 0.0000 0.0000 81.8885
#
#
#
# Elastic Compliance Matrix: (Units=1/GPa)
#
#
# Indices 1 2 3 4 5 6 
#
# 1 0.002903 -0.002851 -0.001188 0.000000 0.000000 0.000000
# 2 -0.002851 0.013968 0.002571 0.000000 0.000000 0.000000
# 3 -0.001188 0.002571 0.010962 0.000000 0.000000 0.000000
# 4 0.000000 0.000000 0.000000 0.042641 0.000000 0.000000
# 5 0.000000 0.000000 0.000000 0.000000 0.020527 0.000000
# 6 0.000000 0.000000 0.000000 0.000000 0.000000 0.012212
#
#
# Mechanical properties :
#
#
# Convention : Reuss Voigt Hill
#
# Bulk Modulus (GPa) = 40.16324 91.88115 66.02220
# Shear Modulus (GPa) = 43.68835 65.94500 54.81667
#
# Velocity S-wave (km/s) = 3.88644 4.77486 4.35337
# Velocity P-wave (km/s) = 5.83309 7.88449 6.93506
#
# Compressibility (1/GPa) = 0.02489839
#
# Stress axis : x y z
#
# Youngs Moduli (GPa) = 344.51632 71.59046 91.22355
#
# Poissons Ratio (x) = 0.20410 0.10834
# Poissons Ratio (y) = 0.98217 -0.23455
# Poissons Ratio (z) = 0.40916 -0.18407
#
# Static dielectric constant tensor:
#      x y z
#    x 2.330550 0.000000 0.000000 
#    y 0.000000 2.527140 0.000000 
#    z 0.000000 0.000000 2.111880 
# 
# From -- ./inp_files/29282.got.cif
#   From: 2010.05.17/outbox.cif.g08.bks.cpg/sg57_15_cif.got.tgz:29282.got - 2010.06.03 13:58:18.
