data_PCOD9435428
_publ_section_title
;
Structure prediction by ZEFSAII (Michael W. Deem and Ramdas Pophale) SiO2 
 PCOD9435428
Probable space group: P B C M
;
_chemical_formula_sum "Si O2"
_cell_formula_units_Z 64
_cell_length_a 37.427569
_cell_length_b 5.305354
_cell_length_c 14.169066
_cell_angle_alpha 90.000000
_cell_angle_beta 90.000000
_cell_angle_gamma 90.000000
_cell_volume 2813.501885
_symmetry_space_group_name_H-M "P B C M"
_symmetry_group_IT_number 57
_symmetry_cell_setting 'orthorhombic'
loop_
_space_group_symop_operation_xyz
x,y,z
-x,-y,1/2+z
x,1/2-y,-z
-x,1/2+y,1/2-z
-x,-y,-z
x,y,1/2-z
-x,1/2+y,z
x,1/2-y,1/2+z
loop_
_atom_site_type_symbol
_atom_site_label
_atom_site_fract_x
_atom_site_fract_y
_atom_site_fract_z
Si Si1 0.986380 0.184414 0.106506
Si Si2 0.401562 0.409991 0.134041
Si Si3 0.094986 0.899873 0.864793
Si Si4 0.133042 0.098817 0.138408
Si Si5 0.519587 0.083180 0.134610
Si Si6 0.789833 0.999191 0.564043
Si Si7 0.364737 0.591612 0.638758
Si Si8 0.711910 0.000212 0.564211
O O1 0.946266 0.080838 0.107860
O O2 0.989280 0.464448 0.149239
O O3 0.998002 0.250000 0.000000
O O4 0.401449 0.398664 0.250000
O O5 0.440967 0.497818 0.105527
O O6 0.389564 0.133976 0.100994
O O7 0.374167 0.629239 0.102786
O O8 0.096051 0.897101 0.750000
O O9 0.109980 0.633214 0.899351
O O10 0.119662 0.131124 0.898187
O O11 0.126722 0.108547 0.250000
O O12 0.174478 0.034722 0.123598
O O13 0.519481 0.087620 0.250000
O O14 0.507824 0.362731 0.105078
O O15 0.792963 0.250000 0.500000
O O16 0.788722 0.750000 0.500000
O O17 0.750903 0.004903 0.613589
O O18 0.372203 0.604905 0.750000
O O19 0.323679 0.516682 0.625263
O O20 0.709820 0.750000 0.500000
O O21 0.711508 0.250000 0.500000
#
# Coordination Sequence:
#
# PCOD9435428 Si02
#       8
#     8   8   8   8   8   8   8   8
#     4  10  21  36  53  76 106 139 178 222 264 307
#     4   9  17  28  43  68 101 132 167 212 255 303
#     4  10  21  36  55  80 108 140 177 217 264 314
#     4  10  21  37  56  81 112 141 175 220 264 314
#     4   9  15  23  37  59  92 132 164 196 251 311
#     4  10  21  37  57  81 107 138 175 214 259 310
#     4  10  19  32  51  74 102 136 171 209 257 308
#     4  10  21  37  55  77 107 137 171 216 257 303
#
# _framework density 22.747453
#
# number of rings (size 3 to 8) (size 9 to 14) (size 15 to 20)
#    0.000    2.250    0.000    3.000    0.000    5.500 
#    0.000    0.000    0.000    9.000    0.000    0.000 
#    0.000   35.000    0.000    0.000    0.000    0.000 
#
# Total GULP energy -357611.098305 kJ/mol
# GULP energy per Si atom -5587.673411 kJ/mol
# Density = 2.269568 g / cm^3
# Si number density = 22.747453 Si / 1000 Ang^3
#
#
#
# Elastic Constant Matrix: (Units=GPa)
#
#
# Indices 1 2 3 4 5 6 
#
# 1 104.0585 29.0087 -16.0203 0.0000 0.0000 0.0000
# 2 29.0087 166.0081 11.5844 0.0000 0.0000 0.0000
# 3 -16.0203 11.5844 45.8076 0.0000 0.0000 0.0000
# 4 0.0000 0.0000 0.0000 10.3660 0.0000 0.0000
# 5 0.0000 0.0000 0.0000 0.0000 53.3201 0.0000
# 6 0.0000 0.0000 0.0000 0.0000 0.0000 43.5946
#
#
#
# Elastic Compliance Matrix: (Units=1/GPa)
#
#
# Indices 1 2 3 4 5 6 
#
# 1 0.010899 -0.002209 0.004370 0.000000 0.000000 0.000000
# 2 -0.002209 0.006580 -0.002437 0.000000 0.000000 0.000000
# 3 0.004370 -0.002437 0.023975 0.000000 0.000000 0.000000
# 4 0.000000 0.000000 0.000000 0.096470 0.000000 0.000000
# 5 0.000000 0.000000 0.000000 0.000000 0.018755 0.000000
# 6 0.000000 0.000000 0.000000 0.000000 0.000000 0.022939
#
#
# Mechanical properties :
#
#
# Convention : Reuss Voigt Hill
#
# Bulk Modulus (GPa) = 24.44858 40.55776 32.50317
# Shear Modulus (GPa) = 25.79948 40.87622 33.33785
#
# Velocity S-wave (km/s) = 3.37140 4.24365 3.83242
# Velocity P-wave (km/s) = 5.09178 6.47146 5.82263
#
# Compressibility (1/GPa) = 0.04090218
#
# Stress axis : x y z
#
# Youngs Moduli (GPa) = 91.75357 151.97736 41.70994
#
# Poissons Ratio (x) = 0.33579 -0.18229
# Poissons Ratio (y) = 0.20273 0.10164
# Poissons Ratio (z) = -0.40100 0.37033
#
# Static dielectric constant tensor:
#      x y z
#    x 1.819680 0.000000 0.000000 
#    y 0.000000 1.831240 0.000000 
#    z 0.000000 0.000000 1.874500 
# 
# From -- ./inp_files/23185.got.cif
#   From: 2010.05.17/outbox.cif.g08.bks.cpg/sg57_12_cif.got.tgz:23185.got - 2010.06.03 13:58:18.
