data_PCOD9435169
_publ_section_title
;
Structure prediction by ZEFSAII (Michael W. Deem and Ramdas Pophale) SiO2 
 PCOD9435169
Probable space group: P B C M
;
_chemical_formula_sum "Si O2"
_cell_formula_units_Z 56
_cell_length_a 14.000745
_cell_length_b 24.860153
_cell_length_c 8.762310
_cell_angle_alpha 90.000000
_cell_angle_beta 90.000000
_cell_angle_gamma 90.000000
_cell_volume 3049.815426
_symmetry_space_group_name_H-M "P B C M"
_symmetry_group_IT_number 57
_symmetry_cell_setting 'orthorhombic'
loop_
_space_group_symop_operation_xyz
x,y,z
-x,-y,1/2+z
x,1/2-y,-z
-x,1/2+y,1/2-z
-x,-y,-z
x,y,1/2-z
-x,1/2+y,z
x,1/2-y,1/2+z
loop_
_atom_site_type_symbol
_atom_site_label
_atom_site_fract_x
_atom_site_fract_y
_atom_site_fract_z
Si Si1 0.332872 0.583152 0.933552
Si Si2 0.770322 0.306892 0.066846
Si Si3 0.843700 0.619394 0.066900
Si Si4 0.732165 0.975925 0.432104
Si Si5 0.018070 0.807361 0.933822
Si Si6 0.548771 0.906132 0.065723
Si Si7 0.340815 0.309341 0.567454
O O1 0.329954 0.578582 0.750000
O O2 0.294660 0.642240 0.974260
O O3 0.443010 0.577214 0.983945
O O4 0.269603 0.535811 0.003360
O O5 0.775659 0.302790 0.250000
O O6 0.735579 0.250000 0.000000
O O7 0.876487 0.315973 0.000527
O O8 0.842220 0.613177 0.250000
O O9 0.759516 0.661641 0.026172
O O10 0.944102 0.645878 0.022823
O O11 0.815414 0.562907 0.992523
O O12 0.734513 0.977061 0.250000
O O13 0.632199 0.947412 0.481688
O O14 0.022257 0.803936 0.750000
O O15 0.983844 0.750000 0.000000
O O16 0.549613 0.903051 0.250000
O O17 0.578079 0.848428 0.999047
O O18 0.345468 0.250000 0.500000
O O19 0.347270 0.307323 0.750000
#
# Coordination Sequence:
#
# PCOD9435169 Si02
#       7
#     8   8   8   8   8   8   8
#     4  10  21  37  56  75 102 138 172 209 257 306
#     4  10  21  37  56  78 103 134 170 212 256 300
#     4   9  19  34  52  75 105 139 171 205 254 308
#     4  10  20  33  54  81 106 133 170 214 255 300
#     4  10  19  33  55  80 105 136 171 211 256 305
#     4   9  19  35  52  74 103 136 174 214 255 303
#     4  10  19  31  48  73 105 138 170 209 255 306
#
# _framework density 18.361767
#
# number of rings (size 3 to 8) (size 9 to 14) (size 15 to 20)
#    0.000    2.286    0.000    3.429    0.000    4.571 
#    0.000    2.143    0.000    0.000    0.000    0.000 
#    0.000    0.000    0.000    0.000    0.000    0.000 
#
# Total GULP energy -312586.934571 kJ/mol
# GULP energy per Si atom -5581.909546 kJ/mol
# Density = 1.831997 g / cm^3
# Si number density = 18.361767 Si / 1000 Ang^3
#
#
#
# Elastic Constant Matrix: (Units=GPa)
#
#
# Indices 1 2 3 4 5 6 
#
# 1 36.6321 20.5414 14.0012 0.0000 0.0000 0.0000
# 2 20.5414 108.3497 27.8178 0.0000 0.0000 0.0000
# 3 14.0012 27.8178 25.6444 0.0000 0.0000 0.0000
# 4 0.0000 0.0000 0.0000 29.5936 0.0000 0.0000
# 5 0.0000 0.0000 0.0000 0.0000 20.5919 0.0000
# 6 0.0000 0.0000 0.0000 0.0000 0.0000 22.4150
#
#
#
# Elastic Compliance Matrix: (Units=1/GPa)
#
#
# Indices 1 2 3 4 5 6 
#
# 1 0.034939 -0.002393 -0.016480 0.000000 0.000000 0.000000
# 2 -0.002393 0.012956 -0.012748 0.000000 0.000000 0.000000
# 3 -0.016480 -0.012748 0.061821 0.000000 0.000000 0.000000
# 4 0.000000 0.000000 0.000000 0.033791 0.000000 0.000000
# 5 0.000000 0.000000 0.000000 0.000000 0.048563 0.000000
# 6 0.000000 0.000000 0.000000 0.000000 0.000000 0.044613
#
#
# Mechanical properties :
#
#
# Convention : Reuss Voigt Hill
#
# Bulk Modulus (GPa) = 21.51721 32.81633 27.16677
# Shear Modulus (GPa) = 15.85211 21.73782 18.79497
#
# Velocity S-wave (km/s) = 2.94142 3.44446 3.20283
# Velocity P-wave (km/s) = 4.82492 5.80775 5.33900
#
# Compressibility (1/GPa) = 0.04647442
#
# Stress axis : x y z
#
# Youngs Moduli (GPa) = 28.62111 77.18548 16.17579
#
# Poissons Ratio (x) = 0.18468 0.26659
# Poissons Ratio (y) = 0.06848 0.20620
# Poissons Ratio (z) = 0.47169 0.98392
#
# Static dielectric constant tensor:
#      x y z
#    x 1.631390 0.000000 0.000000 
#    y 0.000000 1.616440 0.000000 
#    z 0.000000 0.000000 1.610990 
# 
# From -- ./inp_files/5169.got.cif
#   From: 2010.05.17/outbox.cif.g08.bks.cpg/sg57_3_cif.got.tgz:5169.got - 2010.06.03 13:58:18.
