data_PCOD9435424
_publ_section_title
;
Structure prediction by ZEFSAII (Michael W. Deem and Ramdas Pophale) SiO2 
 PCOD9435424
Probable space group: P B C M
;
_chemical_formula_sum "Si O2"
_cell_formula_units_Z 40
_cell_length_a 12.021430
_cell_length_b 22.186701
_cell_length_c 8.488862
_cell_angle_alpha 90.000000
_cell_angle_beta 90.000000
_cell_angle_gamma 90.000000
_cell_volume 2264.114239
_symmetry_space_group_name_H-M "P B C M"
_symmetry_group_IT_number 57
_symmetry_cell_setting 'orthorhombic'
loop_
_space_group_symop_operation_xyz
x,y,z
-x,-y,1/2+z
x,1/2-y,-z
-x,1/2+y,1/2-z
-x,-y,-z
x,y,1/2-z
-x,1/2+y,z
x,1/2-y,1/2+z
loop_
_atom_site_type_symbol
_atom_site_label
_atom_site_fract_x
_atom_site_fract_y
_atom_site_fract_z
Si Si1 0.222909 0.815353 0.561018
Si Si2 0.831841 0.961747 0.060543
Si Si3 0.422534 0.444794 0.441191
Si Si4 0.048104 0.584812 0.439775
Si Si5 0.471125 0.682588 0.561596
O O1 0.191880 0.750000 0.500000
O O2 0.233221 0.816248 0.750000
O O3 0.127298 0.861028 0.512388
O O4 0.344001 0.828913 0.490518
O O5 0.828985 0.962080 0.250000
O O6 0.705365 0.954127 0.006201
O O7 0.886320 0.024759 0.006365
O O8 0.923465 0.913693 0.005389
O O9 0.500000 0.500000 0.500000
O O10 0.425728 0.446365 0.250000
O O11 0.462251 0.377501 0.490563
O O12 0.041643 0.583004 0.250000
O O13 0.502643 0.750000 0.500000
O O14 0.477285 0.685663 0.750000
#
# Coordination Sequence:
#
# PCOD9435424 Si02
#       5
#     8   8   8   8   8
#     4  10  19  32  51  74 100 129 164 204 246 292
#     4   9  18  33  51  71  98 129 160 198 245 293
#     4  10  21  35  53  78 104 133 170 211 255 303
#     4   9  18  32  50  72  97 126 160 199 244 291
#     4  10  20  34  52  75 103 135 171 207 250 302
#
# _framework density 17.666952999999999
#
# number of rings (size 3 to 8) (size 9 to 14) (size 15 to 20)
#    0.000    2.400    0.000    3.600    0.000    5.600 
#    0.000    5.000    0.000    4.800    0.000    0.000 
#    0.000    0.000    0.000    0.000    0.000    0.000 
#
# Total GULP energy -222917.832854 kJ/mol
# GULP energy per Si atom -5572.945821 kJ/mol
# Density = 1.762674 g / cm^3
# Si number density = 17.666953 Si / 1000 Ang^3
#
#
#
# Elastic Constant Matrix: (Units=GPa)
#
#
# Indices 1 2 3 4 5 6 
#
# 1 154.2942 107.5131 22.6857 0.0000 0.0000 0.0000
# 2 107.5131 108.4059 21.5693 0.0000 0.0000 0.0000
# 3 22.6857 21.5693 16.7237 0.0000 0.0000 0.0000
# 4 0.0000 0.0000 0.0000 23.4684 0.0000 0.0000
# 5 0.0000 0.0000 0.0000 0.0000 24.2480 0.0000
# 6 0.0000 0.0000 0.0000 0.0000 0.0000 33.8229
#
#
#
# Elastic Compliance Matrix: (Units=1/GPa)
#
#
# Indices 1 2 3 4 5 6 
#
# 1 0.021039 -0.020430 -0.002190 0.000000 0.000000 0.000000
# 2 -0.020430 0.032247 -0.013878 0.000000 0.000000 0.000000
# 3 -0.002190 -0.013878 0.080665 0.000000 0.000000 0.000000
# 4 0.000000 0.000000 0.000000 0.042611 0.000000 0.000000
# 5 0.000000 0.000000 0.000000 0.000000 0.041241 0.000000
# 6 0.000000 0.000000 0.000000 0.000000 0.000000 0.029566
#
#
# Mechanical properties :
#
#
# Convention : Reuss Voigt Hill
#
# Bulk Modulus (GPa) = 16.40532 64.77336 40.58934
# Shear Modulus (GPa) = 14.67649 24.81822 19.74736
#
# Velocity S-wave (km/s) = 2.88537 3.75211 3.34691
# Velocity P-wave (km/s) = 4.51736 7.45079 6.16120
#
# Compressibility (1/GPa) = 0.06095585
#
# Stress axis : x y z
#
# Youngs Moduli (GPa) = 47.53175 31.01040 12.39698
#
# Poissons Ratio (x) = 0.63353 0.02715
# Poissons Ratio (y) = 0.97106 0.17204
# Poissons Ratio (z) = 0.10409 0.43036
#
# Static dielectric constant tensor:
#      x y z
#    x 1.597490 0.000000 0.000000 
#    y 0.000000 1.621200 0.000000 
#    z 0.000000 0.000000 1.611060 
# 
# From -- ./inp_files/2868.got.cif
#   From: 2010.05.17/outbox.cif.g08.bks.cpg/sg57_2_cif.got.tgz:2868.got - 2010.06.03 13:58:18.
