data_PCOD9435681
_publ_section_title
;
Structure prediction by ZEFSAII (Michael W. Deem and Ramdas Pophale) SiO2 
 PCOD9435681
Probable space group: P B C M
;
_chemical_formula_sum "Si O2"
_cell_formula_units_Z 64
_cell_length_a 26.119162
_cell_length_b 14.206045
_cell_length_c 8.824558
_cell_angle_alpha 90.000000
_cell_angle_beta 90.000000
_cell_angle_gamma 90.000000
_cell_volume 3274.352164
_symmetry_space_group_name_H-M "P B C M"
_symmetry_group_IT_number 57
_symmetry_cell_setting 'orthorhombic'
loop_
_space_group_symop_operation_xyz
x,y,z
-x,-y,1/2+z
x,1/2-y,-z
-x,1/2+y,1/2-z
-x,-y,-z
x,y,1/2-z
-x,1/2+y,z
x,1/2-y,1/2+z
loop_
_atom_site_type_symbol
_atom_site_label
_atom_site_fract_x
_atom_site_fract_y
_atom_site_fract_z
Si Si1 0.325270 0.354547 0.931102
Si Si2 0.810375 0.345832 0.929742
Si Si3 0.009069 0.346997 0.932204
Si Si4 0.122427 0.384098 0.580553
Si Si5 0.576559 0.953686 0.068409
Si Si6 0.522604 0.147920 0.068334
Si Si7 0.776938 0.558301 0.930968
Si Si8 0.912217 0.402611 0.081014
O O1 0.327104 0.349196 0.750000
O O2 0.330328 0.250000 0.000000
O O3 0.371366 0.418592 0.993532
O O4 0.272050 0.399676 0.986017
O O5 0.808203 0.338549 0.750000
O O6 0.785505 0.447239 0.971783
O O7 0.787729 0.250000 0.000000
O O8 0.869542 0.350919 0.982534
O O9 0.009800 0.352135 0.750000
O O10 0.067926 0.351818 0.985687
O O11 0.988105 0.250000 0.000000
O O12 0.966558 0.415537 0.999988
O O13 0.130317 0.343250 0.750000
O O14 0.173077 0.381307 0.480266
O O15 0.111405 0.494393 0.598284
O O16 0.578815 0.942390 0.250000
O O17 0.562619 0.063083 0.036126
O O18 0.530473 0.889845 0.002973
O O19 0.517290 0.155561 0.250000
O O20 0.535569 0.250000 0.000000
O O21 0.770933 0.563398 0.750000
O O22 0.918354 0.361597 0.250000
#
# Coordination Sequence:
#
# PCOD9435681 Si02
#       8
#     8   8   8   8   8   8   8   8
#     4  12  25  42  65  89 117 153 196 245 294 343
#     4  10  20  35  57  83 111 143 179 223 276 337
#     4  11  22  34  48  70 100 131 166 209 261 324
#     4   9  20  37  55  74  99 134 173 216 269 328
#     4  10  21  38  60  89 126 165 209 255 297 346
#     4  10  20  35  59  91 129 171 210 251 298 349
#     4  10  22  40  61  85 112 143 185 235 285 338
#     4  10  19  33  53  75 100 131 170 215 265 325
#
# _framework density 19.545852
#
# number of rings (size 3 to 8) (size 9 to 14) (size 15 to 20)
#    0.000    1.750    0.000    4.500    0.000    5.000 
#    0.000    1.875    0.000    0.000    0.000    0.000 
#    0.000    0.000    0.000    0.000    0.000    0.000 
#
# Total GULP energy -357085.726232 kJ/mol
# GULP energy per Si atom -5579.464472 kJ/mol
# Density = 1.950136 g / cm^3
# Si number density = 19.545852 Si / 1000 Ang^3
#
#
#
# Elastic Constant Matrix: (Units=GPa)
#
#
# Indices 1 2 3 4 5 6 
#
# 1 136.7728 49.8474 69.9561 0.0000 0.0000 0.0000
# 2 49.8474 96.9976 52.6090 0.0000 0.0000 0.0000
# 3 69.9561 52.6090 104.7373 0.0000 0.0000 0.0000
# 4 0.0000 0.0000 0.0000 28.9433 0.0000 0.0000
# 5 0.0000 0.0000 0.0000 0.0000 45.6680 0.0000
# 6 0.0000 0.0000 0.0000 0.0000 0.0000 19.5306
#
#
#
# Elastic Compliance Matrix: (Units=1/GPa)
#
#
# Indices 1 2 3 4 5 6 
#
# 1 0.011497 -0.002396 -0.006475 0.000000 0.000000 0.000000
# 2 -0.002396 0.014669 -0.005768 0.000000 0.000000 0.000000
# 3 -0.006475 -0.005768 0.016770 0.000000 0.000000 0.000000
# 4 0.000000 0.000000 0.000000 0.034550 0.000000 0.000000
# 5 0.000000 0.000000 0.000000 0.000000 0.021897 0.000000
# 6 0.000000 0.000000 0.000000 0.000000 0.000000 0.051202
#
#
# Mechanical properties :
#
#
# Convention : Reuss Voigt Hill
#
# Bulk Modulus (GPa) = 73.22153 75.92584 74.57369
# Shear Modulus (GPa) = 27.11265 29.90140 28.50702
#
# Velocity S-wave (km/s) = 3.72846 3.91552 3.82313
# Velocity P-wave (km/s) = 7.48852 7.70526 7.59766
#
# Compressibility (1/GPa) = 0.01365719
#
# Stress axis : x y z
#
# Youngs Moduli (GPa) = 86.98211 68.16978 59.63094
#
# Poissons Ratio (x) = 0.16334 0.38613
# Poissons Ratio (y) = 0.20842 0.34394
# Poissons Ratio (z) = 0.56323 0.39319
#
# Static dielectric constant tensor:
#      x y z
#    x 1.659830 0.000000 0.000000 
#    y 0.000000 1.797110 0.000000 
#    z 0.000000 0.000000 1.678610 
# 
# From -- ./inp_files/9504.got.cif
#   From: 2010.05.17/outbox.cif.g08.bks.cpg/sg57_5_cif.got.tgz:9504.got - 2010.06.03 13:58:18.
