data_PCOD9435821
_publ_section_title
;
Structure prediction by ZEFSAII (Michael W. Deem and Ramdas Pophale) SiO2 
 PCOD9435821
Probable space group: P B C M
;
_chemical_formula_sum "Si O2"
_cell_formula_units_Z 64
_cell_length_a 18.320547
_cell_length_b 20.487848
_cell_length_c 7.905493
_cell_angle_alpha 90.000000
_cell_angle_beta 90.000000
_cell_angle_gamma 90.000000
_cell_volume 2967.315589
_symmetry_space_group_name_H-M "P B C M"
_symmetry_group_IT_number 57
_symmetry_cell_setting 'orthorhombic'
loop_
_space_group_symop_operation_xyz
x,y,z
-x,-y,1/2+z
x,1/2-y,-z
-x,1/2+y,1/2-z
-x,-y,-z
x,y,1/2-z
-x,1/2+y,z
x,1/2-y,1/2+z
loop_
_atom_site_type_symbol
_atom_site_label
_atom_site_fract_x
_atom_site_fract_y
_atom_site_fract_z
Si Si1 0.832792 0.178371 0.951571
Si Si2 0.215633 0.963901 0.953733
Si Si3 0.241200 0.173389 0.046524
Si Si4 0.599536 0.823792 0.549681
Si Si5 0.508906 0.415505 0.054378
Si Si6 0.000136 0.177875 0.545520
Si Si7 0.884583 0.923516 0.446598
Si Si8 0.626435 0.001273 0.445687
O O1 0.835323 0.176099 0.750000
O O2 0.916687 0.175295 0.016754
O O3 0.802960 0.250000 0.000000
O O4 0.793373 0.112561 0.010300
O O5 0.217476 0.971606 0.750000
O O6 0.293441 0.990806 0.020712
O O7 0.148837 0.009167 0.018920
O O8 0.234993 0.168292 0.250000
O O9 0.321815 0.146543 0.996712
O O10 0.232913 0.250000 0.000000
O O11 0.180870 0.128893 0.959868
O O12 0.611446 0.750000 0.500000
O O13 0.592171 0.831673 0.750000
O O14 0.525620 0.845093 0.460416
O O15 0.519889 0.432629 0.250000
O O16 0.438173 0.455434 0.980926
O O17 0.583025 0.430043 0.958091
O O18 0.030216 0.250000 0.500000
O O19 0.000392 0.174645 0.750000
O O20 0.047046 0.116623 0.479210
O O21 0.902074 0.936483 0.250000
O O22 0.633379 0.981914 0.250000
#
# Coordination Sequence:
#
# PCOD9435821 Si02
#       8
#     8   8   8   8   8   8   8   8
#     4  10  21  39  61  82 106 139 181 227 274 326
#     4  10  21  37  57  82 112 144 177 218 271 324
#     4  10  20  32  48  73 107 148 189 225 265 316
#     4  10  20  33  49  71 102 138 175 216 261 311
#     4  10  19  33  55  79 103 135 175 216 260 310
#     4   9  19  35  55  80 110 146 185 222 263 314
#     4  10  20  34  53  79 113 147 179 220 268 317
#     4   9  19  35  54  77 106 139 173 211 259 316
#
# _framework density 21.568314000000001
#
# number of rings (size 3 to 8) (size 9 to 14) (size 15 to 20)
#    0.000    2.250    0.000    2.625    0.000    6.500 
#    0.000    0.625    0.000    3.000    0.000    0.000 
#    0.000    0.000    0.000    0.000    0.000    0.000 
#
# Total GULP energy -356775.530050 kJ/mol
# GULP energy per Si atom -5574.617657 kJ/mol
# Density = 2.151922 g / cm^3
# Si number density = 21.568314 Si / 1000 Ang^3
#
#
#
# Elastic Constant Matrix: (Units=GPa)
#
#
# Indices 1 2 3 4 5 6 
#
# 1 45.9847 19.5604 0.9236 0.0000 0.0000 0.0000
# 2 19.5604 86.2298 -2.2721 0.0000 0.0000 0.0000
# 3 0.9236 -2.2721 45.5096 0.0000 0.0000 0.0000
# 4 0.0000 0.0000 0.0000 26.5912 0.0000 0.0000
# 5 0.0000 0.0000 0.0000 0.0000 13.7076 0.0000
# 6 0.0000 0.0000 0.0000 0.0000 0.0000 35.5780
#
#
#
# Elastic Compliance Matrix: (Units=1/GPa)
#
#
# Indices 1 2 3 4 5 6 
#
# 1 0.024095 -0.005486 -0.000763 0.000000 0.000000 0.000000
# 2 -0.005486 0.012861 0.000753 0.000000 0.000000 0.000000
# 3 -0.000763 0.000753 0.022026 0.000000 0.000000 0.000000
# 4 0.000000 0.000000 0.000000 0.037606 0.000000 0.000000
# 5 0.000000 0.000000 0.000000 0.000000 0.072952 0.000000
# 6 0.000000 0.000000 0.000000 0.000000 0.000000 0.028107
#
#
# Mechanical properties :
#
#
# Convention : Reuss Voigt Hill
#
# Bulk Modulus (GPa) = 20.83673 23.79423 22.31548
# Shear Modulus (GPa) = 22.25816 25.80952 24.03384
#
# Velocity S-wave (km/s) = 3.21594 3.46300 3.34175
# Velocity P-wave (km/s) = 4.84473 5.20056 5.02580
#
# Compressibility (1/GPa) = 0.04799218
#
# Stress axis : x y z
#
# Youngs Moduli (GPa) = 41.50207 77.75331 45.39991
#
# Poissons Ratio (x) = 0.42654 0.03464
# Poissons Ratio (y) = 0.22767 -0.03421
# Poissons Ratio (z) = 0.03166 -0.05858
#
# Static dielectric constant tensor:
#      x y z
#    x 1.854090 0.000000 0.000000 
#    y 0.000000 1.921290 0.000000 
#    z 0.000000 0.000000 1.781560 
# 
# From -- ./inp_files/7134.got.cif
#   From: 2010.05.17/outbox.cif.g08.bks.cpg/sg57_4_cif.got.tgz:7134.got - 2010.06.03 13:58:18.
