data_PCOD9435149
_publ_section_title
;
Structure prediction by ZEFSAII (Michael W. Deem and Ramdas Pophale) SiO2 
 PCOD9435149
Probable space group: P B C M
;
_chemical_formula_sum "Si O2"
_cell_formula_units_Z 48
_cell_length_a 24.434699
_cell_length_b 13.939575
_cell_length_c 8.756802
_cell_angle_alpha 90.000000
_cell_angle_beta 90.000000
_cell_angle_gamma 90.000000
_cell_volume 2982.648369
_symmetry_space_group_name_H-M "P B C M"
_symmetry_group_IT_number 57
_symmetry_cell_setting 'orthorhombic'
loop_
_space_group_symop_operation_xyz
x,y,z
-x,-y,1/2+z
x,1/2-y,-z
-x,1/2+y,1/2-z
-x,-y,-z
x,y,1/2-z
-x,1/2+y,z
x,1/2-y,1/2+z
loop_
_atom_site_type_symbol
_atom_site_label
_atom_site_fract_x
_atom_site_fract_y
_atom_site_fract_z
Si Si1 0.805882 0.356365 0.433716
Si Si2 0.976306 0.647907 0.067696
Si Si3 0.584014 0.046927 0.567546
Si Si4 0.478012 0.147731 0.067528
Si Si5 0.919016 0.047626 0.933709
Si Si6 0.689393 0.143143 0.432446
O O1 0.815953 0.250000 0.500000
O O2 0.801223 0.350958 0.250000
O O3 0.748272 0.389507 0.503596
O O4 0.857643 0.422200 0.474130
O O5 0.977432 0.653652 0.250000
O O6 0.936297 0.560323 0.022397
O O7 0.960325 0.750000 0.000000
O O8 0.036319 0.617682 0.008168
O O9 0.588371 0.058090 0.750000
O O10 0.640388 0.076292 0.489184
O O11 0.564386 0.938365 0.533949
O O12 0.484293 0.154088 0.250000
O O13 0.535623 0.115159 0.994460
O O14 0.461475 0.250000 0.000000
O O15 0.924405 0.055565 0.750000
O O16 0.680158 0.250000 0.500000
O O17 0.690754 0.148660 0.250000
#
# Coordination Sequence:
#
# PCOD9435149 Si02
#       6
#     8   8   8   8   8   8
#     4  10  19  32  49  70  96 124 157 195 238 285
#     4  10  19  31  48  71  98 127 159 195 237 283
#     4  10  20  34  51  72  99 130 162 196 237 282
#     4  10  20  33  51  74 100 129 160 197 238 282
#     4   9  19  33  49  70  96 127 160 196 237 282
#     4  11  21  33  50  72  98 127 160 197 239 285
#
# _framework density 16.09308
#
# number of rings (size 3 to 8) (size 9 to 14) (size 15 to 20)
#    0.000    2.000    0.000    5.500    0.000    5.333 
#    0.000    0.000    0.000    1.000    0.000    2.333 
#    0.000    0.000    0.000    0.000    0.000    0.000 
#
# Total GULP energy -267947.583431 kJ/mol
# GULP energy per Si atom -5582.241321 kJ/mol
# Density = 1.605645 g / cm^3
# Si number density = 16.093080 Si / 1000 Ang^3
#
#
#
# Elastic Constant Matrix: (Units=GPa)
#
#
# Indices 1 2 3 4 5 6 
#
# 1 145.1059 64.3894 60.3330 0.0000 0.0000 0.0000
# 2 64.3894 88.7255 44.3393 0.0000 0.0000 0.0000
# 3 60.3330 44.3393 75.9419 0.0000 0.0000 0.0000
# 4 0.0000 0.0000 0.0000 28.1111 0.0000 0.0000
# 5 0.0000 0.0000 0.0000 0.0000 26.9259 0.0000
# 6 0.0000 0.0000 0.0000 0.0000 0.0000 17.1939
#
#
#
# Elastic Compliance Matrix: (Units=1/GPa)
#
#
# Indices 1 2 3 4 5 6 
#
# 1 0.011956 -0.005549 -0.006259 0.000000 0.000000 0.000000
# 2 -0.005549 0.018489 -0.006387 0.000000 0.000000 0.000000
# 3 -0.006259 -0.006387 0.021869 0.000000 0.000000 0.000000
# 4 0.000000 0.000000 0.000000 0.035573 0.000000 0.000000
# 5 0.000000 0.000000 0.000000 0.000000 0.037139 0.000000
# 6 0.000000 0.000000 0.000000 0.000000 0.000000 0.058160
#
#
# Mechanical properties :
#
#
# Convention : Reuss Voigt Hill
#
# Bulk Modulus (GPa) = 62.79162 71.98852 67.39007
# Shear Modulus (GPa) = 22.23359 23.82697 23.03028
#
# Velocity S-wave (km/s) = 3.72097 3.85199 3.78705
# Velocity P-wave (km/s) = 7.58705 8.03825 7.81591
#
# Compressibility (1/GPa) = 0.01592569
#
# Stress axis : x y z
#
# Youngs Moduli (GPa) = 83.63864 54.08510 45.72601
#
# Poissons Ratio (x) = 0.30012 0.28620
# Poissons Ratio (y) = 0.46411 0.29204
# Poissons Ratio (z) = 0.52349 0.34543
#
# Static dielectric constant tensor:
#      x y z
#    x 1.523660 0.000000 0.000000 
#    y 0.000000 1.530830 0.000000 
#    z 0.000000 0.000000 1.537570 
# 
# From -- ./inp_files/6547.got.cif
#   From: 2010.05.17/outbox.cif.g08.bks.cpg/sg57_4_cif.got.tgz:6547.got - 2010.06.03 13:58:18.
