data_PCOD9435721
_publ_section_title
;
Structure prediction by ZEFSAII (Michael W. Deem and Ramdas Pophale) SiO2 
 PCOD9435721
Probable space group: P B C M
;
_chemical_formula_sum "Si O2"
_cell_formula_units_Z 48
_cell_length_a 18.218073
_cell_length_b 14.855355
_cell_length_c 8.374252
_cell_angle_alpha 90.000000
_cell_angle_beta 90.000000
_cell_angle_gamma 90.000000
_cell_volume 2266.373577
_symmetry_space_group_name_H-M "P B C M"
_symmetry_group_IT_number 57
_symmetry_cell_setting 'orthorhombic'
loop_
_space_group_symop_operation_xyz
x,y,z
-x,-y,1/2+z
x,1/2-y,-z
-x,1/2+y,1/2-z
-x,-y,-z
x,y,1/2-z
-x,1/2+y,z
x,1/2-y,1/2+z
loop_
_atom_site_type_symbol
_atom_site_label
_atom_site_fract_x
_atom_site_fract_y
_atom_site_fract_z
Si Si1 0.961854 0.653751 0.063432
Si Si2 0.524498 0.902060 0.942056
Si Si3 0.123765 0.650228 0.936901
Si Si4 0.321143 0.042173 0.441541
Si Si5 0.631131 0.155647 0.057996
Si Si6 0.835090 0.534930 0.934382
O O1 0.980971 0.660382 0.250000
O O2 0.933989 0.750000 0.000000
O O3 0.899776 0.580085 0.035530
O O4 0.036787 0.634893 0.968199
O O5 0.525837 0.898296 0.750000
O O6 0.455013 0.843863 0.995413
O O7 0.609171 0.896834 0.995323
O O8 0.500000 0.000000 0.000000
O O9 0.140025 0.643607 0.750000
O O10 0.140185 0.750000 0.000000
O O11 0.164453 0.571540 0.030824
O O12 0.315561 0.045890 0.250000
O O13 0.336911 0.937834 0.489776
O O14 0.244621 0.070751 0.517888
O O15 0.635223 0.151139 0.250000
O O16 0.664978 0.250000 0.000000
O O17 0.850883 0.552035 0.750000
#
# Coordination Sequence:
#
# PCOD9435721 Si02
#       6
#     8   8   8   8   8   8
#     4  11  22  40  63  88 115 149 192 241 289 341
#     4   8  16  31  52  73  98 130 170 213 258 310
#     4  11  22  39  61  88 118 152 192 239 288 342
#     4  10  20  36  55  78 107 143 181 226 278 333
#     4  10  19  33  53  80 108 140 178 222 271 328
#     4  12  24  39  58  85 118 156 195 237 288 346
#
# _framework density 21.179207999999999
#
# number of rings (size 3 to 8) (size 9 to 14) (size 15 to 20)
#    0.000    1.667    0.000    7.000    0.000    2.000 
#    0.000    4.167    0.000    2.000    0.000    0.000 
#    0.000    0.000    0.000    0.000    0.000    0.000 
#
# Total GULP energy -268065.674284 kJ/mol
# GULP energy per Si atom -5584.701548 kJ/mol
# Density = 2.113100 g / cm^3
# Si number density = 21.179208 Si / 1000 Ang^3
#
#
#
# Elastic Constant Matrix: (Units=GPa)
#
#
# Indices 1 2 3 4 5 6 
#
# 1 58.3389 2.8678 -12.6370 0.0000 0.0000 0.0000
# 2 2.8678 29.6569 -10.1091 0.0000 0.0000 0.0000
# 3 -12.6370 -10.1091 48.2825 0.0000 0.0000 0.0000
# 4 0.0000 0.0000 0.0000 23.2986 0.0000 0.0000
# 5 0.0000 0.0000 0.0000 0.0000 26.1496 0.0000
# 6 0.0000 0.0000 0.0000 0.0000 0.0000 10.2888
#
#
#
# Elastic Compliance Matrix: (Units=1/GPa)
#
#
# Indices 1 2 3 4 5 6 
#
# 1 0.018172 -0.000146 0.004725 0.000000 0.000000 0.000000
# 2 -0.000146 0.036312 0.007564 0.000000 0.000000 0.000000
# 3 0.004725 0.007564 0.023532 0.000000 0.000000 0.000000
# 4 0.000000 0.000000 0.000000 0.042921 0.000000 0.000000
# 5 0.000000 0.000000 0.000000 0.000000 0.038241 0.000000
# 6 0.000000 0.000000 0.000000 0.000000 0.000000 0.097193
#
#
# Mechanical properties :
#
#
# Convention : Reuss Voigt Hill
#
# Bulk Modulus (GPa) = 9.77494 10.72465 10.24980
# Shear Modulus (GPa) = 18.78390 22.35784 20.57087
#
# Velocity S-wave (km/s) = 2.98132 3.25260 3.11991
# Velocity P-wave (km/s) = 4.05911 4.37957 4.22238
#
# Compressibility (1/GPa) = 0.10230238
#
# Stress axis : x y z
#
# Youngs Moduli (GPa) = 55.02965 27.53941 42.49534
#
# Poissons Ratio (x) = 0.00403 -0.20081
# Poissons Ratio (y) = 0.00806 -0.32145
# Poissons Ratio (z) = -0.26004 -0.20832
#
# Static dielectric constant tensor:
#      x y z
#    x 1.807100 0.000000 0.000000 
#    y 0.000000 1.774820 0.000000 
#    z 0.000000 0.000000 1.719240 
# 
# From -- ./inp_files/6548.got.cif
#   From: 2010.05.17/outbox.cif.g08.bks.cpg/sg57_4_cif.got.tgz:6548.got - 2010.06.03 13:58:18.
