data_PCOD9435993
_publ_section_title
;
Structure prediction by ZEFSAII (Michael W. Deem and Ramdas Pophale) SiO2 
 PCOD9435993
Probable space group: P B C M
;
_chemical_formula_sum "Si O2"
_cell_formula_units_Z 48
_cell_length_a 8.707153
_cell_length_b 15.221305
_cell_length_c 14.199450
_cell_angle_alpha 90.000000
_cell_angle_beta 90.000000
_cell_angle_gamma 90.000000
_cell_volume 1881.913193
_symmetry_space_group_name_H-M "P B C M"
_symmetry_group_IT_number 57
_symmetry_cell_setting 'orthorhombic'
loop_
_space_group_symop_operation_xyz
x,y,z
-x,-y,1/2+z
x,1/2-y,-z
-x,1/2+y,1/2-z
-x,-y,-z
x,y,1/2-z
-x,1/2+y,z
x,1/2-y,1/2+z
loop_
_atom_site_type_symbol
_atom_site_label
_atom_site_fract_x
_atom_site_fract_y
_atom_site_fract_z
Si Si1 0.416061 0.036422 0.364631
Si Si2 0.578986 0.293591 0.866199
Si Si3 0.084733 0.211321 0.898746
Si Si4 0.589602 0.626101 0.639258
Si Si5 0.086928 0.537344 0.865380
Si Si6 0.892515 0.125103 0.355747
O O1 0.412538 0.040750 0.250000
O O2 0.552504 0.971133 0.396461
O O3 0.254547 0.995865 0.394296
O O4 0.449988 0.135502 0.393944
O O5 0.584585 0.289355 0.750000
O O6 0.529011 0.198049 0.899622
O O7 0.742494 0.330314 0.899228
O O8 0.239816 0.164039 0.866353
O O9 0.958131 0.134412 0.897480
O O10 0.019284 0.297835 0.848149
O O11 0.116111 0.250000 0.000000
O O12 0.555538 0.619863 0.750000
O O13 0.084431 0.539660 0.750000
O O14 0.966146 0.462616 0.897654
O O15 0.845067 0.098278 0.250000
#
# Coordination Sequence:
#
# PCOD9435993 Si02
#       6
#     8   8   8   8   8   8
#     4   9  17  31  55  86 111 134 175 232 284 326
#     4   9  17  31  55  86 111 134 175 232 284 326
#     4  12  25  38  54  80 118 156 189 228 276 334
#     4  10  19  34  56  78 106 144 187 232 274 324
#     4  10  20  37  63  89 112 143 186 234 282 333
#     4  10  20  37  63  89 112 143 186 234 282 333
#
# _framework density 25.505958
#
# number of rings (size 3 to 8) (size 9 to 14) (size 15 to 20)
#    0.000    2.000    0.000    4.500    0.000    8.667 
#    0.000    3.333    0.000    4.000    0.000    0.000 
#    0.000    0.000    0.000    0.000    0.000    0.000 
#
# Total GULP energy -268707.120902 kJ/mol
# GULP energy per Si atom -5598.065019 kJ/mol
# Density = 2.544791 g / cm^3
# Si number density = 25.505958 Si / 1000 Ang^3
#
#
#
# Elastic Constant Matrix: (Units=GPa)
#
#
# Indices 1 2 3 4 5 6 
#
# 1 68.7284 8.4322 -2.5003 0.0000 0.0000 0.0000
# 2 8.4322 114.8996 29.2029 0.0000 0.0000 0.0000
# 3 -2.5003 29.2029 43.2051 0.0000 0.0000 0.0000
# 4 0.0000 0.0000 0.0000 10.6916 0.0000 0.0000
# 5 0.0000 0.0000 0.0000 0.0000 21.4038 0.0000
# 6 0.0000 0.0000 0.0000 0.0000 0.0000 46.5697
#
#
#
# Elastic Compliance Matrix: (Units=1/GPa)
#
#
# Indices 1 2 3 4 5 6 
#
# 1 0.014813 -0.001576 0.001922 0.000000 0.000000 0.000000
# 2 -0.001576 0.010676 -0.007307 0.000000 0.000000 0.000000
# 3 0.001922 -0.007307 0.028196 0.000000 0.000000 0.000000
# 4 0.000000 0.000000 0.000000 0.093531 0.000000 0.000000
# 5 0.000000 0.000000 0.000000 0.000000 0.046721 0.000000
# 6 0.000000 0.000000 0.000000 0.000000 0.000000 0.021473
#
#
# Mechanical properties :
#
#
# Convention : Reuss Voigt Hill
#
# Bulk Modulus (GPa) = 25.14854 33.01140 29.07997
# Shear Modulus (GPa) = 20.61123 28.51292 24.56208
#
# Velocity S-wave (km/s) = 2.84578 3.34712 3.10658
# Velocity P-wave (km/s) = 4.54745 5.28283 4.92887
#
# Compressibility (1/GPa) = 0.03976375
#
# Stress axis : x y z
#
# Youngs Moduli (GPa) = 67.50704 93.66702 35.46631
#
# Poissons Ratio (x) = 0.14759 -0.06818
# Poissons Ratio (y) = 0.10637 0.25916
# Poissons Ratio (z) = -0.12977 0.68445
#
# Static dielectric constant tensor:
#      x y z
#    x 1.971900 0.000000 0.000000 
#    y 0.000000 1.926190 0.000000 
#    z 0.000000 0.000000 2.095980 
# 
# From -- ./inp_files/20930.got.cif
#   From: 2010.05.17/outbox.cif.g08.bks.cpg/sg57_11_cif.got.tgz:20930.got - 2010.06.03 13:58:18.
