data_PCOD9435955
_publ_section_title
;
Structure prediction by ZEFSAII (Michael W. Deem and Ramdas Pophale) SiO2 
 PCOD9435955
Probable space group: P B C M
;
_chemical_formula_sum "Si O2"
_cell_formula_units_Z 64
_cell_length_a 12.249007
_cell_length_b 32.382902
_cell_length_c 8.714365
_cell_angle_alpha 90.000000
_cell_angle_beta 90.000000
_cell_angle_gamma 90.000000
_cell_volume 3456.626019
_symmetry_space_group_name_H-M "P B C M"
_symmetry_group_IT_number 57
_symmetry_cell_setting 'orthorhombic'
loop_
_space_group_symop_operation_xyz
x,y,z
-x,-y,1/2+z
x,1/2-y,-z
-x,1/2+y,1/2-z
-x,-y,-z
x,y,1/2-z
-x,1/2+y,z
x,1/2-y,1/2+z
loop_
_atom_site_type_symbol
_atom_site_label
_atom_site_fract_x
_atom_site_fract_y
_atom_site_fract_z
Si Si1 0.150489 0.616574 0.429188
Si Si2 0.801766 0.294348 0.935316
Si Si3 0.996729 0.952993 0.067313
Si Si4 0.229729 0.076772 0.434691
Si Si5 0.454147 0.794153 0.565686
Si Si6 0.616693 0.504472 0.425415
Si Si7 0.414067 0.129519 0.567834
Si Si8 0.640318 0.410705 0.425102
O O1 0.122530 0.613889 0.250000
O O2 0.133017 0.664123 0.483012
O O3 0.279926 0.610383 0.455151
O O4 0.091385 0.578847 0.514516
O O5 0.804859 0.292845 0.750000
O O6 0.673655 0.299299 0.980952
O O7 0.838994 0.250000 0.000000
O O8 0.999355 0.956912 0.250000
O O9 0.887181 0.929965 0.010221
O O10 0.000000 0.000000 0.000000
O O11 0.217597 0.075771 0.250000
O O12 0.303439 0.115539 0.484842
O O13 0.301684 0.037792 0.492340
O O14 0.488388 0.750000 0.500000
O O15 0.458921 0.795130 0.750000
O O16 0.531532 0.828999 0.495819
O O17 0.500000 0.500000 0.500000
O O18 0.598400 0.517075 0.250000
O O19 0.666680 0.459006 0.427828
O O20 0.395431 0.131911 0.750000
O O21 0.512700 0.096573 0.541435
O O22 0.659421 0.395317 0.250000
#
# Coordination Sequence:
#
# PCOD9435955 Si02
#       8
#     8   8   8   8   8   8   8   8
#     4  11  22  38  60  87 118 156 198 246 299 355
#     4   9  19  33  54  85 121 156 195 241 296 355
#     4  12  26  45  66  88 115 156 205 255 306 363
#     4  11  23  39  60  85 115 154 197 244 293 347
#     4  10  19  34  54  83 120 159 198 240 294 357
#     4  10  20  33  50  75 108 144 183 227 278 331
#     4  11  21  34  55  84 119 157 195 239 291 350
#     4  10  20  33  51  80 116 153 193 236 285 344
#
# _framework density 18.515166000000001
#
# number of rings (size 3 to 8) (size 9 to 14) (size 15 to 20)
#    0.000    1.500    2.500    3.375    0.000    4.000 
#    0.000    0.000    0.000    0.750    0.000    3.500 
#    0.000    0.000    0.000    0.000    0.000    0.000 
#
# Total GULP energy -357018.450878 kJ/mol
# GULP energy per Si atom -5578.413295 kJ/mol
# Density = 1.847302 g / cm^3
# Si number density = 18.515166 Si / 1000 Ang^3
#
#
#
# Elastic Constant Matrix: (Units=GPa)
#
#
# Indices 1 2 3 4 5 6 
#
# 1 69.1245 29.9256 27.8773 0.0000 0.0000 0.0000
# 2 29.9256 118.4496 42.5931 0.0000 0.0000 0.0000
# 3 27.8773 42.5931 64.6198 0.0000 0.0000 0.0000
# 4 0.0000 0.0000 0.0000 28.7377 0.0000 0.0000
# 5 0.0000 0.0000 0.0000 0.0000 29.7597 0.0000
# 6 0.0000 0.0000 0.0000 0.0000 0.0000 24.7806
#
#
#
# Elastic Compliance Matrix: (Units=1/GPa)
#
#
# Indices 1 2 3 4 5 6 
#
# 1 0.017979 -0.002298 -0.006241 0.000000 0.000000 0.000000
# 2 -0.002298 0.011359 -0.006496 0.000000 0.000000 0.000000
# 3 -0.006241 -0.006496 0.022449 0.000000 0.000000 0.000000
# 4 0.000000 0.000000 0.000000 0.034797 0.000000 0.000000
# 5 0.000000 0.000000 0.000000 0.000000 0.033602 0.000000
# 6 0.000000 0.000000 0.000000 0.000000 0.000000 0.040354
#
#
# Mechanical properties :
#
#
# Convention : Reuss Voigt Hill
#
# Bulk Modulus (GPa) = 46.04758 50.33178 48.18968
# Shear Modulus (GPa) = 25.27177 26.77546 26.02361
#
# Velocity S-wave (km/s) = 3.69849 3.80694 3.75311
# Velocity P-wave (km/s) = 6.56983 6.82399 6.69811
#
# Compressibility (1/GPa) = 0.02171667
#
# Stress axis : x y z
#
# Youngs Moduli (GPa) = 55.62179 88.03831 44.54502
#
# Poissons Ratio (x) = 0.20230 0.27803
# Poissons Ratio (y) = 0.12781 0.28935
# Poissons Ratio (z) = 0.34716 0.57186
#
# Static dielectric constant tensor:
#      x y z
#    x 1.643470 0.000000 0.000000 
#    y 0.000000 1.685860 0.000000 
#    z 0.000000 0.000000 1.635540 
# 
# From -- ./inp_files/3886.got.cif
#   From: 2010.05.17/outbox.cif.g08.bks.cpg/sg57_2_cif.got.tgz:3886.got - 2010.06.03 13:58:18.
