data_PCOD9435575
_publ_section_title
;
Structure prediction by ZEFSAII (Michael W. Deem and Ramdas Pophale) SiO2 
 PCOD9435575
Probable space group: P B C M
;
_chemical_formula_sum "Si O2"
_cell_formula_units_Z 56
_cell_length_a 14.332879
_cell_length_b 23.861296
_cell_length_c 8.386097
_cell_angle_alpha 90.000000
_cell_angle_beta 90.000000
_cell_angle_gamma 90.000000
_cell_volume 2868.054133
_symmetry_space_group_name_H-M "P B C M"
_symmetry_group_IT_number 57
_symmetry_cell_setting 'orthorhombic'
loop_
_space_group_symop_operation_xyz
x,y,z
-x,-y,1/2+z
x,1/2-y,-z
-x,1/2+y,1/2-z
-x,-y,-z
x,y,1/2-z
-x,1/2+y,z
x,1/2-y,1/2+z
loop_
_atom_site_type_symbol
_atom_site_label
_atom_site_fract_x
_atom_site_fract_y
_atom_site_fract_z
Si Si1 0.234792 0.094622 0.557939
Si Si2 0.371674 0.186157 0.557014
Si Si3 0.461523 0.607665 0.935992
Si Si4 0.308247 0.812053 0.564400
Si Si5 0.841824 0.097663 0.065186
Si Si6 0.030090 0.061049 0.560386
Si Si7 0.678023 0.017109 0.559205
O O1 0.232060 0.094120 0.750000
O O2 0.275797 0.154931 0.509813
O O3 0.130964 0.080376 0.497071
O O4 0.304355 0.044659 0.507110
O O5 0.381992 0.250000 0.500000
O O6 0.378006 0.187655 0.750000
O O7 0.451204 0.142571 0.496903
O O8 0.482061 0.596791 0.750000
O O9 0.413730 0.550762 0.003431
O O10 0.377778 0.651918 0.956532
O O11 0.304886 0.750000 0.500000
O O12 0.339102 0.814092 0.750000
O O13 0.209337 0.842965 0.556189
O O14 0.850922 0.080802 0.250000
O O15 0.770045 0.053272 0.986966
O O16 0.942984 0.099067 0.988383
O O17 0.036911 0.058856 0.750000
O O18 0.000000 0.000000 0.500000
O O19 0.671865 0.014978 0.750000
#
# Coordination Sequence:
#
# PCOD9435575 Si02
#       7
#     8   8   8   8   8   8   8
#     4  10  22  38  56  80 113 148 181 226 281 330
#     4  10  22  41  60  79 108 148 191 232 273 321
#     4   9  19  35  56  82 112 144 182 226 273 328
#     4  10  20  33  52  78 109 144 182 226 276 330
#     4  10  20  34  52  78 111 144 180 223 274 329
#     4  11  21  34  56  82 109 144 183 223 274 335
#     4  10  19  32  54  85 115 143 177 222 274 330
#
# _framework density 19.525433
#
# number of rings (size 3 to 8) (size 9 to 14) (size 15 to 20)
#    0.000    2.000    1.429    2.143    0.000    5.714 
#    0.000    0.714    0.000    3.429    0.000    0.000 
#    0.000    0.000    0.000    0.000    0.000    0.000 
#
# Total GULP energy -312361.667378 kJ/mol
# GULP energy per Si atom -5577.886917 kJ/mol
# Density = 1.948099 g / cm^3
# Si number density = 19.525433 Si / 1000 Ang^3
#
#
#
# Elastic Constant Matrix: (Units=GPa)
#
#
# Indices 1 2 3 4 5 6 
#
# 1 116.4678 48.0271 10.5684 0.0000 0.0000 0.0000
# 2 48.0271 63.6730 -7.2267 0.0000 0.0000 0.0000
# 3 10.5684 -7.2267 16.1766 0.0000 0.0000 0.0000
# 4 0.0000 0.0000 0.0000 26.0292 0.0000 0.0000
# 5 0.0000 0.0000 0.0000 0.0000 16.9678 0.0000
# 6 0.0000 0.0000 0.0000 0.0000 0.0000 12.4015
#
#
#
# Elastic Compliance Matrix: (Units=1/GPa)
#
#
# Indices 1 2 3 4 5 6 
#
# 1 0.015740 -0.013736 -0.016420 0.000000 0.000000 0.000000
# 2 -0.013736 0.028531 0.021720 0.000000 0.000000 0.000000
# 3 -0.016420 0.021720 0.082248 0.000000 0.000000 0.000000
# 4 0.000000 0.000000 0.000000 0.038418 0.000000 0.000000
# 5 0.000000 0.000000 0.000000 0.000000 0.058935 0.000000
# 6 0.000000 0.000000 0.000000 0.000000 0.000000 0.080635
#
#
# Mechanical properties :
#
#
# Convention : Reuss Voigt Hill
#
# Bulk Modulus (GPa) = 9.12012 33.22834 21.17423
# Shear Modulus (GPa) = 13.96923 20.74295 17.35609
#
# Velocity S-wave (km/s) = 2.67767 3.26292 2.98467
# Velocity P-wave (km/s) = 3.77371 5.59021 4.76924
#
# Compressibility (1/GPa) = 0.10964765
#
# Stress axis : x y z
#
# Youngs Moduli (GPa) = 63.53112 35.04927 12.15834
#
# Poissons Ratio (x) = 0.48144 0.19964
# Poissons Ratio (y) = 0.87267 -0.26408
# Poissons Ratio (z) = 1.04317 -0.76127
#
# Static dielectric constant tensor:
#      x y z
#    x 1.717190 0.000000 0.000000 
#    y 0.000000 1.688810 0.000000 
#    z 0.000000 0.000000 1.690780 
# 
# From -- ./inp_files/5145.got.cif
#   From: 2010.05.17/outbox.cif.g08.bks.cpg/sg57_3_cif.got.tgz:5145.got - 2010.06.03 13:58:18.
