data_PCOD9435032
_publ_section_title
;
Structure prediction by ZEFSAII (Michael W. Deem and Ramdas Pophale) SiO2 
 PCOD9435032
Probable space group: P B C M
;
_chemical_formula_sum "Si O2"
_cell_formula_units_Z 64
_cell_length_a 16.286534
_cell_length_b 24.209818
_cell_length_c 9.208444
_cell_angle_alpha 90.000000
_cell_angle_beta 90.000000
_cell_angle_gamma 90.000000
_cell_volume 3630.834439
_symmetry_space_group_name_H-M "P B C M"
_symmetry_group_IT_number 57
_symmetry_cell_setting 'orthorhombic'
loop_
_space_group_symop_operation_xyz
x,y,z
-x,-y,1/2+z
x,1/2-y,-z
-x,1/2+y,1/2-z
-x,-y,-z
x,y,1/2-z
-x,1/2+y,z
x,1/2-y,1/2+z
loop_
_atom_site_type_symbol
_atom_site_label
_atom_site_fract_x
_atom_site_fract_y
_atom_site_fract_z
Si Si1 0.022242 0.942942 0.076342
Si Si2 0.140909 0.116608 0.578252
Si Si3 0.603292 0.896606 0.582152
Si Si4 0.718533 0.307244 0.922022
Si Si5 0.521886 0.193116 0.078676
Si Si6 0.720077 0.522886 0.922641
Si Si7 0.745200 0.804011 0.915025
Si Si8 0.788968 0.084801 0.924588
O O1 0.016540 0.950669 0.250000
O O2 0.114550 0.924702 0.042736
O O3 0.951011 0.899842 0.035451
O O4 0.000000 0.000000 0.000000
O O5 0.143682 0.128309 0.750000
O O6 0.202139 0.064334 0.553755
O O7 0.177247 0.167604 0.490874
O O8 0.590627 0.914546 0.750000
O O9 0.524184 0.862478 0.527746
O O10 0.640173 0.945875 0.486224
O O11 0.673845 0.849657 0.582550
O O12 0.737278 0.306015 0.750000
O O13 0.619664 0.312634 0.937053
O O14 0.742299 0.250000 0.000000
O O15 0.759451 0.358891 0.001542
O O16 0.502238 0.198615 0.250000
O O17 0.496727 0.250000 0.000000
O O18 0.712396 0.513678 0.750000
O O19 0.739606 0.466609 0.006768
O O20 0.763541 0.789493 0.750000
O O21 0.718618 0.750000 0.000000
O O22 0.778599 0.086304 0.750000
#
# Coordination Sequence:
#
# PCOD9435032 Si02
#       8
#     8   8   8   8   8   8   8   8
#     4  10  20  34  55  81 107 135 172 217 262 313
#     4   9  18  33  50  72 103 135 170 213 256 304
#     4   9  18  32  50  76 109 140 176 219 265 315
#     4  10  21  39  61  83 108 139 179 224 272 321
#     4   9  18  33  55  80 106 139 179 226 272 318
#     4  10  19  32  52  78 109 143 177 215 263 315
#     4  10  19  30  47  71 102 140 175 210 255 309
#     4  11  22  36  57  83 110 141 177 219 270 323
#
# _framework density 17.626802000000001
#
# number of rings (size 3 to 8) (size 9 to 14) (size 15 to 20)
#    0.000    2.250    1.250    1.875    0.000    3.000 
#    0.000    1.250    0.000    0.000    0.000    0.000 
#    0.000    0.000    0.000    0.000    0.000    0.000 
#
# Total GULP energy -357046.021943 kJ/mol
# GULP energy per Si atom -5578.844093 kJ/mol
# Density = 1.758668 g / cm^3
# Si number density = 17.626802 Si / 1000 Ang^3
#
#
#
# Elastic Constant Matrix: (Units=GPa)
#
#
# Indices 1 2 3 4 5 6 
#
# 1 52.8612 37.3223 38.9616 0.0000 0.0000 0.0000
# 2 37.3223 89.5157 64.2081 0.0000 0.0000 0.0000
# 3 38.9616 64.2081 84.3960 0.0000 0.0000 0.0000
# 4 0.0000 0.0000 0.0000 36.2739 0.0000 0.0000
# 5 0.0000 0.0000 0.0000 0.0000 19.8168 0.0000
# 6 0.0000 0.0000 0.0000 0.0000 0.0000 25.0029
#
#
#
# Elastic Compliance Matrix: (Units=1/GPa)
#
#
# Indices 1 2 3 4 5 6 
#
# 1 0.029919 -0.005651 -0.009513 0.000000 0.000000 0.000000
# 2 -0.005651 0.025657 -0.016911 0.000000 0.000000 0.000000
# 3 -0.009513 -0.016911 0.029107 0.000000 0.000000 0.000000
# 4 0.000000 0.000000 0.000000 0.027568 0.000000 0.000000
# 5 0.000000 0.000000 0.000000 0.000000 0.050462 0.000000
# 6 0.000000 0.000000 0.000000 0.000000 0.000000 0.039995
#
#
# Mechanical properties :
#
#
# Convention : Reuss Voigt Hill
#
# Bulk Modulus (GPa) = 48.70289 56.41744 52.56017
# Shear Modulus (GPa) = 18.26798 21.97079 20.11939
#
# Velocity S-wave (km/s) = 3.22277 3.53433 3.38214
# Velocity P-wave (km/s) = 6.44502 6.98079 6.71825
#
# Compressibility (1/GPa) = 0.02053266
#
# Stress axis : x y z
#
# Youngs Moduli (GPa) = 33.42390 38.97507 34.35623
#
# Poissons Ratio (x) = 0.22023 0.32683
# Poissons Ratio (y) = 0.18886 0.58101
# Poissons Ratio (z) = 0.31797 0.65912
#
# Static dielectric constant tensor:
#      x y z
#    x 1.609990 0.000000 0.000000 
#    y 0.000000 1.577060 0.000000 
#    z 0.000000 0.000000 1.595390 
# 
# From -- ./inp_files/7367.got.cif
#   From: 2010.05.17/outbox.cif.g08.bks.cpg/sg57_4_cif.got.tgz:7367.got - 2010.06.03 13:58:18.
