data_PCOD9435882
_publ_section_title
;
Structure prediction by ZEFSAII (Michael W. Deem and Ramdas Pophale) SiO2 
 PCOD9435882
Probable space group: P B C M
;
_chemical_formula_sum "Si O2"
_cell_formula_units_Z 48
_cell_length_a 8.700962
_cell_length_b 19.251440
_cell_length_c 13.827423
_cell_angle_alpha 90.000000
_cell_angle_beta 90.000000
_cell_angle_gamma 90.000000
_cell_volume 2316.176979
_symmetry_space_group_name_H-M "P B C M"
_symmetry_group_IT_number 57
_symmetry_cell_setting 'orthorhombic'
loop_
_space_group_symop_operation_xyz
x,y,z
-x,-y,1/2+z
x,1/2-y,-z
-x,1/2+y,1/2-z
-x,-y,-z
x,y,1/2-z
-x,1/2+y,z
x,1/2-y,1/2+z
loop_
_atom_site_type_symbol
_atom_site_label
_atom_site_fract_x
_atom_site_fract_y
_atom_site_fract_z
Si Si1 0.731917 0.393588 0.494840
Si Si2 0.519071 0.652692 0.860294
Si Si3 0.833906 0.714219 0.859061
Si Si4 0.929714 0.002919 0.863473
Si Si5 0.701726 0.508109 0.639053
Si Si6 0.954723 0.851511 0.555376
O O1 0.614935 0.345944 0.437499
O O2 0.829004 0.440054 0.418270
O O3 0.650513 0.448735 0.565253
O O4 0.860476 0.353027 0.555216
O O5 0.460179 0.653537 0.750000
O O6 0.650215 0.710362 0.870169
O O7 0.611696 0.579946 0.874159
O O8 0.869864 0.688311 0.750000
O O9 0.892287 0.791935 0.874837
O O10 0.903812 0.669857 0.947059
O O11 0.893943 0.001775 0.750000
O O12 0.901139 0.927442 0.910973
O O13 0.113396 0.016181 0.873774
O O14 0.677824 0.486155 0.750000
#
# Coordination Sequence:
#
# PCOD9435882 Si02
#       6
#     8   8   8   8   8   8
#     4  11  20  33  56  87 118 148 187 241 294 345
#     4  10  20  34  55  83 113 149 190 232 286 348
#     4  10  21  39  60  79 109 155 201 242 286 344
#     4  10  19  33  56  88 121 149 186 237 292 350
#     4   9  18  32  52  81 117 153 186 229 289 352
#     4  10  21  37  58  84 112 150 198 241 289 343
#
# _framework density 20.723804999999999
#
# number of rings (size 3 to 8) (size 9 to 14) (size 15 to 20)
#    0.000    2.000    0.000    5.500    0.000    3.333 
#    0.000    3.333    0.000    4.000    0.000   11.667 
#    0.000    0.000    0.000    0.000    0.000    0.000 
#
# Total GULP energy -268252.640264 kJ/mol
# GULP energy per Si atom -5588.596672 kJ/mol
# Density = 2.067664 g / cm^3
# Si number density = 20.723805 Si / 1000 Ang^3
#
#
#
# Elastic Constant Matrix: (Units=GPa)
#
#
# Indices 1 2 3 4 5 6 
#
# 1 44.3624 26.3626 16.7594 0.0000 0.0000 0.0000
# 2 26.3626 48.7356 13.2225 0.0000 0.0000 0.0000
# 3 16.7594 13.2225 85.2459 0.0000 0.0000 0.0000
# 4 0.0000 0.0000 0.0000 21.2290 0.0000 0.0000
# 5 0.0000 0.0000 0.0000 0.0000 24.9093 0.0000
# 6 0.0000 0.0000 0.0000 0.0000 0.0000 17.4739
#
#
#
# Elastic Compliance Matrix: (Units=1/GPa)
#
#
# Indices 1 2 3 4 5 6 
#
# 1 0.034516 -0.017569 -0.004061 0.000000 0.000000 0.000000
# 2 -0.017569 0.030363 -0.001256 0.000000 0.000000 0.000000
# 3 -0.004061 -0.001256 0.012724 0.000000 0.000000 0.000000
# 4 0.000000 0.000000 0.000000 0.047105 0.000000 0.000000
# 5 0.000000 0.000000 0.000000 0.000000 0.040146 0.000000
# 6 0.000000 0.000000 0.000000 0.000000 0.000000 0.057228
#
#
# Mechanical properties :
#
#
# Convention : Reuss Voigt Hill
#
# Bulk Modulus (GPa) = 31.41454 32.33700 31.87577
# Shear Modulus (GPa) = 17.95560 20.85572 19.40566
#
# Velocity S-wave (km/s) = 2.94670 3.17577 3.06338
# Velocity P-wave (km/s) = 5.17387 5.39305 5.28460
#
# Compressibility (1/GPa) = 0.03183240
#
# Stress axis : x y z
#
# Youngs Moduli (GPa) = 28.97183 32.93458 78.59250
#
# Poissons Ratio (x) = 0.57863 0.31915
# Poissons Ratio (y) = 0.50901 0.09867
# Poissons Ratio (z) = 0.11765 0.04135
#
# Static dielectric constant tensor:
#      x y z
#    x 1.741470 0.000000 0.000000 
#    y 0.000000 1.752840 0.000000 
#    z 0.000000 0.000000 1.753890 
# 
# From -- ./inp_files/16581.got.cif
#   From: 2010.05.17/outbox.cif.g08.bks.cpg/sg57_9_cif.got.tgz:16581.got - 2010.06.03 13:58:18.
