data_PCOD9435950
_publ_section_title
;
Structure prediction by ZEFSAII (Michael W. Deem and Ramdas Pophale) SiO2 
 PCOD9435950
Probable space group: P B C M
;
_chemical_formula_sum "Si O2"
_cell_formula_units_Z 48
_cell_length_a 15.355117
_cell_length_b 8.927900
_cell_length_c 14.879746
_cell_angle_alpha 90.000000
_cell_angle_beta 90.000000
_cell_angle_gamma 90.000000
_cell_volume 2039.848741
_symmetry_space_group_name_H-M "P B C M"
_symmetry_group_IT_number 57
_symmetry_cell_setting 'orthorhombic'
loop_
_space_group_symop_operation_xyz
x,y,z
-x,-y,1/2+z
x,1/2-y,-z
-x,1/2+y,1/2-z
-x,-y,-z
x,y,1/2-z
-x,1/2+y,z
x,1/2-y,1/2+z
loop_
_atom_site_type_symbol
_atom_site_label
_atom_site_fract_x
_atom_site_fract_y
_atom_site_fract_z
Si Si1 0.886341 0.165575 0.150286
Si Si2 0.558064 0.358609 0.859862
Si Si3 0.387399 0.972448 0.360043
Si Si4 0.270746 0.026865 0.639544
Si Si5 0.959822 0.018905 0.596525
Si Si6 0.783156 0.641134 0.140914
O O1 0.859933 0.216277 0.250000
O O2 0.928796 0.311580 0.108005
O O3 0.800823 0.093167 0.107190
O O4 0.959645 0.037042 0.156383
O O5 0.556839 0.355879 0.750000
O O6 0.462889 0.412386 0.888329
O O7 0.632750 0.476448 0.886452
O O8 0.585872 0.193403 0.889557
O O9 0.386482 0.971403 0.250000
O O10 0.292563 0.027258 0.388900
O O11 0.267845 0.026335 0.750000
O O12 0.242718 0.192181 0.611043
O O13 0.877101 0.912706 0.610170
O O14 0.000000 0.000000 0.500000
O O15 0.784483 0.641358 0.250000
#
# Coordination Sequence:
#
# PCOD9435950 Si02
#       6
#     8   8   8   8   8   8
#     4  11  22  39  61  84 111 152 198 244 295 358
#     4   9  15  25  41  72 113 151 190 242 301 354
#     4   9  16  25  44  73 112 156 198 244 299 355
#     4   9  18  31  52  80 112 149 196 248 301 355
#     4  12  25  40  58  84 117 151 193 248 307 360
#     4  10  19  34  54  79 111 155 204 250 298 360
#
# _framework density 23.531155999999999
#
# number of rings (size 3 to 8) (size 9 to 14) (size 15 to 20)
#    0.000    2.000    0.000    5.000    0.000    8.000 
#    0.000    0.000    0.000    0.000    0.000    1.167 
#    0.000    2.667    0.000    0.833    0.000    2.000 
#
# Total GULP energy -268667.159840 kJ/mol
# GULP energy per Si atom -5597.232497 kJ/mol
# Density = 2.347760 g / cm^3
# Si number density = 23.531156 Si / 1000 Ang^3
#
#
#
# Elastic Constant Matrix: (Units=GPa)
#
#
# Indices 1 2 3 4 5 6 
#
# 1 106.6272 -7.4690 -0.4928 0.0000 0.0000 0.0000
# 2 -7.4690 62.6865 12.1748 0.0000 0.0000 0.0000
# 3 -0.4928 12.1748 43.2435 0.0000 0.0000 0.0000
# 4 0.0000 0.0000 0.0000 11.7123 0.0000 0.0000
# 5 0.0000 0.0000 0.0000 0.0000 -31.8291 0.0000
# 6 0.0000 0.0000 0.0000 0.0000 0.0000 47.3891
#
#
#
# Elastic Compliance Matrix: (Units=1/GPa)
#
#
# Indices 1 2 3 4 5 6 
#
# 1 0.009459 0.001170 -0.000222 0.000000 0.000000 0.000000
# 2 0.001170 0.017020 -0.004778 0.000000 0.000000 0.000000
# 3 -0.000222 -0.004778 0.024468 0.000000 0.000000 0.000000
# 4 0.000000 0.000000 0.000000 0.085380 0.000000 0.000000
# 5 0.000000 0.000000 0.000000 0.000000 -0.031418 0.000000
# 6 0.000000 0.000000 0.000000 0.000000 0.000000 0.021102
#
#
# Mechanical properties :
#
#
# Convention : Reuss Voigt Hill
#
# Bulk Modulus (GPa) = 23.10163 24.55370 23.82766
# Shear Modulus (GPa) = 33.76095 19.34408 26.55251
#
# Velocity S-wave (km/s) = 3.79190 2.87027 3.36281
# Velocity P-wave (km/s) = 5.38610 4.63053 5.02255
#
# Compressibility (1/GPa) = 0.04328700
#
# Stress axis : x y z
#
# Youngs Moduli (GPa) = 105.71486 58.75481 40.87021
#
# Poissons Ratio (x) = -0.06875 0.00906
# Poissons Ratio (y) = -0.12370 0.19530
# Poissons Ratio (z) = 0.02343 0.28076
#
# Static dielectric constant tensor:
#      x y z
#    x 1.831170 0.000000 0.000000 
#    y 0.000000 1.855740 0.000000 
#    z 0.000000 0.000000 2.020350 
# 
# From -- ./inp_files/22494.got.cif
#   From: 2010.05.17/outbox.cif.g08.bks.cpg/sg57_12_cif.got.tgz:22494.got - 2010.06.03 13:58:18.
