data_PCOD9435564
_publ_section_title
;
Structure prediction by ZEFSAII (Michael W. Deem and Ramdas Pophale) SiO2 
 PCOD9435564
Probable space group: P B C M
;
_chemical_formula_sum "Si O2"
_cell_formula_units_Z 48
_cell_length_a 20.814304
_cell_length_b 13.597228
_cell_length_c 9.513159
_cell_angle_alpha 90.000000
_cell_angle_beta 90.000000
_cell_angle_gamma 90.000000
_cell_volume 2692.384171
_symmetry_space_group_name_H-M "P B C M"
_symmetry_group_IT_number 57
_symmetry_cell_setting 'orthorhombic'
loop_
_space_group_symop_operation_xyz
x,y,z
-x,-y,1/2+z
x,1/2-y,-z
-x,1/2+y,1/2-z
-x,-y,-z
x,y,1/2-z
-x,1/2+y,z
x,1/2-y,1/2+z
loop_
_atom_site_type_symbol
_atom_site_label
_atom_site_fract_x
_atom_site_fract_y
_atom_site_fract_z
Si Si1 0.619757 0.341827 0.588707
Si Si2 0.477486 0.404707 0.913209
Si Si3 0.972538 0.350832 0.085176
Si Si4 0.216029 0.349901 0.083132
Si Si5 0.901658 0.512931 0.585482
Si Si6 0.641579 0.931175 0.082345
O O1 0.644282 0.250000 0.500000
O O2 0.640295 0.331773 0.750000
O O3 0.541624 0.339466 0.586032
O O4 0.639420 0.452363 0.542861
O O5 0.536579 0.572873 0.250000
O O6 0.412818 0.374786 0.993437
O O7 0.500000 0.500000 0.000000
O O8 0.959476 0.334698 0.250000
O O9 0.040711 0.407628 0.073964
O O10 0.975511 0.250000 0.000000
O O11 0.920665 0.422649 0.013264
O O12 0.209025 0.331741 0.250000
O O13 0.164261 0.433304 0.045902
O O14 0.288278 0.387504 0.057824
O O15 0.203820 0.250000 0.000000
O O16 0.898529 0.482559 0.750000
O O17 0.626561 0.926319 0.250000
#
# Coordination Sequence:
#
# PCOD9435564 Si02
#       6
#     8   8   8   8   8   8
#     4   9  18  31  48  70  95 125 162 202 248 297
#     4   9  17  30  48  70  95 124 161 207 254 300
#     4  10  19  32  54  82 110 140 176 218 262 310
#     4  10  21  37  56  76 103 137 172 213 260 311
#     4   9  19  35  54  78 108 142 177 216 262 309
#     4   9  19  35  51  71 101 134 166 204 251 303
#
# _framework density 17.828066
#
# number of rings (size 3 to 8) (size 9 to 14) (size 15 to 20)
#    0.000    2.667    0.000    2.500    0.000    6.000 
#    0.000    4.167    0.000    2.000    0.000    0.000 
#    0.000    0.000    0.000    0.000    0.000    0.000 
#
# Total GULP energy -267552.677644 kJ/mol
# GULP energy per Si atom -5574.014118 kJ/mol
# Density = 1.778749 g / cm^3
# Si number density = 17.828066 Si / 1000 Ang^3
#
#
#
# Elastic Constant Matrix: (Units=GPa)
#
#
# Indices 1 2 3 4 5 6 
#
# 1 53.4349 -7.6402 21.8427 0.0000 0.0000 0.0000
# 2 -7.6402 57.0999 43.6231 0.0000 0.0000 0.0000
# 3 21.8427 43.6231 79.0072 0.0000 0.0000 0.0000
# 4 0.0000 0.0000 0.0000 32.8727 0.0000 0.0000
# 5 0.0000 0.0000 0.0000 0.0000 23.0658 0.0000
# 6 0.0000 0.0000 0.0000 0.0000 0.0000 11.4787
#
#
#
# Elastic Compliance Matrix: (Units=1/GPa)
#
#
# Indices 1 2 3 4 5 6 
#
# 1 0.028058 0.016743 -0.017002 0.000000 0.000000 0.000000
# 2 0.016743 0.040282 -0.026870 0.000000 0.000000 0.000000
# 3 -0.017002 -0.026870 0.032193 0.000000 0.000000 0.000000
# 4 0.000000 0.000000 0.000000 0.030420 0.000000 0.000000
# 5 0.000000 0.000000 0.000000 0.000000 0.043354 0.000000
# 6 0.000000 0.000000 0.000000 0.000000 0.000000 0.087118
#
#
# Mechanical properties :
#
#
# Convention : Reuss Voigt Hill
#
# Bulk Modulus (GPa) = 21.60937 33.91036 27.75987
# Shear Modulus (GPa) = 15.10081 22.26452 18.68267
#
# Velocity S-wave (km/s) = 2.91353 3.53774 3.24070
# Velocity P-wave (km/s) = 4.84412 5.97909 5.44128
#
# Compressibility (1/GPa) = 0.04627622
#
# Stress axis : x y z
#
# Youngs Moduli (GPa) = 35.64027 24.82524 31.06222
#
# Poissons Ratio (x) = -0.41565 0.52811
# Poissons Ratio (y) = -0.59673 0.83464
# Poissons Ratio (z) = 0.60594 0.66705
#
# Static dielectric constant tensor:
#      x y z
#    x 1.621860 0.000000 0.000000 
#    y 0.000000 1.607210 0.000000 
#    z 0.000000 0.000000 1.600960 
# 
# From -- ./inp_files/7855.got.cif
#   From: 2010.05.17/outbox.cif.g08.bks.cpg/sg57_4_cif.got.tgz:7855.got - 2010.06.03 13:58:18.
