data_PCOD9435937
_publ_section_title
;
Structure prediction by ZEFSAII (Michael W. Deem and Ramdas Pophale) SiO2 
 PCOD9435937
Probable space group: P B C M
;
_chemical_formula_sum "Si O2"
_cell_formula_units_Z 64
_cell_length_a 20.542541
_cell_length_b 8.784758
_cell_length_c 13.770925
_cell_angle_alpha 90.000000
_cell_angle_beta 90.000000
_cell_angle_gamma 90.000000
_cell_volume 2485.118358
_symmetry_space_group_name_H-M "P B C M"
_symmetry_group_IT_number 57
_symmetry_cell_setting 'orthorhombic'
loop_
_space_group_symop_operation_xyz
x,y,z
-x,-y,1/2+z
x,1/2-y,-z
-x,1/2+y,1/2-z
-x,-y,-z
x,y,1/2-z
-x,1/2+y,z
x,1/2-y,1/2+z
loop_
_atom_site_type_symbol
_atom_site_label
_atom_site_fract_x
_atom_site_fract_y
_atom_site_fract_z
Si Si1 0.413034 0.847082 0.130063
Si Si2 0.217549 0.997302 0.631589
Si Si3 0.657246 0.823920 0.400773
Si Si4 0.715827 0.996560 0.639086
Si Si5 0.037675 0.494068 0.631093
Si Si6 0.911189 0.836359 0.368429
Si Si7 0.462735 0.524568 0.139678
Si Si8 0.161496 0.667870 0.632077
O O1 0.411580 0.849479 0.250000
O O2 0.431212 0.677371 0.099059
O O3 0.343630 0.907582 0.095580
O O4 0.470563 0.959814 0.097521
O O5 0.225275 0.998973 0.750000
O O6 0.287026 0.048384 0.590435
O O7 0.161294 0.116424 0.603469
O O8 0.191281 0.830437 0.604532
O O9 0.634171 0.750000 0.500000
O O10 0.694989 0.679136 0.356317
O O11 0.593116 0.896401 0.355944
O O12 0.719915 0.051204 0.750000
O O13 0.787021 0.037597 0.600908
O O14 0.036762 0.491572 0.750000
O O15 0.064467 0.329730 0.601140
O O16 0.089592 0.621892 0.599501
O O17 0.964999 0.539130 0.601669
O O18 0.910406 0.835852 0.250000
O O19 0.480818 0.566136 0.250000
O O20 0.156044 0.671668 0.750000
#
# Coordination Sequence:
#
# PCOD9435937 Si02
#       8
#     8   8   8   8   8   8   8   8
#     4   9  18  33  60  90 111 135 174 217 258 304
#     4  10  19  34  54  76 101 137 179 221 265 314
#     4  12  25  38  52  76 107 142 179 220 266 314
#     4  10  19  35  57  81 106 137 175 217 260 310
#     4   9  15  24  39  71 111 139 164 207 262 314
#     4   9  16  25  43  71 107 142 172 209 260 312
#     4  10  19  36  59  83 109 139 174 215 259 310
#     4   9  17  29  51  80 108 135 172 218 266 314
#
# _framework density 25.753299999999999
#
# number of rings (size 3 to 8) (size 9 to 14) (size 15 to 20)
#    0.000    2.250    0.000    4.125    0.000    9.000 
#    0.000    5.000    0.000    0.000    0.000    7.875 
#    0.000    0.000    0.000    0.000    0.000    0.000 
#
# Total GULP energy -358366.655875 kJ/mol
# GULP energy per Si atom -5599.478998 kJ/mol
# Density = 2.569468 g / cm^3
# Si number density = 25.753300 Si / 1000 Ang^3
#
#
#
# Elastic Constant Matrix: (Units=GPa)
#
#
# Indices 1 2 3 4 5 6 
#
# 1 101.7742 4.1797 10.1289 0.0000 0.0000 0.0000
# 2 4.1797 84.8265 18.8703 0.0000 0.0000 0.0000
# 3 10.1289 18.8703 74.8135 0.0000 0.0000 0.0000
# 4 0.0000 0.0000 0.0000 30.6266 0.0000 0.0000
# 5 0.0000 0.0000 0.0000 0.0000 18.3452 0.0000
# 6 0.0000 0.0000 0.0000 0.0000 0.0000 44.9433
#
#
#
# Elastic Compliance Matrix: (Units=1/GPa)
#
#
# Indices 1 2 3 4 5 6 
#
# 1 0.009963 -0.000202 -0.001298 0.000000 0.000000 0.000000
# 2 -0.000202 0.012494 -0.003124 0.000000 0.000000 0.000000
# 3 -0.001298 -0.003124 0.014330 0.000000 0.000000 0.000000
# 4 0.000000 0.000000 0.000000 0.032651 0.000000 0.000000
# 5 0.000000 0.000000 0.000000 0.000000 0.054510 0.000000
# 6 0.000000 0.000000 0.000000 0.000000 0.000000 0.022250
#
#
# Mechanical properties :
#
#
# Convention : Reuss Voigt Hill
#
# Bulk Modulus (GPa) = 36.31208 36.41911 36.36559
# Shear Modulus (GPa) = 30.37180 33.99872 32.18526
#
# Velocity S-wave (km/s) = 3.43787 3.63736 3.53902
# Velocity P-wave (km/s) = 5.46710 5.64027 5.55436
#
# Compressibility (1/GPa) = 0.02753905
#
# Stress axis : x y z
#
# Youngs Moduli (GPa) = 100.36988 80.04054 69.78254
#
# Poissons Ratio (x) = 0.01618 0.09057
# Poissons Ratio (y) = 0.02029 0.21799
# Poissons Ratio (z) = 0.13027 0.25004
#
# Static dielectric constant tensor:
#      x y z
#    x 1.910630 0.000000 0.000000 
#    y 0.000000 1.963850 0.000000 
#    z 0.000000 0.000000 2.174910 
# 
# From -- ./inp_files/23033.got.cif
#   From: 2010.05.17/outbox.cif.g08.bks.cpg/sg57_12_cif.got.tgz:23033.got - 2010.06.03 13:58:18.
