data_PCOD9435660
_publ_section_title
;
Structure prediction by ZEFSAII (Michael W. Deem and Ramdas Pophale) SiO2 
 PCOD9435660
Probable space group: P B C M
;
_chemical_formula_sum "Si O2"
_cell_formula_units_Z 48
_cell_length_a 32.283855
_cell_length_b 9.184536
_cell_length_c 8.623444
_cell_angle_alpha 90.000000
_cell_angle_beta 90.000000
_cell_angle_gamma 90.000000
_cell_volume 2556.956597
_symmetry_space_group_name_H-M "P B C M"
_symmetry_group_IT_number 57
_symmetry_cell_setting 'orthorhombic'
loop_
_space_group_symop_operation_xyz
x,y,z
-x,-y,1/2+z
x,1/2-y,-z
-x,1/2+y,1/2-z
-x,-y,-z
x,y,1/2-z
-x,1/2+y,z
x,1/2-y,1/2+z
loop_
_atom_site_type_symbol
_atom_site_label
_atom_site_fract_x
_atom_site_fract_y
_atom_site_fract_z
Si Si1 0.780200 0.084882 0.436561
Si Si2 0.129066 0.914630 0.936717
Si Si3 0.960886 0.414145 0.563775
Si Si4 0.701915 0.912390 0.935643
Si Si5 0.381299 0.913666 0.063429
Si Si6 0.460351 0.413799 0.064324
O O1 0.776403 0.250000 0.500000
O O2 0.778124 0.089715 0.250000
O O3 0.825956 0.025087 0.483782
O O4 0.743207 0.987856 0.500389
O O5 0.129050 0.910109 0.750000
O O6 0.084395 0.978546 0.983996
O O7 0.128916 0.750000 0.000000
O O8 0.962572 0.250000 0.500000
O O9 0.962662 0.411501 0.750000
O O10 0.000000 0.500000 0.500000
O O11 0.704019 0.907218 0.750000
O O12 0.661852 0.008300 0.979217
O O13 0.697557 0.750000 0.000000
O O14 0.384851 0.911859 0.250000
O O15 0.382031 0.750000 0.000000
O O16 0.419259 0.004197 0.993325
O O17 0.461571 0.411334 0.250000
O O18 0.460663 0.250000 0.000000
O O19 0.500000 0.500000 0.000000
#
# Coordination Sequence:
#
# PCOD9435660 Si02
#       6
#     8   8   8   8   8   8
#     4  10  19  34  57  83 110 141 181 227 275 329
#     4   8  16  30  50  75 103 136 175 221 270 324
#     4  10  19  33  52  76 105 138 178 222 272 327
#     4  11  24  40  59  84 116 152 189 232 283 337
#     4  11  24  42  64  91 121 155 196 240 287 338
#     4  12  25  43  66  93 126 162 201 244 292 343
#
# _framework density 18.772316
#
# number of rings (size 3 to 8) (size 9 to 14) (size 15 to 20)
#    0.000    1.667    0.000    5.000    0.000    6.667 
#    0.000    0.833    0.000    0.000    0.000    0.000 
#    0.000    0.000    0.000    0.000    0.000    0.000 
#
# Total GULP energy -268025.795041 kJ/mol
# GULP energy per Si atom -5583.870730 kJ/mol
# Density = 1.872959 g / cm^3
# Si number density = 18.772316 Si / 1000 Ang^3
#
#
#
# Elastic Constant Matrix: (Units=GPa)
#
#
# Indices 1 2 3 4 5 6 
#
# 1 232.3506 101.0494 74.0357 0.0000 0.0000 0.0000
# 2 101.0494 130.2070 47.4346 0.0000 0.0000 0.0000
# 3 74.0357 47.4346 79.0529 0.0000 0.0000 0.0000
# 4 0.0000 0.0000 0.0000 33.8261 0.0000 0.0000
# 5 0.0000 0.0000 0.0000 0.0000 29.4659 0.0000
# 6 0.0000 0.0000 0.0000 0.0000 0.0000 34.1949
#
#
#
# Elastic Compliance Matrix: (Units=1/GPa)
#
#
# Indices 1 2 3 4 5 6 
#
# 1 0.007605 -0.004232 -0.004582 0.000000 0.000000 0.000000
# 2 -0.004232 0.012184 -0.003347 0.000000 0.000000 0.000000
# 3 -0.004582 -0.003347 0.018950 0.000000 0.000000 0.000000
# 4 0.000000 0.000000 0.000000 0.029563 0.000000 0.000000
# 5 0.000000 0.000000 0.000000 0.000000 0.033938 0.000000
# 6 0.000000 0.000000 0.000000 0.000000 0.000000 0.029244
#
#
# Mechanical properties :
#
#
# Convention : Reuss Voigt Hill
#
# Bulk Modulus (GPa) = 69.37409 98.51666 83.94537
# Shear Modulus (GPa) = 31.13097 34.10341 32.61719
#
# Velocity S-wave (km/s) = 4.07670 4.26688 4.17287
# Velocity P-wave (km/s) = 7.69383 8.76748 8.24814
#
# Compressibility (1/GPa) = 0.01441460
#
# Stress axis : x y z
#
# Youngs Moduli (GPa) = 131.49919 82.07476 52.77106
#
# Poissons Ratio (x) = 0.34737 0.24182
# Poissons Ratio (y) = 0.55654 0.17663
# Poissons Ratio (z) = 0.60259 0.27472
#
# Static dielectric constant tensor:
#      x y z
#    x 1.679640 0.000000 0.000000 
#    y 0.000000 1.596940 0.000000 
#    z 0.000000 0.000000 1.633480 
# 
# From -- ./inp_files/9889.got.cif
#   From: 2010.05.17/outbox.cif.g08.bks.cpg/sg57_5_cif.got.tgz:9889.got - 2010.06.03 13:58:18.
