data_PCOD9435389
_publ_section_title
;
Structure prediction by ZEFSAII (Michael W. Deem and Ramdas Pophale) SiO2 
 PCOD9435389
Probable space group: P B C M
;
_chemical_formula_sum "Si O2"
_cell_formula_units_Z 48
_cell_length_a 18.846752
_cell_length_b 15.737050
_cell_length_c 8.497663
_cell_angle_alpha 90.000000
_cell_angle_beta 90.000000
_cell_angle_gamma 90.000000
_cell_volume 2520.341232
_symmetry_space_group_name_H-M "P B C M"
_symmetry_group_IT_number 57
_symmetry_cell_setting 'orthorhombic'
loop_
_space_group_symop_operation_xyz
x,y,z
-x,-y,1/2+z
x,1/2-y,-z
-x,1/2+y,1/2-z
-x,-y,-z
x,y,1/2-z
-x,1/2+y,z
x,1/2-y,1/2+z
loop_
_atom_site_type_symbol
_atom_site_label
_atom_site_fract_x
_atom_site_fract_y
_atom_site_fract_z
Si Si1 0.330807 0.481255 0.059547
Si Si2 0.440335 0.342469 0.561673
Si Si3 0.171904 0.478619 0.058260
Si Si4 0.111680 0.661562 0.062689
Si Si5 0.395549 0.841775 0.560516
Si Si6 0.027649 0.090955 0.560959
O O1 0.331945 0.479928 0.250000
O O2 0.251312 0.458667 0.006160
O O3 0.350340 0.577085 0.008884
O O4 0.389382 0.415800 0.000093
O O5 0.417571 0.250000 0.500000
O O6 0.439434 0.342352 0.750000
O O7 0.522325 0.354805 0.509631
O O8 0.171530 0.480458 0.250000
O O9 0.149627 0.574380 0.007030
O O10 0.110373 0.411867 0.012578
O O11 0.115224 0.661981 0.250000
O O12 0.142223 0.750000 0.000000
O O13 0.029312 0.654706 0.010833
O O14 0.371431 0.750000 0.500000
O O15 0.394512 0.839374 0.750000
O O16 0.023569 0.095318 0.750000
O O17 0.000000 0.000000 0.500000
#
# Coordination Sequence:
#
# PCOD9435389 Si02
#       6
#     8   8   8   8   8   8
#     4  10  19  34  54  77 105 139 171 209 260 311
#     4  10  20  35  53  76 101 132 174 219 260 305
#     4   8  17  32  50  71  99 130 161 197 246 300
#     4  10  19  32  50  74 100 129 164 205 247 295
#     4   9  19  33  52  76 105 137 172 212 256 303
#     4   9  16  30  50  70  92 123 159 196 234 282
#
# _framework density 19.045038999999999
#
# number of rings (size 3 to 8) (size 9 to 14) (size 15 to 20)
#    0.000    2.667    0.000    3.000    0.000    2.000 
#    0.000    5.833    0.000    0.000    0.000    0.000 
#    0.000    0.000    0.000    0.000    0.000    0.000 
#
# Total GULP energy -267560.887991 kJ/mol
# GULP energy per Si atom -5574.185166 kJ/mol
# Density = 1.900169 g / cm^3
# Si number density = 19.045039 Si / 1000 Ang^3
#
#
#
# Elastic Constant Matrix: (Units=GPa)
#
#
# Indices 1 2 3 4 5 6 
#
# 1 47.6955 -5.4415 2.5804 0.0000 0.0000 0.0000
# 2 -5.4415 28.0243 -0.4554 0.0000 0.0000 0.0000
# 3 2.5804 -0.4554 19.7135 0.0000 0.0000 0.0000
# 4 0.0000 0.0000 0.0000 30.7408 0.0000 0.0000
# 5 0.0000 0.0000 0.0000 0.0000 15.1243 0.0000
# 6 0.0000 0.0000 0.0000 0.0000 0.0000 8.5957
#
#
#
# Elastic Compliance Matrix: (Units=1/GPa)
#
#
# Indices 1 2 3 4 5 6 
#
# 1 0.021587 0.004147 -0.002730 0.000000 0.000000 0.000000
# 2 0.004147 0.036493 0.000300 0.000000 0.000000 0.000000
# 3 -0.002730 0.000300 0.051091 0.000000 0.000000 0.000000
# 4 0.000000 0.000000 0.000000 0.032530 0.000000 0.000000
# 5 0.000000 0.000000 0.000000 0.000000 0.066119 0.000000
# 6 0.000000 0.000000 0.000000 0.000000 0.000000 0.116337
#
#
# Mechanical properties :
#
#
# Convention : Reuss Voigt Hill
#
# Bulk Modulus (GPa) = 8.88047 9.86671 9.37359
# Shear Modulus (GPa) = 13.95643 17.47547 15.71595
#
# Velocity S-wave (km/s) = 2.70999 3.03246 2.87574
# Velocity P-wave (km/s) = 3.80329 4.17768 3.99488
#
# Compressibility (1/GPa) = 0.11260665
#
# Stress axis : x y z
#
# Youngs Moduli (GPa) = 46.32380 27.40217 19.57296
#
# Poissons Ratio (x) = -0.11364 0.05343
# Poissons Ratio (y) = -0.19211 -0.00588
# Poissons Ratio (z) = 0.12646 -0.00823
#
# Static dielectric constant tensor:
#      x y z
#    x 1.689630 0.000000 0.000000 
#    y 0.000000 1.641400 0.000000 
#    z 0.000000 0.000000 1.651170 
# 
# From -- ./inp_files/6542.got.cif
#   From: 2010.05.17/outbox.cif.g08.bks.cpg/sg57_4_cif.got.tgz:6542.got - 2010.06.03 13:58:18.
