data_PCOD9435900
_publ_section_title
;
Structure prediction by ZEFSAII (Michael W. Deem and Ramdas Pophale) SiO2 
 PCOD9435900
Probable space group: P B C M
;
_chemical_formula_sum "Si O2"
_cell_formula_units_Z 48
_cell_length_a 15.170742
_cell_length_b 18.952262
_cell_length_c 8.811222
_cell_angle_alpha 90.000000
_cell_angle_beta 90.000000
_cell_angle_gamma 90.000000
_cell_volume 2533.401467
_symmetry_space_group_name_H-M "P B C M"
_symmetry_group_IT_number 57
_symmetry_cell_setting 'orthorhombic'
loop_
_space_group_symop_operation_xyz
x,y,z
-x,-y,1/2+z
x,1/2-y,-z
-x,1/2+y,1/2-z
-x,-y,-z
x,y,1/2-z
-x,1/2+y,z
x,1/2-y,1/2+z
loop_
_atom_site_type_symbol
_atom_site_label
_atom_site_fract_x
_atom_site_fract_y
_atom_site_fract_z
Si Si1 0.625640 0.575313 0.067902
Si Si2 0.946524 0.597232 0.568679
Si Si3 0.123328 0.558259 0.069137
Si Si4 0.525582 0.172972 0.932141
Si Si5 0.227574 0.325317 0.431745
Si Si6 0.685907 0.079682 0.567712
O O1 0.619496 0.579826 0.250000
O O2 0.636971 0.493448 0.024065
O O3 0.543990 0.615978 0.993798
O O4 0.711964 0.615787 0.008547
O O5 0.960480 0.594623 0.750000
O O6 0.901898 0.522284 0.523240
O O7 0.874287 0.656459 0.535154
O O8 0.040302 0.603543 0.488276
O O9 0.128448 0.560171 0.250000
O O10 0.216945 0.580058 0.001736
O O11 0.518865 0.175784 0.750000
O O12 0.622666 0.144389 0.974890
O O13 0.508072 0.250000 0.000000
O O14 0.251940 0.250000 0.500000
O O15 0.240191 0.326777 0.250000
O O16 0.694318 0.078974 0.750000
#
# Coordination Sequence:
#
# PCOD9435900 Si02
#       6
#     8   8   8   8   8   8
#     4  11  22  38  61  88 115 150 192 239 292 347
#     4   9  19  35  54  80 115 151 187 232 284 338
#     4  10  19  33  58  87 113 145 188 236 285 337
#     4  11  24  42  61  84 116 154 193 238 290 346
#     4  11  22  37  56  83 119 157 195 239 291 346
#     4  10  22  39  61  88 117 150 192 241 290 342
#
# _framework density 18.946860000000001
#
# number of rings (size 3 to 8) (size 9 to 14) (size 15 to 20)
#    0.000    1.667    1.667    3.000    0.000    4.000 
#    0.000    0.833    0.000    0.000    0.000    0.000 
#    0.000    0.000    0.000    0.000    0.000    0.000 
#
# Total GULP energy -268153.136676 kJ/mol
# GULP energy per Si atom -5586.523681 kJ/mol
# Density = 1.890374 g / cm^3
# Si number density = 18.946860 Si / 1000 Ang^3
#
#
#
# Elastic Constant Matrix: (Units=GPa)
#
#
# Indices 1 2 3 4 5 6 
#
# 1 120.1494 9.1066 31.0010 0.0000 0.0000 0.0000
# 2 9.1066 32.5017 12.2667 0.0000 0.0000 0.0000
# 3 31.0010 12.2667 38.2922 0.0000 0.0000 0.0000
# 4 0.0000 0.0000 0.0000 14.7523 0.0000 0.0000
# 5 0.0000 0.0000 0.0000 0.0000 33.9677 0.0000
# 6 0.0000 0.0000 0.0000 0.0000 0.0000 9.8387
#
#
#
# Elastic Compliance Matrix: (Units=1/GPa)
#
#
# Indices 1 2 3 4 5 6 
#
# 1 0.010523 0.000304 -0.008617 0.000000 0.000000 0.000000
# 2 0.000304 0.035008 -0.011460 0.000000 0.000000 0.000000
# 3 -0.008617 -0.011460 0.036762 0.000000 0.000000 0.000000
# 4 0.000000 0.000000 0.000000 0.067786 0.000000 0.000000
# 5 0.000000 0.000000 0.000000 0.000000 0.029440 0.000000
# 6 0.000000 0.000000 0.000000 0.000000 0.000000 0.101640
#
#
# Mechanical properties :
#
#
# Convention : Reuss Voigt Hill
#
# Bulk Modulus (GPa) = 23.39379 32.85464 28.12421
# Shear Modulus (GPa) = 14.92738 20.94967 17.93852
#
# Velocity S-wave (km/s) = 2.80992 3.32882 3.08032
# Velocity P-wave (km/s) = 4.78554 5.67035 5.24663
#
# Compressibility (1/GPa) = 0.04274640
#
# Stress axis : x y z
#
# Youngs Moduli (GPa) = 95.02748 28.56497 27.20175
#
# Poissons Ratio (x) = -0.00867 0.23439
# Poissons Ratio (y) = -0.02885 0.31174
# Poissons Ratio (z) = 0.81883 0.32737
#
# Static dielectric constant tensor:
#      x y z
#    x 1.655030 0.000000 0.000000 
#    y 0.000000 1.660150 0.000000 
#    z 0.000000 0.000000 1.629020 
# 
# From -- ./inp_files/4694.got.cif
#   From: 2010.05.17/outbox.cif.g08.bks.cpg/sg57_3_cif.got.tgz:4694.got - 2010.06.03 13:58:18.
