data_PCOD9435984
_publ_section_title
;
Structure prediction by ZEFSAII (Michael W. Deem and Ramdas Pophale) SiO2 
 PCOD9435984
Probable space group: P B C M
;
_chemical_formula_sum "Si O2"
_cell_formula_units_Z 40
_cell_length_a 14.720802
_cell_length_b 15.294399
_cell_length_c 8.476105
_cell_angle_alpha 90.000000
_cell_angle_beta 90.000000
_cell_angle_gamma 90.000000
_cell_volume 1908.359605
_symmetry_space_group_name_H-M "P B C M"
_symmetry_group_IT_number 57
_symmetry_cell_setting 'orthorhombic'
loop_
_space_group_symop_operation_xyz
x,y,z
-x,-y,1/2+z
x,1/2-y,-z
-x,1/2+y,1/2-z
-x,-y,-z
x,y,1/2-z
-x,1/2+y,z
x,1/2-y,1/2+z
loop_
_atom_site_type_symbol
_atom_site_label
_atom_site_fract_x
_atom_site_fract_y
_atom_site_fract_z
Si Si1 0.078561 0.340219 0.062877
Si Si2 0.076053 0.568376 0.068157
Si Si3 0.397742 0.992480 0.560322
Si Si4 0.728615 0.848593 0.060345
Si Si5 0.259705 0.850093 0.437436
O O1 0.058068 0.343435 0.250000
O O2 0.171068 0.393719 0.028108
O O3 0.117478 0.250000 0.000000
O O4 0.990134 0.349413 0.956621
O O5 0.092204 0.547656 0.250000
O O6 0.169067 0.596163 0.987128
O O7 0.000000 0.500000 0.000000
O O8 0.396144 0.991301 0.750000
O O9 0.344628 0.906432 0.500946
O O10 0.500000 0.000000 0.500000
O O11 0.343692 0.079646 0.506672
O O12 0.728118 0.841059 0.250000
O O13 0.707866 0.750000 0.000000
O O14 0.256518 0.750000 0.500000
O O15 0.263498 0.846098 0.250000
#
# Coordination Sequence:
#
# PCOD9435984 Si02
#       5
#     8   8   8   8   8
#     4  10  19  34  55  83 117 155 196 243 296 359
#     4  12  24  39  60  90 127 170 216 264 317 383
#     4  11  24  44  67  95 128 167 216 275 338 406
#     4   9  20  37  61  90 124 161 204 258 319 384
#     4  12  26  46  70  98 133 179 229 284 346 412
#
# _framework density 20.96041
#
# number of rings (size 3 to 8) (size 9 to 14) (size 15 to 20)
#    0.000    1.200    0.000    6.600    0.000    4.800 
#    0.000    2.000    0.000    0.000    0.000    0.000 
#    0.000    0.000    0.000    0.000    0.000    0.000 
#
# Total GULP energy -222843.109562 kJ/mol
# GULP energy per Si atom -5571.077739 kJ/mol
# Density = 2.091270 g / cm^3
# Si number density = 20.960410 Si / 1000 Ang^3
#
#
#
# Elastic Constant Matrix: (Units=GPa)
#
#
# Indices 1 2 3 4 5 6 
#
# 1 160.6799 46.7439 41.3306 0.0000 0.0000 0.0000
# 2 46.7439 123.4780 36.9831 0.0000 0.0000 0.0000
# 3 41.3306 36.9831 100.3001 0.0000 0.0000 0.0000
# 4 0.0000 0.0000 0.0000 36.9647 0.0000 0.0000
# 5 0.0000 0.0000 0.0000 0.0000 31.3249 0.0000
# 6 0.0000 0.0000 0.0000 0.0000 0.0000 31.3475
#
#
#
# Elastic Compliance Matrix: (Units=1/GPa)
#
#
# Indices 1 2 3 4 5 6 
#
# 1 0.007429 -0.002131 -0.002276 0.000000 0.000000 0.000000
# 2 -0.002131 0.009715 -0.002704 0.000000 0.000000 0.000000
# 3 -0.002276 -0.002704 0.011905 0.000000 0.000000 0.000000
# 4 0.000000 0.000000 0.000000 0.027053 0.000000 0.000000
# 5 0.000000 0.000000 0.000000 0.000000 0.031923 0.000000
# 6 0.000000 0.000000 0.000000 0.000000 0.000000 0.031900
#
#
# Mechanical properties :
#
#
# Convention : Reuss Voigt Hill
#
# Bulk Modulus (GPa) = 67.44047 70.50814 68.97430
# Shear Modulus (GPa) = 35.94822 37.22079 36.58451
#
# Velocity S-wave (km/s) = 4.14581 4.21856 4.18234
# Velocity P-wave (km/s) = 7.42712 7.57892 7.50340
#
# Compressibility (1/GPa) = 0.01482789
#
# Stress axis : x y z
#
# Youngs Moduli (GPa) = 134.61285 102.93209 83.99933
#
# Poissons Ratio (x) = 0.21932 0.19114
# Poissons Ratio (y) = 0.28682 0.22715
# Poissons Ratio (z) = 0.30631 0.27835
#
# Static dielectric constant tensor:
#      x y z
#    x 1.950170 0.000000 0.000000 
#    y 0.000000 1.954440 0.000000 
#    z 0.000000 0.000000 1.854680 
# 
# From -- ./inp_files/4303.got.cif
#   From: 2010.05.17/outbox.cif.g08.bks.cpg/sg57_3_cif.got.tgz:4303.got - 2010.06.03 13:58:18.
