data_PCOD9435739
_publ_section_title
;
Structure prediction by ZEFSAII (Michael W. Deem and Ramdas Pophale) SiO2 
 PCOD9435739
Probable space group: P B C M
;
_chemical_formula_sum "Si O2"
_cell_formula_units_Z 64
_cell_length_a 15.560025
_cell_length_b 23.359596
_cell_length_c 8.873923
_cell_angle_alpha 90.000000
_cell_angle_beta 90.000000
_cell_angle_gamma 90.000000
_cell_volume 3225.457129
_symmetry_space_group_name_H-M "P B C M"
_symmetry_group_IT_number 57
_symmetry_cell_setting 'orthorhombic'
loop_
_space_group_symop_operation_xyz
x,y,z
-x,-y,1/2+z
x,1/2-y,-z
-x,1/2+y,1/2-z
-x,-y,-z
x,y,1/2-z
-x,1/2+y,z
x,1/2-y,1/2+z
loop_
_atom_site_type_symbol
_atom_site_label
_atom_site_fract_x
_atom_site_fract_y
_atom_site_fract_z
Si Si1 0.039755 0.690887 0.930864
Si Si2 0.432074 0.373003 0.069496
Si Si3 0.102659 0.397472 0.069076
Si Si4 0.370874 0.490633 0.925537
Si Si5 0.831550 0.492621 0.076540
Si Si6 0.787113 0.134708 0.932367
Si Si7 0.392788 0.615545 0.070265
Si Si8 0.744667 0.688079 0.931447
O O1 0.033811 0.694042 0.750000
O O2 0.138987 0.679617 0.970191
O O3 0.981261 0.637551 0.979830
O O4 0.008194 0.750000 0.000000
O O5 0.440328 0.373561 0.250000
O O6 0.350601 0.333827 0.027256
O O7 0.410310 0.436754 0.010661
O O8 0.521506 0.355234 0.993846
O O9 0.103089 0.400102 0.250000
O O10 0.184759 0.359007 0.021397
O O11 0.111438 0.461391 0.008550
O O12 0.397968 0.491794 0.750000
O O13 0.267358 0.485864 0.929035
O O14 0.392693 0.550746 0.003967
O O15 0.859633 0.490013 0.250000
O O16 0.824442 0.427568 0.020260
O O17 0.775206 0.132312 0.750000
O O18 0.695405 0.143005 0.009397
O O19 0.393671 0.614014 0.250000
O O20 0.748724 0.691859 0.750000
O O21 0.762547 0.750000 0.000000
#
# Coordination Sequence:
#
# PCOD9435739 Si02
#       8
#     8   8   8   8   8   8   8   8
#     4  10  22  40  63  86 114 148 190 241 287 340
#     4  11  21  35  54  79 112 151 191 235 280 332
#     4  10  20  36  57  86 118 149 185 231 285 339
#     4  10  19  33  53  81 116 153 188 229 277 334
#     4   9  18  32  54  83 116 152 188 227 280 342
#     4   9  20  40  59  82 116 152 189 236 292 341
#     4  11  22  35  55  83 112 146 188 236 283 337
#     4  10  22  37  55  79 112 151 191 235 283 336
#
# _framework density 19.842148000000002
#
# number of rings (size 3 to 8) (size 9 to 14) (size 15 to 20)
#    0.000    2.000    1.250    3.375    0.000    5.000 
#    0.000    0.625    0.000    0.000    0.000    0.000 
#    0.000    0.000    0.000    0.000    0.000    0.000 
#
# Total GULP energy -357485.319300 kJ/mol
# GULP energy per Si atom -5585.708114 kJ/mol
# Density = 1.979699 g / cm^3
# Si number density = 19.842148 Si / 1000 Ang^3
#
#
#
# Elastic Constant Matrix: (Units=GPa)
#
#
# Indices 1 2 3 4 5 6 
#
# 1 68.4737 16.3853 22.8788 0.0000 0.0000 0.0000
# 2 16.3853 13.0945 7.1140 0.0000 0.0000 0.0000
# 3 22.8788 7.1140 45.9632 0.0000 0.0000 0.0000
# 4 0.0000 0.0000 0.0000 23.2635 0.0000 0.0000
# 5 0.0000 0.0000 0.0000 0.0000 21.3923 0.0000
# 6 0.0000 0.0000 0.0000 0.0000 0.0000 13.0990
#
#
#
# Elastic Compliance Matrix: (Units=1/GPa)
#
#
# Indices 1 2 3 4 5 6 
#
# 1 0.023079 -0.024716 -0.007662 0.000000 0.000000 0.000000
# 2 -0.024716 0.109848 -0.004699 0.000000 0.000000 0.000000
# 3 -0.007662 -0.004699 0.026298 0.000000 0.000000 0.000000
# 4 0.000000 0.000000 0.000000 0.042986 0.000000 0.000000
# 5 0.000000 0.000000 0.000000 0.000000 0.046746 0.000000
# 6 0.000000 0.000000 0.000000 0.000000 0.000000 0.076341
#
#
# Mechanical properties :
#
#
# Convention : Reuss Voigt Hill
#
# Bulk Modulus (GPa) = 11.75502 24.47640 18.11571
# Shear Modulus (GPa) = 11.68745 16.96119 14.32432
#
# Velocity S-wave (km/s) = 2.42961 2.92688 2.68976
# Velocity P-wave (km/s) = 3.71589 4.87693 4.33545
#
# Compressibility (1/GPa) = 0.08507000
#
# Stress axis : x y z
#
# Youngs Moduli (GPa) = 43.33015 9.10347 38.02583
#
# Poissons Ratio (x) = 0.22500 0.29136
# Poissons Ratio (y) = 1.07094 0.17870
# Poissons Ratio (z) = 0.33201 0.04278
#
# Static dielectric constant tensor:
#      x y z
#    x 1.733810 0.000000 0.000000 
#    y 0.000000 1.667170 0.000000 
#    z 0.000000 0.000000 1.664670 
# 
# From -- ./inp_files/5764.got.cif
#   From: 2010.05.17/outbox.cif.g08.bks.cpg/sg57_3_cif.got.tgz:5764.got - 2010.06.03 13:58:18.
