data_PCOD9435231
_publ_section_title
;
Structure prediction by ZEFSAII (Michael W. Deem and Ramdas Pophale) SiO2 
 PCOD9435231
Probable space group: P B C M
;
_chemical_formula_sum "Si O2"
_cell_formula_units_Z 64
_cell_length_a 15.091080
_cell_length_b 30.604655
_cell_length_c 8.719689
_cell_angle_alpha 90.000000
_cell_angle_beta 90.000000
_cell_angle_gamma 90.000000
_cell_volume 4027.251992
_symmetry_space_group_name_H-M "P B C M"
_symmetry_group_IT_number 57
_symmetry_cell_setting 'orthorhombic'
loop_
_space_group_symop_operation_xyz
x,y,z
-x,-y,1/2+z
x,1/2-y,-z
-x,1/2+y,1/2-z
-x,-y,-z
x,y,1/2-z
-x,1/2+y,z
x,1/2-y,1/2+z
loop_
_atom_site_type_symbol
_atom_site_label
_atom_site_fract_x
_atom_site_fract_y
_atom_site_fract_z
Si Si1 0.626092 0.024378 0.066436
Si Si2 0.791302 0.704457 0.565888
Si Si3 0.002117 0.203961 0.565528
Si Si4 0.168744 0.536644 0.433672
Si Si5 0.131756 0.057394 0.066901
Si Si6 0.446289 0.434470 0.931080
Si Si7 0.290799 0.113099 0.567162
Si Si8 0.038536 0.607393 0.934581
O O1 0.621302 0.015050 0.250000
O O2 0.726344 0.037424 0.030649
O O3 0.550361 0.060146 0.032577
O O4 0.597725 0.980831 0.977225
O O5 0.757181 0.750000 0.500000
O O6 0.790207 0.706543 0.750000
O O7 0.894312 0.699762 0.517864
O O8 0.737735 0.661638 0.518940
O O9 0.968222 0.250000 0.500000
O O10 0.999759 0.206515 0.750000
O O11 0.956587 0.158456 0.519152
O O12 0.158126 0.535673 0.250000
O O13 0.129525 0.491843 0.502711
O O14 0.117708 0.577904 0.502035
O O15 0.125898 0.056782 0.250000
O O16 0.223670 0.079339 0.013099
O O17 0.052061 0.086077 0.997849
O O18 0.436477 0.427464 0.750000
O O19 0.390410 0.398666 0.021376
O O20 0.278787 0.108839 0.750000
O O21 0.035886 0.605566 0.750000
#
# Coordination Sequence:
#
# PCOD9435231 Si02
#       8
#     8   8   8   8   8   8   8   8
#     4   9  19  34  50  69  99 131 162 206 250 286
#     4   9  18  32  49  70  97 129 162 198 245 295
#     4   9  18  33  51  71  96 127 161 203 248 292
#     4  11  22  36  52  71  99 136 172 209 251 292
#     4  12  23  34  49  72  99 135 176 209 239 289
#     4  10  19  31  50  75  97 126 167 203 242 293
#     4  11  20  33  50  72 103 136 164 201 251 297
#     4  11  22  37  52  71 101 135 168 206 250 296
#
# _framework density 15.891730000000001
#
# number of rings (size 3 to 8) (size 9 to 14) (size 15 to 20)
#    0.000    1.750    2.500    3.000    0.000    3.000 
#    0.000    0.000    0.000    0.000    0.000    0.875 
#    0.000    0.000    0.000    0.000    0.000    0.000 
#
# Total GULP energy -357196.650701 kJ/mol
# GULP energy per Si atom -5581.197667 kJ/mol
# Density = 1.585556 g / cm^3
# Si number density = 15.891730 Si / 1000 Ang^3
#
#
#
# Elastic Constant Matrix: (Units=GPa)
#
#
# Indices 1 2 3 4 5 6 
#
# 1 57.6923 39.2595 24.3899 0.0000 0.0000 0.0000
# 2 39.2595 136.6228 36.3200 0.0000 0.0000 0.0000
# 3 24.3899 36.3200 50.3486 0.0000 0.0000 0.0000
# 4 0.0000 0.0000 0.0000 26.7479 0.0000 0.0000
# 5 0.0000 0.0000 0.0000 0.0000 22.4401 0.0000
# 6 0.0000 0.0000 0.0000 0.0000 0.0000 21.1852
#
#
#
# Elastic Compliance Matrix: (Units=1/GPa)
#
#
# Indices 1 2 3 4 5 6 
#
# 1 0.024023 -0.004713 -0.008237 0.000000 0.000000 0.000000
# 2 -0.004713 0.009981 -0.004917 0.000000 0.000000 0.000000
# 3 -0.008237 -0.004917 0.027398 0.000000 0.000000 0.000000
# 4 0.000000 0.000000 0.000000 0.037386 0.000000 0.000000
# 5 0.000000 0.000000 0.000000 0.000000 0.044563 0.000000
# 6 0.000000 0.000000 0.000000 0.000000 0.000000 0.047203
#
#
# Mechanical properties :
#
#
# Convention : Reuss Voigt Hill
#
# Bulk Modulus (GPa) = 38.95894 49.40026 44.17960
# Shear Modulus (GPa) = 21.29067 23.72096 22.50581
#
# Velocity S-wave (km/s) = 3.66421 3.86769 3.76732
# Velocity P-wave (km/s) = 6.51693 7.14831 6.83991
#
# Compressibility (1/GPa) = 0.02566805
#
# Stress axis : x y z
#
# Youngs Moduli (GPa) = 41.62660 100.19137 36.49841
#
# Poissons Ratio (x) = 0.47224 0.30064
# Poissons Ratio (y) = 0.19620 0.17945
# Poissons Ratio (z) = 0.34288 0.49260
#
# Static dielectric constant tensor:
#      x y z
#    x 1.529020 0.000000 0.000000 
#    y 0.000000 1.525840 0.000000 
#    z 0.000000 0.000000 1.534040 
# 
# From -- ./inp_files/5965.got.cif
#   From: 2010.05.17/outbox.cif.g08.bks.cpg/sg57_3_cif.got.tgz:5965.got - 2010.06.03 13:58:18.
