data_PCOD9435485
_publ_section_title
;
Structure prediction by ZEFSAII (Michael W. Deem and Ramdas Pophale) SiO2 
 PCOD9435485
Probable space group: P B C M
;
_chemical_formula_sum "Si O2"
_cell_formula_units_Z 48
_cell_length_a 15.917541
_cell_length_b 15.708639
_cell_length_c 9.345327
_cell_angle_alpha 90.000000
_cell_angle_beta 90.000000
_cell_angle_gamma 90.000000
_cell_volume 2336.732714
_symmetry_space_group_name_H-M "P B C M"
_symmetry_group_IT_number 57
_symmetry_cell_setting 'orthorhombic'
loop_
_space_group_symop_operation_xyz
x,y,z
-x,-y,1/2+z
x,1/2-y,-z
-x,1/2+y,1/2-z
-x,-y,-z
x,y,1/2-z
-x,1/2+y,z
x,1/2-y,1/2+z
loop_
_atom_site_type_symbol
_atom_site_label
_atom_site_fract_x
_atom_site_fract_y
_atom_site_fract_z
Si Si1 0.015712 0.590236 0.921413
Si Si2 0.832179 0.880320 0.087031
Si Si3 0.339189 0.575233 0.911233
Si Si4 0.326869 0.128571 0.411245
Si Si5 0.495473 0.332589 0.079811
Si Si6 0.821047 0.411141 0.585623
O O1 0.024353 0.578245 0.750000
O O2 0.929054 0.641140 0.946048
O O3 0.101758 0.623022 0.990708
O O4 0.000000 0.500000 0.000000
O O5 0.812700 0.854712 0.250000
O O6 0.826942 0.984588 0.083959
O O7 0.762474 0.847317 0.978548
O O8 0.324721 0.608747 0.750000
O O9 0.327941 0.473945 0.905766
O O10 0.435283 0.595241 0.949811
O O11 0.268980 0.610565 0.017921
O O12 0.337907 0.161635 0.250000
O O13 0.404571 0.152187 0.511556
O O14 0.488256 0.321951 0.250000
O O15 0.530478 0.250000 0.000000
O O16 0.828705 0.384487 0.750000
#
# Coordination Sequence:
#
# PCOD9435485 Si02
#       6
#     8   8   8   8   8   8
#     4   9  15  23  37  60  94 131 164 199 241 287
#     4   8  15  26  40  63  95 130 163 197 239 286
#     4   9  19  34  52  74 100 131 166 205 248 295
#     4  10  19  32  52  76 100 129 165 205 249 296
#     4  11  23  38  54  73  99 130 165 206 251 299
#     4   9  16  25  41  66  96 129 163 200 243 291
#
# _framework density 20.541502000000001
#
# number of rings (size 3 to 8) (size 9 to 14) (size 15 to 20)
#    0.000    2.667    0.000    3.500    0.000    6.667 
#    0.000    0.000    0.000    0.000    0.000    1.167 
#    0.000    5.333    0.000    0.000    0.000    0.000 
#
# Total GULP energy -267716.080545 kJ/mol
# GULP energy per Si atom -5577.418345 kJ/mol
# Density = 2.049475 g / cm^3
# Si number density = 20.541502 Si / 1000 Ang^3
#
#
#
# Elastic Constant Matrix: (Units=GPa)
#
#
# Indices 1 2 3 4 5 6 
#
# 1 147.2835 18.1122 98.6950 0.0000 0.0000 0.0000
# 2 18.1122 15.7113 21.7396 0.0000 0.0000 0.0000
# 3 98.6950 21.7396 141.1729 0.0000 0.0000 0.0000
# 4 0.0000 0.0000 0.0000 10.8576 0.0000 0.0000
# 5 0.0000 0.0000 0.0000 0.0000 57.8219 0.0000
# 6 0.0000 0.0000 0.0000 0.0000 0.0000 -10.6782
#
#
#
# Elastic Compliance Matrix: (Units=1/GPa)
#
#
# Indices 1 2 3 4 5 6 
#
# 1 0.012887 -0.003037 -0.008542 0.000000 0.000000 0.000000
# 2 -0.003037 0.081598 -0.010442 0.000000 0.000000 0.000000
# 3 -0.008542 -0.010442 0.014663 0.000000 0.000000 0.000000
# 4 0.000000 0.000000 0.000000 0.092101 0.000000 0.000000
# 5 0.000000 0.000000 0.000000 0.000000 0.017294 0.000000
# 6 0.000000 0.000000 0.000000 0.000000 0.000000 -0.093649
#
#
# Mechanical properties :
#
#
# Convention : Reuss Voigt Hill
#
# Bulk Modulus (GPa) = 15.35951 64.58459 39.97205
# Shear Modulus (GPa) = 26.22756 22.64167 24.43462
#
# Velocity S-wave (km/s) = 3.57712 3.32360 3.45269
# Velocity P-wave (km/s) = 4.95526 6.79983 5.94947
#
# Compressibility (1/GPa) = 0.06510623
#
# Stress axis : x y z
#
# Youngs Moduli (GPa) = 77.59828 12.25515 68.19866
#
# Poissons Ratio (x) = 0.03722 0.58253
# Poissons Ratio (y) = 0.23568 0.71215
# Poissons Ratio (z) = 0.66281 0.12797
#
# Static dielectric constant tensor:
#      x y z
#    x 1.737010 0.000000 0.000000 
#    y 0.000000 1.680840 0.000000 
#    z 0.000000 0.000000 1.707170 
# 
# From -- ./inp_files/4862.got.cif
#   From: 2010.05.17/outbox.cif.g08.bks.cpg/sg57_3_cif.got.tgz:4862.got - 2010.06.03 13:58:18.
