data_PCOD9435081
_publ_section_title
;
Structure prediction by ZEFSAII (Michael W. Deem and Ramdas Pophale) SiO2 
 PCOD9435081
Probable space group: P B C M
;
_chemical_formula_sum "Si O2"
_cell_formula_units_Z 60
_cell_length_a 35.327509
_cell_length_b 5.319668
_cell_length_c 14.404540
_cell_angle_alpha 90.000000
_cell_angle_beta 90.000000
_cell_angle_gamma 90.000000
_cell_volume 2707.054121
_symmetry_space_group_name_H-M "P B C M"
_symmetry_group_IT_number 57
_symmetry_cell_setting 'orthorhombic'
loop_
_space_group_symop_operation_xyz
x,y,z
-x,-y,1/2+z
x,1/2-y,-z
-x,1/2+y,1/2-z
-x,-y,-z
x,y,1/2-z
-x,1/2+y,z
x,1/2-y,1/2+z
loop_
_atom_site_type_symbol
_atom_site_label
_atom_site_fract_x
_atom_site_fract_y
_atom_site_fract_z
Si Si1 0.092780 0.809448 0.362064
Si Si2 0.259589 0.663171 0.358886
Si Si3 0.347734 0.749698 0.888638
Si Si4 0.778625 0.835292 0.863774
Si Si5 0.863362 0.809840 0.137492
Si Si6 0.390639 0.249781 0.613214
Si Si7 0.522003 0.752160 0.613002
Si Si8 0.025241 0.750000 0.500000
O O1 0.089310 0.806839 0.250000
O O2 0.121211 0.583194 0.389638
O O3 0.053147 0.758759 0.411540
O O4 0.109306 0.080778 0.390627
O O5 0.249917 0.650592 0.250000
O O6 0.303634 0.727957 0.366106
O O7 0.249424 0.387093 0.394927
O O8 0.235024 0.893258 0.397964
O O9 0.367011 0.492615 0.856433
O O10 0.370502 0.994144 0.856216
O O11 0.350398 0.750000 0.000000
O O12 0.778004 0.848421 0.750000
O O13 0.820822 0.756205 0.891328
O O14 0.862986 0.810431 0.250000
O O15 0.390542 0.250000 0.500000
O O16 0.434330 0.261425 0.641859
O O17 0.522025 0.750000 0.500000
O O18 0.501034 0.498133 0.642212
O O19 0.000000 0.500000 0.500000
#
# Coordination Sequence:
#
# PCOD9435081 Si02
#       8
#     8   8   8   8   8   8   8   4
#     4  10  21  38  62  87 115 151 192 233 279 338
#     4  10  19  31  49  73  99 129 168 211 249 291
#     4  10  19  31  46  61  92 130 159 193 232 293
#     4   9  17  30  52  78 102 131 168 210 259 306
#     4   9  17  33  59  86 109 142 183 225 273 328
#     4   9  17  28  42  62  85 122 159 184 238 301
#     4   9  15  23  37  58  85 110 139 188 240 289
#     4  12  26  42  62  88 122 158 192 238 286 332
#
# _framework density 22.164314000000001
#
# number of rings (size 3 to 8) (size 9 to 14) (size 15 to 20)
#    0.000    2.400    0.000    3.200    0.000    6.933 
#    0.000    0.000    8.800    0.000    0.000    0.000 
#    0.000   10.667    0.000    0.000    0.000    0.000 
#
# Total GULP energy -335558.723581 kJ/mol
# GULP energy per Si atom -5592.645393 kJ/mol
# Density = 2.211387 g / cm^3
# Si number density = 22.164314 Si / 1000 Ang^3
#
#
#
# Elastic Constant Matrix: (Units=GPa)
#
#
# Indices 1 2 3 4 5 6 
#
# 1 112.0660 48.3321 -18.0658 0.0000 0.0000 0.0000
# 2 48.3321 164.4543 -0.8823 0.0000 0.0000 0.0000
# 3 -18.0658 -0.8823 80.9215 0.0000 0.0000 0.0000
# 4 0.0000 0.0000 0.0000 -1.0980 0.0000 0.0000
# 5 0.0000 0.0000 0.0000 0.0000 14.0477 0.0000
# 6 0.0000 0.0000 0.0000 0.0000 0.0000 51.9628
#
#
#
# Elastic Compliance Matrix: (Units=1/GPa)
#
#
# Indices 1 2 3 4 5 6 
#
# 1 0.010645 -0.003116 0.002342 0.000000 0.000000 0.000000
# 2 -0.003116 0.006993 -0.000619 0.000000 0.000000 0.000000
# 3 0.002342 -0.000619 0.012874 0.000000 0.000000 0.000000
# 4 0.000000 0.000000 0.000000 -0.910750 0.000000 0.000000
# 5 0.000000 0.000000 0.000000 0.000000 0.071186 0.000000
# 6 0.000000 0.000000 0.000000 0.000000 0.000000 0.019245
#
#
# Mechanical properties :
#
#
# Convention : Reuss Voigt Hill
#
# Bulk Modulus (GPa) = 36.06690 46.24552 41.15621
# Shear Modulus (GPa) = -6.42856 34.85301 14.21223
#
# Velocity S-wave (km/s) = -1.70491 3.96976 2.53498
# Velocity P-wave (km/s) = 3.52594 6.47473 5.21317
#
# Compressibility (1/GPa) = 0.02772625
#
# Stress axis : x y z
#
# Youngs Moduli (GPa) = 93.94296 142.99755 77.67671
#
# Poissons Ratio (x) = 0.44556 -0.18196
# Poissons Ratio (y) = 0.29271 0.04811
# Poissons Ratio (z) = -0.22006 0.08857
#
# Static dielectric constant tensor:
#      x y z
#    x 1.740400 0.000000 0.000000 
#    y 0.000000 1.772090 0.000000 
#    z 0.000000 0.000000 1.838940 
# 
# From -- ./inp_files/23168.got.cif
#   From: 2010.05.17/outbox.cif.g08.bks.cpg/sg57_12_cif.got.tgz:23168.got - 2010.06.03 13:58:18.
