data_PCOD9435861
_publ_section_title
;
Structure prediction by ZEFSAII (Michael W. Deem and Ramdas Pophale) SiO2 
 PCOD9435861
Probable space group: P B C M
;
_chemical_formula_sum "Si O2"
_cell_formula_units_Z 56
_cell_length_a 15.106984
_cell_length_b 20.752097
_cell_length_c 7.678013
_cell_angle_alpha 90.000000
_cell_angle_beta 90.000000
_cell_angle_gamma 90.000000
_cell_volume 2407.069340
_symmetry_space_group_name_H-M "P B C M"
_symmetry_group_IT_number 57
_symmetry_cell_setting 'orthorhombic'
loop_
_space_group_symop_operation_xyz
x,y,z
-x,-y,1/2+z
x,1/2-y,-z
-x,1/2+y,1/2-z
-x,-y,-z
x,y,1/2-z
-x,1/2+y,z
x,1/2-y,1/2+z
loop_
_atom_site_type_symbol
_atom_site_label
_atom_site_fract_x
_atom_site_fract_y
_atom_site_fract_z
Si Si1 0.207409 0.179244 0.055748
Si Si2 0.584252 0.956333 0.457679
Si Si3 0.852962 0.414392 0.463854
Si Si4 0.507182 0.822932 0.459180
Si Si5 0.774254 0.541379 0.047680
Si Si6 0.994962 0.680332 0.541761
Si Si7 0.694557 0.176829 0.958816
O O1 0.242099 0.173476 0.250000
O O2 0.229124 0.112067 0.962002
O O3 0.237121 0.250000 0.000000
O O4 0.100459 0.180038 0.048229
O O5 0.596068 0.955709 0.250000
O O6 0.565122 0.883195 0.521282
O O7 0.673826 0.983556 0.540060
O O8 0.500000 0.000000 0.500000
O O9 0.852207 0.414639 0.250000
O O10 0.839280 0.487368 0.526021
O O11 0.941594 0.377272 0.515730
O O12 0.768204 0.372720 0.522601
O O13 0.536165 0.750000 0.500000
O O14 0.505013 0.827770 0.250000
O O15 0.405994 0.831560 0.525282
O O16 0.800566 0.549431 0.250000
O O17 0.037018 0.750000 0.500000
O O18 0.981105 0.676375 0.750000
O O19 0.690764 0.169996 0.750000
O O20 0.721191 0.250000 0.000000
#
# Coordination Sequence:
#
# PCOD9435861 Si02
#       7
#     8   8   8   8   8   8   8
#     4  10  21  38  60  82 109 145 184 230 279 329
#     4  11  23  39  59  83 112 147 186 229 278 332
#     4   9  18  33  53  77 108 144 179 218 268 322
#     4   9  19  34  53  77 105 138 178 225 274 325
#     4  10  22  40  59  80 107 143 185 227 277 331
#     4  10  19  33  56  83 112 146 182 222 268 322
#     4   9  16  29  49  72 102 138 172 210 258 313
#
# _framework density 23.264806
#
# number of rings (size 3 to 8) (size 9 to 14) (size 15 to 20)
#    0.000    2.286    0.000    3.429    0.000    5.714 
#    0.000    8.571    0.000    0.000    0.000    0.000 
#    0.000    0.000    0.000    0.000    0.000    0.000 
#
# Total GULP energy -312778.555711 kJ/mol
# GULP energy per Si atom -5585.331352 kJ/mol
# Density = 2.321185 g / cm^3
# Si number density = 23.264806 Si / 1000 Ang^3
#
#
#
# Elastic Constant Matrix: (Units=GPa)
#
#
# Indices 1 2 3 4 5 6 
#
# 1 45.6989 15.1753 -9.6017 0.0000 0.0000 0.0000
# 2 15.1753 106.2942 -1.5320 0.0000 0.0000 0.0000
# 3 -9.6017 -1.5320 52.7548 0.0000 0.0000 0.0000
# 4 0.0000 0.0000 0.0000 19.7801 0.0000 0.0000
# 5 0.0000 0.0000 0.0000 0.0000 18.0135 0.0000
# 6 0.0000 0.0000 0.0000 0.0000 0.0000 37.3169
#
#
#
# Elastic Compliance Matrix: (Units=1/GPa)
#
#
# Indices 1 2 3 4 5 6 
#
# 1 0.023888 -0.003349 0.004250 0.000000 0.000000 0.000000
# 2 -0.003349 0.009881 -0.000323 0.000000 0.000000 0.000000
# 3 0.004250 -0.000323 0.019720 0.000000 0.000000 0.000000
# 4 0.000000 0.000000 0.000000 0.050556 0.000000 0.000000
# 5 0.000000 0.000000 0.000000 0.000000 0.055514 0.000000
# 6 0.000000 0.000000 0.000000 0.000000 0.000000 0.026797
#
#
# Mechanical properties :
#
#
# Convention : Reuss Voigt Hill
#
# Bulk Modulus (GPa) = 18.29951 23.64789 20.97370
# Shear Modulus (GPa) = 24.58042 28.40253 26.49147
#
# Velocity S-wave (km/s) = 3.25399 3.49784 3.37811
# Velocity P-wave (km/s) = 4.69049 5.14780 4.92446
#
# Compressibility (1/GPa) = 0.05464626
#
# Stress axis : x y z
#
# Youngs Moduli (GPa) = 41.86280 101.20087 50.71026
#
# Poissons Ratio (x) = 0.33893 -0.21554
# Poissons Ratio (y) = 0.14020 0.01636
# Poissons Ratio (z) = -0.17793 0.03265
#
# Static dielectric constant tensor:
#      x y z
#    x 1.856080 0.000000 0.000000 
#    y 0.000000 1.937830 0.000000 
#    z 0.000000 0.000000 1.855430 
# 
# From -- ./inp_files/5151.got.cif
#   From: 2010.05.17/outbox.cif.g08.bks.cpg/sg57_3_cif.got.tgz:5151.got - 2010.06.03 13:58:18.
