data_PCOD9435438
_publ_section_title
;
Structure prediction by ZEFSAII (Michael W. Deem and Ramdas Pophale) SiO2 
 PCOD9435438
Probable space group: P B C M
;
_chemical_formula_sum "Si O2"
_cell_formula_units_Z 40
_cell_length_a 9.794121
_cell_length_b 25.026750
_cell_length_c 9.013622
_cell_angle_alpha 90.000000
_cell_angle_beta 90.000000
_cell_angle_gamma 90.000000
_cell_volume 2209.374116
_symmetry_space_group_name_H-M "P B C M"
_symmetry_group_IT_number 57
_symmetry_cell_setting 'orthorhombic'
loop_
_space_group_symop_operation_xyz
x,y,z
-x,-y,1/2+z
x,1/2-y,-z
-x,1/2+y,1/2-z
-x,-y,-z
x,y,1/2-z
-x,1/2+y,z
x,1/2-y,1/2+z
loop_
_atom_site_type_symbol
_atom_site_label
_atom_site_fract_x
_atom_site_fract_y
_atom_site_fract_z
Si Si1 0.945746 0.418239 0.423106
Si Si2 0.200370 0.033605 0.077237
Si Si3 0.699272 0.125530 0.422442
Si Si4 0.558126 0.913922 0.426320
Si Si5 0.551516 0.805936 0.576389
O O1 0.972212 0.408177 0.250000
O O2 0.864546 0.474732 0.435454
O O3 0.842172 0.375903 0.494186
O O4 0.085374 0.426809 0.511607
O O5 0.226803 0.044466 0.250000
O O6 0.338449 0.042199 0.986351
O O7 0.717394 0.111513 0.250000
O O8 0.592149 0.084972 0.500804
O O9 0.611427 0.180198 0.430905
O O10 0.547690 0.914510 0.250000
O O11 0.612761 0.856398 0.487298
O O12 0.581421 0.750000 0.500000
O O13 0.589470 0.807157 0.750000
#
# Coordination Sequence:
#
# PCOD9435438 Si02
#       5
#     8   8   8   8   8
#     4  10  20  33  51  73  99 135 172 204 246 297
#     4  10  20  34  50  71 102 136 169 205 247 297
#     4   9  19  33  50  74 101 130 165 206 250 293
#     4  10  19  32  51  75 100 130 168 208 247 292
#     4   9  18  32  52  76 100 128 162 202 252 299
#
# _framework density 18.104675
#
# number of rings (size 3 to 8) (size 9 to 14) (size 15 to 20)
#    1.200    1.200    0.000    3.600    0.000    3.200 
#    0.000    0.000    0.000    1.200    0.000    5.600 
#    0.000    0.000    0.000    0.000    0.000    0.000 
#
# Total GULP energy -222750.401125 kJ/mol
# GULP energy per Si atom -5568.760028 kJ/mol
# Density = 1.806347 g / cm^3
# Si number density = 18.104675 Si / 1000 Ang^3
#
#
#
# Elastic Constant Matrix: (Units=GPa)
#
#
# Indices 1 2 3 4 5 6 
#
# 1 30.4067 -9.7333 -0.1129 0.0000 0.0000 0.0000
# 2 -9.7333 34.5346 15.4336 0.0000 0.0000 0.0000
# 3 -0.1129 15.4336 106.7312 0.0000 0.0000 0.0000
# 4 0.0000 0.0000 0.0000 23.4088 0.0000 0.0000
# 5 0.0000 0.0000 0.0000 0.0000 24.4385 0.0000
# 6 0.0000 0.0000 0.0000 0.0000 0.0000 14.8216
#
#
#
# Elastic Compliance Matrix: (Units=1/GPa)
#
#
# Indices 1 2 3 4 5 6 
#
# 1 0.036385 0.010945 -0.001544 0.000000 0.000000 0.000000
# 2 0.010945 0.034249 -0.004941 0.000000 0.000000 0.000000
# 3 -0.001544 -0.004941 0.010082 0.000000 0.000000 0.000000
# 4 0.000000 0.000000 0.000000 0.042719 0.000000 0.000000
# 5 0.000000 0.000000 0.000000 0.000000 0.040919 0.000000
# 6 0.000000 0.000000 0.000000 0.000000 0.000000 0.067469
#
#
# Mechanical properties :
#
#
# Convention : Reuss Voigt Hill
#
# Bulk Modulus (GPa) = 11.15614 20.31635 15.73625
# Shear Modulus (GPa) = 19.77978 23.60610 21.69294
#
# Velocity S-wave (km/s) = 3.30892 3.61483 3.46525
# Velocity P-wave (km/s) = 4.55785 5.35431 4.97205
#
# Compressibility (1/GPa) = 0.08963673
#
# Stress axis : x y z
#
# Youngs Moduli (GPa) = 27.48358 29.19762 99.18493
#
# Poissons Ratio (x) = -0.31957 0.15316
# Poissons Ratio (y) = -0.30081 0.49007
# Poissons Ratio (z) = 0.04244 0.14426
#
# Static dielectric constant tensor:
#      x y z
#    x 1.626530 0.000000 0.000000 
#    y 0.000000 1.647900 0.000000 
#    z 0.000000 0.000000 1.601980 
# 
# From -- ./inp_files/1824.got.cif
#   From: 2010.05.17/outbox.cif.g08.bks.cpg/sg57_1_cif.got.tgz:1824.got - 2010.06.03 13:58:18.
