data_PCOD9435800
_publ_section_title
;
Structure prediction by ZEFSAII (Michael W. Deem and Ramdas Pophale) SiO2 
 PCOD9435800
Probable space group: P B C M
;
_chemical_formula_sum "Si O2"
_cell_formula_units_Z 48
_cell_length_a 15.160789
_cell_length_b 19.349532
_cell_length_c 8.770573
_cell_angle_alpha 90.000000
_cell_angle_beta 90.000000
_cell_angle_gamma 90.000000
_cell_volume 2572.884180
_symmetry_space_group_name_H-M "P B C M"
_symmetry_group_IT_number 57
_symmetry_cell_setting 'orthorhombic'
loop_
_space_group_symop_operation_xyz
x,y,z
-x,-y,1/2+z
x,1/2-y,-z
-x,1/2+y,1/2-z
-x,-y,-z
x,y,1/2-z
-x,1/2+y,z
x,1/2-y,1/2+z
loop_
_atom_site_type_symbol
_atom_site_label
_atom_site_fract_x
_atom_site_fract_y
_atom_site_fract_z
Si Si1 0.438508 0.398720 0.430337
Si Si2 0.376692 0.543874 0.932840
Si Si3 0.863954 0.921487 0.067178
Si Si4 0.176030 0.931648 0.433745
Si Si5 0.029955 0.826196 0.066524
Si Si6 0.716532 0.823589 0.930576
O O1 0.425795 0.388543 0.250000
O O2 0.542809 0.403756 0.463274
O O3 0.399500 0.473309 0.479569
O O4 0.382945 0.342322 0.520994
O O5 0.377967 0.529194 0.750000
O O6 0.279562 0.570075 0.974020
O O7 0.858561 0.923268 0.250000
O O8 0.949000 0.876228 0.022411
O O9 0.779032 0.882475 0.000158
O O10 0.865196 0.998914 0.003622
O O11 0.170192 0.937023 0.250000
O O12 0.119738 0.865079 0.481008
O O13 0.029073 0.821032 0.250000
O O14 0.020898 0.750000 0.000000
O O15 0.725500 0.822630 0.750000
O O16 0.742409 0.750000 0.000000
#
# Coordination Sequence:
#
# PCOD9435800 Si02
#       6
#     8   8   8   8   8   8
#     4  10  19  33  54  82 114 147 188 232 277 337
#     4   9  18  33  56  83 113 148 185 228 281 330
#     4  11  22  37  58  87 115 147 191 239 288 345
#     4  10  20  37  60  87 116 150 190 236 284 338
#     4  10  23  40  58  82 115 152 192 234 286 344
#     4  12  24  38  56  81 115 154 193 239 296 351
#
# _framework density 18.656106000000001
#
# number of rings (size 3 to 8) (size 9 to 14) (size 15 to 20)
#    0.000    1.667    1.667    3.500    0.000    4.000 
#    0.000    0.833    0.000    2.000    0.000    0.000 
#    0.000    0.000    0.000    0.000    0.000    0.000 
#
# Total GULP energy -268136.743504 kJ/mol
# GULP energy per Si atom -5586.182156 kJ/mol
# Density = 1.861364 g / cm^3
# Si number density = 18.656106 Si / 1000 Ang^3
#
#
#
# Elastic Constant Matrix: (Units=GPa)
#
#
# Indices 1 2 3 4 5 6 
#
# 1 122.8777 31.3337 27.5453 0.0000 0.0000 0.0000
# 2 31.3337 43.6166 4.5115 0.0000 0.0000 0.0000
# 3 27.5453 4.5115 24.4235 0.0000 0.0000 0.0000
# 4 0.0000 0.0000 0.0000 30.3092 0.0000 0.0000
# 5 0.0000 0.0000 0.0000 0.0000 18.5911 0.0000
# 6 0.0000 0.0000 0.0000 0.0000 0.0000 14.3060
#
#
#
# Elastic Compliance Matrix: (Units=1/GPa)
#
#
# Indices 1 2 3 4 5 6 
#
# 1 0.013208 -0.008103 -0.013400 0.000000 0.000000 0.000000
# 2 -0.008103 0.028344 0.003902 0.000000 0.000000 0.000000
# 3 -0.013400 0.003902 0.055336 0.000000 0.000000 0.000000
# 4 0.000000 0.000000 0.000000 0.032993 0.000000 0.000000
# 5 0.000000 0.000000 0.000000 0.000000 0.053789 0.000000
# 6 0.000000 0.000000 0.000000 0.000000 0.000000 0.069901
#
#
# Mechanical properties :
#
#
# Convention : Reuss Voigt Hill
#
# Bulk Modulus (GPa) = 16.21048 35.29985 25.75517
# Shear Modulus (GPa) = 16.16380 21.14309 18.65344
#
# Velocity S-wave (km/s) = 2.94667 3.37011 3.16548
# Velocity P-wave (km/s) = 4.50390 5.84003 5.21494
#
# Compressibility (1/GPa) = 0.06168850
#
# Stress axis : x y z
#
# Youngs Moduli (GPa) = 75.71119 35.28059 18.07156
#
# Poissons Ratio (x) = 0.28586 0.24215
# Poissons Ratio (y) = 0.61345 -0.07052
# Poissons Ratio (z) = 1.01450 -0.13768
#
# Static dielectric constant tensor:
#      x y z
#    x 1.676390 0.000000 0.000000 
#    y 0.000000 1.619920 0.000000 
#    z 0.000000 0.000000 1.624060 
# 
# From -- ./inp_files/4578.got.cif
#   From: 2010.05.17/outbox.cif.g08.bks.cpg/sg57_3_cif.got.tgz:4578.got - 2010.06.03 13:58:18.
