data_PCOD9435204
_publ_section_title
;
Structure prediction by ZEFSAII (Michael W. Deem and Ramdas Pophale) SiO2 
 PCOD9435204
Probable space group: P B C M
;
_chemical_formula_sum "Si O2"
_cell_formula_units_Z 64
_cell_length_a 21.411665
_cell_length_b 9.227515
_cell_length_c 14.315249
_cell_angle_alpha 90.000000
_cell_angle_beta 90.000000
_cell_angle_gamma 90.000000
_cell_volume 2828.356221
_symmetry_space_group_name_H-M "P B C M"
_symmetry_group_IT_number 57
_symmetry_cell_setting 'orthorhombic'
loop_
_space_group_symop_operation_xyz
x,y,z
-x,-y,1/2+z
x,1/2-y,-z
-x,1/2+y,1/2-z
-x,-y,-z
x,y,1/2-z
-x,1/2+y,z
x,1/2-y,1/2+z
loop_
_atom_site_type_symbol
_atom_site_label
_atom_site_fract_x
_atom_site_fract_y
_atom_site_fract_z
Si Si1 0.195303 0.158780 0.904437
Si Si2 0.801905 0.170478 0.137272
Si Si3 0.562250 0.885754 0.135574
Si Si4 0.059245 0.839864 0.855830
Si Si5 0.310586 0.876239 0.364258
Si Si6 0.321905 0.301509 0.856399
Si Si7 0.943268 0.656502 0.906104
Si Si8 0.437748 0.783786 0.636145
O O1 0.203808 0.985759 0.911256
O O2 0.255990 0.220376 0.853850
O O3 0.125755 0.177547 0.861583
O O4 0.194844 0.250000 0.000000
O O5 0.794668 0.146191 0.250000
O O6 0.872752 0.224647 0.121527
O O7 0.749842 0.284463 0.107543
O O8 0.563185 0.891315 0.250000
O O9 0.623816 0.799821 0.103977
O O10 0.499582 0.802303 0.107878
O O11 0.561750 0.051039 0.102959
O O12 0.062576 0.897852 0.750000
O O13 0.004184 0.724104 0.858775
O O14 0.048981 0.983581 0.917364
O O15 0.307777 0.879795 0.250000
O O16 0.374263 0.796319 0.390956
O O17 0.312311 0.040627 0.400410
O O18 0.342688 0.330389 0.750000
O O19 0.940375 0.750000 0.000000
O O20 0.438245 0.786369 0.750000
#
# Coordination Sequence:
#
# PCOD9435204 Si02
#       8
#     8   8   8   8   8   8   8   8
#     4  10  21  36  53  74 100 134 174 212 253 304
#     4   9  18  34  53  74 102 134 166 205 256 308
#     4   9  16  25  41  68 101 135 169 208 256 304
#     4  10  20  34  54  79 105 134 172 217 263 314
#     4   9  17  29  47  73 103 132 165 208 257 306
#     4  10  19  31  49  74 101 130 168 214 260 305
#     4  10  21  37  55  76 105 139 174 214 263 318
#     4   9  15  24  40  66 101 134 164 204 253 305
#
# _framework density 22.627984000000001
#
# number of rings (size 3 to 8) (size 9 to 14) (size 15 to 20)
#    0.000    2.500    0.000    2.625    0.000    7.500 
#    0.000    1.875    0.000    0.000    0.000    7.875 
#    0.000    0.000    0.000    0.000    0.000    0.000 
#
# Total GULP energy -357486.110543 kJ/mol
# GULP energy per Si atom -5585.720477 kJ/mol
# Density = 2.257648 g / cm^3
# Si number density = 22.627984 Si / 1000 Ang^3
#
#
#
# Elastic Constant Matrix: (Units=GPa)
#
#
# Indices 1 2 3 4 5 6 
#
# 1 226.5044 124.4276 1.2222 0.0000 0.0000 0.0000
# 2 124.4276 148.7811 -16.3656 0.0000 0.0000 0.0000
# 3 1.2222 -16.3656 41.5023 0.0000 0.0000 0.0000
# 4 0.0000 0.0000 0.0000 15.0697 0.0000 0.0000
# 5 0.0000 0.0000 0.0000 0.0000 72.4155 0.0000
# 6 0.0000 0.0000 0.0000 0.0000 0.0000 38.1009
#
#
#
# Elastic Compliance Matrix: (Units=1/GPa)
#
#
# Indices 1 2 3 4 5 6 
#
# 1 0.008558 -0.007511 -0.003214 0.000000 0.000000 0.000000
# 2 -0.007511 0.013618 0.005591 0.000000 0.000000 0.000000
# 3 -0.003214 0.005591 0.026394 0.000000 0.000000 0.000000
# 4 0.000000 0.000000 0.000000 0.066359 0.000000 0.000000
# 5 0.000000 0.000000 0.000000 0.000000 0.013809 0.000000
# 6 0.000000 0.000000 0.000000 0.000000 0.000000 0.026246
#
#
# Mechanical properties :
#
#
# Convention : Reuss Voigt Hill
#
# Bulk Modulus (GPa) = 26.10749 70.59513 48.35131
# Shear Modulus (GPa) = 28.08681 45.61745 36.85213
#
# Velocity S-wave (km/s) = 3.52695 4.49483 4.03998
# Velocity P-wave (km/s) = 5.30552 7.62915 6.57086
#
# Compressibility (1/GPa) = 0.03830319
#
# Stress axis : x y z
#
# Youngs Moduli (GPa) = 116.84525 73.43324 37.88679
#
# Poissons Ratio (x) = 0.55155 0.12176
# Poissons Ratio (y) = 0.87762 -0.21183
# Poissons Ratio (z) = 0.37552 -0.41057
#
# Static dielectric constant tensor:
#      x y z
#    x 1.813890 0.000000 0.000000 
#    y 0.000000 1.775980 0.000000 
#    z 0.000000 0.000000 1.931440 
# 
# From -- ./inp_files/23003.got.cif
#   From: 2010.05.17/outbox.cif.g08.bks.cpg/sg57_12_cif.got.tgz:23003.got - 2010.06.03 13:58:18.
