data_PCOD9435359
_publ_section_title
;
Structure prediction by ZEFSAII (Michael W. Deem and Ramdas Pophale) SiO2 
 PCOD9435359
Probable space group: P B C M
;
_chemical_formula_sum "Si O2"
_cell_formula_units_Z 64
_cell_length_a 20.378667
_cell_length_b 21.309884
_cell_length_c 8.307200
_cell_angle_alpha 90.000000
_cell_angle_beta 90.000000
_cell_angle_gamma 90.000000
_cell_volume 3607.543070
_symmetry_space_group_name_H-M "P B C M"
_symmetry_group_IT_number 57
_symmetry_cell_setting 'orthorhombic'
loop_
_space_group_symop_operation_xyz
x,y,z
-x,-y,1/2+z
x,1/2-y,-z
-x,1/2+y,1/2-z
-x,-y,-z
x,y,1/2-z
-x,1/2+y,z
x,1/2-y,1/2+z
loop_
_atom_site_type_symbol
_atom_site_label
_atom_site_fract_x
_atom_site_fract_y
_atom_site_fract_z
Si Si1 0.177226 0.986493 0.945887
Si Si2 0.822959 0.867500 0.442059
Si Si3 0.540022 0.061061 0.055249
Si Si4 0.040668 0.182158 0.441361
Si Si5 0.541235 0.681912 0.444273
Si Si6 0.960720 0.438520 0.945128
Si Si7 0.322094 0.987779 0.555093
Si Si8 0.319912 0.368263 0.557387
O O1 0.176689 0.986301 0.750000
O O2 0.114550 0.946990 0.999976
O O3 0.249815 0.965313 0.997578
O O4 0.169711 0.059507 0.995786
O O5 0.826371 0.866481 0.250000
O O6 0.883916 0.829264 0.509526
O O7 0.750513 0.845939 0.493404
O O8 0.539427 0.061820 0.250000
O O9 0.504254 0.124364 0.999137
O O10 0.615263 0.052086 0.001216
O O11 0.500000 0.000000 0.000000
O O12 0.018341 0.250000 0.500000
O O13 0.037012 0.181038 0.250000
O O14 0.997155 0.124024 0.504424
O O15 0.518807 0.750000 0.500000
O O16 0.541596 0.680473 0.250000
O O17 0.616114 0.669310 0.499972
O O18 0.961044 0.437555 0.750000
O O19 0.000000 0.500000 0.000000
O O20 0.322314 0.989134 0.750000
O O21 0.329081 0.059489 0.496916
O O22 0.318079 0.366410 0.750000
#
# Coordination Sequence:
#
# PCOD9435359 Si02
#       8
#     8   8   8   8   8   8   8   8
#     4   8  15  29  50  77 103 128 161 206 255 305
#     4  10  19  33  53  75 104 139 174 212 256 309
#     4  10  19  33  53  78 103 132 172 216 262 311
#     4  11  23  36  52  75 104 141 178 215 262 312
#     4  10  22  36  50  72 103 139 175 214 258 305
#     4  10  19  33  54  78 103 132 171 214 261 308
#     4   9  17  30  52  78 103 132 168 208 261 315
#     4  10  19  32  49  73 107 138 172 214 253 304
#
# _framework density 17.740607000000001
#
# number of rings (size 3 to 8) (size 9 to 14) (size 15 to 20)
#    0.000    2.250    2.500    1.875    0.000    2.500 
#    0.000    1.250    0.000    0.750    0.000    0.000 
#    0.000    0.000    0.000    0.000    0.000    0.000 
#
# Total GULP energy -357021.823906 kJ/mol
# GULP energy per Si atom -5578.465999 kJ/mol
# Density = 1.770023 g / cm^3
# Si number density = 17.740607 Si / 1000 Ang^3
#
#
#
# Elastic Constant Matrix: (Units=GPa)
#
#
# Indices 1 2 3 4 5 6 
#
# 1 128.2060 72.9926 11.8322 0.0000 0.0000 0.0000
# 2 72.9926 120.1649 11.3702 0.0000 0.0000 0.0000
# 3 11.8322 11.3702 14.3858 0.0000 0.0000 0.0000
# 4 0.0000 0.0000 0.0000 21.5425 0.0000 0.0000
# 5 0.0000 0.0000 0.0000 0.0000 15.2915 0.0000
# 6 0.0000 0.0000 0.0000 0.0000 0.0000 17.0157
#
#
#
# Elastic Compliance Matrix: (Units=1/GPa)
#
#
# Indices 1 2 3 4 5 6 
#
# 1 0.012188 -0.006977 -0.004511 0.000000 0.000000 0.000000
# 2 -0.006977 0.012988 -0.004527 0.000000 0.000000 0.000000
# 3 -0.004511 -0.004527 0.076801 0.000000 0.000000 0.000000
# 4 0.000000 0.000000 0.000000 0.046420 0.000000 0.000000
# 5 0.000000 0.000000 0.000000 0.000000 0.065396 0.000000
# 6 0.000000 0.000000 0.000000 0.000000 0.000000 0.058769
#
#
# Mechanical properties :
#
#
# Convention : Reuss Voigt Hill
#
# Bulk Modulus (GPa) = 14.29625 50.57187 32.43406
# Shear Modulus (GPa) = 15.24818 21.87405 18.56112
#
# Velocity S-wave (km/s) = 2.93492 3.51521 3.23809
# Velocity P-wave (km/s) = 4.42278 6.71147 5.68352
#
# Compressibility (1/GPa) = 0.06994841
#
# Stress axis : x y z
#
# Youngs Moduli (GPa) = 82.04476 76.99236 13.02069
#
# Poissons Ratio (x) = 0.53717 0.05873
# Poissons Ratio (y) = 0.57242 0.05895
# Poissons Ratio (z) = 0.37007 0.34855
#
# Static dielectric constant tensor:
#      x y z
#    x 1.635270 0.000000 0.000000 
#    y 0.000000 1.589710 0.000000 
#    z 0.000000 0.000000 1.611030 
# 
# From -- ./inp_files/8698.got.cif
#   From: 2010.05.17/outbox.cif.g08.bks.cpg/sg57_5_cif.got.tgz:8698.got - 2010.06.03 13:58:18.
