data_PCOD9435548
_publ_section_title
;
Structure prediction by ZEFSAII (Michael W. Deem and Ramdas Pophale) SiO2 
 PCOD9435548
Probable space group: P B C M
;
_chemical_formula_sum "Si O2"
_cell_formula_units_Z 64
_cell_length_a 21.949902
_cell_length_b 9.222972
_cell_length_c 16.826484
_cell_angle_alpha 90.000000
_cell_angle_beta 90.000000
_cell_angle_gamma 90.000000
_cell_volume 3406.409479
_symmetry_space_group_name_H-M "P B C M"
_symmetry_group_IT_number 57
_symmetry_cell_setting 'orthorhombic'
loop_
_space_group_symop_operation_xyz
x,y,z
-x,-y,1/2+z
x,1/2-y,-z
-x,1/2+y,1/2-z
-x,-y,-z
x,y,1/2-z
-x,1/2+y,z
x,1/2-y,1/2+z
loop_
_atom_site_type_symbol
_atom_site_label
_atom_site_fract_x
_atom_site_fract_y
_atom_site_fract_z
Si Si1 0.960425 0.786245 0.344040
Si Si2 0.551061 0.491916 0.616236
Si Si3 0.571359 0.822196 0.841878
Si Si4 0.627756 0.489710 0.460608
Si Si5 0.648475 0.263197 0.837690
Si Si6 0.143947 0.406028 0.459474
Si Si7 0.952144 0.482369 0.427812
Si Si8 0.745736 0.111693 0.054391
O O1 0.956595 0.806831 0.250000
O O2 0.906051 0.869134 0.391375
O O3 0.955844 0.619268 0.369300
O O4 0.024437 0.844645 0.379396
O O5 0.486401 0.421255 0.635090
O O6 0.553235 0.656458 0.644829
O O7 0.573414 0.487417 0.524715
O O8 0.601530 0.395711 0.660606
O O9 0.587797 0.845502 0.750000
O O10 0.622782 0.870342 0.904591
O O11 0.624792 0.351882 0.402111
O O12 0.690795 0.470075 0.507739
O O13 0.651474 0.199298 0.750000
O O14 0.713343 0.321866 0.867970
O O15 0.159021 0.250000 0.500000
O O16 0.111971 0.504923 0.527595
O O17 0.201081 0.497780 0.429908
O O18 0.000000 0.500000 0.500000
O O19 0.764382 0.250000 0.000000
#
# Coordination Sequence:
#
# PCOD9435548 Si02
#       8
#     8   8   8   8   8   8   8   8
#     4  10  19  32  53  82 114 142 179 227 272 311
#     4  11  23  38  54  80 109 140 176 213 264 328
#     4  12  23  36  56  82 111 140 173 220 272 321
#     4  10  22  39  58  78 104 141 181 220 263 318
#     4  10  20  38  59  80 107 136 172 223 275 318
#     4   9  19  34  53  76 107 147 184 218 262 320
#     4   9  18  33  52  77 108 146 182 215 261 319
#     4   9  20  36  56  79 103 138 183 224 262 313
#
# _framework density 18.788111000000001
#
# number of rings (size 3 to 8) (size 9 to 14) (size 15 to 20)
#    0.000    2.000    0.000    5.625    0.000    5.500 
#    0.000    0.000    0.000   21.750    0.000    0.000 
#    0.000    0.000    0.000    0.000    0.000    0.000 
#
# Total GULP energy -357151.280720 kJ/mol
# GULP energy per Si atom -5580.488761 kJ/mol
# Density = 1.874535 g / cm^3
# Si number density = 18.788111 Si / 1000 Ang^3
#
#
#
# Elastic Constant Matrix: (Units=GPa)
#
#
# Indices 1 2 3 4 5 6 
#
# 1 31.9708 7.4764 0.1914 0.0000 0.0000 0.0000
# 2 7.4764 33.3221 -3.1914 0.0000 0.0000 0.0000
# 3 0.1914 -3.1914 111.7896 0.0000 0.0000 0.0000
# 4 0.0000 0.0000 0.0000 22.3525 0.0000 0.0000
# 5 0.0000 0.0000 0.0000 0.0000 6.6680 0.0000
# 6 0.0000 0.0000 0.0000 0.0000 0.0000 27.3428
#
#
#
# Elastic Compliance Matrix: (Units=1/GPa)
#
#
# Indices 1 2 3 4 5 6 
#
# 1 0.033019 -0.007434 -0.000269 0.000000 0.000000 0.000000
# 2 -0.007434 0.031766 0.000920 0.000000 0.000000 0.000000
# 3 -0.000269 0.000920 0.008972 0.000000 0.000000 0.000000
# 4 0.000000 0.000000 0.000000 0.044738 0.000000 0.000000
# 5 0.000000 0.000000 0.000000 0.000000 0.149971 0.000000
# 6 0.000000 0.000000 0.000000 0.000000 0.000000 0.036573
#
#
# Mechanical properties :
#
#
# Convention : Reuss Voigt Hill
#
# Bulk Modulus (GPa) = 16.61392 20.67058 18.64225
# Shear Modulus (GPa) = 14.76373 22.77973 18.77173
#
# Velocity S-wave (km/s) = 2.80626 3.48581 3.16433
# Velocity P-wave (km/s) = 4.40024 5.21795 4.82644
#
# Compressibility (1/GPa) = 0.06019049
#
# Stress axis : x y z
#
# Youngs Moduli (GPa) = 30.28593 31.48005 111.45676
#
# Poissons Ratio (x) = 0.23402 0.02996
# Poissons Ratio (y) = 0.22515 -0.10249
# Poissons Ratio (z) = 0.00814 -0.02895
#
# Static dielectric constant tensor:
#      x y z
#    x 1.646900 0.000000 0.000000 
#    y 0.000000 1.685490 0.000000 
#    z 0.000000 0.000000 1.662500 
# 
# From -- ./inp_files/23036.got.cif
#   From: 2010.05.17/outbox.cif.g08.bks.cpg/sg57_12_cif.got.tgz:23036.got - 2010.06.03 13:58:18.
