data_PCOD9435890
_publ_section_title
;
Structure prediction by ZEFSAII (Michael W. Deem and Ramdas Pophale) SiO2 
 PCOD9435890
Probable space group: P B C M
;
_chemical_formula_sum "Si O2"
_cell_formula_units_Z 32
_cell_length_a 10.227251
_cell_length_b 20.245759
_cell_length_c 8.766886
_cell_angle_alpha 90.000000
_cell_angle_beta 90.000000
_cell_angle_gamma 90.000000
_cell_volume 1815.257905
_symmetry_space_group_name_H-M "P B C M"
_symmetry_group_IT_number 57
_symmetry_cell_setting 'orthorhombic'
loop_
_space_group_symop_operation_xyz
x,y,z
-x,-y,1/2+z
x,1/2-y,-z
-x,1/2+y,1/2-z
-x,-y,-z
x,y,1/2-z
-x,1/2+y,z
x,1/2-y,1/2+z
loop_
_atom_site_type_symbol
_atom_site_label
_atom_site_fract_x
_atom_site_fract_y
_atom_site_fract_z
Si Si1 0.316731 0.556378 0.930968
Si Si2 0.041506 0.570916 0.431426
Si Si3 0.392113 0.415958 0.432246
Si Si4 0.157546 0.322633 0.432279
O O1 0.293056 0.560108 0.750000
O O2 0.454447 0.591928 0.966894
O O3 0.191313 0.582516 0.019731
O O4 0.339942 0.480192 0.979294
O O5 0.029181 0.568285 0.250000
O O6 0.000000 0.500000 0.500000
O O7 0.948552 0.627266 0.498869
O O8 0.381832 0.429784 0.250000
O O9 0.299619 0.354392 0.467093
O O10 0.144651 0.250000 0.500000
O O11 0.142510 0.320712 0.250000
#
# Coordination Sequence:
#
# PCOD9435890 Si02
#       4
#     8   8   8   8
#     4  10  19  33  57  87 116 148 190 242 290 340
#     4  12  23  37  58  87 118 155 198 246 296 351
#     4   9  19  35  56  83 115 150 191 237 287 346
#     4  11  23  40  60  85 118 156 196 242 294 357
#
# _framework density 17.628350000000001
#
# number of rings (size 3 to 8) (size 9 to 14) (size 15 to 20)
#    0.000    1.500    2.500    3.750    0.000    2.000 
#    0.000    1.250    0.000    3.000    0.000    0.000 
#    0.000    0.000    0.000    0.000    0.000    0.000 
#
# Total GULP energy -178758.662111 kJ/mol
# GULP energy per Si atom -5586.208191 kJ/mol
# Density = 1.758823 g / cm^3
# Si number density = 17.628350 Si / 1000 Ang^3
#
#
#
# Elastic Constant Matrix: (Units=GPa)
#
#
# Indices 1 2 3 4 5 6 
#
# 1 145.9330 86.2695 71.4045 0.0000 0.0000 0.0000
# 2 86.2695 135.0717 65.2385 0.0000 0.0000 0.0000
# 3 71.4045 65.2385 98.3248 0.0000 0.0000 0.0000
# 4 0.0000 0.0000 0.0000 27.8989 0.0000 0.0000
# 5 0.0000 0.0000 0.0000 0.0000 29.5488 0.0000
# 6 0.0000 0.0000 0.0000 0.0000 0.0000 24.5189
#
#
#
# Elastic Compliance Matrix: (Units=1/GPa)
#
#
# Indices 1 2 3 4 5 6 
#
# 1 0.012887 -0.005461 -0.005735 0.000000 0.000000 0.000000
# 2 -0.005461 0.013209 -0.004798 0.000000 0.000000 0.000000
# 3 -0.005735 -0.004798 0.017519 0.000000 0.000000 0.000000
# 4 0.000000 0.000000 0.000000 0.035844 0.000000 0.000000
# 5 0.000000 0.000000 0.000000 0.000000 0.033842 0.000000
# 6 0.000000 0.000000 0.000000 0.000000 0.000000 0.040785
#
#
# Mechanical properties :
#
#
# Convention : Reuss Voigt Hill
#
# Bulk Modulus (GPa) = 86.01510 91.68386 88.84948
# Shear Modulus (GPa) = 26.32269 26.82112 26.57191
#
# Velocity S-wave (km/s) = 3.86839 3.90484 3.88666
# Velocity P-wave (km/s) = 8.29772 8.51191 8.40550
#
# Compressibility (1/GPa) = 0.01162587
#
# Stress axis : x y z
#
# Youngs Moduli (GPa) = 77.59821 75.70749 57.07982
#
# Poissons Ratio (x) = 0.41341 0.32738
# Poissons Ratio (y) = 0.42373 0.27390
# Poissons Ratio (z) = 0.44506 0.36328
#
# Static dielectric constant tensor:
#      x y z
#    x 1.624020 0.000000 0.000000 
#    y 0.000000 1.555420 0.000000 
#    z 0.000000 0.000000 1.588960 
# 
# From -- ./inp_files/1225.got.cif
#   From: 2010.05.17/outbox.cif.g08.bks.cpg/sg57_1_cif.got.tgz:1225.got - 2010.06.03 13:58:18.
