data_PCOD9435559
_publ_section_title
;
Structure prediction by ZEFSAII (Michael W. Deem and Ramdas Pophale) SiO2 
 PCOD9435559
Probable space group: P B C M
;
_chemical_formula_sum "Si O2"
_cell_formula_units_Z 48
_cell_length_a 15.936846
_cell_length_b 18.217824
_cell_length_c 8.806036
_cell_angle_alpha 90.000000
_cell_angle_beta 90.000000
_cell_angle_gamma 90.000000
_cell_volume 2556.697429
_symmetry_space_group_name_H-M "P B C M"
_symmetry_group_IT_number 57
_symmetry_cell_setting 'orthorhombic'
loop_
_space_group_symop_operation_xyz
x,y,z
-x,-y,1/2+z
x,1/2-y,-z
-x,1/2+y,1/2-z
-x,-y,-z
x,y,1/2-z
-x,1/2+y,z
x,1/2-y,1/2+z
loop_
_atom_site_type_symbol
_atom_site_label
_atom_site_fract_x
_atom_site_fract_y
_atom_site_fract_z
Si Si1 0.805389 0.831584 0.431230
Si Si2 0.024200 0.332231 0.568269
Si Si3 0.322541 0.591437 0.931754
Si Si4 0.354777 0.432634 0.067381
Si Si5 0.838368 0.167923 0.068148
Si Si6 0.492161 0.829248 0.067170
O O1 0.794468 0.750000 0.500000
O O2 0.813106 0.824860 0.250000
O O3 0.725343 0.881432 0.466636
O O4 0.891642 0.865484 0.497266
O O5 0.022549 0.250000 0.500000
O O6 0.032729 0.329052 0.750000
O O7 0.931769 0.362763 0.531419
O O8 0.316054 0.593551 0.750000
O O9 0.399466 0.644349 0.978646
O O10 0.344989 0.510071 0.986288
O O11 0.236143 0.619003 0.003810
O O12 0.357388 0.443803 0.250000
O O13 0.438671 0.389259 0.020980
O O14 0.832162 0.173103 0.250000
O O15 0.831489 0.250000 0.000000
O O16 0.494740 0.824660 0.250000
O O17 0.511963 0.750000 0.000000
#
# Coordination Sequence:
#
# PCOD9435559 Si02
#       6
#     8   8   8   8   8   8
#     4  10  19  32  54  81 108 141 180 223 270 318
#     4   9  17  30  51  78 107 140 178 222 270 316
#     4  11  23  37  56  82 110 144 183 222 269 321
#     4  10  22  39  56  78 111 146 179 219 268 321
#     4  10  20  35  56  81 110 144 182 225 271 319
#     4  10  22  39  59  84 110 139 178 221 267 319
#
# _framework density 18.774218999999999
#
# number of rings (size 3 to 8) (size 9 to 14) (size 15 to 20)
#    0.000    2.000    0.000    4.500    0.000    6.667 
#    0.000    0.833    0.000    0.000    0.000    0.000 
#    0.000    0.000    0.000    0.000    0.000    0.000 
#
# Total GULP energy -267990.486474 kJ/mol
# GULP energy per Si atom -5583.135135 kJ/mol
# Density = 1.873149 g / cm^3
# Si number density = 18.774219 Si / 1000 Ang^3
#
#
#
# Elastic Constant Matrix: (Units=GPa)
#
#
# Indices 1 2 3 4 5 6 
#
# 1 76.3901 -14.8768 22.9790 0.0000 0.0000 0.0000
# 2 -14.8768 30.9563 7.7255 0.0000 0.0000 0.0000
# 3 22.9790 7.7255 38.5132 0.0000 0.0000 0.0000
# 4 0.0000 0.0000 0.0000 30.6359 0.0000 0.0000
# 5 0.0000 0.0000 0.0000 0.0000 34.7567 0.0000
# 6 0.0000 0.0000 0.0000 0.0000 0.0000 -8.4093
#
#
#
# Elastic Compliance Matrix: (Units=1/GPa)
#
#
# Indices 1 2 3 4 5 6 
#
# 1 0.020094 0.013315 -0.014660 0.000000 0.000000 0.000000
# 2 0.013315 0.042829 -0.016536 0.000000 0.000000 0.000000
# 3 -0.014660 -0.016536 0.038029 0.000000 0.000000 0.000000
# 4 0.000000 0.000000 0.000000 0.032641 0.000000 0.000000
# 5 0.000000 0.000000 0.000000 0.000000 0.028771 0.000000
# 6 0.000000 0.000000 0.000000 0.000000 0.000000 -0.118915
#
#
# Mechanical properties :
#
#
# Convention : Reuss Voigt Hill
#
# Bulk Modulus (GPa) = 15.33963 19.72389 17.53176
# Shear Modulus (GPa) = 49.53422 20.06544 34.79983
#
# Velocity S-wave (km/s) = 5.14213 3.27276 4.31001
# Velocity P-wave (km/s) = 6.59117 4.98096 5.84181
#
# Compressibility (1/GPa) = 0.06519062
#
# Stress axis : x y z
#
# Youngs Moduli (GPa) = 49.76711 23.34858 26.29577
#
# Poissons Ratio (x) = -0.31089 0.38549
# Poissons Ratio (y) = -0.66265 0.43482
# Poissons Ratio (z) = 0.72958 0.38609
#
# Static dielectric constant tensor:
#      x y z
#    x 1.681180 0.000000 0.000000 
#    y 0.000000 1.611930 0.000000 
#    z 0.000000 0.000000 1.629660 
# 
# From -- ./inp_files/4692.got.cif
#   From: 2010.05.17/outbox.cif.g08.bks.cpg/sg57_3_cif.got.tgz:4692.got - 2010.06.03 13:58:18.
