data_PCOD9435459
_publ_section_title
;
Structure prediction by ZEFSAII (Michael W. Deem and Ramdas Pophale) SiO2 
 PCOD9435459
Probable space group: P B C M
;
_chemical_formula_sum "Si O2"
_cell_formula_units_Z 48
_cell_length_a 11.938768
_cell_length_b 27.547916
_cell_length_c 8.555843
_cell_angle_alpha 90.000000
_cell_angle_beta 90.000000
_cell_angle_gamma 90.000000
_cell_volume 2813.915616
_symmetry_space_group_name_H-M "P B C M"
_symmetry_group_IT_number 57
_symmetry_cell_setting 'orthorhombic'
loop_
_space_group_symop_operation_xyz
x,y,z
-x,-y,1/2+z
x,1/2-y,-z
-x,1/2+y,1/2-z
-x,-y,-z
x,y,1/2-z
-x,1/2+y,z
x,1/2-y,1/2+z
loop_
_atom_site_type_symbol
_atom_site_label
_atom_site_fract_x
_atom_site_fract_y
_atom_site_fract_z
Si Si1 0.691000 0.122684 0.064980
Si Si2 0.126566 0.447879 0.939602
Si Si3 0.502262 0.304372 0.063404
Si Si4 0.874686 0.058464 0.563468
Si Si5 0.486450 0.552836 0.936678
Si Si6 0.324347 0.376997 0.563014
O O1 0.690990 0.129088 0.250000
O O2 0.612615 0.165522 0.994187
O O3 0.813609 0.105940 0.008064
O O4 0.623933 0.075444 0.009378
O O5 0.118635 0.447819 0.750000
O O6 0.165836 0.503209 0.983397
O O7 0.207260 0.402698 0.984470
O O8 0.004570 0.441058 0.013622
O O9 0.502823 0.305634 0.250000
O O10 0.509029 0.250000 0.000000
O O11 0.385201 0.329073 0.005851
O O12 0.862146 0.061277 0.750000
O O13 0.483843 0.556030 0.750000
O O14 0.500000 0.500000 0.000000
O O15 0.587244 0.583193 0.007602
O O16 0.322844 0.371750 0.750000
#
# Coordination Sequence:
#
# PCOD9435459 Si02
#       6
#     8   8   8   8   8   8
#     4  11  21  34  52  75 103 135 172 213 260 310
#     4   9  19  33  50  74 107 145 181 215 252 301
#     4  11  22  38  58  80 104 131 169 215 268 321
#     4  10  19  32  51  76 108 145 182 216 252 300
#     4  11  20  30  45  69 101 135 170 208 254 306
#     4  10  19  33  52  75 103 135 172 213 259 308
#
# _framework density 17.058081000000001
#
# number of rings (size 3 to 8) (size 9 to 14) (size 15 to 20)
#    0.000    1.667    0.000    8.500    0.000    3.333 
#    0.000    0.000    0.000    1.000    0.000    2.333 
#    0.000    0.000    0.000    0.000    0.000    0.000 
#
# Total GULP energy -267281.592494 kJ/mol
# GULP energy per Si atom -5568.366510 kJ/mol
# Density = 1.701926 g / cm^3
# Si number density = 17.058081 Si / 1000 Ang^3
#
#
#
# Elastic Constant Matrix: (Units=GPa)
#
#
# Indices 1 2 3 4 5 6 
#
# 1 76.2177 44.3066 36.5971 0.0000 0.0000 0.0000
# 2 44.3066 114.0012 37.6848 0.0000 0.0000 0.0000
# 3 36.5971 37.6848 91.4969 0.0000 0.0000 0.0000
# 4 0.0000 0.0000 0.0000 24.7925 0.0000 0.0000
# 5 0.0000 0.0000 0.0000 0.0000 28.4339 0.0000
# 6 0.0000 0.0000 0.0000 0.0000 0.0000 23.9781
#
#
#
# Elastic Compliance Matrix: (Units=1/GPa)
#
#
# Indices 1 2 3 4 5 6 
#
# 1 0.018903 -0.005611 -0.005250 0.000000 0.000000 0.000000
# 2 -0.005611 0.011820 -0.002624 0.000000 0.000000 0.000000
# 3 -0.005250 -0.002624 0.014110 0.000000 0.000000 0.000000
# 4 0.000000 0.000000 0.000000 0.040335 0.000000 0.000000
# 5 0.000000 0.000000 0.000000 0.000000 0.035169 0.000000
# 6 0.000000 0.000000 0.000000 0.000000 0.000000 0.041705
#
#
# Mechanical properties :
#
#
# Convention : Reuss Voigt Hill
#
# Bulk Modulus (GPa) = 55.98155 57.65474 56.81815
# Shear Modulus (GPa) = 25.64552 26.31605 25.98079
#
# Velocity S-wave (km/s) = 3.88161 3.93202 3.90690
# Velocity P-wave (km/s) = 7.27864 7.38152 7.33026
#
# Compressibility (1/GPa) = 0.01786303
#
# Stress axis : x y z
#
# Youngs Moduli (GPa) = 52.90179 84.60216 70.87261
#
# Poissons Ratio (x) = 0.47472 0.37206
# Poissons Ratio (y) = 0.29685 0.18596
# Poissons Ratio (z) = 0.27772 0.22199
#
# Static dielectric constant tensor:
#      x y z
#    x 1.587880 0.000000 0.000000 
#    y 0.000000 1.563720 0.000000 
#    z 0.000000 0.000000 1.572370 
# 
# From -- ./inp_files/3294.got.cif
#   From: 2010.05.17/outbox.cif.g08.bks.cpg/sg57_2_cif.got.tgz:3294.got - 2010.06.03 13:58:18.
