data_PCOD9435944
_publ_section_title
;
Structure prediction by ZEFSAII (Michael W. Deem and Ramdas Pophale) SiO2 
 PCOD9435944
Probable space group: P B C M
;
_chemical_formula_sum "Si O2"
_cell_formula_units_Z 56
_cell_length_a 20.809647
_cell_length_b 7.600092
_cell_length_c 15.055470
_cell_angle_alpha 90.000000
_cell_angle_beta 90.000000
_cell_angle_gamma 90.000000
_cell_volume 2381.101346
_symmetry_space_group_name_H-M "P B C M"
_symmetry_group_IT_number 57
_symmetry_cell_setting 'orthorhombic'
loop_
_space_group_symop_operation_xyz
x,y,z
-x,-y,1/2+z
x,1/2-y,-z
-x,1/2+y,1/2-z
-x,-y,-z
x,y,1/2-z
-x,1/2+y,z
x,1/2-y,1/2+z
loop_
_atom_site_type_symbol
_atom_site_label
_atom_site_fract_x
_atom_site_fract_y
_atom_site_fract_z
Si Si1 0.953532 0.813219 0.352159
Si Si2 0.911986 0.090326 0.852175
Si Si3 0.687214 0.699363 0.896366
Si Si4 0.641586 0.293139 0.599784
Si Si5 0.593931 0.780400 0.750000
Si Si6 0.820012 0.885773 0.080680
Si Si7 0.220621 0.752895 0.357269
Si Si8 0.449919 0.627545 0.250000
O O1 0.960264 0.872352 0.250000
O O2 0.928592 0.614567 0.353799
O O3 0.893172 0.917790 0.389456
O O4 0.024111 0.824631 0.394676
O O5 0.910965 0.154607 0.750000
O O6 0.839262 0.122230 0.881514
O O7 0.663502 0.497183 0.891070
O O8 0.638596 0.808340 0.835882
O O9 0.761675 0.706292 0.863576
O O10 0.686428 0.750000 0.000000
O O11 0.623282 0.250000 0.500000
O O12 0.706817 0.186841 0.623901
O O13 0.582141 0.275707 0.665860
O O14 0.573804 0.574032 0.750000
O O15 0.526320 0.876227 0.750000
O O16 0.792249 0.082651 0.080890
O O17 0.826141 0.750000 0.000000
O O18 0.218403 0.710692 0.250000
#
# Coordination Sequence:
#
# PCOD9435944 Si02
#       8
#     8   8   8   8   4   8   8   4
#     4  10  19  34  54  77 109 147 192 241 292 347
#     4   9  19  33  53  81 108 144 193 242 288 345
#     4   9  21  39  59  87 121 155 199 242 292 349
#     4  10  21  38  63  88 121 157 196 242 293 348
#     4  10  22  40  66  86 123 160 201 232 291 350
#     4  10  21  35  55  82 111 145 191 238 293 347
#     4  10  19  36  60  82 111 155 197 238 293 350
#     4  10  22  42  60  94 119 160 197 240 285 354
#
# _framework density 23.518529000000001
#
# number of rings (size 3 to 8) (size 9 to 14) (size 15 to 20)
#    0.000    2.286    0.714    1.286    4.000    7.429 
#    0.000    6.429    0.000    0.000    0.000    0.000 
#    0.000    0.000    0.000    0.000    0.000    0.000 
#
# Total GULP energy -312366.743813 kJ/mol
# GULP energy per Si atom -5577.977568 kJ/mol
# Density = 2.346500 g / cm^3
# Si number density = 23.518529 Si / 1000 Ang^3
#
#
#
# Elastic Constant Matrix: (Units=GPa)
#
#
# Indices 1 2 3 4 5 6 
#
# 1 142.9066 22.3239 31.9418 0.0000 0.0000 0.0000
# 2 22.3239 29.5934 1.5377 0.0000 0.0000 0.0000
# 3 31.9418 1.5377 85.6450 0.0000 0.0000 0.0000
# 4 0.0000 0.0000 0.0000 16.0091 0.0000 0.0000
# 5 0.0000 0.0000 0.0000 0.0000 8.5031 0.0000
# 6 0.0000 0.0000 0.0000 0.0000 0.0000 33.0898
#
#
#
# Elastic Compliance Matrix: (Units=1/GPa)
#
#
# Indices 1 2 3 4 5 6 
#
# 1 0.008696 -0.006397 -0.003128 0.000000 0.000000 0.000000
# 2 -0.006397 0.038529 0.001694 0.000000 0.000000 0.000000
# 3 -0.003128 0.001694 0.012812 0.000000 0.000000 0.000000
# 4 0.000000 0.000000 0.000000 0.062465 0.000000 0.000000
# 5 0.000000 0.000000 0.000000 0.000000 0.117604 0.000000
# 6 0.000000 0.000000 0.000000 0.000000 0.000000 0.030221
#
#
# Mechanical properties :
#
#
# Convention : Reuss Voigt Hill
#
# Bulk Modulus (GPa) = 22.53548 41.08354 31.80951
# Shear Modulus (GPa) = 16.62334 25.00984 20.81659
#
# Velocity S-wave (km/s) = 2.66149 3.26453 2.97831
# Velocity P-wave (km/s) = 4.36435 5.63170 5.03804
#
# Compressibility (1/GPa) = 0.04437447
#
# Stress axis : x y z
#
# Youngs Moduli (GPa) = 114.99271 25.95434 78.04905
#
# Poissons Ratio (x) = 0.16604 0.24417
# Poissons Ratio (y) = 0.73566 -0.13223
# Poissons Ratio (z) = 0.35975 -0.04397
#
# Static dielectric constant tensor:
#      x y z
#    x 1.938980 0.000000 0.000000 
#    y 0.000000 1.927530 0.000000 
#    z 0.000000 0.000000 1.926370 
# 
# From -- ./inp_files/19390.got.cif
#   From: 2010.05.17/outbox.cif.g08.bks.cpg/sg57_10_cif.got.tgz:19390.got - 2010.06.03 13:58:18.
