data_PCOD9435464
_publ_section_title
;
Structure prediction by ZEFSAII (Michael W. Deem and Ramdas Pophale) SiO2 
 PCOD9435464
Probable space group: P B C M
;
_chemical_formula_sum "Si O2"
_cell_formula_units_Z 56
_cell_length_a 19.651418
_cell_length_b 17.550085
_cell_length_c 8.268437
_cell_angle_alpha 90.000000
_cell_angle_beta 90.000000
_cell_angle_gamma 90.000000
_cell_volume 2851.652092
_symmetry_space_group_name_H-M "P B C M"
_symmetry_group_IT_number 57
_symmetry_cell_setting 'orthorhombic'
loop_
_space_group_symop_operation_xyz
x,y,z
-x,-y,1/2+z
x,1/2-y,-z
-x,1/2+y,1/2-z
-x,-y,-z
x,y,1/2-z
-x,1/2+y,z
x,1/2-y,1/2+z
loop_
_atom_site_type_symbol
_atom_site_label
_atom_site_fract_x
_atom_site_fract_y
_atom_site_fract_z
Si Si1 0.145324 0.665608 0.941075
Si Si2 0.206461 0.072506 0.559757
Si Si3 0.669150 0.835745 0.053663
Si Si4 0.592249 0.333578 0.444196
Si Si5 0.721067 0.076931 0.555581
Si Si6 0.463781 0.422079 0.054984
Si Si7 0.923727 0.012244 0.057974
O O1 0.135198 0.662266 0.750000
O O2 0.224050 0.643848 0.974142
O O3 0.129153 0.750000 0.000000
O O4 0.101839 0.597046 0.016035
O O5 0.196937 0.088002 0.750000
O O6 0.255823 0.138422 0.493704
O O7 0.251405 0.996383 0.536320
O O8 0.132736 0.047970 0.490401
O O9 0.669492 0.837853 0.250000
O O10 0.611014 0.896005 0.998009
O O11 0.653126 0.750000 0.000000
O O12 0.611358 0.250000 0.500000
O O13 0.594013 0.335078 0.250000
O O14 0.647420 0.395448 0.499506
O O15 0.516945 0.356582 0.497050
O O16 0.720714 0.061866 0.750000
O O17 0.461275 0.424840 0.250000
O O18 0.500000 0.500000 0.000000
O O19 0.922674 0.004247 0.250000
O O20 0.000000 0.000000 0.000000
#
# Coordination Sequence:
#
# PCOD9435464 Si02
#       7
#     8   8   8   8   8   8   8
#     4  10  19  32  51  77 107 139 174 212 255 309
#     4   9  19  35  55  77 102 133 172 213 256 309
#     4  10  21  37  55  78 106 139 180 226 271 318
#     4  10  20  32  46  70 101 132 166 206 250 298
#     4   9  18  31  49  74 104 135 170 209 251 303
#     4  10  21  35  52  74 101 133 175 221 265 312
#     4  10  20  36  57  80 107 139 173 215 265 319
#
# _framework density 19.637737999999999
#
# number of rings (size 3 to 8) (size 9 to 14) (size 15 to 20)
#    0.000    2.286    0.000    2.571    0.000    3.429 
#    0.000    0.714    0.000    1.714    0.000    0.000 
#    0.000    0.000    0.000    0.000    0.000    0.000 
#
# Total GULP energy -312311.878084 kJ/mol
# GULP energy per Si atom -5576.997823 kJ/mol
# Density = 1.959304 g / cm^3
# Si number density = 19.637738 Si / 1000 Ang^3
#
#
#
# Elastic Constant Matrix: (Units=GPa)
#
#
# Indices 1 2 3 4 5 6 
#
# 1 135.3110 30.1094 19.2273 0.0000 0.0000 0.0000
# 2 30.1094 65.5566 1.9763 0.0000 0.0000 0.0000
# 3 19.2273 1.9763 9.5626 0.0000 0.0000 0.0000
# 4 0.0000 0.0000 0.0000 27.7388 0.0000 0.0000
# 5 0.0000 0.0000 0.0000 0.0000 16.2234 0.0000
# 6 0.0000 0.0000 0.0000 0.0000 0.0000 17.6250
#
#
#
# Elastic Compliance Matrix: (Units=1/GPa)
#
#
# Indices 1 2 3 4 5 6 
#
# 1 0.011605 -0.004656 -0.022373 0.000000 0.000000 0.000000
# 2 -0.004656 0.017217 0.005803 0.000000 0.000000 0.000000
# 3 -0.022373 0.005803 0.148359 0.000000 0.000000 0.000000
# 4 0.000000 0.000000 0.000000 0.036051 0.000000 0.000000
# 5 0.000000 0.000000 0.000000 0.000000 0.061639 0.000000
# 6 0.000000 0.000000 0.000000 0.000000 0.000000 0.056737
#
#
# Mechanical properties :
#
#
# Convention : Reuss Voigt Hill
#
# Bulk Modulus (GPa) = 7.42222 34.78404 21.10313
# Shear Modulus (GPa) = 11.93402 22.92527 17.42965
#
# Velocity S-wave (km/s) = 2.46785 3.42044 2.98242
# Velocity P-wave (km/s) = 3.45082 5.77499 4.75703
#
# Compressibility (1/GPa) = 0.13473062
#
# Stress axis : x y z
#
# Youngs Moduli (GPa) = 86.16615 58.08070 6.74042
#
# Poissons Ratio (x) = 0.27041 0.15080
# Poissons Ratio (y) = 0.40117 -0.03911
# Poissons Ratio (z) = 1.92777 -0.33704
#
# Static dielectric constant tensor:
#      x y z
#    x 1.733570 0.000000 0.000000 
#    y 0.000000 1.676840 0.000000 
#    z 0.000000 0.000000 1.687320 
# 
# From -- ./inp_files/8183.got.cif
#   From: 2010.05.17/outbox.cif.g08.bks.cpg/sg57_5_cif.got.tgz:8183.got - 2010.06.03 13:58:18.
