data_PCOD9435230
_publ_section_title
;
Structure prediction by ZEFSAII (Michael W. Deem and Ramdas Pophale) SiO2 
 PCOD9435230
Probable space group: P B C M
;
_chemical_formula_sum "Si O2"
_cell_formula_units_Z 48
_cell_length_a 9.972904
_cell_length_b 31.661049
_cell_length_c 8.486622
_cell_angle_alpha 90.000000
_cell_angle_beta 90.000000
_cell_angle_gamma 90.000000
_cell_volume 2679.672981
_symmetry_space_group_name_H-M "P B C M"
_symmetry_group_IT_number 57
_symmetry_cell_setting 'orthorhombic'
loop_
_space_group_symop_operation_xyz
x,y,z
-x,-y,1/2+z
x,1/2-y,-z
-x,1/2+y,1/2-z
-x,-y,-z
x,y,1/2-z
-x,1/2+y,z
x,1/2-y,1/2+z
loop_
_atom_site_type_symbol
_atom_site_label
_atom_site_fract_x
_atom_site_fract_y
_atom_site_fract_z
Si Si1 0.354565 0.485266 0.559360
Si Si2 0.700076 0.610735 0.059631
Si Si3 0.989804 0.631787 0.938640
Si Si4 0.212560 0.932271 0.439864
Si Si5 0.587309 0.361382 0.559642
Si Si6 0.811911 0.297342 0.561409
O O1 0.500000 0.500000 0.500000
O O2 0.358576 0.485008 0.750000
O O3 0.319869 0.437937 0.507400
O O4 0.246018 0.520342 0.507097
O O5 0.704997 0.611060 0.250000
O O6 0.566995 0.636185 0.009601
O O7 0.838567 0.628738 0.996437
O O8 0.992656 0.632554 0.750000
O O9 0.076460 0.590805 0.993901
O O10 0.068774 0.672675 0.000788
O O11 0.210908 0.932438 0.250000
O O12 0.333236 0.902050 0.495687
O O13 0.590423 0.363582 0.750000
O O14 0.673882 0.320727 0.510378
O O15 0.820905 0.250000 0.500000
O O16 0.815356 0.296991 0.750000
#
# Coordination Sequence:
#
# PCOD9435230 Si02
#       6
#     8   8   8   8   8   8
#     4  10  19  31  50  75 105 142 185 229 269 311
#     4  10  20  34  51  76 110 145 180 221 270 317
#     4  10  21  36  53  77 109 144 180 219 267 318
#     4   9  18  32  50  74 104 139 182 227 264 306
#     4   9  18  33  54  78 104 136 173 214 263 317
#     4  10  20  37  61  84 105 132 169 212 262 321
#
# _framework density 17.912634000000001
#
# number of rings (size 3 to 8) (size 9 to 14) (size 15 to 20)
#    0.000    2.333    1.667    1.000    0.000    3.333 
#    0.000    0.833    0.000    2.000    0.000    0.000 
#    0.000    0.000    0.000    0.000    0.000    0.000 
#
# Total GULP energy -267750.341926 kJ/mol
# GULP energy per Si atom -5578.132123 kJ/mol
# Density = 1.787186 g / cm^3
# Si number density = 17.912634 Si / 1000 Ang^3
#
#
#
# Elastic Constant Matrix: (Units=GPa)
#
#
# Indices 1 2 3 4 5 6 
#
# 1 166.5320 77.1948 26.6225 0.0000 0.0000 0.0000
# 2 77.1948 130.1159 24.3401 0.0000 0.0000 0.0000
# 3 26.6225 24.3401 14.2123 0.0000 0.0000 0.0000
# 4 0.0000 0.0000 0.0000 20.9457 0.0000 0.0000
# 5 0.0000 0.0000 0.0000 0.0000 25.7466 0.0000
# 6 0.0000 0.0000 0.0000 0.0000 0.0000 15.7459
#
#
#
# Elastic Compliance Matrix: (Units=1/GPa)
#
#
# Indices 1 2 3 4 5 6 
#
# 1 0.009490 -0.003391 -0.011969 0.000000 0.000000 0.000000
# 2 -0.003391 0.012520 -0.015089 0.000000 0.000000 0.000000
# 3 -0.011969 -0.015089 0.118624 0.000000 0.000000 0.000000
# 4 0.000000 0.000000 0.000000 0.047743 0.000000 0.000000
# 5 0.000000 0.000000 0.000000 0.000000 0.038840 0.000000
# 6 0.000000 0.000000 0.000000 0.000000 0.000000 0.063509
#
#
# Mechanical properties :
#
#
# Convention : Reuss Voigt Hill
#
# Bulk Modulus (GPa) = 12.54154 63.01946 37.78050
# Shear Modulus (GPa) = 13.22036 24.66782 18.94409
#
# Velocity S-wave (km/s) = 2.71965 3.71498 3.25558
# Velocity P-wave (km/s) = 4.10837 7.32526 5.93877
#
# Compressibility (1/GPa) = 0.07973500
#
# Stress axis : x y z
#
# Youngs Moduli (GPa) = 105.37005 79.87101 8.42996
#
# Poissons Ratio (x) = 0.27087 0.10090
# Poissons Ratio (y) = 0.35735 0.12720
# Poissons Ratio (z) = 1.26120 1.20520
#
# Static dielectric constant tensor:
#      x y z
#    x 1.605790 0.000000 0.000000 
#    y 0.000000 1.605650 0.000000 
#    z 0.000000 0.000000 1.593030 
# 
# From -- ./inp_files/2029.got.cif
#   From: 2010.05.17/outbox.cif.g08.bks.cpg/sg57_2_cif.got.tgz:2029.got - 2010.06.03 13:58:18.
