data_PCOD9435176
_publ_section_title
;
Structure prediction by ZEFSAII (Michael W. Deem and Ramdas Pophale) SiO2 
 PCOD9435176
Probable space group: P B C M
;
_chemical_formula_sum "Si O2"
_cell_formula_units_Z 64
_cell_length_a 14.776828
_cell_length_b 31.107645
_cell_length_c 8.995361
_cell_angle_alpha 90.000000
_cell_angle_beta 90.000000
_cell_angle_gamma 90.000000
_cell_volume 4134.918457
_symmetry_space_group_name_H-M "P B C M"
_symmetry_group_IT_number 57
_symmetry_cell_setting 'orthorhombic'
loop_
_space_group_symop_operation_xyz
x,y,z
-x,-y,1/2+z
x,1/2-y,-z
-x,1/2+y,1/2-z
-x,-y,-z
x,y,1/2-z
-x,1/2+y,z
x,1/2-y,1/2+z
loop_
_atom_site_type_symbol
_atom_site_label
_atom_site_fract_x
_atom_site_fract_y
_atom_site_fract_z
Si Si1 0.953208 0.542300 0.929749
Si Si2 0.440428 0.461581 0.927018
Si Si3 0.750475 0.522410 0.573586
Si Si4 0.149267 0.704282 0.072437
Si Si5 0.927112 0.377473 0.422208
Si Si6 0.255420 0.932425 0.079300
Si Si7 0.639204 0.204916 0.072477
Si Si8 0.423249 0.886600 0.572295
O O1 0.962955 0.538841 0.750000
O O2 0.846654 0.543627 0.965768
O O3 0.002385 0.586399 0.976489
O O4 0.000000 0.500000 0.000000
O O5 0.438960 0.468775 0.750000
O O6 0.489372 0.415939 0.955382
O O7 0.500000 0.500000 0.000000
O O8 0.339518 0.461653 0.991638
O O9 0.737016 0.525797 0.750000
O O10 0.760920 0.472967 0.525343
O O11 0.144748 0.707018 0.250000
O O12 0.255350 0.695596 0.031328
O O13 0.125726 0.750000 0.000000
O O14 0.086662 0.665923 0.013747
O O15 0.948303 0.367100 0.250000
O O16 0.830646 0.401568 0.425309
O O17 0.268387 0.946774 0.250000
O O18 0.342708 0.908130 0.019282
O O19 0.637041 0.209996 0.250000
O O20 0.577996 0.163810 0.033060
O O21 0.612924 0.250000 0.000000
O O22 0.403365 0.889402 0.750000
#
# Coordination Sequence:
#
# PCOD9435176 Si02
#       8
#     8   8   8   8   8   8   8   8
#     4  10  21  35  51  72  99 133 170 211 253 297
#     4  11  22  34  51  73  99 132 170 210 250 293
#     4  11  22  35  50  69 100 136 170 209 252 294
#     4  10  19  31  49  72 100 133 164 200 246 299
#     4  10  20  33  48  72 101 131 169 209 249 296
#     4  11  20  29  48  72  99 132 169 207 244 289
#     4   9  18  31  47  69  97 127 159 195 239 292
#     4  10  20  34  49  69  99 133 167 203 247 294
#
# _framework density 15.477936
#
# number of rings (size 3 to 8) (size 9 to 14) (size 15 to 20)
#    0.000    1.750    3.750    1.500    0.000    3.000 
#    0.000    0.000    0.000    0.000    0.000    0.875 
#    0.000    4.000    0.000    0.000    0.000    0.000 
#
# Total GULP energy -356969.647471 kJ/mol
# GULP energy per Si atom -5577.650742 kJ/mol
# Density = 1.544271 g / cm^3
# Si number density = 15.477936 Si / 1000 Ang^3
#
#
#
# Elastic Constant Matrix: (Units=GPa)
#
#
# Indices 1 2 3 4 5 6 
#
# 1 94.1623 56.7135 42.9790 0.0000 0.0000 0.0000
# 2 56.7135 129.0614 45.1525 0.0000 0.0000 0.0000
# 3 42.9790 45.1525 43.3089 0.0000 0.0000 0.0000
# 4 0.0000 0.0000 0.0000 27.1068 0.0000 0.0000
# 5 0.0000 0.0000 0.0000 0.0000 19.6676 0.0000
# 6 0.0000 0.0000 0.0000 0.0000 0.0000 21.7692
#
#
#
# Elastic Compliance Matrix: (Units=1/GPa)
#
#
# Indices 1 2 3 4 5 6 
#
# 1 0.020088 -0.002917 -0.016894 0.000000 0.000000 0.000000
# 2 -0.002917 0.012621 -0.010263 0.000000 0.000000 0.000000
# 3 -0.016894 -0.010263 0.050555 0.000000 0.000000 0.000000
# 4 0.000000 0.000000 0.000000 0.036891 0.000000 0.000000
# 5 0.000000 0.000000 0.000000 0.000000 0.050845 0.000000
# 6 0.000000 0.000000 0.000000 0.000000 0.000000 0.045936
#
#
# Mechanical properties :
#
#
# Convention : Reuss Voigt Hill
#
# Bulk Modulus (GPa) = 43.26027 61.80250 52.53139
# Shear Modulus (GPa) = 17.55689 21.82123 19.68906
#
# Velocity S-wave (km/s) = 3.37162 3.75884 3.57048
# Velocity P-wave (km/s) = 6.57019 7.67168 7.14220
#
# Compressibility (1/GPa) = 0.02311590
#
# Stress axis : x y z
#
# Youngs Moduli (GPa) = 49.78207 79.23532 19.78041
#
# Poissons Ratio (x) = 0.23111 0.33416
# Poissons Ratio (y) = 0.14521 0.20301
# Poissons Ratio (z) = 0.84100 0.81322
#
# Static dielectric constant tensor:
#      x y z
#    x 1.516890 0.000000 0.000000 
#    y 0.000000 1.512510 0.000000 
#    z 0.000000 0.000000 1.524130 
# 
# From -- ./inp_files/6045.got.cif
#   From: 2010.05.17/outbox.cif.g08.bks.cpg/sg57_4_cif.got.tgz:6045.got - 2010.06.03 13:58:18.
