data_PCOD9435985
_publ_section_title
;
Structure prediction by ZEFSAII (Michael W. Deem and Ramdas Pophale) SiO2 
 PCOD9435985
Probable space group: P B C M
;
_chemical_formula_sum "Si O2"
_cell_formula_units_Z 64
_cell_length_a 21.016726
_cell_length_b 20.158594
_cell_length_c 8.796856
_cell_angle_alpha 90.000000
_cell_angle_beta 90.000000
_cell_angle_gamma 90.000000
_cell_volume 3726.943279
_symmetry_space_group_name_H-M "P B C M"
_symmetry_group_IT_number 57
_symmetry_cell_setting 'orthorhombic'
loop_
_space_group_symop_operation_xyz
x,y,z
-x,-y,1/2+z
x,1/2-y,-z
-x,1/2+y,1/2-z
-x,-y,-z
x,y,1/2-z
-x,1/2+y,z
x,1/2-y,1/2+z
loop_
_atom_site_type_symbol
_atom_site_label
_atom_site_fract_x
_atom_site_fract_y
_atom_site_fract_z
Si Si1 0.865515 0.819352 0.932577
Si Si2 0.818590 0.962864 0.567657
Si Si3 0.684799 0.538517 0.933394
Si Si4 0.557952 0.457186 0.567578
Si Si5 0.366459 0.180318 0.567875
Si Si6 0.060903 0.961779 0.933044
Si Si7 0.516828 0.179467 0.567839
Si Si8 0.014251 0.680864 0.432328
O O1 0.863311 0.815096 0.750000
O O2 0.829525 0.885935 0.980088
O O3 0.939925 0.827228 0.978490
O O4 0.841676 0.750000 0.000000
O O5 0.822448 0.965715 0.750000
O O6 0.749875 0.984509 0.508993
O O7 0.875375 0.005781 0.497465
O O8 0.691284 0.538493 0.750000
O O9 0.624196 0.493131 0.971736
O O10 0.669422 0.614108 0.983190
O O11 0.500000 0.500000 0.500000
O O12 0.552317 0.456261 0.750000
O O13 0.552590 0.383244 0.502298
O O14 0.343806 0.250000 0.500000
O O15 0.362091 0.184020 0.750000
O O16 0.441456 0.172269 0.529511
O O17 0.059634 0.966378 0.750000
O O18 0.052615 0.884604 0.976928
O O19 0.000000 0.000000 0.000000
O O20 0.537790 0.250000 0.500000
O O21 0.522431 0.179504 0.750000
O O22 0.037768 0.750000 0.500000
O O23 0.014958 0.685217 0.250000
#
# Coordination Sequence:
#
# PCOD9435985 Si02
#       8
#     8   8   8   8   8   8   8   8
#     4   9  18  33  50  74 108 142 181 221 260 316
#     4  11  23  38  54  79 111 145 188 230 272 327
#     4  10  22  39  54  76 111 149 187 227 277 330
#     4  11  21  36  58  83 112 146 187 235 282 333
#     4   9  18  33  51  75 109 146 184 224 266 324
#     4  11  21  36  58  83 111 144 182 227 274 323
#     4  10  19  34  55  84 114 144 183 228 280 335
#     4   9  18  33  53  80 110 138 175 220 268 319
#
# _framework density 17.172249999999998
#
# number of rings (size 3 to 8) (size 9 to 14) (size 15 to 20)
#    0.000    2.000    2.500    1.500    0.000    4.500 
#    0.000    2.500    0.000    0.750    0.000    3.500 
#    0.000    0.000    0.000    0.000    0.000    0.000 
#
# Total GULP energy -357280.946934 kJ/mol
# GULP energy per Si atom -5582.514796 kJ/mol
# Density = 1.713317 g / cm^3
# Si number density = 17.172250 Si / 1000 Ang^3
#
#
#
# Elastic Constant Matrix: (Units=GPa)
#
#
# Indices 1 2 3 4 5 6 
#
# 1 111.9417 70.3631 43.3034 0.0000 0.0000 0.0000
# 2 70.3631 140.4451 44.0658 0.0000 0.0000 0.0000
# 3 43.3034 44.0658 38.4932 0.0000 0.0000 0.0000
# 4 0.0000 0.0000 0.0000 33.3848 0.0000 0.0000
# 5 0.0000 0.0000 0.0000 0.0000 22.1173 0.0000
# 6 0.0000 0.0000 0.0000 0.0000 0.0000 21.4087
#
#
#
# Elastic Compliance Matrix: (Units=1/GPa)
#
#
# Indices 1 2 3 4 5 6 
#
# 1 0.017116 -0.003954 -0.014729 0.000000 0.000000 0.000000
# 2 -0.003954 0.012025 -0.009317 0.000000 0.000000 0.000000
# 3 -0.014729 -0.009317 0.053214 0.000000 0.000000 0.000000
# 4 0.000000 0.000000 0.000000 0.029954 0.000000 0.000000
# 5 0.000000 0.000000 0.000000 0.000000 0.045213 0.000000
# 6 0.000000 0.000000 0.000000 0.000000 0.000000 0.046710
#
#
# Mechanical properties :
#
#
# Convention : Reuss Voigt Hill
#
# Bulk Modulus (GPa) = 37.94369 67.37161 52.65765
# Shear Modulus (GPa) = 18.58622 24.25868 21.42245
#
# Velocity S-wave (km/s) = 3.29346 3.76262 3.53583
# Velocity P-wave (km/s) = 6.05033 7.62853 6.88480
#
# Compressibility (1/GPa) = 0.02635484
#
# Stress axis : x y z
#
# Youngs Moduli (GPa) = 58.42410 83.16347 18.79208
#
# Poissons Ratio (x) = 0.32883 0.27678
# Poissons Ratio (y) = 0.23101 0.17509
# Poissons Ratio (z) = 0.86051 0.77485
#
# Static dielectric constant tensor:
#      x y z
#    x 1.567850 0.000000 0.000000 
#    y 0.000000 1.581890 0.000000 
#    z 0.000000 0.000000 1.576070 
# 
# From -- ./inp_files/7183.got.cif
#   From: 2010.05.17/outbox.cif.g08.bks.cpg/sg57_4_cif.got.tgz:7183.got - 2010.06.03 13:58:18.
