data_PCOD9435090
_publ_section_title
;
Structure prediction by ZEFSAII (Michael W. Deem and Ramdas Pophale) SiO2 
 PCOD9435090
Probable space group: P B C M
;
_chemical_formula_sum "Si O2"
_cell_formula_units_Z 48
_cell_length_a 29.120515
_cell_length_b 7.763895
_cell_length_c 10.289898
_cell_angle_alpha 90.000000
_cell_angle_beta 90.000000
_cell_angle_gamma 90.000000
_cell_volume 2326.428847
_symmetry_space_group_name_H-M "P B C M"
_symmetry_group_IT_number 57
_symmetry_cell_setting 'orthorhombic'
loop_
_space_group_symop_operation_xyz
x,y,z
-x,-y,1/2+z
x,1/2-y,-z
-x,1/2+y,1/2-z
-x,-y,-z
x,y,1/2-z
-x,1/2+y,z
x,1/2-y,1/2+z
loop_
_atom_site_type_symbol
_atom_site_label
_atom_site_fract_x
_atom_site_fract_y
_atom_site_fract_z
Si Si1 0.962912 0.592609 0.904775
Si Si2 0.282276 0.966903 0.250000
Si Si3 0.771493 0.461416 0.506135
Si Si4 0.287990 0.546130 0.250000
Si Si5 0.610926 0.034238 0.750000
Si Si6 0.607312 0.043007 0.250000
Si Si7 0.134187 0.904927 0.600884
Si Si8 0.553515 0.457069 0.001812
O O1 0.977766 0.625239 0.750000
O O2 0.915414 0.490643 0.892966
O O3 0.951318 0.750000 0.000000
O O4 0.000000 0.500000 0.000000
O O5 0.252555 0.019583 0.125451
O O6 0.285753 0.756436 0.250000
O O7 0.335766 0.021475 0.250000
O O8 0.772962 0.250000 0.500000
O O9 0.738547 0.512181 0.623028
O O10 0.823365 0.513907 0.542035
O O11 0.340200 0.487723 0.250000
O O12 0.609832 0.245826 0.750000
O O13 0.581941 0.978593 0.625141
O O14 0.579571 0.981856 0.125704
O O15 0.128959 0.750000 0.500000
O O16 0.147195 0.853810 0.750000
O O17 0.556593 0.250000 0.000000
O O18 0.500000 0.500000 0.000000
#
# Coordination Sequence:
#
# PCOD9435090 Si02
#       8
#     8   4   8   4   4   4   8   8
#     4  11  24  43  64  91 120 157 200 246 295 345
#     4   9  16  25  41  68  99 133 164 212 258 315
#     4   9  16  26  42  71 105 137 170 207 267 313
#     4   9  14  25  43  64  99 129 164 208 254 313
#     4   9  17  29  44  66  98 125 161 206 259 309
#     4   9  17  27  44  68  92 127 161 200 257 305
#     4  10  21  35  55  84 120 153 188 230 279 336
#     4  10  19  31  46  67  93 124 160 204 253 309
#
# _framework density 20.632480000000001
#
# number of rings (size 3 to 8) (size 9 to 14) (size 15 to 20)
#    0.000    2.333    0.833    2.500    3.500    6.667 
#    0.000    0.000    0.000    0.000    0.000    7.000 
#    0.000    0.000    0.000    0.000    0.000    0.000 
#
# Total GULP energy -267539.246929 kJ/mol
# GULP energy per Si atom -5573.734311 kJ/mol
# Density = 2.058552 g / cm^3
# Si number density = 20.632480 Si / 1000 Ang^3
#
#
#
# Elastic Constant Matrix: (Units=GPa)
#
#
# Indices 1 2 3 4 5 6 
#
# 1 186.1844 9.8532 106.4282 0.0000 0.0000 0.0000
# 2 9.8532 20.9028 23.7419 0.0000 0.0000 0.0000
# 3 106.4282 23.7419 238.8516 0.0000 0.0000 0.0000
# 4 0.0000 0.0000 0.0000 3.6387 0.0000 0.0000
# 5 0.0000 0.0000 0.0000 0.0000 99.3590 0.0000
# 6 0.0000 0.0000 0.0000 0.0000 0.0000 16.3313
#
#
#
# Elastic Compliance Matrix: (Units=1/GPa)
#
#
# Indices 1 2 3 4 5 6 
#
# 1 0.007208 0.000282 -0.003240 0.000000 0.000000 0.000000
# 2 0.000282 0.053940 -0.005487 0.000000 0.000000 0.000000
# 3 -0.003240 -0.005487 0.006176 0.000000 0.000000 0.000000
# 4 0.000000 0.000000 0.000000 0.274822 0.000000 0.000000
# 5 0.000000 0.000000 0.000000 0.000000 0.010065 0.000000
# 6 0.000000 0.000000 0.000000 0.000000 0.000000 0.061232
#
#
# Mechanical properties :
#
#
# Convention : Reuss Voigt Hill
#
# Bulk Modulus (GPa) = 19.82792 80.66504 50.24648
# Shear Modulus (GPa) = 11.18208 44.26017 27.72112
#
# Velocity S-wave (km/s) = 2.33054 4.63662 3.66945
# Velocity P-wave (km/s) = 4.10765 8.23683 6.50839
#
# Compressibility (1/GPa) = 0.05043393
#
# Stress axis : x y z
#
# Youngs Moduli (GPa) = 138.73344 18.53902 161.92341
#
# Poissons Ratio (x) = -0.00523 0.52460
# Poissons Ratio (y) = -0.03914 0.88853
# Poissons Ratio (z) = 0.44947 0.10173
#
# Static dielectric constant tensor:
#      x y z
#    x 1.683800 0.000000 0.000000 
#    y 0.000000 1.834220 0.000000 
#    z 0.000000 0.000000 2.230990 
# 
# From -- ./inp_files/10200.got.cif
#   From: 2010.05.17/outbox.cif.g08.bks.cpg/sg57_6_cif.got.tgz:10200.got - 2010.06.03 13:58:18.
