data_PCOD9435866
_publ_section_title
;
Structure prediction by ZEFSAII (Michael W. Deem and Ramdas Pophale) SiO2 
 PCOD9435866
Probable space group: P B C M
;
_chemical_formula_sum "Si O2"
_cell_formula_units_Z 48
_cell_length_a 20.969519
_cell_length_b 13.900424
_cell_length_c 9.088919
_cell_angle_alpha 90.000000
_cell_angle_beta 90.000000
_cell_angle_gamma 90.000000
_cell_volume 2649.285420
_symmetry_space_group_name_H-M "P B C M"
_symmetry_group_IT_number 57
_symmetry_cell_setting 'orthorhombic'
loop_
_space_group_symop_operation_xyz
x,y,z
-x,-y,1/2+z
x,1/2-y,-z
-x,1/2+y,1/2-z
-x,-y,-z
x,y,1/2-z
-x,1/2+y,z
x,1/2-y,1/2+z
loop_
_atom_site_type_symbol
_atom_site_label
_atom_site_fract_x
_atom_site_fract_y
_atom_site_fract_z
Si Si1 0.775278 0.146917 0.426165
Si Si2 0.972599 0.650098 0.925147
Si Si3 0.648557 0.063549 0.572381
Si Si4 0.382185 0.155836 0.080107
Si Si5 0.909440 0.050070 0.075464
Si Si6 0.476164 0.903078 0.578219
O O1 0.787544 0.250000 0.500000
O O2 0.766176 0.156648 0.250000
O O3 0.712811 0.102945 0.501832
O O4 0.837090 0.080512 0.452254
O O5 0.975458 0.661957 0.750000
O O6 0.925583 0.560868 0.959712
O O7 0.954141 0.750000 0.000000
O O8 0.041305 0.616070 0.986082
O O9 0.648617 0.069037 0.750000
O O10 0.587905 0.122446 0.508847
O O11 0.638925 0.950680 0.528393
O O12 0.363873 0.161113 0.250000
O O13 0.459552 0.159002 0.073096
O O14 0.356505 0.250000 0.000000
O O15 0.922260 0.063618 0.250000
O O16 0.460757 0.918604 0.750000
O O17 0.500000 0.000000 0.500000
#
# Coordination Sequence:
#
# PCOD9435866 Si02
#       6
#     8   8   8   8   8   8
#     4  11  23  39  58  79 105 140 179 220 268 322
#     4  10  19  33  56  85 115 146 181 221 266 315
#     4  10  21  37  54  77 107 139 179 224 268 320
#     4   9  19  33  52  77 104 135 173 216 264 317
#     4   9  20  37  56  81 112 145 183 223 264 314
#     4   9  17  31  50  74 102 134 173 219 269 317
#
# _framework density 18.118092999999998
#
# number of rings (size 3 to 8) (size 9 to 14) (size 15 to 20)
#    0.000    2.333    0.000    3.500    0.000    8.000 
#    0.000    2.500    0.000    4.000    0.000    0.000 
#    0.000    0.000    0.000    0.000    0.000    0.000 
#
# Total GULP energy -267634.900591 kJ/mol
# GULP energy per Si atom -5575.727096 kJ/mol
# Density = 1.807686 g / cm^3
# Si number density = 18.118093 Si / 1000 Ang^3
#
#
#
# Elastic Constant Matrix: (Units=GPa)
#
#
# Indices 1 2 3 4 5 6 
#
# 1 106.7467 33.8901 46.4000 0.0000 0.0000 0.0000
# 2 33.8901 85.8110 46.0782 0.0000 0.0000 0.0000
# 3 46.4000 46.0782 77.2779 0.0000 0.0000 0.0000
# 4 0.0000 0.0000 0.0000 31.2109 0.0000 0.0000
# 5 0.0000 0.0000 0.0000 0.0000 24.8835 0.0000
# 6 0.0000 0.0000 0.0000 0.0000 0.0000 11.0939
#
#
#
# Elastic Compliance Matrix: (Units=1/GPa)
#
#
# Indices 1 2 3 4 5 6 
#
# 1 0.012784 -0.001364 -0.006863 0.000000 0.000000 0.000000
# 2 -0.001364 0.017288 -0.009489 0.000000 0.000000 0.000000
# 3 -0.006863 -0.009489 0.022719 0.000000 0.000000 0.000000
# 4 0.000000 0.000000 0.000000 0.032040 0.000000 0.000000
# 5 0.000000 0.000000 0.000000 0.000000 0.040187 0.000000
# 6 0.000000 0.000000 0.000000 0.000000 0.000000 0.090139
#
#
# Mechanical properties :
#
#
# Convention : Reuss Voigt Hill
#
# Bulk Modulus (GPa) = 57.60630 58.06359 57.83495
# Shear Modulus (GPa) = 19.50269 23.00214 21.25242
#
# Velocity S-wave (km/s) = 3.28444 3.56696 3.42862
# Velocity P-wave (km/s) = 6.80054 7.00580 6.90393
#
# Compressibility (1/GPa) = 0.01735921
#
# Stress axis : x y z
#
# Youngs Moduli (GPa) = 78.22280 57.84513 44.01621
#
# Poissons Ratio (x) = 0.07889 0.30207
# Poissons Ratio (y) = 0.10668 0.41767
# Poissons Ratio (z) = 0.53682 0.54890
#
# Static dielectric constant tensor:
#      x y z
#    x 1.617370 0.000000 0.000000 
#    y 0.000000 1.634920 0.000000 
#    z 0.000000 0.000000 1.608950 
# 
# From -- ./inp_files/6556.got.cif
#   From: 2010.05.17/outbox.cif.g08.bks.cpg/sg57_4_cif.got.tgz:6556.got - 2010.06.03 13:58:18.
