data_PCOD9435429
_publ_section_title
;
Structure prediction by ZEFSAII (Michael W. Deem and Ramdas Pophale) SiO2 
 PCOD9435429
Probable space group: P B C M
;
_chemical_formula_sum "Si O2"
_cell_formula_units_Z 64
_cell_length_a 21.833928
_cell_length_b 19.587174
_cell_length_c 8.931571
_cell_angle_alpha 90.000000
_cell_angle_beta 90.000000
_cell_angle_gamma 90.000000
_cell_volume 3819.719837
_symmetry_space_group_name_H-M "P B C M"
_symmetry_group_IT_number 57
_symmetry_cell_setting 'orthorhombic'
loop_
_space_group_symop_operation_xyz
x,y,z
-x,-y,1/2+z
x,1/2-y,-z
-x,1/2+y,1/2-z
-x,-y,-z
x,y,1/2-z
-x,1/2+y,z
x,1/2-y,1/2+z
loop_
_atom_site_type_symbol
_atom_site_label
_atom_site_fract_x
_atom_site_fract_y
_atom_site_fract_z
Si Si1 0.314317 0.056388 0.569761
Si Si2 0.772888 0.379531 0.424851
Si Si3 0.899606 0.319154 0.425879
Si Si4 0.183141 0.015163 0.574322
Si Si5 0.394255 0.324120 0.929027
Si Si6 0.062029 0.528109 0.929618
Si Si7 0.537484 0.323933 0.571924
Si Si8 0.359112 0.586126 0.927093
O O1 0.319246 0.052605 0.750000
O O2 0.241581 0.061558 0.532620
O O3 0.351817 0.119312 0.504190
O O4 0.341147 0.986675 0.498492
O O5 0.779497 0.403495 0.250000
O O6 0.825753 0.324267 0.445530
O O7 0.790584 0.440033 0.536806
O O8 0.701284 0.365702 0.446288
O O9 0.922866 0.250000 0.500000
O O10 0.911984 0.315140 0.250000
O O11 0.925653 0.392736 0.477779
O O12 0.170512 0.022757 0.750000
O O13 0.119966 0.016869 0.483954
O O14 0.385355 0.322266 0.750000
O O15 0.466068 0.340279 0.957806
O O16 0.382249 0.250000 0.000000
O O17 0.059363 0.527185 0.750000
O O18 0.000000 0.500000 0.000000
O O19 0.550140 0.250000 0.500000
O O20 0.545976 0.319928 0.750000
O O21 0.582776 0.379521 0.503116
O O22 0.369336 0.577469 0.750000
#
# Coordination Sequence:
#
# PCOD9435429 Si02
#       8
#     8   8   8   8   8   8   8   8
#     4  10  20  34  54  79 105 132 166 211 257 305
#     4   8  16  30  45  66  97 130 164 201 241 287
#     4   9  18  31  47  70 100 132 167 206 244 286
#     4   9  17  30  50  76 102 128 159 197 242 291
#     4  10  21  37  56  75  97 129 169 214 266 321
#     4  10  20  34  53  77 105 138 174 210 248 295
#     4  10  21  36  51  69  96 131 171 214 261 315
#     4  10  19  32  51  74 102 136 172 211 256 303
#
# _framework density 16.755154999999998
#
# number of rings (size 3 to 8) (size 9 to 14) (size 15 to 20)
#    0.000    2.500    0.000    3.000    0.000    7.000 
#    0.000    1.250    0.000    0.750    0.000    3.500 
#    0.000    0.000    0.000    0.000    0.000    0.000 
#
# Total GULP energy -356547.497755 kJ/mol
# GULP energy per Si atom -5571.054652 kJ/mol
# Density = 1.671702 g / cm^3
# Si number density = 16.755155 Si / 1000 Ang^3
#
#
#
# Elastic Constant Matrix: (Units=GPa)
#
#
# Indices 1 2 3 4 5 6 
#
# 1 129.2182 75.8210 67.3305 0.0000 0.0000 0.0000
# 2 75.8210 85.4907 46.4224 0.0000 0.0000 0.0000
# 3 67.3305 46.4224 66.7601 0.0000 0.0000 0.0000
# 4 0.0000 0.0000 0.0000 28.7805 0.0000 0.0000
# 5 0.0000 0.0000 0.0000 0.0000 26.1967 0.0000
# 6 0.0000 0.0000 0.0000 0.0000 0.0000 11.4337
#
#
#
# Elastic Compliance Matrix: (Units=1/GPa)
#
#
# Indices 1 2 3 4 5 6 
#
# 1 0.021976 -0.011978 -0.013835 0.000000 0.000000 0.000000
# 2 -0.011978 0.025322 -0.005528 0.000000 0.000000 0.000000
# 3 -0.013835 -0.005528 0.032775 0.000000 0.000000 0.000000
# 4 0.000000 0.000000 0.000000 0.034746 0.000000 0.000000
# 5 0.000000 0.000000 0.000000 0.000000 0.038173 0.000000
# 6 0.000000 0.000000 0.000000 0.000000 0.000000 0.087460
#
#
# Mechanical properties :
#
#
# Convention : Reuss Voigt Hill
#
# Bulk Modulus (GPa) = 57.49464 73.40185 65.44825
# Shear Modulus (GPa) = 16.18495 19.40853 17.79674
#
# Velocity S-wave (km/s) = 3.11138 3.40716 3.26262
# Velocity P-wave (km/s) = 6.87725 7.70597 7.30338
#
# Compressibility (1/GPa) = 0.01739293
#
# Stress axis : x y z
#
# Youngs Moduli (GPa) = 45.50510 39.49193 30.51061
#
# Poissons Ratio (x) = 0.47302 0.42210
# Poissons Ratio (y) = 0.54504 0.16865
# Poissons Ratio (z) = 0.62954 0.21830
#
# Static dielectric constant tensor:
#      x y z
#    x 1.582770 0.000000 0.000000 
#    y 0.000000 1.547940 0.000000 
#    z 0.000000 0.000000 1.577710 
# 
# From -- ./inp_files/8467.got.cif
#   From: 2010.05.17/outbox.cif.g08.bks.cpg/sg57_5_cif.got.tgz:8467.got - 2010.06.03 13:58:18.
