data_PCOD9435297
_publ_section_title
;
Structure prediction by ZEFSAII (Michael W. Deem and Ramdas Pophale) SiO2 
 PCOD9435297
Probable space group: P B C M
;
_chemical_formula_sum "Si O2"
_cell_formula_units_Z 56
_cell_length_a 23.110599
_cell_length_b 14.790304
_cell_length_c 8.393982
_cell_angle_alpha 90.000000
_cell_angle_beta 90.000000
_cell_angle_gamma 90.000000
_cell_volume 2869.170363
_symmetry_space_group_name_H-M "P B C M"
_symmetry_group_IT_number 57
_symmetry_cell_setting 'orthorhombic'
loop_
_space_group_symop_operation_xyz
x,y,z
-x,-y,1/2+z
x,1/2-y,-z
-x,1/2+y,1/2-z
-x,-y,-z
x,y,1/2-z
-x,1/2+y,z
x,1/2-y,1/2+z
loop_
_atom_site_type_symbol
_atom_site_label
_atom_site_fract_x
_atom_site_fract_y
_atom_site_fract_z
Si Si1 0.471458 0.650896 0.057696
Si Si2 0.364116 0.964905 0.940494
Si Si3 0.982172 0.401073 0.058197
Si Si4 0.104875 0.155643 0.941003
Si Si5 0.140024 0.957037 0.057053
Si Si6 0.745132 0.352702 0.441026
Si Si7 0.395872 0.151741 0.440229
O O1 0.472161 0.650235 0.250000
O O2 0.425328 0.577126 0.001626
O O3 0.537495 0.637881 0.001334
O O4 0.452544 0.750000 0.000000
O O5 0.364618 0.964384 0.750000
O O6 0.312586 0.901996 0.000034
O O7 0.359278 0.067275 0.999901
O O8 0.981976 0.395171 0.250000
O O9 0.915423 0.395585 0.005076
O O10 0.037514 0.345007 0.000353
O O11 0.000000 0.500000 0.000000
O O12 0.105678 0.154682 0.750000
O O13 0.131767 0.250000 0.000000
O O14 0.132049 0.060509 0.998836
O O15 0.139392 0.960046 0.250000
O O16 0.199067 0.910128 0.003627
O O17 0.747787 0.250000 0.500000
O O18 0.745218 0.352212 0.250000
O O19 0.376732 0.250000 0.500000
O O20 0.396415 0.152297 0.250000
#
# Coordination Sequence:
#
# PCOD9435297 Si02
#       7
#     8   8   8   8   8   8   8
#     4   9  19  33  53  82 114 147 182 222 270 323
#     4  11  22  37  57  82 112 147 186 228 273 322
#     4   8  15  29  49  74 103 137 174 215 262 313
#     4  10  19  31  52  82 114 145 179 219 269 325
#     4   9  19  37  57  77 107 144 184 227 271 319
#     4  11  24  41  60  82 108 142 183 228 274 322
#     4  10  20  36  57  83 114 146 181 223 272 328
#
# _framework density 19.517837
#
# number of rings (size 3 to 8) (size 9 to 14) (size 15 to 20)
#    0.000    2.286    0.000    2.571    0.000    5.143 
#    0.000    0.714    0.000    3.429    0.000    0.000 
#    0.000    0.000    0.000    0.000    0.000    0.000 
#
# Total GULP energy -312279.230940 kJ/mol
# GULP energy per Si atom -5576.414838 kJ/mol
# Density = 1.947341 g / cm^3
# Si number density = 19.517837 Si / 1000 Ang^3
#
#
#
# Elastic Constant Matrix: (Units=GPa)
#
#
# Indices 1 2 3 4 5 6 
#
# 1 48.1872 53.8567 15.0696 0.0000 0.0000 0.0000
# 2 53.8567 161.7463 21.2590 0.0000 0.0000 0.0000
# 3 15.0696 21.2590 27.0815 0.0000 0.0000 0.0000
# 4 0.0000 0.0000 0.0000 30.4052 0.0000 0.0000
# 5 0.0000 0.0000 0.0000 0.0000 20.9335 0.0000
# 6 0.0000 0.0000 0.0000 0.0000 0.0000 26.7554
#
#
#
# Elastic Compliance Matrix: (Units=1/GPa)
#
#
# Indices 1 2 3 4 5 6 
#
# 1 0.036199 -0.010488 -0.011910 0.000000 0.000000 0.000000
# 2 -0.010488 0.009932 -0.001961 0.000000 0.000000 0.000000
# 3 -0.011910 -0.001961 0.045092 0.000000 0.000000 0.000000
# 4 0.000000 0.000000 0.000000 0.032889 0.000000 0.000000
# 5 0.000000 0.000000 0.000000 0.000000 0.047770 0.000000
# 6 0.000000 0.000000 0.000000 0.000000 0.000000 0.037376
#
#
# Mechanical properties :
#
#
# Convention : Reuss Voigt Hill
#
# Bulk Modulus (GPa) = 23.52612 46.37618 34.95115
# Shear Modulus (GPa) = 18.37259 25.40747 21.89003
#
# Velocity S-wave (km/s) = 3.07143 3.61190 3.35257
# Velocity P-wave (km/s) = 4.96569 6.41926 5.73868
#
# Compressibility (1/GPa) = 0.04250595
#
# Stress axis : x y z
#
# Youngs Moduli (GPa) = 27.62537 100.68119 22.17665
#
# Poissons Ratio (x) = 1.05591 0.26413
# Poissons Ratio (y) = 0.28973 0.04349
# Poissons Ratio (z) = 0.32902 0.19744
#
# Static dielectric constant tensor:
#      x y z
#    x 1.715100 0.000000 0.000000 
#    y 0.000000 1.673890 0.000000 
#    z 0.000000 0.000000 1.667880 
# 
# From -- ./inp_files/8002.got.cif
#   From: 2010.05.17/outbox.cif.g08.bks.cpg/sg57_5_cif.got.tgz:8002.got - 2010.06.03 13:58:18.
