data_PCOD9435242
_publ_section_title
;
Structure prediction by ZEFSAII (Michael W. Deem and Ramdas Pophale) SiO2 
 PCOD9435242
Probable space group: P B C M
;
_chemical_formula_sum "Si O2"
_cell_formula_units_Z 48
_cell_length_a 15.511893
_cell_length_b 20.133014
_cell_length_c 8.886158
_cell_angle_alpha 90.000000
_cell_angle_beta 90.000000
_cell_angle_gamma 90.000000
_cell_volume 2775.157442
_symmetry_space_group_name_H-M "P B C M"
_symmetry_group_IT_number 57
_symmetry_cell_setting 'orthorhombic'
loop_
_space_group_symop_operation_xyz
x,y,z
-x,-y,1/2+z
x,1/2-y,-z
-x,1/2+y,1/2-z
-x,-y,-z
x,y,1/2-z
-x,1/2+y,z
x,1/2-y,1/2+z
loop_
_atom_site_type_symbol
_atom_site_label
_atom_site_fract_x
_atom_site_fract_y
_atom_site_fract_z
Si Si1 0.462618 0.432171 0.429762
Si Si2 0.896693 0.930189 0.423673
Si Si3 0.413209 0.677707 0.070354
Si Si4 0.749521 0.109782 0.573663
Si Si5 0.927362 0.090212 0.076386
Si Si6 0.281134 0.451040 0.573559
O O1 0.500000 0.500000 0.500000
O O2 0.471708 0.433826 0.250000
O O3 0.517553 0.372457 0.499124
O O4 0.363121 0.427983 0.478687
O O5 0.888371 0.910079 0.250000
O O6 0.808069 0.920574 0.513294
O O7 0.980219 0.897856 0.500489
O O8 0.913529 0.010027 0.425134
O O9 0.420771 0.678917 0.250000
O O10 0.425297 0.750000 0.000000
O O11 0.319466 0.650448 0.021750
O O12 0.742530 0.126609 0.750000
O O13 0.846549 0.119191 0.514338
O O14 0.727375 0.031230 0.557995
O O15 0.926258 0.111466 0.250000
O O16 0.293443 0.436773 0.750000
#
# Coordination Sequence:
#
# PCOD9435242 Si02
#       6
#     8   8   8   8   8   8
#     4  12  23  37  57  82 110 144 186 231 281 335
#     4   9  16  26  41  66 101 137 174 216 265 316
#     4  12  25  41  59  80 110 145 185 231 281 336
#     4  10  19  32  51  75 105 140 180 221 270 326
#     4   9  16  26  42  66  99 137 175 213 262 316
#     4  10  19  31  50  76 107 141 180 224 274 327
#
# _framework density 17.296316000000001
#
# number of rings (size 3 to 8) (size 9 to 14) (size 15 to 20)
#    0.000    1.667    1.667    5.000    0.000    5.333 
#    0.000    0.000    0.000    0.000    0.000    1.167 
#    0.000    0.000    0.000    0.000    0.000    0.000 
#
# Total GULP energy -268041.509076 kJ/mol
# GULP energy per Si atom -5584.198106 kJ/mol
# Density = 1.725695 g / cm^3
# Si number density = 17.296316 Si / 1000 Ang^3
#
#
#
# Elastic Constant Matrix: (Units=GPa)
#
#
# Indices 1 2 3 4 5 6 
#
# 1 148.3382 48.5375 77.6079 0.0000 0.0000 0.0000
# 2 48.5375 54.4588 51.9725 0.0000 0.0000 0.0000
# 3 77.6079 51.9725 180.2562 0.0000 0.0000 0.0000
# 4 0.0000 0.0000 0.0000 18.7674 0.0000 0.0000
# 5 0.0000 0.0000 0.0000 0.0000 38.3465 0.0000
# 6 0.0000 0.0000 0.0000 0.0000 0.0000 7.1953
#
#
#
# Elastic Compliance Matrix: (Units=1/GPa)
#
#
# Indices 1 2 3 4 5 6 
#
# 1 0.010247 -0.006791 -0.002454 0.000000 0.000000 0.000000
# 2 -0.006791 0.029834 -0.005678 0.000000 0.000000 0.000000
# 3 -0.002454 -0.005678 0.008241 0.000000 0.000000 0.000000
# 4 0.000000 0.000000 0.000000 0.053284 0.000000 0.000000
# 5 0.000000 0.000000 0.000000 0.000000 0.026078 0.000000
# 6 0.000000 0.000000 0.000000 0.000000 0.000000 0.138979
#
#
# Mechanical properties :
#
#
# Convention : Reuss Voigt Hill
#
# Bulk Modulus (GPa) = 54.12294 82.14321 68.13307
# Shear Modulus (GPa) = 16.51973 26.52421 21.52197
#
# Velocity S-wave (km/s) = 3.09382 3.92026 3.53130
# Velocity P-wave (km/s) = 6.64243 8.25143 7.49026
#
# Compressibility (1/GPa) = 0.01847645
#
# Stress axis : x y z
#
# Youngs Moduli (GPa) = 97.58657 33.51861 121.34126
#
# Poissons Ratio (x) = 0.22764 0.29774
# Poissons Ratio (y) = 0.66275 0.68897
# Poissons Ratio (z) = 0.23946 0.19032
#
# Static dielectric constant tensor:
#      x y z
#    x 1.581620 0.000000 0.000000 
#    y 0.000000 1.568640 0.000000 
#    z 0.000000 0.000000 1.575540 
# 
# From -- ./inp_files/4601.got.cif
#   From: 2010.05.17/outbox.cif.g08.bks.cpg/sg57_3_cif.got.tgz:4601.got - 2010.06.03 13:58:18.
