data_PCOD9435600
_publ_section_title
;
Structure prediction by ZEFSAII (Michael W. Deem and Ramdas Pophale) SiO2 
 PCOD9435600
Probable space group: P B C M
;
_chemical_formula_sum "Si O2"
_cell_formula_units_Z 64
_cell_length_a 9.983999
_cell_length_b 17.530859
_cell_length_c 15.701692
_cell_angle_alpha 90.000000
_cell_angle_beta 90.000000
_cell_angle_gamma 90.000000
_cell_volume 2748.236983
_symmetry_space_group_name_H-M "P B C M"
_symmetry_group_IT_number 57
_symmetry_cell_setting 'orthorhombic'
loop_
_space_group_symop_operation_xyz
x,y,z
-x,-y,1/2+z
x,1/2-y,-z
-x,1/2+y,1/2-z
-x,-y,-z
x,y,1/2-z
-x,1/2+y,z
x,1/2-y,1/2+z
loop_
_atom_site_type_symbol
_atom_site_label
_atom_site_fract_x
_atom_site_fract_y
_atom_site_fract_z
Si Si1 0.444331 0.643939 0.839358
Si Si2 0.213714 0.562328 0.398421
Si Si3 0.242321 0.542453 0.908195
Si Si4 0.974917 0.338832 0.107429
Si Si5 0.292629 0.126401 0.087849
Si Si6 0.732537 0.895527 0.116489
Si Si7 0.579037 0.201962 0.410720
Si Si8 0.001396 0.328059 0.600135
O O1 0.402723 0.608403 0.750000
O O2 0.380560 0.589897 0.910547
O O3 0.603650 0.644959 0.845325
O O4 0.392292 0.729304 0.846759
O O5 0.188851 0.534540 0.495489
O O6 0.268888 0.484999 0.358013
O O7 0.316272 0.633058 0.403550
O O8 0.076631 0.598733 0.363884
O O9 0.133784 0.598380 0.866047
O O10 0.274160 0.458662 0.874985
O O11 0.943481 0.252038 0.131941
O O12 0.121938 0.362911 0.137618
O O13 0.980355 0.334575 0.002984
O O14 0.432280 0.167080 0.105837
O O15 0.159996 0.171784 0.114503
O O16 0.287034 0.116886 0.985157
O O17 0.581029 0.250000 0.500000
#
# Coordination Sequence:
#
# PCOD9435600 Si02
#       8
#     8   8   8   8   8   8   8   8
#     4  12  25  39  55  79 113 152 190 232 283 339
#     4  10  19  32  57  86 113 141 183 232 280 326
#     4  10  19  35  55  84 112 145 183 228 278 334
#     4   9  17  29  54  80 116 146 178 222 279 333
#     4  10  19  32  57  86 113 141 183 232 280 326
#     4  10  19  35  55  84 112 145 183 228 278 334
#     4  12  21  35  56  81 110 149 193 238 279 331
#     4   9  17  27  49  88 119 141 169 226 289 329
#
# _framework density 23.287655999999998
#
# number of rings (size 3 to 8) (size 9 to 14) (size 15 to 20)
#    0.000    1.750    2.500    3.000    3.500    5.000 
#    0.000    3.125    0.000    0.000    0.000    1.750 
#    0.000    0.000    0.000    0.000    0.000    0.000 
#
# Total GULP energy -357374.413662 kJ/mol
# GULP energy per Si atom -5583.975213 kJ/mol
# Density = 2.323465 g / cm^3
# Si number density = 23.287656 Si / 1000 Ang^3
#
#
#
# Elastic Constant Matrix: (Units=GPa)
#
#
# Indices 1 2 3 4 5 6 
#
# 1 94.7096 8.4410 -2.2413 0.0000 0.0000 0.0000
# 2 8.4410 114.2024 2.4629 0.0000 0.0000 0.0000
# 3 -2.2413 2.4629 24.4133 0.0000 0.0000 0.0000
# 4 0.0000 0.0000 0.0000 -6.3623 0.0000 0.0000
# 5 0.0000 0.0000 0.0000 0.0000 -18.0170 0.0000
# 6 0.0000 0.0000 0.0000 0.0000 0.0000 36.6789
#
#
#
# Elastic Compliance Matrix: (Units=1/GPa)
#
#
# Indices 1 2 3 4 5 6 
#
# 1 0.010656 -0.000810 0.001060 0.000000 0.000000 0.000000
# 2 -0.000810 0.008837 -0.000966 0.000000 0.000000 0.000000
# 3 0.001060 -0.000966 0.041156 0.000000 0.000000 0.000000
# 4 0.000000 0.000000 0.000000 -0.157177 0.000000 0.000000
# 5 0.000000 0.000000 0.000000 0.000000 -0.055503 0.000000
# 6 0.000000 0.000000 0.000000 0.000000 0.000000 0.027264
#
#
# Mechanical properties :
#
#
# Convention : Reuss Voigt Hill
#
# Bulk Modulus (GPa) = 16.88720 27.85004 22.36862
# Shear Modulus (GPa) = -48.26439 17.43745 -15.41347
#
# Velocity S-wave (km/s) = -4.55744 2.73936 -2.57548
# Velocity P-wave (km/s) = 4.51956 4.68941 0.88435
#
# Compressibility (1/GPa) = 0.05921643
#
# Stress axis : x y z
#
# Youngs Moduli (GPa) = 93.84462 113.15902 24.29774
#
# Poissons Ratio (x) = 0.09171 -0.02576
# Poissons Ratio (y) = 0.07606 0.02347
# Poissons Ratio (z) = -0.09948 0.10930
#
# Static dielectric constant tensor:
#      x y z
#    x 1.855680 0.000000 0.000000 
#    y 0.000000 1.862430 0.000000 
#    z 0.000000 0.000000 1.880690 
# 
# From -- ./inp_files/24594.got.cif
#   From: 2010.05.17/outbox.cif.g08.bks.cpg/sg57_13_cif.got.tgz:24594.got - 2010.06.03 13:58:18.
