data_PCOD9435635
_publ_section_title
;
Structure prediction by ZEFSAII (Michael W. Deem and Ramdas Pophale) SiO2 
 PCOD9435635
Probable space group: P B C M
;
_chemical_formula_sum "Si O2"
_cell_formula_units_Z 48
_cell_length_a 12.157164
_cell_length_b 26.143816
_cell_length_c 8.463659
_cell_angle_alpha 90.000000
_cell_angle_beta 90.000000
_cell_angle_gamma 90.000000
_cell_volume 2690.044170
_symmetry_space_group_name_H-M "P B C M"
_symmetry_group_IT_number 57
_symmetry_cell_setting 'orthorhombic'
loop_
_space_group_symop_operation_xyz
x,y,z
-x,-y,1/2+z
x,1/2-y,-z
-x,1/2+y,1/2-z
-x,-y,-z
x,y,1/2-z
-x,1/2+y,z
x,1/2-y,1/2+z
loop_
_atom_site_type_symbol
_atom_site_label
_atom_site_fract_x
_atom_site_fract_y
_atom_site_fract_z
Si Si1 0.621189 0.306890 0.060265
Si Si2 0.376326 0.193123 0.060313
Si Si3 0.623965 0.500156 0.440638
Si Si4 0.999078 0.558408 0.560555
Si Si5 0.768205 0.597566 0.441094
Si Si6 0.765143 0.098011 0.557317
O O1 0.618863 0.306178 0.250000
O O2 0.708755 0.349248 0.005952
O O3 0.646747 0.250000 0.000000
O O4 0.498516 0.320280 0.000941
O O5 0.380090 0.193898 0.250000
O O6 0.288480 0.150562 0.008932
O O7 0.350171 0.250000 0.000000
O O8 0.500000 0.500000 0.500000
O O9 0.622792 0.500128 0.250000
O O10 0.690215 0.550537 0.492128
O O11 0.689529 0.449678 0.492993
O O12 0.000427 0.556669 0.750000
O O13 0.889681 0.586881 0.503887
O O14 0.000000 0.500000 0.500000
O O15 0.110343 0.586916 0.506078
O O16 0.772430 0.597023 0.250000
O O17 0.765466 0.098388 0.750000
#
# Coordination Sequence:
#
# PCOD9435635 Si02
#       6
#     8   8   8   8   8   8
#     4  10  19  34  56  80 108 142 179 219 267 322
#     4  10  20  35  56  81 111 144 178 223 271 321
#     4  10  19  33  51  75 108 136 169 217 268 321
#     4  11  21  37  58  79 107 145 185 223 271 327
#     4  10  21  37  55  78 110 142 179 227 273 317
#     4   9  19  35  54  75 106 142 174 216 268 318
#
# _framework density 17.843574
#
# number of rings (size 3 to 8) (size 9 to 14) (size 15 to 20)
#    0.000    2.000    1.667    3.500    0.000    2.000 
#    0.000    5.000    0.000    4.000    0.000    0.000 
#    0.000    0.000    0.000    0.000    0.000    0.000 
#
# Total GULP energy -267985.177747 kJ/mol
# GULP energy per Si atom -5583.024536 kJ/mol
# Density = 1.780296 g / cm^3
# Si number density = 17.843574 Si / 1000 Ang^3
#
#
#
# Elastic Constant Matrix: (Units=GPa)
#
#
# Indices 1 2 3 4 5 6 
#
# 1 198.3665 123.3974 28.7970 0.0000 0.0000 0.0000
# 2 123.3974 151.7899 30.8300 0.0000 0.0000 0.0000
# 3 28.7970 30.8300 29.0476 0.0000 0.0000 0.0000
# 4 0.0000 0.0000 0.0000 21.4853 0.0000 0.0000
# 5 0.0000 0.0000 0.0000 0.0000 30.6568 0.0000
# 6 0.0000 0.0000 0.0000 0.0000 0.0000 44.8578
#
#
#
# Elastic Compliance Matrix: (Units=1/GPa)
#
#
# Indices 1 2 3 4 5 6 
#
# 1 0.010263 -0.008002 -0.001682 0.000000 0.000000 0.000000
# 2 -0.008002 0.014637 -0.007603 0.000000 0.000000 0.000000
# 3 -0.001682 -0.007603 0.044163 0.000000 0.000000 0.000000
# 4 0.000000 0.000000 0.000000 0.046544 0.000000 0.000000
# 5 0.000000 0.000000 0.000000 0.000000 0.032619 0.000000
# 6 0.000000 0.000000 0.000000 0.000000 0.000000 0.022293
#
#
# Mechanical properties :
#
#
# Convention : Reuss Voigt Hill
#
# Bulk Modulus (GPa) = 28.99336 82.80584 55.89960
# Shear Modulus (GPa) = 23.08540 32.47862 27.78201
#
# Velocity S-wave (km/s) = 3.60080 4.27099 3.95013
# Velocity P-wave (km/s) = 5.79410 8.41600 7.22498
#
# Compressibility (1/GPa) = 0.03449066
#
# Stress axis : x y z
#
# Youngs Moduli (GPa) = 97.43887 68.31943 22.64351
#
# Poissons Ratio (x) = 0.54666 0.03808
# Poissons Ratio (y) = 0.77967 0.17215
# Poissons Ratio (z) = 0.16387 0.51941
#
# Static dielectric constant tensor:
#      x y z
#    x 1.585280 0.000000 0.000000 
#    y 0.000000 1.600700 0.000000 
#    z 0.000000 0.000000 1.614540 
# 
# From -- ./inp_files/3259.got.cif
#   From: 2010.05.17/outbox.cif.g08.bks.cpg/sg57_2_cif.got.tgz:3259.got - 2010.06.03 13:58:18.
