data_PCOD9435143
_publ_section_title
;
Structure prediction by ZEFSAII (Michael W. Deem and Ramdas Pophale) SiO2 
 PCOD9435143
Probable space group: P B C M
;
_chemical_formula_sum "Si O2"
_cell_formula_units_Z 48
_cell_length_a 32.830699
_cell_length_b 9.177078
_cell_length_c 8.521250
_cell_angle_alpha 90.000000
_cell_angle_beta 90.000000
_cell_angle_gamma 90.000000
_cell_volume 2567.366437
_symmetry_space_group_name_H-M "P B C M"
_symmetry_group_IT_number 57
_symmetry_cell_setting 'orthorhombic'
loop_
_space_group_symop_operation_xyz
x,y,z
-x,-y,1/2+z
x,1/2-y,-z
-x,1/2+y,1/2-z
-x,-y,-z
x,y,1/2-z
-x,1/2+y,z
x,1/2-y,1/2+z
loop_
_atom_site_type_symbol
_atom_site_label
_atom_site_fract_x
_atom_site_fract_y
_atom_site_fract_z
Si Si1 0.382361 0.414078 0.437172
Si Si2 0.304186 0.583517 0.939267
Si Si3 0.038907 0.585008 0.938193
Si Si4 0.460732 0.585699 0.937298
Si Si5 0.214806 0.583657 0.560638
Si Si6 0.872629 0.416818 0.439658
O O1 0.384552 0.250000 0.500000
O O2 0.384632 0.413833 0.250000
O O3 0.340468 0.488659 0.491735
O O4 0.420066 0.505698 0.504500
O O5 0.306799 0.584557 0.750000
O O6 0.259126 0.524716 0.987134
O O7 0.307663 0.750000 0.000000
O O8 0.037809 0.586128 0.750000
O O9 0.083325 0.521465 0.988971
O O10 0.037027 0.750000 0.000000
O O11 0.000000 0.500000 0.000000
O O12 0.461478 0.586931 0.750000
O O13 0.461373 0.750000 0.000000
O O14 0.500000 0.500000 0.000000
O O15 0.214616 0.750000 0.500000
O O16 0.214768 0.585536 0.750000
O O17 0.171126 0.517733 0.508973
O O18 0.872614 0.250000 0.500000
O O19 0.872568 0.414927 0.250000
#
# Coordination Sequence:
#
# PCOD9435143 Si02
#       6
#     8   8   8   8   8   8
#     4  12  25  42  61  84 114 151 191 232 275 323
#     4  10  19  33  54  82 112 143 177 219 267 319
#     4  10  19  31  48  70  98 130 168 211 260 313
#     4  12  25  44  67  94 124 156 192 232 277 325
#     4   8  14  25  44  70 100 130 165 208 258 310
#     4   8  14  25  42  66  94 126 162 206 255 308
#
# _framework density 18.696203000000001
#
# number of rings (size 3 to 8) (size 9 to 14) (size 15 to 20)
#    0.000    2.000    0.000    5.000    0.000    1.333 
#    0.000    0.000    0.000    1.000    0.000    0.000 
#    0.000    0.000    0.000    0.000    0.000    0.000 
#
# Total GULP energy -267639.026191 kJ/mol
# GULP energy per Si atom -5575.813046 kJ/mol
# Density = 1.865365 g / cm^3
# Si number density = 18.696203 Si / 1000 Ang^3
#
#
#
# Elastic Constant Matrix: (Units=GPa)
#
#
# Indices 1 2 3 4 5 6 
#
# 1 251.1875 83.2412 64.5899 0.0000 0.0000 0.0000
# 2 83.2412 85.1968 35.9599 0.0000 0.0000 0.0000
# 3 64.5899 35.9599 103.6463 0.0000 0.0000 0.0000
# 4 0.0000 0.0000 0.0000 27.5372 0.0000 0.0000
# 5 0.0000 0.0000 0.0000 0.0000 24.0319 0.0000
# 6 0.0000 0.0000 0.0000 0.0000 0.0000 42.0354
#
#
#
# Elastic Compliance Matrix: (Units=1/GPa)
#
#
# Indices 1 2 3 4 5 6 
#
# 1 0.006248 -0.005227 -0.002080 0.000000 0.000000 0.000000
# 2 -0.005227 0.018123 -0.003031 0.000000 0.000000 0.000000
# 3 -0.002080 -0.003031 0.011996 0.000000 0.000000 0.000000
# 4 0.000000 0.000000 0.000000 0.036315 0.000000 0.000000
# 5 0.000000 0.000000 0.000000 0.000000 0.041611 0.000000
# 6 0.000000 0.000000 0.000000 0.000000 0.000000 0.023789
#
#
# Mechanical properties :
#
#
# Convention : Reuss Voigt Hill
#
# Bulk Modulus (GPa) = 63.72587 89.73474 76.73031
# Shear Modulus (GPa) = 30.48986 35.80355 33.14671
#
# Velocity S-wave (km/s) = 4.04270 4.38084 4.21516
# Velocity P-wave (km/s) = 7.47999 8.58425 8.05108
#
# Compressibility (1/GPa) = 0.01569221
#
# Stress axis : x y z
#
# Youngs Moduli (GPa) = 160.04994 55.17738 83.36042
#
# Poissons Ratio (x) = 0.28839 0.17341
# Poissons Ratio (y) = 0.83651 0.25265
# Poissons Ratio (z) = 0.33295 0.16723
#
# Static dielectric constant tensor:
#      x y z
#    x 1.714000 0.000000 0.000000 
#    y 0.000000 1.598760 0.000000 
#    z 0.000000 0.000000 1.641560 
# 
# From -- ./inp_files/10082.got.cif
#   From: 2010.05.17/outbox.cif.g08.bks.cpg/sg57_6_cif.got.tgz:10082.got - 2010.06.03 13:58:18.
