data_PCOD9435408
_publ_section_title
;
Structure prediction by ZEFSAII (Michael W. Deem and Ramdas Pophale) SiO2 
 PCOD9435408
Probable space group: P B C M
;
_chemical_formula_sum "Si O2"
_cell_formula_units_Z 64
_cell_length_a 23.854409
_cell_length_b 17.847479
_cell_length_c 8.709758
_cell_angle_alpha 90.000000
_cell_angle_beta 90.000000
_cell_angle_gamma 90.000000
_cell_volume 3708.101635
_symmetry_space_group_name_H-M "P B C M"
_symmetry_group_IT_number 57
_symmetry_cell_setting 'orthorhombic'
loop_
_space_group_symop_operation_xyz
x,y,z
-x,-y,1/2+z
x,1/2-y,-z
-x,1/2+y,1/2-z
-x,-y,-z
x,y,1/2-z
-x,1/2+y,z
x,1/2-y,1/2+z
loop_
_atom_site_type_symbol
_atom_site_label
_atom_site_fract_x
_atom_site_fract_y
_atom_site_fract_z
Si Si1 0.573463 0.602725 0.434954
Si Si2 0.630109 0.445005 0.066190
Si Si3 0.067603 0.332442 0.935060
Si Si4 0.864978 0.976232 0.065330
Si Si5 0.741751 0.524901 0.065578
Si Si6 0.033497 0.570761 0.434427
Si Si7 0.317564 0.170967 0.932633
Si Si8 0.454449 0.832652 0.567049
O O1 0.579033 0.611810 0.250000
O O2 0.592996 0.518570 0.472701
O O3 0.618245 0.656351 0.516421
O O4 0.510273 0.621605 0.480987
O O5 0.628677 0.436326 0.250000
O O6 0.693847 0.464608 0.020994
O O7 0.600842 0.374823 0.989422
O O8 0.071706 0.330972 0.750000
O O9 0.003738 0.357542 0.981011
O O10 0.080628 0.250000 0.000000
O O11 0.107403 0.399755 0.997076
O O12 0.865295 0.969248 0.250000
O O13 0.903206 0.048689 0.021286
O O14 0.802555 0.987081 0.004526
O O15 0.744660 0.526502 0.250000
O O16 0.718027 0.604028 0.006161
O O17 0.031581 0.569494 0.250000
O O18 0.000000 0.500000 0.500000
O O19 0.312962 0.169685 0.750000
O O20 0.298778 0.250000 0.000000
O O21 0.458118 0.750000 0.500000
O O22 0.454548 0.829201 0.750000
#
# Coordination Sequence:
#
# PCOD9435408 Si02
#       8
#     8   8   8   8   8   8   8   8
#     4   9  19  35  53  76 103 132 165 205 252 307
#     4   9  19  36  55  74 101 132 167 211 257 303
#     4  10  19  32  50  76 109 141 168 202 248 295
#     4  10  19  33  53  77 101 131 172 212 248 294
#     4  10  21  37  54  74 100 132 170 212 254 299
#     4   8  16  30  49  72 100 131 165 202 240 282
#     4  11  21  33  50  72 100 135 170 207 250 300
#     4  11  22  34  52  77 104 132 166 207 257 310
#
# _framework density 17.259505999999998
#
# number of rings (size 3 to 8) (size 9 to 14) (size 15 to 20)
#    0.000    2.250    0.000    4.125    0.000    6.000 
#    0.000    2.500    0.000    0.750    0.000    3.500 
#    0.000    0.000    0.000    0.000    0.000    0.000 
#
# Total GULP energy -356852.763397 kJ/mol
# GULP energy per Si atom -5575.824428 kJ/mol
# Density = 1.722022 g / cm^3
# Si number density = 17.259506 Si / 1000 Ang^3
#
#
#
# Elastic Constant Matrix: (Units=GPa)
#
#
# Indices 1 2 3 4 5 6 
#
# 1 138.4738 38.2492 32.4528 0.0000 0.0000 0.0000
# 2 38.2492 40.2413 17.1353 0.0000 0.0000 0.0000
# 3 32.4528 17.1353 36.7657 0.0000 0.0000 0.0000
# 4 0.0000 0.0000 0.0000 20.6897 0.0000 0.0000
# 5 0.0000 0.0000 0.0000 0.0000 25.0252 0.0000
# 6 0.0000 0.0000 0.0000 0.0000 0.0000 62.4366
#
#
#
# Elastic Compliance Matrix: (Units=1/GPa)
#
#
# Indices 1 2 3 4 5 6 
#
# 1 0.010724 -0.007688 -0.005883 0.000000 0.000000 0.000000
# 2 -0.007688 0.036514 -0.010232 0.000000 0.000000 0.000000
# 3 -0.005883 -0.010232 0.037161 0.000000 0.000000 0.000000
# 4 0.000000 0.000000 0.000000 0.048333 0.000000 0.000000
# 5 0.000000 0.000000 0.000000 0.000000 0.039960 0.000000
# 6 0.000000 0.000000 0.000000 0.000000 0.000000 0.016016
#
#
# Mechanical properties :
#
#
# Convention : Reuss Voigt Hill
#
# Bulk Modulus (GPa) = 27.17873 43.46171 35.32022
# Shear Modulus (GPa) = 20.11437 30.13985 25.12711
#
# Velocity S-wave (km/s) = 3.41751 4.18338 3.81969
# Velocity P-wave (km/s) = 5.59945 6.96923 6.32155
#
# Compressibility (1/GPa) = 0.03679348
#
# Stress axis : x y z
#
# Youngs Moduli (GPa) = 93.25007 27.38643 26.91010
#
# Poissons Ratio (x) = 0.21055 0.15831
# Poissons Ratio (y) = 0.71691 0.27534
# Poissons Ratio (z) = 0.54857 0.28022
#
# Static dielectric constant tensor:
#      x y z
#    x 1.607210 0.000000 0.000000 
#    y 0.000000 1.462420 0.000000 
#    z 0.000000 0.000000 1.577910 
# 
# From -- ./inp_files/8575.got.cif
#   From: 2010.05.17/outbox.cif.g08.bks.cpg/sg57_5_cif.got.tgz:8575.got - 2010.06.03 13:58:18.
