data_PCOD9435586
_publ_section_title
;
Structure prediction by ZEFSAII (Michael W. Deem and Ramdas Pophale) SiO2 
 PCOD9435586
Probable space group: P B C M
;
_chemical_formula_sum "Si O2"
_cell_formula_units_Z 52
_cell_length_a 10.663533
_cell_length_b 19.082364
_cell_length_c 14.162641
_cell_angle_alpha 90.000000
_cell_angle_beta 90.000000
_cell_angle_gamma 90.000000
_cell_volume 2881.890927
_symmetry_space_group_name_H-M "P B C M"
_symmetry_group_IT_number 57
_symmetry_cell_setting 'orthorhombic'
loop_
_space_group_symop_operation_xyz
x,y,z
-x,-y,1/2+z
x,1/2-y,-z
-x,1/2+y,1/2-z
-x,-y,-z
x,y,1/2-z
-x,1/2+y,z
x,1/2-y,1/2+z
loop_
_atom_site_type_symbol
_atom_site_label
_atom_site_fract_x
_atom_site_fract_y
_atom_site_fract_z
Si Si1 0.634109 0.066173 0.361688
Si Si2 0.006698 0.250000 0.000000
Si Si3 0.367789 0.378288 0.863734
Si Si4 0.248375 0.421183 0.359754
Si Si5 0.883963 0.103061 0.469001
Si Si6 0.135755 0.460988 0.553549
Si Si7 0.237219 0.238064 0.861592
O O1 0.641080 0.080551 0.250000
O O2 0.502533 0.095410 0.398874
O O3 0.755742 0.099410 0.410702
O O4 0.647989 0.981853 0.372701
O O5 0.104001 0.246820 0.912779
O O6 0.922896 0.319463 0.998470
O O7 0.372874 0.379270 0.750000
O O8 0.255709 0.428776 0.896211
O O9 0.328973 0.299976 0.894507
O O10 0.204376 0.426663 0.250000
O O11 0.149928 0.438070 0.442739
O O12 0.287119 0.340834 0.375876
O O13 0.005568 0.072658 0.412696
O O14 0.866333 0.044945 0.551455
O O15 0.219155 0.247043 0.750000
#
# Coordination Sequence:
#
# PCOD9435586 Si02
#       7
#     8   4   8   8   8   8   8
#     4   9  20  37  56  81 113 146 183 226 279 336
#     4  12  20  38  54  80 118 144 182 232 280 328
#     4  10  20  36  57  82 112 149 190 229 270 324
#     4   9  17  32  54  81 108 141 180 228 278 321
#     4  10  21  33  55  79 112 144 177 227 280 326
#     4  10  19  36  55  83 108 141 188 228 266 328
#     4  10  19  32  55  83 106 143 190 231 271 323
#
# _framework density 18.043707999999999
#
# number of rings (size 3 to 8) (size 9 to 14) (size 15 to 20)
#    0.000    2.154    3.077    0.000    0.000    3.692 
#    0.000    6.923    0.000    1.846    0.000    2.154 
#    0.000    0.000    0.000    0.000    0.000    0.000 
#
# Total GULP energy -289691.585945 kJ/mol
# GULP energy per Si atom -5570.992037 kJ/mol
# Density = 1.800264 g / cm^3
# Si number density = 18.043708 Si / 1000 Ang^3
#
#
#
# Elastic Constant Matrix: (Units=GPa)
#
#
# Indices 1 2 3 4 5 6 
#
# 1 155.5696 82.0715 23.8224 0.0000 0.0000 0.0000
# 2 82.0715 175.1194 26.2703 0.0000 0.0000 0.0000
# 3 23.8224 26.2703 36.4078 0.0000 0.0000 0.0000
# 4 0.0000 0.0000 0.0000 12.7247 0.0000 0.0000
# 5 0.0000 0.0000 0.0000 0.0000 56.8216 0.0000
# 6 0.0000 0.0000 0.0000 0.0000 0.0000 23.8302
#
#
#
# Elastic Compliance Matrix: (Units=1/GPa)
#
#
# Indices 1 2 3 4 5 6 
#
# 1 0.008848 -0.003676 -0.003137 0.000000 0.000000 0.000000
# 2 -0.003676 0.007931 -0.003317 0.000000 0.000000 0.000000
# 3 -0.003137 -0.003317 0.031913 0.000000 0.000000 0.000000
# 4 0.000000 0.000000 0.000000 0.078587 0.000000 0.000000
# 5 0.000000 0.000000 0.000000 0.000000 0.017599 0.000000
# 6 0.000000 0.000000 0.000000 0.000000 0.000000 0.041964
#
#
# Mechanical properties :
#
#
# Convention : Reuss Voigt Hill
#
# Bulk Modulus (GPa) = 35.17273 70.15837 52.66555
# Shear Modulus (GPa) = 23.08636 34.33747 28.71192
#
# Velocity S-wave (km/s) = 3.58085 4.36709 3.99337
# Velocity P-wave (km/s) = 6.05244 8.02468 7.10730
#
# Compressibility (1/GPa) = 0.02843112
#
# Stress axis : x y z
#
# Youngs Moduli (GPa) = 113.02508 126.09066 31.33549
#
# Poissons Ratio (x) = 0.46350 0.09829
# Poissons Ratio (y) = 0.41548 0.10395
# Poissons Ratio (z) = 0.35453 0.41828
#
# Static dielectric constant tensor:
#      x y z
#    x 1.604070 0.000000 0.000000 
#    y 0.000000 1.656560 0.000000 
#    z 0.000000 0.000000 1.648770 
# 
# From -- ./inp_files/21194.got.cif
#   From: 2010.05.17/outbox.cif.g08.bks.cpg/sg57_11_cif.got.tgz:21194.got - 2010.06.03 13:58:18.
