data_PCOD9435537
_publ_section_title
;
Structure prediction by ZEFSAII (Michael W. Deem and Ramdas Pophale) SiO2 
 PCOD9435537
Probable space group: P B C M
;
_chemical_formula_sum "Si O2"
_cell_formula_units_Z 48
_cell_length_a 7.993966
_cell_length_b 20.863017
_cell_length_c 13.558232
_cell_angle_alpha 90.000000
_cell_angle_beta 90.000000
_cell_angle_gamma 90.000000
_cell_volume 2261.218186
_symmetry_space_group_name_H-M "P B C M"
_symmetry_group_IT_number 57
_symmetry_cell_setting 'orthorhombic'
loop_
_space_group_symop_operation_xyz
x,y,z
-x,-y,1/2+z
x,1/2-y,-z
-x,1/2+y,1/2-z
-x,-y,-z
x,y,1/2-z
-x,1/2+y,z
x,1/2-y,1/2+z
loop_
_atom_site_type_symbol
_atom_site_label
_atom_site_fract_x
_atom_site_fract_y
_atom_site_fract_z
Si Si1 0.515784 0.650826 0.368553
Si Si2 0.949616 0.935951 0.130799
Si Si3 0.318929 0.925316 0.369271
Si Si4 0.625598 0.485504 0.869285
Si Si5 0.446698 0.708785 0.867918
Si Si6 0.211701 0.320348 0.022125
O O1 0.540408 0.650747 0.250000
O O2 0.413790 0.587502 0.396236
O O3 0.422877 0.717165 0.397907
O O4 0.693277 0.652768 0.425103
O O5 0.938962 0.925139 0.250000
O O6 0.805545 0.986386 0.103392
O O7 0.908380 0.871061 0.072306
O O8 0.139290 0.954886 0.107203
O O9 0.329258 0.924746 0.250000
O O10 0.476302 0.967440 0.402730
O O11 0.334269 0.851034 0.400720
O O12 0.622052 0.486726 0.750000
O O13 0.439328 0.709215 0.750000
O O14 0.633951 0.691499 0.902576
O O15 0.138270 0.250000 0.000000
#
# Coordination Sequence:
#
# PCOD9435537 Si02
#       6
#     8   8   8   8   8   8
#     4   9  19  33  54  79 109 147 180 219 273 322
#     4  10  19  33  57  83 108 137 178 223 263 318
#     4   9  17  31  56  83 106 139 181 219 260 316
#     4   9  17  33  56  79 108 145 178 217 270 320
#     4   9  16  32  56  80 106 139 180 222 269 318
#     4  10  19  32  53  80 106 139 182 222 268 319
#
# _framework density 21.227498000000001
#
# number of rings (size 3 to 8) (size 9 to 14) (size 15 to 20)
#    0.000    2.667    1.667    0.500    0.000    1.333 
#    0.000    3.333    7.333    0.000    0.000    0.000 
#    0.000    0.000    0.000    0.000    0.000    0.000 
#
# Total GULP energy -267938.886925 kJ/mol
# GULP energy per Si atom -5582.060144 kJ/mol
# Density = 2.117918 g / cm^3
# Si number density = 21.227498 Si / 1000 Ang^3
#
#
#
# Elastic Constant Matrix: (Units=GPa)
#
#
# Indices 1 2 3 4 5 6 
#
# 1 52.0334 22.1169 15.4806 0.0000 0.0000 0.0000
# 2 22.1169 98.8251 41.2728 0.0000 0.0000 0.0000
# 3 15.4806 41.2728 93.7174 0.0000 0.0000 0.0000
# 4 0.0000 0.0000 0.0000 38.4060 0.0000 0.0000
# 5 0.0000 0.0000 0.0000 0.0000 3.6272 0.0000
# 6 0.0000 0.0000 0.0000 0.0000 0.0000 -16.0960
#
#
#
# Elastic Compliance Matrix: (Units=1/GPa)
#
#
# Indices 1 2 3 4 5 6 
#
# 1 0.021471 -0.004073 -0.001753 0.000000 0.000000 0.000000
# 2 -0.004073 0.013172 -0.005128 0.000000 0.000000 0.000000
# 3 -0.001753 -0.005128 0.013218 0.000000 0.000000 0.000000
# 4 0.000000 0.000000 0.000000 0.026038 0.000000 0.000000
# 5 0.000000 0.000000 0.000000 0.000000 0.275694 0.000000
# 6 0.000000 0.000000 0.000000 0.000000 0.000000 -0.062127
#
#
# Mechanical properties :
#
#
# Convention : Reuss Voigt Hill
#
# Bulk Modulus (GPa) = 38.53070 44.70181 41.61625
# Shear Modulus (GPa) = 15.72201 16.23449 15.97825
#
# Velocity S-wave (km/s) = 2.72443 2.76848 2.74654
# Velocity P-wave (km/s) = 5.29976 5.59673 5.45027
#
# Compressibility (1/GPa) = 0.02595333
#
# Stress axis : x y z
#
# Youngs Moduli (GPa) = 46.57397 75.91778 75.65240
#
# Poissons Ratio (x) = 0.30922 0.13261
# Poissons Ratio (y) = 0.18970 0.38796
# Poissons Ratio (z) = 0.08164 0.38932
#
# Static dielectric constant tensor:
#      x y z
#    x 1.728880 0.000000 0.000000 
#    y 0.000000 1.785390 0.000000 
#    z 0.000000 0.000000 1.804360 
# 
# From -- ./inp_files/16554.got.cif
#   From: 2010.05.17/outbox.cif.g08.bks.cpg/sg57_9_cif.got.tgz:16554.got - 2010.06.03 13:58:18.
