data_PCOD9435092
_publ_section_title
;
Structure prediction by ZEFSAII (Michael W. Deem and Ramdas Pophale) SiO2 
 PCOD9435092
Probable space group: P B C M
;
_chemical_formula_sum "Si O2"
_cell_formula_units_Z 64
_cell_length_a 16.170212
_cell_length_b 29.428946
_cell_length_c 8.538894
_cell_angle_alpha 90.000000
_cell_angle_beta 90.000000
_cell_angle_gamma 90.000000
_cell_volume 4063.423091
_symmetry_space_group_name_H-M "P B C M"
_symmetry_group_IT_number 57
_symmetry_cell_setting 'orthorhombic'
loop_
_space_group_symop_operation_xyz
x,y,z
-x,-y,1/2+z
x,1/2-y,-z
-x,1/2+y,1/2-z
-x,-y,-z
x,y,1/2-z
-x,1/2+y,z
x,1/2-y,1/2+z
loop_
_atom_site_type_symbol
_atom_site_label
_atom_site_fract_x
_atom_site_fract_y
_atom_site_fract_z
Si Si1 0.817874 0.951313 0.559874
Si Si2 0.819685 0.054806 0.438281
Si Si3 0.403305 0.700674 0.437771
Si Si4 0.998949 0.948509 0.938507
Si Si5 0.505113 0.448883 0.938174
Si Si6 0.661578 0.392691 0.063748
Si Si7 0.659580 0.894313 0.940952
Si Si8 0.596330 0.798826 0.561451
O O1 0.815290 0.954233 0.750000
O O2 0.908050 0.931278 0.513686
O O3 0.741914 0.920152 0.506672
O O4 0.809931 0.002581 0.495313
O O5 0.815056 0.055264 0.250000
O O6 0.746962 0.085383 0.506082
O O7 0.912153 0.071157 0.488051
O O8 0.376745 0.750000 0.500000
O O9 0.400163 0.700222 0.250000
O O10 0.352257 0.658404 0.502913
O O11 0.499987 0.694596 0.485693
O O12 0.999831 0.948831 0.750000
O O13 0.000000 0.000000 0.000000
O O14 0.507851 0.449136 0.750000
O O15 0.422516 0.421878 0.987346
O O16 0.500000 0.500000 0.000000
O O17 0.585950 0.423135 0.999489
O O18 0.658933 0.393223 0.250000
O O19 0.661009 0.894044 0.750000
O O20 0.648455 0.842281 0.992608
O O21 0.624214 0.750000 0.500000
O O22 0.597615 0.797867 0.750000
#
# Coordination Sequence:
#
# PCOD9435092 Si02
#       8
#     8   8   8   8   8   8   8   8
#     4   9  16  29  49  71  95 124 159 195 233 291
#     4  10  19  31  46  67  97 128 159 201 246 286
#     4  10  19  34  53  72  95 122 156 200 246 291
#     4   8  15  27  45  68  92 120 155 195 241 286
#     4  11  21  34  47  66  97 133 165 196 233 280
#     4  12  23  34  48  69  94 129 170 204 242 285
#     4   9  17  30  47  66  92 123 153 187 230 276
#     4   9  17  31  48  67  89 118 151 189 233 275
#
# _framework density 15.750268
#
# number of rings (size 3 to 8) (size 9 to 14) (size 15 to 20)
#    0.000    2.250    1.250    3.000    0.000    2.000 
#    0.000    1.250    0.000    0.000    0.000    0.875 
#    0.000    2.000    0.000    0.000    0.000    0.000 
#
# Total GULP energy -356771.191365 kJ/mol
# GULP energy per Si atom -5574.549865 kJ/mol
# Density = 1.571442 g / cm^3
# Si number density = 15.750268 Si / 1000 Ang^3
#
#
#
# Elastic Constant Matrix: (Units=GPa)
#
#
# Indices 1 2 3 4 5 6 
#
# 1 140.2415 73.0432 33.2796 0.0000 0.0000 0.0000
# 2 73.0432 123.4374 29.9152 0.0000 0.0000 0.0000
# 3 33.2796 29.9152 38.8662 0.0000 0.0000 0.0000
# 4 0.0000 0.0000 0.0000 25.4143 0.0000 0.0000
# 5 0.0000 0.0000 0.0000 0.0000 11.1399 0.0000
# 6 0.0000 0.0000 0.0000 0.0000 0.0000 6.7702
#
#
#
# Elastic Compliance Matrix: (Units=1/GPa)
#
#
# Indices 1 2 3 4 5 6 
#
# 1 0.011193 -0.005287 -0.005515 0.000000 0.000000 0.000000
# 2 -0.005287 0.012456 -0.005061 0.000000 0.000000 0.000000
# 3 -0.005515 -0.005061 0.034347 0.000000 0.000000 0.000000
# 4 0.000000 0.000000 0.000000 0.039348 0.000000 0.000000
# 5 0.000000 0.000000 0.000000 0.000000 0.089767 0.000000
# 6 0.000000 0.000000 0.000000 0.000000 0.000000 0.147705
#
#
# Mechanical properties :
#
#
# Convention : Reuss Voigt Hill
#
# Bulk Modulus (GPa) = 38.06451 63.89127 50.97789
# Shear Modulus (GPa) = 13.32278 19.75203 16.53740
#
# Velocity S-wave (km/s) = 2.91155 3.54514 3.24385
# Velocity P-wave (km/s) = 5.96010 7.57698 6.81665
#
# Compressibility (1/GPa) = 0.02627119
#
# Stress axis : x y z
#
# Youngs Moduli (GPa) = 89.34360 80.28196 29.11503
#
# Poissons Ratio (x) = 0.42443 0.16056
# Poissons Ratio (y) = 0.47233 0.14734
# Poissons Ratio (z) = 0.49271 0.40628
#
# Static dielectric constant tensor:
#      x y z
#    x 1.548650 0.000000 0.000000 
#    y 0.000000 1.496080 0.000000 
#    z 0.000000 0.000000 1.532820 
# 
# From -- ./inp_files/6021.got.cif
#   From: 2010.05.17/outbox.cif.g08.bks.cpg/sg57_4_cif.got.tgz:6021.got - 2010.06.03 13:58:18.
