data_PCOD9435936
_publ_section_title
;
Structure prediction by ZEFSAII (Michael W. Deem and Ramdas Pophale) SiO2 
 PCOD9435936
Probable space group: P B C M
;
_chemical_formula_sum "Si O2"
_cell_formula_units_Z 48
_cell_length_a 12.164533
_cell_length_b 26.301626
_cell_length_c 7.633964
_cell_angle_alpha 90.000000
_cell_angle_beta 90.000000
_cell_angle_gamma 90.000000
_cell_volume 2442.463860
_symmetry_space_group_name_H-M "P B C M"
_symmetry_group_IT_number 57
_symmetry_cell_setting 'orthorhombic'
loop_
_space_group_symop_operation_xyz
x,y,z
-x,-y,1/2+z
x,1/2-y,-z
-x,1/2+y,1/2-z
-x,-y,-z
x,y,1/2-z
-x,1/2+y,z
x,1/2-y,1/2+z
loop_
_atom_site_type_symbol
_atom_site_label
_atom_site_fract_x
_atom_site_fract_y
_atom_site_fract_z
Si Si1 0.871412 0.497295 0.458686
Si Si2 0.503308 0.440065 0.539140
Si Si3 0.266472 0.404173 0.535426
Si Si4 0.869445 0.807666 0.539792
Si Si5 0.119955 0.807739 0.960729
Si Si6 0.266373 0.898897 0.954906
O O1 0.858190 0.494516 0.250000
O O2 0.808403 0.548007 0.519405
O O3 0.813967 0.447312 0.534164
O O4 0.000000 0.500000 0.500000
O O5 0.500000 0.500000 0.500000
O O6 0.504643 0.435784 0.750000
O O7 0.391011 0.413956 0.476484
O O8 0.615643 0.415157 0.469469
O O9 0.267107 0.403862 0.750000
O O10 0.211430 0.351681 0.475705
O O11 0.835026 0.750000 0.500000
O O12 0.873948 0.812327 0.750000
O O13 0.994656 0.814785 0.473153
O O14 0.114978 0.813340 0.750000
O O15 0.203226 0.850158 0.030520
O O16 0.153436 0.750000 0.000000
O O17 0.285478 0.887632 0.750000
#
# Coordination Sequence:
#
# PCOD9435936 Si02
#       6
#     8   8   8   8   8   8
#     4  11  21  33  51  76 106 136 171 213 263 318
#     4  10  19  34  54  75 102 138 176 211 256 311
#     4   9  18  33  52  73 101 137 169 205 257 311
#     4   9  17  32  52  71  97 131 169 209 254 307
#     4   9  18  33  52  74 101 135 173 214 262 312
#     4  10  20  34  53  77 105 136 173 217 262 312
#
# _framework density 19.652284999999999
#
# number of rings (size 3 to 8) (size 9 to 14) (size 15 to 20)
#    0.000    2.333    1.667    1.500    0.000    3.333 
#    0.000    6.667    0.000    0.000    0.000    0.000 
#    0.000    0.000    0.000    0.000    0.000    0.000 
#
# Total GULP energy -267956.994416 kJ/mol
# GULP energy per Si atom -5582.437384 kJ/mol
# Density = 1.960756 g / cm^3
# Si number density = 19.652285 Si / 1000 Ang^3
#
#
#
# Elastic Constant Matrix: (Units=GPa)
#
#
# Indices 1 2 3 4 5 6 
#
# 1 185.6917 125.7343 -1.1333 0.0000 0.0000 0.0000
# 2 125.7343 189.5501 -3.3971 0.0000 0.0000 0.0000
# 3 -1.1333 -3.3971 38.9648 0.0000 0.0000 0.0000
# 4 0.0000 0.0000 0.0000 22.6411 0.0000 0.0000
# 5 0.0000 0.0000 0.0000 0.0000 1461.5920 0.0000
# 6 0.0000 0.0000 0.0000 0.0000 0.0000 26.7136
#
#
#
# Elastic Compliance Matrix: (Units=1/GPa)
#
#
# Indices 1 2 3 4 5 6 
#
# 1 0.009779 -0.006492 -0.000282 0.000000 0.000000 0.000000
# 2 -0.006492 0.009594 0.000648 0.000000 0.000000 0.000000
# 3 -0.000282 0.000648 0.025712 0.000000 0.000000 0.000000
# 4 0.000000 0.000000 0.000000 0.044167 0.000000 0.000000
# 5 0.000000 0.000000 0.000000 0.000000 0.000684 0.000000
# 6 0.000000 0.000000 0.000000 0.000000 0.000000 0.037434
#
#
# Mechanical properties :
#
#
# Convention : Reuss Voigt Hill
#
# Bulk Modulus (GPa) = 30.45669 72.95714 51.70691
# Shear Modulus (GPa) = 33.20767 321.72286 177.46526
#
# Velocity S-wave (km/s) = 4.11513 12.80871 9.51308
# Velocity P-wave (km/s) = 6.17337 15.99860 12.12571
#
# Compressibility (1/GPa) = 0.03283351
#
# Stress axis : x y z
#
# Youngs Moduli (GPa) = 102.25614 104.23630 38.89160
#
# Poissons Ratio (x) = 0.67670 0.01095
# Poissons Ratio (y) = 0.66385 -0.02519
# Poissons Ratio (z) = 0.02879 -0.06750
#
# Static dielectric constant tensor:
#      x y z
#    x 1.688190 0.000000 0.000000 
#    y 0.000000 1.656580 0.000000 
#    z 0.000000 0.000000 1.748130 
# 
# From -- ./inp_files/3105.got.cif
#   From: 2010.05.17/outbox.cif.g08.bks.cpg/sg57_2_cif.got.tgz:3105.got - 2010.06.03 13:58:18.
