data_PCOD9435546
_publ_section_title
;
Structure prediction by ZEFSAII (Michael W. Deem and Ramdas Pophale) SiO2 
 PCOD9435546
Probable space group: P B C M
;
_chemical_formula_sum "Si O2"
_cell_formula_units_Z 44
_cell_length_a 27.782685
_cell_length_b 9.085488
_cell_length_c 9.051062
_cell_angle_alpha 90.000000
_cell_angle_beta 90.000000
_cell_angle_gamma 90.000000
_cell_volume 2284.662292
_symmetry_space_group_name_H-M "P B C M"
_symmetry_group_IT_number 57
_symmetry_cell_setting 'orthorhombic'
loop_
_space_group_symop_operation_xyz
x,y,z
-x,-y,1/2+z
x,1/2-y,-z
-x,1/2+y,1/2-z
-x,-y,-z
x,y,1/2-z
-x,1/2+y,z
x,1/2-y,1/2+z
loop_
_atom_site_type_symbol
_atom_site_label
_atom_site_fract_x
_atom_site_fract_y
_atom_site_fract_z
Si Si1 0.260575 0.910559 0.426703
Si Si2 0.843940 0.410424 0.424424
Si Si3 0.544765 0.912023 0.070185
Si Si4 0.929900 0.508860 0.905356
Si Si5 0.996942 0.250000 0.500000
Si Si6 0.366747 0.914058 0.429715
O O1 0.260236 0.750000 0.500000
O O2 0.260642 0.893061 0.250000
O O3 0.208440 0.976768 0.467147
O O4 0.312871 0.976356 0.462398
O O5 0.848936 0.250000 0.500000
O O6 0.844587 0.388020 0.250000
O O7 0.889823 0.506196 0.469489
O O8 0.542819 0.909876 0.250000
O O9 0.543263 0.750000 0.000000
O O10 0.500000 0.000000 0.000000
O O11 0.592805 0.990855 0.010022
O O12 0.903295 0.510860 0.750000
O O13 0.961870 0.361308 0.915458
O O14 0.967269 0.642035 0.914005
O O15 0.369035 0.750000 0.500000
O O16 0.373522 0.908622 0.250000
#
# Coordination Sequence:
#
# PCOD9435546 Si02
#       6
#     8   8   8   8   4   8
#     4   8  16  30  51  80 113 147 186 232 282 333
#     4  10  19  32  53  82 113 146 185 233 281 333
#     4  12  25  42  62  88 121 159 201 244 292 343
#     4  11  22  38  58  81 108 143 183 229 282 341
#     4  10  24  38  56  80 110 140 184 226 284 338
#     4  10  19  35  59  88 120 155 195 241 292 344
#
# _framework density 19.258865
#
# number of rings (size 3 to 8) (size 9 to 14) (size 15 to 20)
#    0.000    1.818    0.909    3.818    0.000    5.091 
#    0.000    0.000    2.000    0.000    0.000    0.000 
#    0.000    0.000    0.000    0.000    0.000    0.000 
#
# Total GULP energy -245196.669050 kJ/mol
# GULP energy per Si atom -5572.651569 kJ/mol
# Density = 1.921503 g / cm^3
# Si number density = 19.258865 Si / 1000 Ang^3
#
#
#
# Elastic Constant Matrix: (Units=GPa)
#
#
# Indices 1 2 3 4 5 6 
#
# 1 175.8866 44.8825 57.8002 0.0000 0.0000 0.0000
# 2 44.8825 76.5644 28.9959 0.0000 0.0000 0.0000
# 3 57.8002 28.9959 109.8787 0.0000 0.0000 0.0000
# 4 0.0000 0.0000 0.0000 4.7462 0.0000 0.0000
# 5 0.0000 0.0000 0.0000 0.0000 8.6180 0.0000
# 6 0.0000 0.0000 0.0000 0.0000 0.0000 33.0313
#
#
#
# Elastic Compliance Matrix: (Units=1/GPa)
#
#
# Indices 1 2 3 4 5 6 
#
# 1 0.007533 -0.003239 -0.003108 0.000000 0.000000 0.000000
# 2 -0.003239 0.015904 -0.002493 0.000000 0.000000 0.000000
# 3 -0.003108 -0.002493 0.011394 0.000000 0.000000 0.000000
# 4 0.000000 0.000000 0.000000 0.210693 0.000000 0.000000
# 5 0.000000 0.000000 0.000000 0.000000 0.116037 0.000000
# 6 0.000000 0.000000 0.000000 0.000000 0.000000 0.030274
#
#
# Mechanical properties :
#
#
# Convention : Reuss Voigt Hill
#
# Bulk Modulus (GPa) = 58.30662 69.52074 63.91368
# Shear Modulus (GPa) = 12.04145 24.65583 18.34864
#
# Velocity S-wave (km/s) = 2.50320 3.58192 3.08999
# Velocity P-wave (km/s) = 6.22058 7.29954 6.78155
#
# Compressibility (1/GPa) = 0.01715071
#
# Stress axis : x y z
#
# Youngs Moduli (GPa) = 132.74210 62.87813 87.76714
#
# Poissons Ratio (x) = 0.20367 0.27279
# Poissons Ratio (y) = 0.42996 0.21880
# Poissons Ratio (z) = 0.41257 0.15675
#
# Static dielectric constant tensor:
#      x y z
#    x 1.711550 0.000000 0.000000 
#    y 0.000000 1.649240 0.000000 
#    z 0.000000 0.000000 1.643000 
# 
# From -- ./inp_files/9842.got.cif
#   From: 2010.05.17/outbox.cif.g08.bks.cpg/sg57_5_cif.got.tgz:9842.got - 2010.06.03 13:58:18.
