data_PCOD9435762
_publ_section_title
;
Structure prediction by ZEFSAII (Michael W. Deem and Ramdas Pophale) SiO2 
 PCOD9435762
Probable space group: P B C M
;
_chemical_formula_sum "Si O2"
_cell_formula_units_Z 64
_cell_length_a 20.482011
_cell_length_b 20.412621
_cell_length_c 8.879867
_cell_angle_alpha 90.000000
_cell_angle_beta 90.000000
_cell_angle_gamma 90.000000
_cell_volume 3712.597161
_symmetry_space_group_name_H-M "P B C M"
_symmetry_group_IT_number 57
_symmetry_cell_setting 'orthorhombic'
loop_
_space_group_symop_operation_xyz
x,y,z
-x,-y,1/2+z
x,1/2-y,-z
-x,1/2+y,1/2-z
-x,-y,-z
x,y,1/2-z
-x,1/2+y,z
x,1/2-y,1/2+z
loop_
_atom_site_type_symbol
_atom_site_label
_atom_site_fract_x
_atom_site_fract_y
_atom_site_fract_z
Si Si1 0.572924 0.179505 0.430369
Si Si2 0.054145 0.679669 0.068900
Si Si3 0.096836 0.179178 0.430654
Si Si4 0.168340 0.582377 0.431613
Si Si5 0.188125 0.431449 0.429861
Si Si6 0.694210 0.392762 0.071949
Si Si7 0.528468 0.933398 0.568336
Si Si8 0.674578 0.547511 0.071243
O O1 0.559353 0.250000 0.500000
O O2 0.574496 0.183404 0.250000
O O3 0.641991 0.152747 0.490296
O O4 0.517535 0.126962 0.475082
O O5 0.056583 0.684758 0.250000
O O6 0.104639 0.623279 0.022732
O O7 0.978947 0.665407 0.027049
O O8 0.072089 0.750000 0.000000
O O9 0.113649 0.250000 0.500000
O O10 0.101179 0.182246 0.250000
O O11 0.143319 0.122852 0.493399
O O12 0.174631 0.585421 0.250000
O O13 0.165998 0.505455 0.473085
O O14 0.233260 0.612420 0.505163
O O15 0.184012 0.425654 0.250000
O O16 0.263100 0.425589 0.483078
O O17 0.694316 0.379635 0.250000
O O18 0.673440 0.468769 0.048907
O O19 0.527435 0.939351 0.750000
O O20 0.604154 0.925430 0.523618
O O21 0.500000 0.000000 0.500000
O O22 0.683789 0.559112 0.250000
#
# Coordination Sequence:
#
# PCOD9435762 Si02
#       8
#     8   8   8   8   8   8   8   8
#     4  11  23  37  54  78 110 145 181 223 272 322
#     4   9  19  35  54  76 104 141 181 223 269 322
#     4  10  20  36  57  79 105 139 180 224 274 329
#     4   9  19  35  53  77 112 146 180 222 268 319
#     4  10  20  34  54  81 110 142 180 223 270 320
#     4  10  19  33  54  78 106 141 180 219 266 320
#     4  10  20  35  58  83 106 139 181 225 273 323
#     4   9  18  34  55  80 108 138 175 221 268 319
#
# _framework density 17.238606000000001
#
# number of rings (size 3 to 8) (size 9 to 14) (size 15 to 20)
#    0.000    2.250    1.250    1.500    0.000    4.000 
#    0.000    1.875    0.000    1.500    0.000    0.000 
#    0.000    0.000    0.000    0.000    0.000    0.000 
#
# Total GULP energy -357167.974866 kJ/mol
# GULP energy per Si atom -5580.749607 kJ/mol
# Density = 1.719937 g / cm^3
# Si number density = 17.238606 Si / 1000 Ang^3
#
#
#
# Elastic Constant Matrix: (Units=GPa)
#
#
# Indices 1 2 3 4 5 6 
#
# 1 140.4102 104.2007 47.3225 0.0000 0.0000 0.0000
# 2 104.2007 128.6319 51.4472 0.0000 0.0000 0.0000
# 3 47.3225 51.4472 40.4940 0.0000 0.0000 0.0000
# 4 0.0000 0.0000 0.0000 29.4400 0.0000 0.0000
# 5 0.0000 0.0000 0.0000 0.0000 23.7104 0.0000
# 6 0.0000 0.0000 0.0000 0.0000 0.0000 25.2353
#
#
#
# Elastic Compliance Matrix: (Units=1/GPa)
#
#
# Indices 1 2 3 4 5 6 
#
# 1 0.018382 -0.012807 -0.005212 0.000000 0.000000 0.000000
# 2 -0.012807 0.024728 -0.016450 0.000000 0.000000 0.000000
# 3 -0.005212 -0.016450 0.051685 0.000000 0.000000 0.000000
# 4 0.000000 0.000000 0.000000 0.033967 0.000000 0.000000
# 5 0.000000 0.000000 0.000000 0.000000 0.042176 0.000000
# 6 0.000000 0.000000 0.000000 0.000000 0.000000 0.039627
#
#
# Mechanical properties :
#
#
# Convention : Reuss Voigt Hill
#
# Bulk Modulus (GPa) = 38.67180 79.49744 59.08462
# Shear Modulus (GPa) = 17.35378 22.78150 20.06764
#
# Velocity S-wave (km/s) = 3.17627 3.63924 3.41561
# Velocity P-wave (km/s) = 5.99446 7.99217 7.06429
#
# Compressibility (1/GPa) = 0.02585864
#
# Stress axis : x y z
#
# Youngs Moduli (GPa) = 54.39960 40.44035 19.34796
#
# Poissons Ratio (x) = 0.51791 0.10083
# Poissons Ratio (y) = 0.69668 0.31828
# Poissons Ratio (z) = 0.28350 0.66525
#
# Static dielectric constant tensor:
#      x y z
#    x 1.575540 0.000000 0.000000 
#    y 0.000000 1.559220 0.000000 
#    z 0.000000 0.000000 1.574390 
# 
# From -- ./inp_files/8606.got.cif
#   From: 2010.05.17/outbox.cif.g08.bks.cpg/sg57_5_cif.got.tgz:8606.got - 2010.06.03 13:58:18.
