data_PCOD9435251
_publ_section_title
;
Structure prediction by ZEFSAII (Michael W. Deem and Ramdas Pophale) SiO2 
 PCOD9435251
Probable space group: P B C M
;
_chemical_formula_sum "Si O2"
_cell_formula_units_Z 64
_cell_length_a 26.007112
_cell_length_b 15.023077
_cell_length_c 7.924176
_cell_angle_alpha 90.000000
_cell_angle_beta 90.000000
_cell_angle_gamma 90.000000
_cell_volume 3096.029813
_symmetry_space_group_name_H-M "P B C M"
_symmetry_group_IT_number 57
_symmetry_cell_setting 'orthorhombic'
loop_
_space_group_symop_operation_xyz
x,y,z
-x,-y,1/2+z
x,1/2-y,-z
-x,1/2+y,1/2-z
-x,-y,-z
x,y,1/2-z
-x,1/2+y,z
x,1/2-y,1/2+z
loop_
_atom_site_type_symbol
_atom_site_label
_atom_site_fract_x
_atom_site_fract_y
_atom_site_fract_z
Si Si1 0.124103 0.453556 0.453682
Si Si2 0.365660 0.850298 0.948053
Si Si3 0.093153 0.654100 0.548635
Si Si4 0.015433 0.399902 0.452714
Si Si5 0.324077 0.470334 0.042733
Si Si6 0.480958 0.901738 0.451773
Si Si7 0.587431 0.657229 0.547958
Si Si8 0.773058 0.854123 0.453840
O O1 0.123609 0.449808 0.250000
O O2 0.118238 0.559115 0.495910
O O3 0.074174 0.396921 0.515064
O O4 0.175788 0.405657 0.514117
O O5 0.358707 0.853587 0.750000
O O6 0.329137 0.928308 0.018881
O O7 0.355081 0.750000 0.000000
O O8 0.425398 0.874584 0.981746
O O9 0.116819 0.750000 0.500000
O O10 0.091353 0.651115 0.750000
O O11 0.033933 0.653359 0.479987
O O12 0.016774 0.388055 0.250000
O O13 0.000000 0.500000 0.500000
O O14 0.322927 0.469775 0.250000
O O15 0.376974 0.422727 0.988731
O O16 0.276354 0.410582 0.986338
O O17 0.477889 0.894173 0.250000
O O18 0.529402 0.845439 0.519570
O O19 0.500000 0.000000 0.500000
O O20 0.612772 0.750000 0.500000
O O21 0.584544 0.650758 0.750000
O O22 0.771709 0.750000 0.500000
O O23 0.772989 0.857875 0.250000
#
# Coordination Sequence:
#
# PCOD9435251 Si02
#       8
#     8   8   8   8   8   8   8   8
#     4   9  18  34  54  78 109 145 184 227 276 328
#     4  11  22  39  59  81 111 146 184 227 273 328
#     4  10  19  31  50  77 110 149 186 225 272 324
#     4   8  15  28  46  70 102 139 180 220 262 315
#     4   9  19  38  58  77 108 143 177 220 271 321
#     4  11  21  35  55  81 113 149 183 219 268 321
#     4  10  20  34  52  77 106 140 174 211 258 310
#     4  10  21  38  61  84 108 141 178 224 279 329
#
# _framework density 20.671634999999998
#
# number of rings (size 3 to 8) (size 9 to 14) (size 15 to 20)
#    0.000    2.250    1.250    1.875    0.000    3.500 
#    0.000    1.875    0.000    1.500    0.000    0.000 
#    0.000    0.000    0.000    0.000    0.000    0.000 
#
# Total GULP energy -356662.074100 kJ/mol
# GULP energy per Si atom -5572.844908 kJ/mol
# Density = 2.062459 g / cm^3
# Si number density = 20.671635 Si / 1000 Ang^3
#
#
#
# Elastic Constant Matrix: (Units=GPa)
#
#
# Indices 1 2 3 4 5 6 
#
# 1 120.1485 73.1462 5.0914 0.0000 0.0000 0.0000
# 2 73.1462 175.9516 3.1208 0.0000 0.0000 0.0000
# 3 5.0914 3.1208 18.8817 0.0000 0.0000 0.0000
# 4 0.0000 0.0000 0.0000 28.4944 0.0000 0.0000
# 5 0.0000 0.0000 0.0000 0.0000 8.2701 0.0000
# 6 0.0000 0.0000 0.0000 0.0000 0.0000 27.0608
#
#
#
# Elastic Compliance Matrix: (Units=1/GPa)
#
#
# Indices 1 2 3 4 5 6 
#
# 1 0.011239 -0.004632 -0.002265 0.000000 0.000000 0.000000
# 2 -0.004632 0.007609 -0.000009 0.000000 0.000000 0.000000
# 3 -0.002265 -0.000009 0.053573 0.000000 0.000000 0.000000
# 4 0.000000 0.000000 0.000000 0.035095 0.000000 0.000000
# 5 0.000000 0.000000 0.000000 0.000000 0.120918 0.000000
# 6 0.000000 0.000000 0.000000 0.000000 0.000000 0.036954
#
#
# Mechanical properties :
#
#
# Convention : Reuss Voigt Hill
#
# Bulk Modulus (GPa) = 17.06188 53.07763 35.06975
# Shear Modulus (GPa) = 16.73717 28.33995 22.53856
#
# Velocity S-wave (km/s) = 2.84855 3.70666 3.30557
# Velocity P-wave (km/s) = 4.36929 6.63712 5.61881
#
# Compressibility (1/GPa) = 0.05861020
#
# Stress axis : x y z
#
# Youngs Moduli (GPa) = 88.97572 131.42034 18.66598
#
# Poissons Ratio (x) = 0.60875 0.04228
# Poissons Ratio (y) = 0.41214 0.00016
# Poissons Ratio (z) = 0.20153 0.00113
#
# Static dielectric constant tensor:
#      x y z
#    x 1.763270 0.000000 0.000000 
#    y 0.000000 1.780070 0.000000 
#    z 0.000000 0.000000 1.847400 
# 
# From -- ./inp_files/9315.got.cif
#   From: 2010.05.17/outbox.cif.g08.bks.cpg/sg57_5_cif.got.tgz:9315.got - 2010.06.03 13:58:18.
