data_PCOD9435073
_publ_section_title
;
Structure prediction by ZEFSAII (Michael W. Deem and Ramdas Pophale) SiO2 
 PCOD9435073
Probable space group: P B C M
;
_chemical_formula_sum "Si O2"
_cell_formula_units_Z 64
_cell_length_a 18.189834
_cell_length_b 23.140954
_cell_length_c 8.492904
_cell_angle_alpha 90.000000
_cell_angle_beta 90.000000
_cell_angle_gamma 90.000000
_cell_volume 3574.919031
_symmetry_space_group_name_H-M "P B C M"
_symmetry_group_IT_number 57
_symmetry_cell_setting 'orthorhombic'
loop_
_space_group_symop_operation_xyz
x,y,z
-x,-y,1/2+z
x,1/2-y,-z
-x,1/2+y,1/2-z
-x,-y,-z
x,y,1/2-z
-x,1/2+y,z
x,1/2-y,1/2+z
loop_
_atom_site_type_symbol
_atom_site_label
_atom_site_fract_x
_atom_site_fract_y
_atom_site_fract_z
Si Si1 0.092563 0.651635 0.437786
Si Si2 0.929450 0.687473 0.440275
Si Si3 0.921984 0.476810 0.060578
Si Si4 0.331145 0.049028 0.938451
Si Si5 0.348725 0.582099 0.559194
Si Si6 0.751995 0.311512 0.437751
Si Si7 0.509267 0.565224 0.560363
Si Si8 0.178003 0.084786 0.439546
O O1 0.096184 0.658493 0.250000
O O2 0.094696 0.584334 0.483057
O O3 0.163236 0.681392 0.512675
O O4 0.013242 0.675038 0.493448
O O5 0.906347 0.750000 0.500000
O O6 0.930166 0.686517 0.250000
O O7 0.874134 0.637134 0.493919
O O8 0.923620 0.470911 0.250000
O O9 0.861607 0.524663 0.018161
O O10 0.000000 0.500000 0.000000
O O11 0.331094 0.045894 0.750000
O O12 0.407691 0.079657 0.990800
O O13 0.259835 0.082957 0.995328
O O14 0.329874 0.982660 0.000976
O O15 0.345320 0.580145 0.750000
O O16 0.293811 0.632491 0.504538
O O17 0.433411 0.595770 0.510558
O O18 0.723973 0.250000 0.500000
O O19 0.747654 0.311178 0.250000
O O20 0.500000 0.500000 0.500000
O O21 0.508974 0.566017 0.750000
O O22 0.181033 0.087317 0.250000
#
# Coordination Sequence:
#
# PCOD9435073 Si02
#       8
#     8   8   8   8   8   8   8   8
#     4  11  22  38  56  77 106 137 174 219 265 313
#     4  10  22  39  55  72  95 130 174 216 256 302
#     4  11  21  35  54  77 106 138 173 214 264 318
#     4  10  19  30  51  84 110 131 169 215 260 308
#     4   9  18  34  54  74 104 143 172 202 259 319
#     4  11  23  37  53  76 103 140 183 221 264 313
#     4   8  15  29  49  75 105 133 162 200 245 303
#     4  10  21  37  52  72 106 140 169 207 260 313
#
# _framework density 17.902502999999999
#
# number of rings (size 3 to 8) (size 9 to 14) (size 15 to 20)
#    0.000    2.000    1.250    2.625    0.000    8.000 
#    0.000    0.000    0.000    0.750    0.000    3.500 
#    0.000    0.000    0.000    0.000    0.000    0.000 
#
# Total GULP energy -357033.770580 kJ/mol
# GULP energy per Si atom -5578.652665 kJ/mol
# Density = 1.786176 g / cm^3
# Si number density = 17.902503 Si / 1000 Ang^3
#
#
#
# Elastic Constant Matrix: (Units=GPa)
#
#
# Indices 1 2 3 4 5 6 
#
# 1 136.8688 34.0361 13.5118 0.0000 0.0000 0.0000
# 2 34.0361 77.6487 6.5014 0.0000 0.0000 0.0000
# 3 13.5118 6.5014 12.5048 0.0000 0.0000 0.0000
# 4 0.0000 0.0000 0.0000 26.3614 0.0000 0.0000
# 5 0.0000 0.0000 0.0000 0.0000 24.9896 0.0000
# 6 0.0000 0.0000 0.0000 0.0000 0.0000 8.2328
#
#
#
# Elastic Compliance Matrix: (Units=1/GPa)
#
#
# Indices 1 2 3 4 5 6 
#
# 1 0.008893 -0.003234 -0.007928 0.000000 0.000000 0.000000
# 2 -0.003234 0.014641 -0.004117 0.000000 0.000000 0.000000
# 3 -0.007928 -0.004117 0.090676 0.000000 0.000000 0.000000
# 4 0.000000 0.000000 0.000000 0.037934 0.000000 0.000000
# 5 0.000000 0.000000 0.000000 0.000000 0.040017 0.000000
# 6 0.000000 0.000000 0.000000 0.000000 0.000000 0.121465
#
#
# Mechanical properties :
#
#
# Convention : Reuss Voigt Hill
#
# Bulk Modulus (GPa) = 11.95439 37.23569 24.59504
# Shear Modulus (GPa) = 13.43837 23.44828 18.44333
#
# Velocity S-wave (km/s) = 2.74276 3.62301 3.21317
# Velocity P-wave (km/s) = 4.08929 6.19241 5.24729
#
# Compressibility (1/GPa) = 0.08365130
#
# Stress axis : x y z
#
# Youngs Moduli (GPa) = 112.44511 68.30136 11.02830
#
# Poissons Ratio (x) = 0.22092 0.08743
# Poissons Ratio (y) = 0.36370 0.04541
# Poissons Ratio (z) = 0.89144 0.28121
#
# Static dielectric constant tensor:
#      x y z
#    x 1.651240 0.000000 0.000000 
#    y 0.000000 1.574290 0.000000 
#    z 0.000000 0.000000 1.611720 
# 
# From -- ./inp_files/7256.got.cif
#   From: 2010.05.17/outbox.cif.g08.bks.cpg/sg57_4_cif.got.tgz:7256.got - 2010.06.03 13:58:18.
