data_PCOD9435121
_publ_section_title
;
Structure prediction by ZEFSAII (Michael W. Deem and Ramdas Pophale) SiO2 
 PCOD9435121
Probable space group: P B C M
;
_chemical_formula_sum "Si O2"
_cell_formula_units_Z 48
_cell_length_a 18.437769
_cell_length_b 14.127043
_cell_length_c 7.689172
_cell_angle_alpha 90.000000
_cell_angle_beta 90.000000
_cell_angle_gamma 90.000000
_cell_volume 2002.807516
_symmetry_space_group_name_H-M "P B C M"
_symmetry_group_IT_number 57
_symmetry_cell_setting 'orthorhombic'
loop_
_space_group_symop_operation_xyz
x,y,z
-x,-y,1/2+z
x,1/2-y,-z
-x,1/2+y,1/2-z
-x,-y,-z
x,y,1/2-z
-x,1/2+y,z
x,1/2-y,1/2+z
loop_
_atom_site_type_symbol
_atom_site_label
_atom_site_fract_x
_atom_site_fract_y
_atom_site_fract_z
Si Si1 0.834117 0.934274 0.036524
Si Si2 0.322799 0.441016 0.043084
Si Si3 0.521285 0.607471 0.455431
Si Si4 0.632558 0.149827 0.040829
Si Si5 0.143496 0.852521 0.557300
Si Si6 0.987810 0.610277 0.542377
O O1 0.839252 0.935160 0.250000
O O2 0.754349 0.901519 0.980693
O O3 0.840626 0.044654 0.973616
O O4 0.904886 0.874539 0.982404
O O5 0.316192 0.448856 0.250000
O O6 0.334621 0.549721 0.977139
O O7 0.395784 0.381152 0.012239
O O8 0.500000 0.500000 0.500000
O O9 0.521676 0.622713 0.250000
O O10 0.449972 0.656566 0.532274
O O11 0.629567 0.141657 0.250000
O O12 0.668814 0.250000 0.000000
O O13 0.170124 0.750000 0.500000
O O14 0.172730 0.864296 0.750000
O O15 0.055920 0.844388 0.552983
O O16 0.994578 0.626861 0.750000
O O17 0.000000 0.500000 0.500000
#
# Coordination Sequence:
#
# PCOD9435121 Si02
#       6
#     8   8   8   8   8   8
#     4   8  16  30  48  68  93 122 151 183 228 278
#     4   9  17  31  48  68  93 121 149 184 228 275
#     4   9  17  30  46  66  88 116 154 192 225 265
#     4   9  18  29  44  65  91 118 147 181 219 263
#     4  10  19  31  47  69  96 126 157 193 233 278
#     4   9  16  29  48  68  90 121 159 195 228 273
#
# _framework density 23.966356999999999
#
# number of rings (size 3 to 8) (size 9 to 14) (size 15 to 20)
#    0.000    3.000    0.000    3.500    0.000    4.000 
#    0.000    5.000    0.000    1.000    0.000    2.333 
#    0.000    0.000    0.000    0.000    0.000    0.000 
#
# Total GULP energy -267264.138927 kJ/mol
# GULP energy per Si atom -5568.002894 kJ/mol
# Density = 2.391181 g / cm^3
# Si number density = 23.966357 Si / 1000 Ang^3
#
#
#
# Elastic Constant Matrix: (Units=GPa)
#
#
# Indices 1 2 3 4 5 6 
#
# 1 195.0963 -10.3373 -0.3419 0.0000 0.0000 0.0000
# 2 -10.3373 35.5875 -11.4758 0.0000 0.0000 0.0000
# 3 -0.3419 -11.4758 43.2342 0.0000 0.0000 0.0000
# 4 0.0000 0.0000 0.0000 13.0678 0.0000 0.0000
# 5 0.0000 0.0000 0.0000 0.0000 7.6117 0.0000
# 6 0.0000 0.0000 0.0000 0.0000 0.0000 -3.2984
#
#
#
# Elastic Compliance Matrix: (Units=1/GPa)
#
#
# Indices 1 2 3 4 5 6 
#
# 1 0.005215 0.001671 0.000485 0.000000 0.000000 0.000000
# 2 0.001671 0.031266 0.008312 0.000000 0.000000 0.000000
# 3 0.000485 0.008312 0.025340 0.000000 0.000000 0.000000
# 4 0.000000 0.000000 0.000000 0.076524 0.000000 0.000000
# 5 0.000000 0.000000 0.000000 0.000000 0.131376 0.000000
# 6 0.000000 0.000000 0.000000 0.000000 0.000000 -0.303173
#
#
# Mechanical properties :
#
#
# Convention : Reuss Voigt Hill
#
# Bulk Modulus (GPa) = 12.08358 25.51199 18.79778
# Shear Modulus (GPa) = -186.54680 23.21441 -81.66620
#
# Velocity S-wave (km/s) = -8.83210 3.11565 -5.84374
# Velocity P-wave (km/s) = 9.94762 4.85912 6.13775
#
# Compressibility (1/GPa) = 0.08275693
#
# Stress axis : x y z
#
# Youngs Moduli (GPa) = 191.75180 31.98405 39.46338
#
# Poissons Ratio (x) = -0.05345 -0.01913
# Poissons Ratio (y) = -0.32046 -0.32802
# Poissons Ratio (z) = -0.09297 -0.26586
#
# Static dielectric constant tensor:
#      x y z
#    x 2.006320 0.000000 0.000000 
#    y 0.000000 2.004950 0.000000 
#    z 0.000000 0.000000 1.857360 
# 
# From -- ./inp_files/6668.got.cif
#   From: 2010.05.17/outbox.cif.g08.bks.cpg/sg57_4_cif.got.tgz:6668.got - 2010.06.03 13:58:18.
