data_PCOD9435956
_publ_section_title
;
Structure prediction by ZEFSAII (Michael W. Deem and Ramdas Pophale) SiO2 
 PCOD9435956
Probable space group: P B C M
;
_chemical_formula_sum "Si O2"
_cell_formula_units_Z 44
_cell_length_a 8.471575
_cell_length_b 22.440998
_cell_length_c 12.365807
_cell_angle_alpha 90.000000
_cell_angle_beta 90.000000
_cell_angle_gamma 90.000000
_cell_volume 2350.870959
_symmetry_space_group_name_H-M "P B C M"
_symmetry_group_IT_number 57
_symmetry_cell_setting 'orthorhombic'
loop_
_space_group_symop_operation_xyz
x,y,z
-x,-y,1/2+z
x,1/2-y,-z
-x,1/2+y,1/2-z
-x,-y,-z
x,y,1/2-z
-x,1/2+y,z
x,1/2-y,1/2+z
loop_
_atom_site_type_symbol
_atom_site_label
_atom_site_fract_x
_atom_site_fract_y
_atom_site_fract_z
Si Si1 0.322668 0.658292 0.376944
Si Si2 0.561381 0.938563 0.954243
Si Si3 0.548636 0.750000 0.500000
Si Si4 0.056895 0.603496 0.518783
Si Si5 0.131601 0.011953 0.367880
Si Si6 0.264034 0.147790 0.879709
O O1 0.287180 0.666837 0.250000
O O2 0.427012 0.599044 0.395712
O O3 0.433823 0.710292 0.424809
O O4 0.168386 0.647445 0.451095
O O5 0.701497 0.955324 0.873455
O O6 0.635569 0.901838 0.054772
O O7 0.500000 0.000000 0.000000
O O8 0.660567 0.791208 0.425521
O O9 0.149966 0.556728 0.594943
O O10 0.976771 0.555023 0.439419
O O11 0.917171 0.637144 0.582586
O O12 0.059588 0.010431 0.250000
O O13 0.276779 0.143585 0.750000
#
# Coordination Sequence:
#
# PCOD9435956 Si02
#       6
#     8   8   4   8   8   8
#     4  11  22  40  63  87 120 159 197 252 303 342
#     4  10  20  37  56  91 122 152 196 237 280 366
#     4  10  24  44  62  86 116 148 216 252 292 366
#     4  10  21  36  56  89 121 149 204 237 287 367
#     4  10  19  34  54  83 125 160 185 231 289 351
#     4  10  22  41  63  84 117 161 196 248 303 345
#
# _framework density 18.716467999999999
#
# number of rings (size 3 to 8) (size 9 to 14) (size 15 to 20)
#    0.000    1.818    1.818    2.182    0.000    2.182 
#    0.000    7.273    0.000    0.000    0.000    0.000 
#    0.000    0.000    0.000    0.000    0.000    0.000 
#
# Total GULP energy -245300.483666 kJ/mol
# GULP energy per Si atom -5575.010992 kJ/mol
# Density = 1.867387 g / cm^3
# Si number density = 18.716468 Si / 1000 Ang^3
#
#
#
# Elastic Constant Matrix: (Units=GPa)
#
#
# Indices 1 2 3 4 5 6 
#
# 1 69.7969 28.8520 29.2390 0.0000 0.0000 0.0000
# 2 28.8520 97.8954 38.9075 0.0000 0.0000 0.0000
# 3 29.2390 38.9075 128.2177 0.0000 0.0000 0.0000
# 4 0.0000 0.0000 0.0000 12.5360 0.0000 0.0000
# 5 0.0000 0.0000 0.0000 0.0000 -0.9892 0.0000
# 6 0.0000 0.0000 0.0000 0.0000 0.0000 29.3847
#
#
#
# Elastic Compliance Matrix: (Units=1/GPa)
#
#
# Indices 1 2 3 4 5 6 
#
# 1 0.017096 -0.003968 -0.002695 0.000000 0.000000 0.000000
# 2 -0.003968 0.012537 -0.002899 0.000000 0.000000 0.000000
# 3 -0.002695 -0.002899 0.009294 0.000000 0.000000 0.000000
# 4 0.000000 0.000000 0.000000 0.079770 0.000000 0.000000
# 5 0.000000 0.000000 0.000000 0.000000 -1.010944 0.000000
# 6 0.000000 0.000000 0.000000 0.000000 0.000000 0.034031
#
#
# Mechanical properties :
#
#
# Convention : Reuss Voigt Hill
#
# Bulk Modulus (GPa) = 50.49762 54.43409 52.46585
# Shear Modulus (GPa) = -6.00607 21.44707 7.72050
#
# Velocity S-wave (km/s) = -1.79330 3.38878 2.03321
# Velocity P-wave (km/s) = 4.76980 6.66771 5.79695
#
# Compressibility (1/GPa) = 0.01980292
#
# Stress axis : x y z
#
# Youngs Moduli (GPa) = 58.49240 79.76578 107.60129
#
# Poissons Ratio (x) = 0.31648 0.28995
# Poissons Ratio (y) = 0.23208 0.31198
# Poissons Ratio (z) = 0.15762 0.23128
#
# Static dielectric constant tensor:
#      x y z
#    x 1.673370 0.000000 0.000000 
#    y 0.000000 1.649320 0.000000 
#    z 0.000000 0.000000 1.652530 
# 
# From -- ./inp_files/11898.got.cif
#   From: 2010.05.17/outbox.cif.g08.bks.cpg/sg57_6_cif.got.tgz:11898.got - 2010.06.03 13:58:18.
