data_PCOD9435768
_publ_section_title
;
Structure prediction by ZEFSAII (Michael W. Deem and Ramdas Pophale) SiO2 
 PCOD9435768
Probable space group: P B C M
;
_chemical_formula_sum "Si O2"
_cell_formula_units_Z 48
_cell_length_a 10.882238
_cell_length_b 24.015839
_cell_length_c 7.734251
_cell_angle_alpha 90.000000
_cell_angle_beta 90.000000
_cell_angle_gamma 90.000000
_cell_volume 2021.316148
_symmetry_space_group_name_H-M "P B C M"
_symmetry_group_IT_number 57
_symmetry_cell_setting 'orthorhombic'
loop_
_space_group_symop_operation_xyz
x,y,z
-x,-y,1/2+z
x,1/2-y,-z
-x,1/2+y,1/2-z
-x,-y,-z
x,y,1/2-z
-x,1/2+y,z
x,1/2-y,1/2+z
loop_
_atom_site_type_symbol
_atom_site_label
_atom_site_fract_x
_atom_site_fract_y
_atom_site_fract_z
Si Si1 0.695527 0.074464 0.456650
Si Si2 0.169116 0.474368 0.446760
Si Si3 0.813925 0.312967 0.455003
Si Si4 0.573395 0.927172 0.950468
Si Si5 0.071688 0.360506 0.038327
Si Si6 0.665572 0.687141 0.544190
O O1 0.692438 0.065739 0.250000
O O2 0.722669 0.138695 0.487270
O O3 0.560573 0.057696 0.522177
O O4 0.804306 0.034757 0.527884
O O5 0.125592 0.482068 0.250000
O O6 0.307880 0.449043 0.448403
O O7 0.088757 0.424434 0.524842
O O8 0.781443 0.250000 0.500000
O O9 0.820809 0.316108 0.250000
O O10 0.948823 0.330562 0.523938
O O11 0.585571 0.943709 0.750000
O O12 0.582742 0.860156 0.959275
O O13 0.070801 0.362538 0.250000
O O14 0.193850 0.326455 0.988868
O O15 0.633001 0.750000 0.500000
O O16 0.658297 0.679631 0.750000
#
# Coordination Sequence:
#
# PCOD9435768 Si02
#       6
#     8   8   8   8   8   8
#     4  10  22  38  56  80 112 148 181 219 267 320
#     4   9  18  36  60  84 112 142 175 220 274 324
#     4  11  23  39  58  79 107 144 185 225 266 319
#     4  10  20  34  53  80 112 144 182 223 267 321
#     4   8  17  34  56  82 109 138 174 220 273 324
#     4  10  19  33  54  79 108 141 180 228 280 328
#
# _framework density 23.746904000000001
#
# number of rings (size 3 to 8) (size 9 to 14) (size 15 to 20)
#    0.000    2.333    0.000    3.500    0.000    3.333 
#    0.000    7.500    0.000    0.000    0.000    0.000 
#    0.000    0.000    0.000    0.000    0.000    0.000 
#
# Total GULP energy -268237.967748 kJ/mol
# GULP energy per Si atom -5588.290995 kJ/mol
# Density = 2.369286 g / cm^3
# Si number density = 23.746904 Si / 1000 Ang^3
#
#
#
# Elastic Constant Matrix: (Units=GPa)
#
#
# Indices 1 2 3 4 5 6 
#
# 1 -139.4175 71.9075 -2.5413 0.0000 0.0000 0.0000
# 2 71.9075 134.1220 1.7134 0.0000 0.0000 0.0000
# 3 -2.5413 1.7134 62.8567 0.0000 0.0000 0.0000
# 4 0.0000 0.0000 0.0000 14.3585 0.0000 0.0000
# 5 0.0000 0.0000 0.0000 0.0000 9.9646 0.0000
# 6 0.0000 0.0000 0.0000 0.0000 0.0000 31.1831
#
#
#
# Elastic Compliance Matrix: (Units=1/GPa)
#
#
# Indices 1 2 3 4 5 6 
#
# 1 -0.005613 0.003013 -0.000309 0.000000 0.000000 0.000000
# 2 0.003013 0.005841 -0.000037 0.000000 0.000000 0.000000
# 3 -0.000309 -0.000037 0.015898 0.000000 0.000000 0.000000
# 4 0.000000 0.000000 0.000000 0.069645 0.000000 0.000000
# 5 0.000000 0.000000 0.000000 0.000000 0.100355 0.000000
# 6 0.000000 0.000000 0.000000 0.000000 0.000000 0.032069
#
#
# Mechanical properties :
#
#
# Convention : Reuss Voigt Hill
#
# Bulk Modulus (GPa) = 46.60005 22.19116 34.39560
# Shear Modulus (GPa) = 22.72582 10.20003 16.46292
#
# Velocity S-wave (km/s) = 3.09690 2.07476 2.63585
# Velocity P-wave (km/s) = 5.69684 3.88647 4.87640
#
# Compressibility (1/GPa) = 0.02145921
#
# Stress axis : x y z
#
# Youngs Moduli (GPa) = -178.16012 171.20725 62.90211
#
# Poissons Ratio (x) = -0.51589 0.01944
# Poissons Ratio (y) = 0.53684 0.00235
# Poissons Ratio (z) = -0.05506 0.00640
#
# Static dielectric constant tensor:
#      x y z
#    x 1.902240 0.000000 0.000000 
#    y 0.000000 1.803420 0.000000 
#    z 0.000000 0.000000 1.866410 
# 
# From -- ./inp_files/3188.got.cif
#   From: 2010.05.17/outbox.cif.g08.bks.cpg/sg57_2_cif.got.tgz:3188.got - 2010.06.03 13:58:18.
