data_PCOD9435998
_publ_section_title
;
Structure prediction by ZEFSAII (Michael W. Deem and Ramdas Pophale) SiO2 
 PCOD9435998
Probable space group: P B C M
;
_chemical_formula_sum "Si O2"
_cell_formula_units_Z 64
_cell_length_a 21.423384
_cell_length_b 18.390193
_cell_length_c 8.403390
_cell_angle_alpha 90.000000
_cell_angle_beta 90.000000
_cell_angle_gamma 90.000000
_cell_volume 3310.768991
_symmetry_space_group_name_H-M "P B C M"
_symmetry_group_IT_number 57
_symmetry_cell_setting 'orthorhombic'
loop_
_space_group_symop_operation_xyz
x,y,z
-x,-y,1/2+z
x,1/2-y,-z
-x,1/2+y,1/2-z
-x,-y,-z
x,y,1/2-z
-x,1/2+y,z
x,1/2-y,1/2+z
loop_
_atom_site_type_symbol
_atom_site_label
_atom_site_fract_x
_atom_site_fract_y
_atom_site_fract_z
Si Si1 0.361475 0.427285 0.943812
Si Si2 0.990103 0.167472 0.057663
Si Si3 0.117582 0.409504 0.557795
Si Si4 0.753629 0.330672 0.559867
Si Si5 0.244538 0.168058 0.442567
Si Si6 0.129743 0.573998 0.057517
Si Si7 0.502283 0.916600 0.559496
Si Si8 0.370471 0.595807 0.940032
O O1 0.360377 0.428609 0.750000
O O2 0.301790 0.382343 0.998689
O O3 0.428186 0.392095 0.990215
O O4 0.360227 0.511838 0.995625
O O5 0.990443 0.167694 0.250000
O O6 0.053573 0.128100 0.002375
O O7 0.929434 0.122221 0.005474
O O8 0.987638 0.250000 0.000000
O O9 0.117136 0.408627 0.750000
O O10 0.178454 0.365032 0.503578
O O11 0.123007 0.492327 0.502950
O O12 0.768206 0.250000 0.500000
O O13 0.754864 0.330224 0.750000
O O14 0.806327 0.387491 0.502872
O O15 0.685470 0.355560 0.503914
O O16 0.251873 0.250000 0.500000
O O17 0.244963 0.167267 0.250000
O O18 0.130094 0.572628 0.250000
O O19 0.499157 0.915479 0.750000
O O20 0.439770 0.880374 0.492957
O O21 0.500000 0.000000 0.500000
O O22 0.368604 0.595678 0.750000
#
# Coordination Sequence:
#
# PCOD9435998 Si02
#       8
#     8   8   8   8   8   8   8   8
#     4   8  16  31  52  75 103 138 176 218 265 315
#     4  10  21  37  56  83 115 148 183 222 267 319
#     4  10  21  36  57  82 110 144 183 222 266 318
#     4  11  23  38  55  78 107 141 178 222 273 329
#     4  10  20  35  52  75 105 139 178 219 264 317
#     4  10  22  38  57  82 111 140 181 229 270 316
#     4   9  16  29  50  77 107 140 179 226 274 323
#     4  10  19  34  56  80 105 138 178 224 275 329
#
# _framework density 19.330857000000002
#
# number of rings (size 3 to 8) (size 9 to 14) (size 15 to 20)
#    0.000    2.250    0.000    3.750    0.000    3.500 
#    0.000    4.375    0.000    1.500    0.000    0.000 
#    0.000    0.000    0.000    0.000    0.000    0.000 
#
# Total GULP energy -357254.244939 kJ/mol
# GULP energy per Si atom -5582.097577 kJ/mol
# Density = 1.928686 g / cm^3
# Si number density = 19.330857 Si / 1000 Ang^3
#
#
#
# Elastic Constant Matrix: (Units=GPa)
#
#
# Indices 1 2 3 4 5 6 
#
# 1 63.0044 -23.0639 7.1331 0.0000 0.0000 0.0000
# 2 -23.0639 38.1982 -1.9364 0.0000 0.0000 0.0000
# 3 7.1331 -1.9364 17.8290 0.0000 0.0000 0.0000
# 4 0.0000 0.0000 0.0000 32.5707 0.0000 0.0000
# 5 0.0000 0.0000 0.0000 0.0000 9.8258 0.0000
# 6 0.0000 0.0000 0.0000 0.0000 0.0000 -8.9241
#
#
#
# Elastic Compliance Matrix: (Units=1/GPa)
#
#
# Indices 1 2 3 4 5 6 
#
# 1 0.021244 0.012465 -0.007146 0.000000 0.000000 0.000000
# 2 0.012465 0.033638 -0.001333 0.000000 0.000000 0.000000
# 3 -0.007146 -0.001333 0.058802 0.000000 0.000000 0.000000
# 4 0.000000 0.000000 0.000000 0.030702 0.000000 0.000000
# 5 0.000000 0.000000 0.000000 0.000000 0.101773 0.000000
# 6 0.000000 0.000000 0.000000 0.000000 0.000000 -0.112057
#
#
# Mechanical properties :
#
#
# Convention : Reuss Voigt Hill
#
# Bulk Modulus (GPa) = 8.21995 9.25525 8.73760
# Shear Modulus (GPa) = 29.99709 15.82107 22.90908
#
# Velocity S-wave (km/s) = 3.94353 2.86394 3.44627
# Velocity P-wave (km/s) = 4.99967 3.96666 4.51282
#
# Compressibility (1/GPa) = 0.12165521
#
# Stress axis : x y z
#
# Youngs Moduli (GPa) = 47.07252 29.72848 17.00615
#
# Poissons Ratio (x) = -0.37056 0.12152
# Poissons Ratio (y) = -0.58674 0.02268
# Poissons Ratio (z) = 0.33636 0.03964
#
# Static dielectric constant tensor:
#      x y z
#    x 1.696720 0.000000 0.000000 
#    y 0.000000 1.630960 0.000000 
#    z 0.000000 0.000000 1.662570 
# 
# From -- ./inp_files/8499.got.cif
#   From: 2010.05.17/outbox.cif.g08.bks.cpg/sg57_5_cif.got.tgz:8499.got - 2010.06.03 13:58:18.
