data_PCOD9435668
_publ_section_title
;
Structure prediction by ZEFSAII (Michael W. Deem and Ramdas Pophale) SiO2 
 PCOD9435668
Probable space group: P B C M
;
_chemical_formula_sum "Si O2"
_cell_formula_units_Z 48
_cell_length_a 32.269643
_cell_length_b 9.187325
_cell_length_c 8.636966
_cell_angle_alpha 90.000000
_cell_angle_beta 90.000000
_cell_angle_gamma 90.000000
_cell_volume 2560.615975
_symmetry_space_group_name_H-M "P B C M"
_symmetry_group_IT_number 57
_symmetry_cell_setting 'orthorhombic'
loop_
_space_group_symop_operation_xyz
x,y,z
-x,-y,1/2+z
x,1/2-y,-z
-x,1/2+y,1/2-z
-x,-y,-z
x,y,1/2-z
-x,1/2+y,z
x,1/2-y,1/2+z
loop_
_atom_site_type_symbol
_atom_site_label
_atom_site_fract_x
_atom_site_fract_y
_atom_site_fract_z
Si Si1 0.720043 0.415407 0.063190
Si Si2 0.039343 0.086856 0.435577
Si Si3 0.877198 0.086894 0.563961
Si Si4 0.539059 0.086006 0.935958
Si Si5 0.370945 0.914298 0.436262
Si Si6 0.798531 0.912876 0.434964
O O1 0.723075 0.412076 0.250000
O O2 0.674097 0.474742 0.018035
O O3 0.723590 0.250000 0.000000
O O4 0.756516 0.511950 0.994488
O O5 0.039933 0.250000 0.500000
O O6 0.036861 0.091712 0.250000
O O7 0.081478 0.002471 0.478783
O O8 0.000000 0.000000 0.500000
O O9 0.879826 0.250000 0.500000
O O10 0.874055 0.090704 0.750000
O O11 0.837184 0.006646 0.495904
O O12 0.537187 0.088844 0.750000
O O13 0.584382 0.021526 0.983262
O O14 0.537396 0.250000 0.000000
O O15 0.500000 0.000000 0.000000
O O16 0.371108 0.750000 0.500000
O O17 0.370969 0.908861 0.250000
O O18 0.801652 0.750000 0.500000
O O19 0.798917 0.909868 0.250000
#
# Coordination Sequence:
#
# PCOD9435668 Si02
#       6
#     8   8   8   8   8   8
#     4  10  19  35  58  84 111 142 181 227 275 329
#     4  11  24  41  64  92 125 161 200 243 291 342
#     4  11  24  42  64  91 120 155 196 240 285 336
#     4  10  19  33  52  77 106 140 180 224 273 327
#     4   8  16  30  51  76 104 137 177 222 270 324
#     4  12  25  41  60  84 115 151 188 232 283 338
#
# _framework density 18.745488999999999
#
# number of rings (size 3 to 8) (size 9 to 14) (size 15 to 20)
#    0.000    1.667    0.000    5.000    0.000    6.667 
#    0.000    0.833    0.000    0.000    0.000    0.000 
#    0.000    0.000    0.000    0.000    0.000    0.000 
#
# Total GULP energy -268032.140357 kJ/mol
# GULP energy per Si atom -5584.002924 kJ/mol
# Density = 1.870282 g / cm^3
# Si number density = 18.745489 Si / 1000 Ang^3
#
#
#
# Elastic Constant Matrix: (Units=GPa)
#
#
# Indices 1 2 3 4 5 6 
#
# 1 236.0105 102.5855 73.6127 0.0000 0.0000 0.0000
# 2 102.5855 130.5726 46.5023 0.0000 0.0000 0.0000
# 3 73.6127 46.5023 78.8313 0.0000 0.0000 0.0000
# 4 0.0000 0.0000 0.0000 34.4216 0.0000 0.0000
# 5 0.0000 0.0000 0.0000 0.0000 28.4098 0.0000
# 6 0.0000 0.0000 0.0000 0.0000 0.0000 32.8986
#
#
#
# Elastic Compliance Matrix: (Units=1/GPa)
#
#
# Indices 1 2 3 4 5 6 
#
# 1 0.007500 -0.004302 -0.004466 0.000000 0.000000 0.000000
# 2 -0.004302 0.012163 -0.003158 0.000000 0.000000 0.000000
# 3 -0.004466 -0.003158 0.018718 0.000000 0.000000 0.000000
# 4 0.000000 0.000000 0.000000 0.029051 0.000000 0.000000
# 5 0.000000 0.000000 0.000000 0.000000 0.035199 0.000000
# 6 0.000000 0.000000 0.000000 0.000000 0.000000 0.030396
#
#
# Mechanical properties :
#
#
# Convention : Reuss Voigt Hill
#
# Bulk Modulus (GPa) = 68.82195 98.97949 83.90072
# Shear Modulus (GPa) = 30.91718 33.99359 32.45538
#
# Velocity S-wave (km/s) = 4.06558 4.26306 4.16549
# Velocity P-wave (km/s) = 7.67021 8.78339 8.24561
#
# Compressibility (1/GPa) = 0.01453025
#
# Stress axis : x y z
#
# Youngs Moduli (GPa) = 133.33577 82.21630 53.42405
#
# Poissons Ratio (x) = 0.35369 0.23858
# Poissons Ratio (y) = 0.57360 0.16870
# Poissons Ratio (z) = 0.59544 0.25962
#
# Static dielectric constant tensor:
#      x y z
#    x 1.677440 0.000000 0.000000 
#    y 0.000000 1.592610 0.000000 
#    z 0.000000 0.000000 1.631580 
# 
# From -- ./inp_files/9888.got.cif
#   From: 2010.05.17/outbox.cif.g08.bks.cpg/sg57_5_cif.got.tgz:9888.got - 2010.06.03 13:58:18.
