data_PCOD9435961
_publ_section_title
;
Structure prediction by ZEFSAII (Michael W. Deem and Ramdas Pophale) SiO2 
 PCOD9435961
Probable space group: P B C M
;
_chemical_formula_sum "Si O2"
_cell_formula_units_Z 48
_cell_length_a 13.109776
_cell_length_b 24.332726
_cell_length_c 8.305885
_cell_angle_alpha 90.000000
_cell_angle_beta 90.000000
_cell_angle_gamma 90.000000
_cell_volume 2649.548970
_symmetry_space_group_name_H-M "P B C M"
_symmetry_group_IT_number 57
_symmetry_cell_setting 'orthorhombic'
loop_
_space_group_symop_operation_xyz
x,y,z
-x,-y,1/2+z
x,1/2-y,-z
-x,1/2+y,1/2-z
-x,-y,-z
x,y,1/2-z
-x,1/2+y,z
x,1/2-y,1/2+z
loop_
_atom_site_type_symbol
_atom_site_label
_atom_site_fract_x
_atom_site_fract_y
_atom_site_fract_z
Si Si1 0.997156 0.312482 0.056934
Si Si2 0.616698 0.688086 0.557091
Si Si3 0.803018 0.381118 0.944112
Si Si4 0.193332 0.383395 0.053513
Si Si5 0.882596 0.001444 0.444991
Si Si6 0.388609 0.811951 0.942970
O O1 0.994010 0.313734 0.250000
O O2 0.096590 0.346636 0.003342
O O3 0.003137 0.250000 0.000000
O O4 0.896312 0.341914 0.991760
O O5 0.640907 0.750000 0.500000
O O6 0.616997 0.688452 0.750000
O O7 0.702505 0.645509 0.499267
O O8 0.502688 0.674504 0.499879
O O9 0.798049 0.383222 0.750000
O O10 0.828830 0.442562 0.002120
O O11 0.697461 0.354201 0.002048
O O12 0.194745 0.383543 0.250000
O O13 0.173946 0.445875 0.000938
O O14 0.882537 0.001723 0.250000
O O15 0.000000 0.000000 0.500000
O O16 0.388152 0.811650 0.750000
O O17 0.364600 0.750000 0.000000
#
# Coordination Sequence:
#
# PCOD9435961 Si02
#       6
#     8   8   8   8   8   8
#     4  11  21  33  51  77 108 138 171 215 264 317
#     4  10  19  34  55  78 104 138 175 215 264 315
#     4  10  21  35  54  78 106 139 176 217 263 313
#     4   9  19  34  53  77 106 138 173 214 264 314
#     4  10  19  36  56  77 105 141 179 216 261 312
#     4  10  20  35  53  77 105 137 174 216 264 312
#
# _framework density 18.116289999999999
#
# number of rings (size 3 to 8) (size 9 to 14) (size 15 to 20)
#    0.000    2.000    1.667    3.500    0.000    2.667 
#    0.000    5.000    0.000    0.000    0.000    0.000 
#    0.000    0.000    0.000    0.000    0.000    0.000 
#
# Total GULP energy -267978.709852 kJ/mol
# GULP energy per Si atom -5582.889789 kJ/mol
# Density = 1.807506 g / cm^3
# Si number density = 18.116290 Si / 1000 Ang^3
#
#
#
# Elastic Constant Matrix: (Units=GPa)
#
#
# Indices 1 2 3 4 5 6 
#
# 1 149.3558 104.7825 15.7292 0.0000 0.0000 0.0000
# 2 104.7825 163.7929 13.6180 0.0000 0.0000 0.0000
# 3 15.7292 13.6180 17.4452 0.0000 0.0000 0.0000
# 4 0.0000 0.0000 0.0000 2.1564 0.0000 0.0000
# 5 0.0000 0.0000 0.0000 0.0000 19.5204 0.0000
# 6 0.0000 0.0000 0.0000 0.0000 0.0000 875.8083
#
#
#
# Elastic Compliance Matrix: (Units=1/GPa)
#
#
# Indices 1 2 3 4 5 6 
#
# 1 0.012610 -0.007616 -0.005424 0.000000 0.000000 0.000000
# 2 -0.007616 0.011129 -0.001821 0.000000 0.000000 0.000000
# 3 -0.005424 -0.001821 0.063634 0.000000 0.000000 0.000000
# 4 0.000000 0.000000 0.000000 0.463745 0.000000 0.000000
# 5 0.000000 0.000000 0.000000 0.000000 0.051228 0.000000
# 6 0.000000 0.000000 0.000000 0.000000 0.000000 0.001142
#
#
# Mechanical properties :
#
#
# Convention : Reuss Voigt Hill
#
# Bulk Modulus (GPa) = 17.34571 66.53925 41.94248
# Shear Modulus (GPa) = 7.66371 192.59463 100.12917
#
# Velocity S-wave (km/s) = 2.05900 10.32187 7.44246
# Velocity P-wave (km/s) = 3.90488 13.37398 9.85168
#
# Compressibility (1/GPa) = 0.05765115
#
# Stress axis : x y z
#
# Youngs Moduli (GPa) = 79.30509 89.85891 15.71485
#
# Poissons Ratio (x) = 0.68433 0.08524
# Poissons Ratio (y) = 0.60396 0.02861
# Poissons Ratio (z) = 0.43018 0.16359
#
# Static dielectric constant tensor:
#      x y z
#    x 1.603840 0.000000 0.000000 
#    y 0.000000 1.612480 0.000000 
#    z 0.000000 0.000000 1.626350 
# 
# From -- ./inp_files/3130.got.cif
#   From: 2010.05.17/outbox.cif.g08.bks.cpg/sg57_2_cif.got.tgz:3130.got - 2010.06.03 13:58:18.
