data_PCOD9435376
_publ_section_title
;
Structure prediction by ZEFSAII (Michael W. Deem and Ramdas Pophale) SiO2 
 PCOD9435376
Probable space group: P B C M
;
_chemical_formula_sum "Si O2"
_cell_formula_units_Z 64
_cell_length_a 18.868198
_cell_length_b 20.416330
_cell_length_c 9.360614
_cell_angle_alpha 90.000000
_cell_angle_beta 90.000000
_cell_angle_gamma 90.000000
_cell_volume 3605.889705
_symmetry_space_group_name_H-M "P B C M"
_symmetry_group_IT_number 57
_symmetry_cell_setting 'orthorhombic'
loop_
_space_group_symop_operation_xyz
x,y,z
-x,-y,1/2+z
x,1/2-y,-z
-x,1/2+y,1/2-z
-x,-y,-z
x,y,1/2-z
-x,1/2+y,z
x,1/2-y,1/2+z
loop_
_atom_site_type_symbol
_atom_site_label
_atom_site_fract_x
_atom_site_fract_y
_atom_site_fract_z
Si Si1 0.035221 0.315985 0.918240
Si Si2 0.807075 0.057600 0.582213
Si Si3 0.462828 0.057961 0.416444
Si Si4 0.283213 0.314983 0.085605
Si Si5 0.135531 0.816996 0.580981
Si Si6 0.707452 0.554697 0.416679
Si Si7 0.543852 0.813418 0.414004
Si Si8 0.939528 0.539433 0.082168
O O1 0.049784 0.307246 0.750000
O O2 0.067957 0.385252 0.967764
O O3 0.949917 0.324412 0.936531
O O4 0.056819 0.250000 0.000000
O O5 0.801603 0.076321 0.750000
O O6 0.826438 0.120587 0.489317
O O7 0.738705 0.015335 0.538171
O O8 0.869438 0.003817 0.569679
O O9 0.482698 0.059432 0.250000
O O10 0.377474 0.052400 0.424054
O O11 0.481239 0.124182 0.498678
O O12 0.500000 0.000000 0.500000
O O13 0.259299 0.313571 0.250000
O O14 0.369734 0.313194 0.086960
O O15 0.259783 0.250000 0.000000
O O16 0.265528 0.383115 0.006930
O O17 0.155419 0.750000 0.500000
O O18 0.149733 0.812619 0.750000
O O19 0.727772 0.564758 0.250000
O O20 0.520607 0.750000 0.500000
O O21 0.520713 0.813927 0.250000
O O22 0.958998 0.543516 0.250000
O O23 0.000000 0.500000 0.000000
#
# Coordination Sequence:
#
# PCOD9435376 Si02
#       8
#     8   8   8   8   8   8   8   8
#     4   9  18  31  47  70  98 129 165 206 246 288
#     4  10  20  34  53  75 102 135 167 205 254 301
#     4  10  19  32  51  74 101 132 168 209 254 302
#     4   9  16  27  46  70  96 129 167 205 243 288
#     4  10  19  32  51  75 101 128 167 211 252 298
#     4   9  19  34  50  72 102 135 169 207 251 302
#     4   9  16  27  45  71 100 128 162 202 244 291
#     4  10  19  32  50  73 100 129 164 204 247 293
#
# _framework density 17.748740000000002
#
# number of rings (size 3 to 8) (size 9 to 14) (size 15 to 20)
#    0.000    2.500    1.250    1.500    0.000    5.000 
#    0.000    0.625    0.000    2.250    0.000    3.500 
#    0.000    0.000    0.000    0.000    0.000    0.000 
#
# Total GULP energy -356921.663759 kJ/mol
# GULP energy per Si atom -5576.900996 kJ/mol
# Density = 1.770834 g / cm^3
# Si number density = 17.748740 Si / 1000 Ang^3
#
#
#
# Elastic Constant Matrix: (Units=GPa)
#
#
# Indices 1 2 3 4 5 6 
#
# 1 7.3367 23.3013 24.5235 0.0000 0.0000 0.0000
# 2 23.3013 185.7228 95.2870 0.0000 0.0000 0.0000
# 3 24.5235 95.2870 125.9867 0.0000 0.0000 0.0000
# 4 0.0000 0.0000 0.0000 40.1461 0.0000 0.0000
# 5 0.0000 0.0000 0.0000 0.0000 11.7749 0.0000
# 6 0.0000 0.0000 0.0000 0.0000 0.0000 23.1165
#
#
#
# Elastic Compliance Matrix: (Units=1/GPa)
#
#
# Indices 1 2 3 4 5 6 
#
# 1 0.422942 -0.017690 -0.068947 0.000000 0.000000 0.000000
# 2 -0.017690 0.009538 -0.003771 0.000000 0.000000 0.000000
# 3 -0.068947 -0.003771 0.024210 0.000000 0.000000 0.000000
# 4 0.000000 0.000000 0.000000 0.024909 0.000000 0.000000
# 5 0.000000 0.000000 0.000000 0.000000 0.084926 0.000000
# 6 0.000000 0.000000 0.000000 0.000000 0.000000 0.043259
#
#
# Mechanical properties :
#
#
# Convention : Reuss Voigt Hill
#
# Bulk Modulus (GPa) = 3.62483 67.25221 35.43852
# Shear Modulus (GPa) = 5.66534 26.73647 16.20091
#
# Velocity S-wave (km/s) = 1.78855 3.88543 3.02452
# Velocity P-wave (km/s) = 2.51236 7.62249 5.67513
#
# Compressibility (1/GPa) = 0.27587534
#
# Stress axis : x y z
#
# Youngs Moduli (GPa) = 2.36439 104.83908 41.30519
#
# Poissons Ratio (x) = 1.85455 2.84788
# Poissons Ratio (y) = 0.04182 0.15576
# Poissons Ratio (z) = 0.16302 0.39533
#
# Static dielectric constant tensor:
#      x y z
#    x 1.622260 0.000000 0.000000 
#    y 0.000000 1.580660 0.000000 
#    z 0.000000 0.000000 1.596740 
# 
# From -- ./inp_files/8632.got.cif
#   From: 2010.05.17/outbox.cif.g08.bks.cpg/sg57_5_cif.got.tgz:8632.got - 2010.06.03 13:58:18.
