data_PCOD9435863
_publ_section_title
;
Structure prediction by ZEFSAII (Michael W. Deem and Ramdas Pophale) SiO2 
 PCOD9435863
Probable space group: P B C M
;
_chemical_formula_sum "Si O2"
_cell_formula_units_Z 40
_cell_length_a 9.569749
_cell_length_b 22.047057
_cell_length_c 10.659745
_cell_angle_alpha 90.000000
_cell_angle_beta 90.000000
_cell_angle_gamma 90.000000
_cell_volume 2249.044185
_symmetry_space_group_name_H-M "P B C M"
_symmetry_group_IT_number 57
_symmetry_cell_setting 'orthorhombic'
loop_
_space_group_symop_operation_xyz
x,y,z
-x,-y,1/2+z
x,1/2-y,-z
-x,1/2+y,1/2-z
-x,-y,-z
x,y,1/2-z
-x,1/2+y,z
x,1/2-y,1/2+z
loop_
_atom_site_type_symbol
_atom_site_label
_atom_site_fract_x
_atom_site_fract_y
_atom_site_fract_z
Si Si1 0.249212 0.608285 0.108213
Si Si2 0.854393 0.584103 0.451381
Si Si3 0.539745 0.947940 0.601676
Si Si4 0.080248 0.951097 0.383792
Si Si5 0.022232 0.796279 0.888715
O O1 0.214276 0.586107 0.250000
O O2 0.414753 0.601003 0.095961
O O3 0.176507 0.673784 0.098384
O O4 0.178512 0.569914 0.997511
O O5 0.689236 0.579168 0.437235
O O6 0.914812 0.523790 0.384377
O O7 0.925935 0.574519 0.587402
O O8 0.917979 0.646138 0.399123
O O9 0.548219 0.968130 0.750000
O O10 0.500000 0.000000 0.500000
O O11 0.131694 0.928515 0.250000
O O12 0.009228 0.769021 0.750000
O O13 0.995937 0.750000 0.000000
#
# Coordination Sequence:
#
# PCOD9435863 Si02
#       5
#     8   8   8   8   8
#     4   9  20  36  56  82 115 148 180 221 280 337
#     4  10  21  34  54  83 117 147 181 226 282 328
#     4  11  21  35  55  85 119 151 178 216 275 343
#     4  10  19  33  56  84 113 146 185 224 271 331
#     4  10  21  39  58  77 103 145 194 238 275 318
#
# _framework density 17.785333000000001
#
# number of rings (size 3 to 8) (size 9 to 14) (size 15 to 20)
#    0.000    2.000    2.000    1.800    0.000    9.600 
#    0.000    1.000    0.000    0.000    0.000    0.000 
#    0.000    0.000    0.000    0.000    0.000    0.000 
#
# Total GULP energy -222701.379677 kJ/mol
# GULP energy per Si atom -5567.534492 kJ/mol
# Density = 1.774485 g / cm^3
# Si number density = 17.785333 Si / 1000 Ang^3
#
#
#
# Elastic Constant Matrix: (Units=GPa)
#
#
# Indices 1 2 3 4 5 6 
#
# 1 140.7580 28.9768 48.3468 0.0000 0.0000 0.0000
# 2 28.9768 56.3992 52.4339 0.0000 0.0000 0.0000
# 3 48.3468 52.4339 142.8233 0.0000 0.0000 0.0000
# 4 0.0000 0.0000 0.0000 9.2487 0.0000 0.0000
# 5 0.0000 0.0000 0.0000 0.0000 19.6449 0.0000
# 6 0.0000 0.0000 0.0000 0.0000 0.0000 13.5395
#
#
#
# Elastic Compliance Matrix: (Units=1/GPa)
#
#
# Indices 1 2 3 4 5 6 
#
# 1 0.008265 -0.002498 -0.001881 0.000000 0.000000 0.000000
# 2 -0.002498 0.027673 -0.009314 0.000000 0.000000 0.000000
# 3 -0.001881 -0.009314 0.011058 0.000000 0.000000 0.000000
# 4 0.000000 0.000000 0.000000 0.108123 0.000000 0.000000
# 5 0.000000 0.000000 0.000000 0.000000 0.050904 0.000000
# 6 0.000000 0.000000 0.000000 0.000000 0.000000 0.073858
#
#
# Mechanical properties :
#
#
# Convention : Reuss Voigt Hill
#
# Bulk Modulus (GPa) = 50.99275 66.61061 58.80168
# Shear Modulus (GPa) = 15.93363 22.50150 19.21757
#
# Velocity S-wave (km/s) = 2.99638 3.56078 3.29071
# Velocity P-wave (km/s) = 6.38001 7.37831 6.89725
#
# Compressibility (1/GPa) = 0.01961063
#
# Stress axis : x y z
#
# Youngs Moduli (GPa) = 120.99894 36.13613 90.43519
#
# Poissons Ratio (x) = 0.09026 0.17007
# Poissons Ratio (y) = 0.30223 0.84231
# Poissons Ratio (z) = 0.22755 0.33657
#
# Static dielectric constant tensor:
#      x y z
#    x 1.630540 0.000000 0.000000 
#    y 0.000000 1.593240 0.000000 
#    z 0.000000 0.000000 1.677830 
# 
# From -- ./inp_files/11772.got.cif
#   From: 2010.05.17/outbox.cif.g08.bks.cpg/sg57_6_cif.got.tgz:11772.got - 2010.06.03 13:58:18.
