data_PCOD9435581
_publ_section_title
;
Structure prediction by ZEFSAII (Michael W. Deem and Ramdas Pophale) SiO2 
 PCOD9435581
Probable space group: P B C M
;
_chemical_formula_sum "Si O2"
_cell_formula_units_Z 56
_cell_length_a 14.405586
_cell_length_b 20.464420
_cell_length_c 10.015872
_cell_angle_alpha 90.000000
_cell_angle_beta 90.000000
_cell_angle_gamma 90.000000
_cell_volume 2952.698719
_symmetry_space_group_name_H-M "P B C M"
_symmetry_group_IT_number 57
_symmetry_cell_setting 'orthorhombic'
loop_
_space_group_symop_operation_xyz
x,y,z
-x,-y,1/2+z
x,1/2-y,-z
-x,1/2+y,1/2-z
-x,-y,-z
x,y,1/2-z
-x,1/2+y,z
x,1/2-y,1/2+z
loop_
_atom_site_type_symbol
_atom_site_label
_atom_site_fract_x
_atom_site_fract_y
_atom_site_fract_z
Si Si1 0.138703 0.442265 0.474111
Si Si2 0.590981 0.859725 0.905544
Si Si3 0.680614 0.000202 0.899171
Si Si4 0.382038 0.884418 0.593270
Si Si5 0.060597 0.922961 0.898427
Si Si6 0.245085 0.309437 0.408072
Si Si7 0.804631 0.310094 0.907746
O O1 0.216509 0.470995 0.574660
O O2 0.112184 0.507262 0.392155
O O3 0.184448 0.376491 0.415194
O O4 0.037525 0.424823 0.529524
O O5 0.606537 0.838042 0.750000
O O6 0.482707 0.855349 0.939927
O O7 0.615248 0.936741 0.907968
O O8 0.658864 0.826236 0.013030
O O9 0.675986 0.027925 0.750000
O O10 0.647752 0.053481 0.005435
O O11 0.384406 0.903805 0.750000
O O12 0.301959 0.831093 0.576774
O O13 0.038195 0.901557 0.750000
O O14 0.133185 0.871177 0.953959
O O15 0.204863 0.250000 0.500000
O O16 0.255719 0.292987 0.250000
O O17 0.819879 0.297556 0.750000
O O18 0.827874 0.250000 0.000000
#
# Coordination Sequence:
#
# PCOD9435581 Si02
#       7
#     8   8   8   8   8   8   8
#     4  10  21  38  61  90 119 153 201 243 303 359
#     4   9  20  37  57  85 120 157 200 249 298 350
#     4  10  19  32  54  88 123 153 192 247 302 354
#     4  10  20  36  58  83 118 160 200 244 296 353
#     4  10  20  38  62  87 117 154 199 249 300 353
#     4  11  24  41  63  89 122 161 199 247 300 363
#     4  10  22  40  59  83 116 157 198 245 295 349
#
# _framework density 18.965699999999998
#
# number of rings (size 3 to 8) (size 9 to 14) (size 15 to 20)
#    0.000    2.000    1.429    1.714    0.000    6.286 
#    0.000    4.286    0.000    0.000    0.000    0.000 
#    0.000    0.000    0.000    0.000    0.000    0.000 
#
# Total GULP energy -311981.178612 kJ/mol
# GULP energy per Si atom -5571.092475 kJ/mol
# Density = 1.892253 g / cm^3
# Si number density = 18.965700 Si / 1000 Ang^3
#
#
#
# Elastic Constant Matrix: (Units=GPa)
#
#
# Indices 1 2 3 4 5 6 
#
# 1 118.4165 46.5650 36.3590 0.0000 0.0000 0.0000
# 2 46.5650 106.1937 48.8623 0.0000 0.0000 0.0000
# 3 36.3590 48.8623 82.4610 0.0000 0.0000 0.0000
# 4 0.0000 0.0000 0.0000 20.1727 0.0000 0.0000
# 5 0.0000 0.0000 0.0000 0.0000 -63.1467 0.0000
# 6 0.0000 0.0000 0.0000 0.0000 0.0000 0.3726
#
#
#
# Elastic Compliance Matrix: (Units=1/GPa)
#
#
# Indices 1 2 3 4 5 6 
#
# 1 0.010607 -0.003436 -0.002641 0.000000 0.000000 0.000000
# 2 -0.003436 0.014060 -0.006816 0.000000 0.000000 0.000000
# 3 -0.002641 -0.006816 0.017330 0.000000 0.000000 0.000000
# 4 0.000000 0.000000 0.000000 0.049572 0.000000 0.000000
# 5 0.000000 0.000000 0.000000 0.000000 -0.015836 0.000000
# 6 0.000000 0.000000 0.000000 0.000000 0.000000 2.683724
#
#
# Mechanical properties :
#
#
# Convention : Reuss Voigt Hill
#
# Bulk Modulus (GPa) = 61.68646 63.40486 62.54566
# Shear Modulus (GPa) = 1.79170 3.16539 2.47855
#
# Velocity S-wave (km/s) = 0.97301 1.29330 1.14442
# Velocity P-wave (km/s) = 5.81878 5.97780 5.89883
#
# Compressibility (1/GPa) = 0.01621101
#
# Stress axis : x y z
#
# Youngs Moduli (GPa) = 94.28005 71.12590 57.70270
#
# Poissons Ratio (x) = 0.24438 0.15238
# Poissons Ratio (y) = 0.32393 0.39331
# Poissons Ratio (z) = 0.24898 0.48480
#
# Static dielectric constant tensor:
#      x y z
#    x 1.668500 0.000000 0.000000 
#    y 0.000000 1.657440 0.000000 
#    z 0.000000 0.000000 1.629460 
# 
# From -- ./inp_files/5140.got.cif
#   From: 2010.05.17/outbox.cif.g08.bks.cpg/sg57_3_cif.got.tgz:5140.got - 2010.06.03 13:58:18.
