data_PCOD9435889
_publ_section_title
;
Structure prediction by ZEFSAII (Michael W. Deem and Ramdas Pophale) SiO2 
 PCOD9435889
Probable space group: P B C M
;
_chemical_formula_sum "Si O2"
_cell_formula_units_Z 64
_cell_length_a 26.743601
_cell_length_b 14.321966
_cell_length_c 8.940149
_cell_angle_alpha 90.000000
_cell_angle_beta 90.000000
_cell_angle_gamma 90.000000
_cell_volume 3424.264312
_symmetry_space_group_name_H-M "P B C M"
_symmetry_group_IT_number 57
_symmetry_cell_setting 'orthorhombic'
loop_
_space_group_symop_operation_xyz
x,y,z
-x,-y,1/2+z
x,1/2-y,-z
-x,1/2+y,1/2-z
-x,-y,-z
x,y,1/2-z
-x,1/2+y,z
x,1/2-y,1/2+z
loop_
_atom_site_type_symbol
_atom_site_label
_atom_site_fract_x
_atom_site_fract_y
_atom_site_fract_z
Si Si1 0.388007 0.653950 0.923329
Si Si2 0.976305 0.147549 0.428841
Si Si3 0.554033 0.986217 0.071291
Si Si4 0.732932 0.153094 0.576842
Si Si5 0.926027 0.525324 0.428818
Si Si6 0.169172 0.150219 0.429355
Si Si7 0.260523 0.456182 0.070630
Si Si8 0.361565 0.149436 0.570267
O O1 0.403628 0.648867 0.750000
O O2 0.327736 0.651529 0.927233
O O3 0.404213 0.750000 0.000000
O O4 0.411273 0.570657 0.016985
O O5 0.972124 0.250000 0.500000
O O6 0.973123 0.155172 0.250000
O O7 0.029527 0.098388 0.467485
O O8 0.936256 0.072323 0.489295
O O9 0.549755 0.986040 0.250000
O O10 0.585088 0.894154 0.024660
O O11 0.500000 0.000000 0.000000
O O12 0.749014 0.250000 0.500000
O O13 0.748627 0.150342 0.750000
O O14 0.749151 0.059799 0.491628
O O15 0.928595 0.509663 0.250000
O O16 0.873858 0.574832 0.464533
O O17 0.156117 0.250000 0.500000
O O18 0.172972 0.158569 0.250000
O O19 0.220764 0.113917 0.498718
O O20 0.256617 0.455761 0.250000
O O21 0.316165 0.420223 0.029274
O O22 0.353131 0.250000 0.500000
O O23 0.361096 0.157042 0.750000
#
# Coordination Sequence:
#
# PCOD9435889 Si02
#       8
#     8   8   8   8   8   8   8   8
#     4  10  20  35  58  85 110 142 179 222 273 330
#     4  10  19  33  57  86 117 156 200 246 298 352
#     4  11  23  40  58  82 114 148 186 232 283 338
#     4  10  20  35  59  88 115 145 183 229 280 336
#     4   9  20  37  56  82 118 157 199 247 295 349
#     4  11  23  39  59  86 119 156 198 244 295 348
#     4  11  22  39  61  87 118 153 193 240 289 341
#     4  10  23  40  60  83 112 147 186 230 280 335
#
# _framework density 18.690147
#
# number of rings (size 3 to 8) (size 9 to 14) (size 15 to 20)
#    0.000    1.750    1.250    3.000    0.000    6.000 
#    0.000    1.875    0.000    3.000    0.000    0.000 
#    0.000    0.000    0.000    0.000    0.000    0.000 
#
# Total GULP energy -357439.172063 kJ/mol
# GULP energy per Si atom -5584.987063 kJ/mol
# Density = 1.864761 g / cm^3
# Si number density = 18.690147 Si / 1000 Ang^3
#
#
#
# Elastic Constant Matrix: (Units=GPa)
#
#
# Indices 1 2 3 4 5 6 
#
# 1 65.1830 23.5262 33.4937 0.0000 0.0000 0.0000
# 2 23.5262 132.5503 45.5092 0.0000 0.0000 0.0000
# 3 33.4937 45.5092 69.2128 0.0000 0.0000 0.0000
# 4 0.0000 0.0000 0.0000 39.4351 0.0000 0.0000
# 5 0.0000 0.0000 0.0000 0.0000 24.3917 0.0000
# 6 0.0000 0.0000 0.0000 0.0000 0.0000 3.3395
#
#
#
# Elastic Compliance Matrix: (Units=1/GPa)
#
#
# Indices 1 2 3 4 5 6 
#
# 1 0.020428 -0.000299 -0.009689 0.000000 0.000000 0.000000
# 2 -0.000299 0.009748 -0.006265 0.000000 0.000000 0.000000
# 3 -0.009689 -0.006265 0.023256 0.000000 0.000000 0.000000
# 4 0.000000 0.000000 0.000000 0.025358 0.000000 0.000000
# 5 0.000000 0.000000 0.000000 0.000000 0.040998 0.000000
# 6 0.000000 0.000000 0.000000 0.000000 0.000000 0.299447
#
#
# Mechanical properties :
#
#
# Convention : Reuss Voigt Hill
#
# Bulk Modulus (GPa) = 47.78635 52.44492 50.11564
# Shear Modulus (GPa) = 10.89998 24.39439 17.64718
#
# Velocity S-wave (km/s) = 2.41756 3.61668 3.07611
# Velocity P-wave (km/s) = 5.78065 6.74993 6.28401
#
# Compressibility (1/GPa) = 0.02092648
#
# Stress axis : x y z
#
# Youngs Moduli (GPa) = 48.95258 102.58070 42.99915
#
# Poissons Ratio (x) = 0.03069 0.41661
# Poissons Ratio (y) = 0.01465 0.26939
# Poissons Ratio (z) = 0.47429 0.64267
#
# Static dielectric constant tensor:
#      x y z
#    x 1.646740 0.000000 0.000000 
#    y 0.000000 1.621140 0.000000 
#    z 0.000000 0.000000 1.624490 
# 
# From -- ./inp_files/9473.got.cif
#   From: 2010.05.17/outbox.cif.g08.bks.cpg/sg57_5_cif.got.tgz:9473.got - 2010.06.03 13:58:18.
