data_PCOD9435364
_publ_section_title
;
Structure prediction by ZEFSAII (Michael W. Deem and Ramdas Pophale) SiO2 
 PCOD9435364
Probable space group: P B C M
;
_chemical_formula_sum "Si O2"
_cell_formula_units_Z 40
_cell_length_a 9.920485
_cell_length_b 26.231505
_cell_length_c 8.735818
_cell_angle_alpha 90.000000
_cell_angle_beta 90.000000
_cell_angle_gamma 90.000000
_cell_volume 2273.315383
_symmetry_space_group_name_H-M "P B C M"
_symmetry_group_IT_number 57
_symmetry_cell_setting 'orthorhombic'
loop_
_space_group_symop_operation_xyz
x,y,z
-x,-y,1/2+z
x,1/2-y,-z
-x,1/2+y,1/2-z
-x,-y,-z
x,y,1/2-z
-x,1/2+y,z
x,1/2-y,1/2+z
loop_
_atom_site_type_symbol
_atom_site_label
_atom_site_fract_x
_atom_site_fract_y
_atom_site_fract_z
Si Si1 0.537353 0.395509 0.565745
Si Si2 0.756562 0.032157 0.934112
Si Si3 0.232974 0.085189 0.435060
Si Si4 0.739564 0.306008 0.933487
Si Si5 0.040026 0.621567 0.566711
O O1 0.541598 0.399285 0.750000
O O2 0.620306 0.443113 0.499150
O O3 0.381663 0.395988 0.519200
O O4 0.619107 0.344707 0.520502
O O5 0.747978 0.032393 0.750000
O O6 0.877673 0.070176 0.979483
O O7 0.778532 0.974147 0.983385
O O8 0.223251 0.087308 0.250000
O O9 0.110894 0.116533 0.506370
O O10 0.744248 0.304059 0.750000
O O11 0.720649 0.250000 0.000000
O O12 0.875861 0.331926 0.996162
O O13 0.042299 0.625114 0.750000
#
# Coordination Sequence:
#
# PCOD9435364 Si02
#       5
#     8   8   8   8   8
#     4   9  19  33  51  75 102 132 169 209 254 303
#     4   9  18  31  49  73 104 140 176 208 244 295
#     4  10  19  32  49  74 108 141 169 206 252 297
#     4  10  20  37  58  76  95 125 164 209 256 305
#     4  10  20  33  50  76 104 134 172 210 248 296
#
# _framework density 17.595445999999999
#
# number of rings (size 3 to 8) (size 9 to 14) (size 15 to 20)
#    0.000    2.400    0.000    2.400    0.000    3.200 
#    0.000    1.000    0.000    2.400    0.000    0.000 
#    0.000    0.000    0.000    0.000    0.000    0.000 
#
# Total GULP energy -223249.278033 kJ/mol
# GULP energy per Si atom -5581.231951 kJ/mol
# Density = 1.755540 g / cm^3
# Si number density = 17.595446 Si / 1000 Ang^3
#
#
#
# Elastic Constant Matrix: (Units=GPa)
#
#
# Indices 1 2 3 4 5 6 
#
# 1 93.0266 4.9093 14.2395 0.0000 0.0000 0.0000
# 2 4.9093 66.9117 12.6464 0.0000 0.0000 0.0000
# 3 14.2395 12.6464 17.4956 0.0000 0.0000 0.0000
# 4 0.0000 0.0000 0.0000 24.2843 0.0000 0.0000
# 5 0.0000 0.0000 0.0000 0.0000 26.0234 0.0000
# 6 0.0000 0.0000 0.0000 0.0000 0.0000 7.6987
#
#
#
# Elastic Compliance Matrix: (Units=1/GPa)
#
#
# Indices 1 2 3 4 5 6 
#
# 1 0.012356 0.001151 -0.010888 0.000000 0.000000 0.000000
# 2 0.001151 0.017417 -0.013527 0.000000 0.000000 0.000000
# 3 -0.010888 -0.013527 0.075797 0.000000 0.000000 0.000000
# 4 0.000000 0.000000 0.000000 0.041179 0.000000 0.000000
# 5 0.000000 0.000000 0.000000 0.000000 0.038427 0.000000
# 6 0.000000 0.000000 0.000000 0.000000 0.000000 0.129893
#
#
# Mechanical properties :
#
#
# Convention : Reuss Voigt Hill
#
# Bulk Modulus (GPa) = 16.93711 26.78047 21.85879
# Shear Modulus (GPa) = 13.11385 21.31050 17.21218
#
# Velocity S-wave (km/s) = 2.73298 3.48392 3.13104
# Velocity P-wave (km/s) = 4.42782 5.60685 5.05185
#
# Compressibility (1/GPa) = 0.05904195
#
# Stress axis : x y z
#
# Youngs Moduli (GPa) = 80.93548 57.41451 13.19317
#
# Poissons Ratio (x) = -0.06611 0.14365
# Poissons Ratio (y) = -0.09319 0.17846
# Poissons Ratio (z) = 0.88125 0.77664
#
# Static dielectric constant tensor:
#      x y z
#    x 1.590690 0.000000 0.000000 
#    y 0.000000 1.582260 0.000000 
#    z 0.000000 0.000000 1.589170 
# 
# From -- ./inp_files/1476.got.cif
#   From: 2010.05.17/outbox.cif.g08.bks.cpg/sg57_1_cif.got.tgz:1476.got - 2010.06.03 13:58:18.
