data_PCOD9435334
_publ_section_title
;
Structure prediction by ZEFSAII (Michael W. Deem and Ramdas Pophale) SiO2 
 PCOD9435334
Probable space group: P B C M
;
_chemical_formula_sum "Si O2"
_cell_formula_units_Z 64
_cell_length_a 15.310049
_cell_length_b 30.639179
_cell_length_c 8.746417
_cell_angle_alpha 90.000000
_cell_angle_beta 90.000000
_cell_angle_gamma 90.000000
_cell_volume 4102.833413
_symmetry_space_group_name_H-M "P B C M"
_symmetry_group_IT_number 57
_symmetry_cell_setting 'orthorhombic'
loop_
_space_group_symop_operation_xyz
x,y,z
-x,-y,1/2+z
x,1/2-y,-z
-x,1/2+y,1/2-z
-x,-y,-z
x,y,1/2-z
-x,1/2+y,z
x,1/2-y,1/2+z
loop_
_atom_site_type_symbol
_atom_site_label
_atom_site_fract_x
_atom_site_fract_y
_atom_site_fract_z
Si Si1 0.788669 0.883053 0.067603
Si Si2 0.492894 0.296477 0.933819
Si Si3 0.539204 0.391742 0.564038
Si Si4 0.131252 0.530073 0.931838
Si Si5 0.321584 0.963036 0.933356
Si Si6 0.054586 0.058787 0.933058
Si Si7 0.363176 0.443340 0.933924
Si Si8 0.712906 0.703835 0.432532
O O1 0.777382 0.882778 0.250000
O O2 0.886397 0.899437 0.032906
O O3 0.720634 0.917654 0.997184
O O4 0.765865 0.836277 0.000139
O O5 0.499230 0.294186 0.750000
O O6 0.538392 0.341311 0.987424
O O7 0.389916 0.301568 0.972911
O O8 0.523115 0.250000 0.000000
O O9 0.538548 0.390488 0.750000
O O10 0.620579 0.421577 0.516998
O O11 0.449956 0.416686 0.519258
O O12 0.145450 0.530959 0.750000
O O13 0.047900 0.560433 0.971214
O O14 0.221450 0.540702 0.014333
O O15 0.098523 0.482078 0.981667
O O16 0.325468 0.966416 0.750000
O O17 0.360710 0.007568 0.003236
O O18 0.060322 0.050246 0.750000
O O19 0.359653 0.444222 0.750000
O O20 0.741833 0.750000 0.500000
O O21 0.718916 0.703954 0.250000
#
# Coordination Sequence:
#
# PCOD9435334 Si02
#       8
#     8   8   8   8   8   8   8   8
#     4  11  20  31  49  73  99 128 163 199 243 295
#     4   9  17  32  49  68  92 122 157 197 239 283
#     4   9  19  34  49  66  96 132 164 198 243 288
#     4  10  19  32  49  69  94 125 160 202 243 283
#     4  11  21  33  48  68  96 132 167 205 244 286
#     4   9  19  33  49  69  95 125 159 199 243 288
#     4  11  20  33  48  67  96 133 169 203 237 282
#     4  10  19  32  50  71  99 129 162 199 240 289
#
# _framework density 15.598976
#
# number of rings (size 3 to 8) (size 9 to 14) (size 15 to 20)
#    0.000    2.000    2.500    2.250    0.000    1.500 
#    0.000    3.125    0.000    0.000    0.000    0.875 
#    0.000    4.000    0.000    0.000    0.000    0.000 
#
# Total GULP energy -356994.732185 kJ/mol
# GULP energy per Si atom -5578.042690 kJ/mol
# Density = 1.556347 g / cm^3
# Si number density = 15.598976 Si / 1000 Ang^3
#
#
#
# Elastic Constant Matrix: (Units=GPa)
#
#
# Indices 1 2 3 4 5 6 
#
# 1 72.3658 58.7573 20.8813 0.0000 0.0000 0.0000
# 2 58.7573 146.3242 33.9788 0.0000 0.0000 0.0000
# 3 20.8813 33.9788 31.5349 0.0000 0.0000 0.0000
# 4 0.0000 0.0000 0.0000 24.6016 0.0000 0.0000
# 5 0.0000 0.0000 0.0000 0.0000 16.4366 0.0000
# 6 0.0000 0.0000 0.0000 0.0000 0.0000 14.9173
#
#
#
# Elastic Compliance Matrix: (Units=1/GPa)
#
#
# Indices 1 2 3 4 5 6 
#
# 1 0.021479 -0.007098 -0.006574 0.000000 0.000000 0.000000
# 2 -0.007098 0.011461 -0.007648 0.000000 0.000000 0.000000
# 3 -0.006574 -0.007648 0.044305 0.000000 0.000000 0.000000
# 4 0.000000 0.000000 0.000000 0.040648 0.000000 0.000000
# 5 0.000000 0.000000 0.000000 0.000000 0.060840 0.000000
# 6 0.000000 0.000000 0.000000 0.000000 0.000000 0.067036
#
#
# Mechanical properties :
#
#
# Convention : Reuss Voigt Hill
#
# Bulk Modulus (GPa) = 28.89928 53.05107 40.97518
# Shear Modulus (GPa) = 16.66967 20.29827 18.48397
#
# Velocity S-wave (km/s) = 3.27255 3.61121 3.44604
# Velocity P-wave (km/s) = 5.73115 7.17432 6.49296
#
# Compressibility (1/GPa) = 0.03460294
#
# Stress axis : x y z
#
# Youngs Moduli (GPa) = 46.55643 87.25481 22.57061
#
# Poissons Ratio (x) = 0.61938 0.14838
# Poissons Ratio (y) = 0.33048 0.17263
# Poissons Ratio (z) = 0.30607 0.66737
#
# Static dielectric constant tensor:
#      x y z
#    x 1.517080 0.000000 0.000000 
#    y 0.000000 1.499880 0.000000 
#    z 0.000000 0.000000 1.526330 
# 
# From -- ./inp_files/6018.got.cif
#   From: 2010.05.17/outbox.cif.g08.bks.cpg/sg57_4_cif.got.tgz:6018.got - 2010.06.03 13:58:18.
