data_PCOD9435895
_publ_section_title
;
Structure prediction by ZEFSAII (Michael W. Deem and Ramdas Pophale) SiO2 
 PCOD9435895
Probable space group: P B C M
;
_chemical_formula_sum "Si O2"
_cell_formula_units_Z 64
_cell_length_a 23.565683
_cell_length_b 9.005651
_cell_length_c 15.838160
_cell_angle_alpha 90.000000
_cell_angle_beta 90.000000
_cell_angle_gamma 90.000000
_cell_volume 3361.242683
_symmetry_space_group_name_H-M "P B C M"
_symmetry_group_IT_number 57
_symmetry_cell_setting 'orthorhombic'
loop_
_space_group_symop_operation_xyz
x,y,z
-x,-y,1/2+z
x,1/2-y,-z
-x,1/2+y,1/2-z
-x,-y,-z
x,y,1/2-z
-x,1/2+y,z
x,1/2-y,1/2+z
loop_
_atom_site_type_symbol
_atom_site_label
_atom_site_fract_x
_atom_site_fract_y
_atom_site_fract_z
Si Si1 0.541016 0.815489 0.091238
Si Si2 0.341712 0.422784 0.151257
Si Si3 0.554568 0.001318 0.655674
Si Si4 0.040558 0.028202 0.079993
Si Si5 0.262982 0.926961 0.988151
Si Si6 0.050962 0.349721 0.154780
Si Si7 0.143222 0.074912 0.523009
Si Si8 0.315096 0.428379 0.652672
O O1 0.591933 0.917097 0.125807
O O2 0.536467 0.670152 0.149079
O O3 0.482300 0.903675 0.091204
O O4 0.556554 0.750000 0.000000
O O5 0.335310 0.465719 0.250000
O O6 0.306840 0.520456 0.084566
O O7 0.321473 0.250133 0.143360
O O8 0.542575 0.057177 0.750000
O O9 0.621931 0.997865 0.642201
O O10 0.039607 0.198891 0.105054
O O11 0.104953 0.000470 0.051144
O O12 0.008375 0.937319 0.151380
O O13 0.000000 0.000000 0.000000
O O14 0.201188 0.989206 0.963796
O O15 0.263800 0.750000 0.000000
O O16 0.278212 0.004709 0.077609
O O17 0.068132 0.319863 0.250000
O O18 0.102103 0.428195 0.104550
O O19 0.153134 0.250000 0.500000
O O20 0.296659 0.456968 0.750000
#
# Coordination Sequence:
#
# PCOD9435895 Si02
#       8
#     8   8   8   8   8   8   8   8
#     4  11  21  35  57  86 116 147 188 238 292 354
#     4  10  21  40  64  84 110 155 203 243 292 360
#     4  10  20  35  55  81 113 147 184 230 290 355
#     4   9  18  34  56  82 114 155 191 228 284 345
#     4  12  25  39  59  87 118 151 195 254 310 358
#     4  10  19  33  57  89 120 149 192 242 283 334
#     4   9  20  38  57  77 111 158 199 231 280 350
#     4   9  20  40  62  82 111 156 205 248 294 358
#
# _framework density 19.040576999999999
#
# number of rings (size 3 to 8) (size 9 to 14) (size 15 to 20)
#    0.000    2.000    0.000    6.375    0.000    4.500 
#    0.000    5.625    0.000    0.000    0.000    0.000 
#    0.000    0.000    0.000    0.000    0.000    0.000 
#
# Total GULP energy -357011.751091 kJ/mol
# GULP energy per Si atom -5578.308611 kJ/mol
# Density = 1.899724 g / cm^3
# Si number density = 19.040577 Si / 1000 Ang^3
#
#
#
# Elastic Constant Matrix: (Units=GPa)
#
#
# Indices 1 2 3 4 5 6 
#
# 1 62.6852 29.6761 35.1251 0.0000 0.0000 0.0000
# 2 29.6761 36.0288 32.1147 0.0000 0.0000 0.0000
# 3 35.1251 32.1147 116.5788 0.0000 0.0000 0.0000
# 4 0.0000 0.0000 0.0000 -1.4168 0.0000 0.0000
# 5 0.0000 0.0000 0.0000 0.0000 18.1777 0.0000
# 6 0.0000 0.0000 0.0000 0.0000 0.0000 30.2228
#
#
#
# Elastic Compliance Matrix: (Units=1/GPa)
#
#
# Indices 1 2 3 4 5 6 
#
# 1 0.026748 -0.019680 -0.002638 0.000000 0.000000 0.000000
# 2 -0.019680 0.051269 -0.008194 0.000000 0.000000 0.000000
# 3 -0.002638 -0.008194 0.011630 0.000000 0.000000 0.000000
# 4 0.000000 0.000000 0.000000 -0.705795 0.000000 0.000000
# 5 0.000000 0.000000 0.000000 0.000000 0.055012 0.000000
# 6 0.000000 0.000000 0.000000 0.000000 0.000000 0.033088
#
#
# Mechanical properties :
#
#
# Convention : Reuss Voigt Hill
#
# Bulk Modulus (GPa) = 34.93651 45.45828 40.19740
# Shear Modulus (GPa) = -10.92935 17.28854 3.17959
#
# Velocity S-wave (km/s) = -2.39844 3.01655 1.29365
# Velocity P-wave (km/s) = 3.27388 6.00491 4.83618
#
# Compressibility (1/GPa) = 0.02862335
#
# Stress axis : x y z
#
# Youngs Moduli (GPa) = 37.38648 19.50482 85.98603
#
# Poissons Ratio (x) = 0.38386 0.22680
# Poissons Ratio (y) = 0.73578 0.70456
# Poissons Ratio (z) = 0.09861 0.15982
#
# Static dielectric constant tensor:
#      x y z
#    x 1.658120 0.000000 0.000000 
#    y 0.000000 1.672480 0.000000 
#    z 0.000000 0.000000 1.697310 
# 
# From -- ./inp_files/19472.got.cif
#   From: 2010.05.17/outbox.cif.g08.bks.cpg/sg57_10_cif.got.tgz:19472.got - 2010.06.03 13:58:18.
