data_PCOD9435206
_publ_section_title
;
Structure prediction by ZEFSAII (Michael W. Deem and Ramdas Pophale) SiO2 
 PCOD9435206
Probable space group: P B C M
;
_chemical_formula_sum "Si O2"
_cell_formula_units_Z 48
_cell_length_a 15.902929
_cell_length_b 19.424932
_cell_length_c 9.129096
_cell_angle_alpha 90.000000
_cell_angle_beta 90.000000
_cell_angle_gamma 90.000000
_cell_volume 2820.099303
_symmetry_space_group_name_H-M "P B C M"
_symmetry_group_IT_number 57
_symmetry_cell_setting 'orthorhombic'
loop_
_space_group_symop_operation_xyz
x,y,z
-x,-y,1/2+z
x,1/2-y,-z
-x,1/2+y,1/2-z
-x,-y,-z
x,y,1/2-z
-x,1/2+y,z
x,1/2-y,1/2+z
loop_
_atom_site_type_symbol
_atom_site_label
_atom_site_fract_x
_atom_site_fract_y
_atom_site_fract_z
Si Si1 0.244412 0.419692 0.075383
Si Si2 0.585109 0.083685 0.918850
Si Si3 0.583984 0.915962 0.581520
Si Si4 0.090525 0.176404 0.925465
Si Si5 0.757894 0.416865 0.924375
Si Si6 0.898381 0.324550 0.074188
O O1 0.256885 0.411210 0.250000
O O2 0.162047 0.377480 0.029920
O O3 0.232759 0.501168 0.049118
O O4 0.328349 0.395630 0.992857
O O5 0.591329 0.105527 0.750000
O O6 0.583155 0.999852 0.920207
O O7 0.498188 0.107061 0.992550
O O8 0.667290 0.104194 0.010272
O O9 0.579535 0.893958 0.750000
O O10 0.095422 0.184720 0.750000
O O11 0.994882 0.153724 0.958668
O O12 0.104476 0.250000 0.000000
O O13 0.760445 0.405087 0.750000
O O14 0.831395 0.376259 0.005576
O O15 0.888753 0.319889 0.250000
O O16 0.886719 0.250000 0.000000
#
# Coordination Sequence:
#
# PCOD9435206 Si02
#       6
#     8   8   8   8   8   8
#     4   9  18  32  49  72 102 132 162 200 247 293
#     4   9  16  27  44  67  97 131 163 197 240 289
#     4   9  16  26  43  69  98 128 163 200 239 287
#     4   9  19  35  53  72  96 129 167 204 243 291
#     4  10  19  31  49  74 102 130 162 202 246 291
#     4  10  20  35  53  72  96 128 166 204 244 293
#
# _framework density 17.020676999999999
#
# number of rings (size 3 to 8) (size 9 to 14) (size 15 to 20)
#    0.000    2.667    0.000    2.000    0.000    6.667 
#    0.000    0.000    0.000    1.000    0.000    4.667 
#    0.000    0.000    0.000    0.000    0.000    0.000 
#
# Total GULP energy -267603.885322 kJ/mol
# GULP energy per Si atom -5575.080944 kJ/mol
# Density = 1.698194 g / cm^3
# Si number density = 17.020677 Si / 1000 Ang^3
#
#
#
# Elastic Constant Matrix: (Units=GPa)
#
#
# Indices 1 2 3 4 5 6 
#
# 1 187.9030 66.9848 93.2087 0.0000 0.0000 0.0000
# 2 66.9848 32.6696 42.9523 0.0000 0.0000 0.0000
# 3 93.2087 42.9523 97.5743 0.0000 0.0000 0.0000
# 4 0.0000 0.0000 0.0000 20.7125 0.0000 0.0000
# 5 0.0000 0.0000 0.0000 0.0000 29.9614 0.0000
# 6 0.0000 0.0000 0.0000 0.0000 0.0000 -12.7181
#
#
#
# Elastic Compliance Matrix: (Units=1/GPa)
#
#
# Indices 1 2 3 4 5 6 
#
# 1 0.020033 -0.037782 -0.002506 0.000000 0.000000 0.000000
# 2 -0.037782 0.143918 -0.027261 0.000000 0.000000 0.000000
# 3 -0.002506 -0.027261 0.024643 0.000000 0.000000 0.000000
# 4 0.000000 0.000000 0.000000 0.048280 0.000000 0.000000
# 5 0.000000 0.000000 0.000000 0.000000 0.033376 0.000000
# 6 0.000000 0.000000 0.000000 0.000000 0.000000 -0.078628
#
#
# Mechanical properties :
#
#
# Convention : Reuss Voigt Hill
#
# Bulk Modulus (GPa) = 18.69281 80.49318 49.59299
# Shear Modulus (GPa) = 14.51157 15.25788 14.88473
#
# Velocity S-wave (km/s) = 2.92307 2.99730 2.96042
# Velocity P-wave (km/s) = 4.73273 7.70535 6.39418
#
# Compressibility (1/GPa) = 0.05349650
#
# Stress axis : x y z
#
# Youngs Moduli (GPa) = 49.91639 6.94839 40.58017
#
# Poissons Ratio (x) = 0.26252 0.10168
# Poissons Ratio (y) = 1.88594 1.10627
# Poissons Ratio (z) = 0.12507 0.18942
#
# Static dielectric constant tensor:
#      x y z
#    x 1.569130 0.000000 0.000000 
#    y 0.000000 1.550380 0.000000 
#    z 0.000000 0.000000 1.568510 
# 
# From -- ./inp_files/3177.got.cif
#   From: 2010.05.17/outbox.cif.g08.bks.cpg/sg57_2_cif.got.tgz:3177.got - 2010.06.03 13:58:18.
