data_PCOD9435037
_publ_section_title
;
Structure prediction by ZEFSAII (Michael W. Deem and Ramdas Pophale) SiO2 
 PCOD9435037
Probable space group: P B C M
;
_chemical_formula_sum "Si O2"
_cell_formula_units_Z 48
_cell_length_a 17.145626
_cell_length_b 18.784263
_cell_length_c 7.863370
_cell_angle_alpha 90.000000
_cell_angle_beta 90.000000
_cell_angle_gamma 90.000000
_cell_volume 2532.539441
_symmetry_space_group_name_H-M "P B C M"
_symmetry_group_IT_number 57
_symmetry_cell_setting 'orthorhombic'
loop_
_space_group_symop_operation_xyz
x,y,z
-x,-y,1/2+z
x,1/2-y,-z
-x,1/2+y,1/2-z
-x,-y,-z
x,y,1/2-z
-x,1/2+y,z
x,1/2-y,1/2+z
loop_
_atom_site_type_symbol
_atom_site_label
_atom_site_fract_x
_atom_site_fract_y
_atom_site_fract_z
Si Si1 0.851170 0.332070 0.955478
Si Si2 0.414758 0.472841 0.045056
Si Si3 0.667591 0.830018 0.453285
Si Si4 0.263833 0.949782 0.551741
Si Si5 0.820565 0.590916 0.049247
Si Si6 0.025574 0.332431 0.545085
O O1 0.852552 0.338187 0.750000
O O2 0.784371 0.384224 0.023394
O O3 0.938594 0.351581 0.016712
O O4 0.837273 0.250000 0.000000
O O5 0.409188 0.472119 0.250000
O O6 0.391088 0.392904 0.988008
O O7 0.346924 0.525673 0.978009
O O8 0.500000 0.500000 0.000000
O O9 0.644719 0.750000 0.500000
O O10 0.673271 0.834365 0.250000
O O11 0.752776 0.850327 0.524992
O O12 0.277636 0.932960 0.750000
O O13 0.209835 0.019760 0.539839
O O14 0.827267 0.575870 0.250000
O O15 0.902941 0.619813 0.982691
O O16 0.039285 0.250000 0.500000
O O17 0.025560 0.337522 0.750000
#
# Coordination Sequence:
#
# PCOD9435037 Si02
#       6
#     8   8   8   8   8   8
#     4   9  18  34  52  69  95 130 166 205 244 284
#     4   9  19  35  54  75  99 127 159 197 243 294
#     4  10  20  34  52  76 104 133 165 200 243 294
#     4   9  19  35  52  71  97 128 161 200 249 298
#     4  10  19  30  47  73 102 131 165 203 242 288
#     4   9  18  30  45  68  97 130 167 203 240 282
#
# _framework density 18.953309000000001
#
# number of rings (size 3 to 8) (size 9 to 14) (size 15 to 20)
#    0.000    2.667    0.000    2.500    0.000    7.333 
#    0.000    0.833    0.000    4.000    0.000    0.000 
#    0.000    0.000    0.000    0.000    0.000    0.000 
#
# Total GULP energy -267634.237461 kJ/mol
# GULP energy per Si atom -5575.713280 kJ/mol
# Density = 1.891017 g / cm^3
# Si number density = 18.953309 Si / 1000 Ang^3
#
#
#
# Elastic Constant Matrix: (Units=GPa)
#
#
# Indices 1 2 3 4 5 6 
#
# 1 167.4831 101.2130 0.8382 0.0000 0.0000 0.0000
# 2 101.2130 96.3088 -7.7893 0.0000 0.0000 0.0000
# 3 0.8382 -7.7893 22.1254 0.0000 0.0000 0.0000
# 4 0.0000 0.0000 0.0000 23.3982 0.0000 0.0000
# 5 0.0000 0.0000 0.0000 0.0000 16.7205 0.0000
# 6 0.0000 0.0000 0.0000 0.0000 0.0000 22.3946
#
#
#
# Elastic Compliance Matrix: (Units=1/GPa)
#
#
# Indices 1 2 3 4 5 6 
#
# 1 0.017444 -0.018924 -0.007323 0.000000 0.000000 0.000000
# 2 -0.018924 0.031218 0.011707 0.000000 0.000000 0.000000
# 3 -0.007323 0.011707 0.049596 0.000000 0.000000 0.000000
# 4 0.000000 0.000000 0.000000 0.042738 0.000000 0.000000
# 5 0.000000 0.000000 0.000000 0.000000 0.059807 0.000000
# 6 0.000000 0.000000 0.000000 0.000000 0.000000 0.044654
#
#
# Mechanical properties :
#
#
# Convention : Reuss Voigt Hill
#
# Bulk Modulus (GPa) = 14.45559 52.71567 33.58563
# Shear Modulus (GPa) = 16.80136 25.27970 21.04053
#
# Velocity S-wave (km/s) = 2.98058 3.65607 3.33547
# Velocity P-wave (km/s) = 4.41459 6.75990 5.70898
#
# Compressibility (1/GPa) = 0.06917740
#
# Stress axis : x y z
#
# Youngs Moduli (GPa) = 57.32784 32.03300 20.16296
#
# Poissons Ratio (x) = 0.60619 0.14765
# Poissons Ratio (y) = 1.08488 -0.23605
# Poissons Ratio (z) = 0.41982 -0.37502
#
# Static dielectric constant tensor:
#      x y z
#    x 1.667270 0.000000 0.000000 
#    y 0.000000 1.651630 0.000000 
#    z 0.000000 0.000000 1.687390 
# 
# From -- ./inp_files/4881.got.cif
#   From: 2010.05.17/outbox.cif.g08.bks.cpg/sg57_3_cif.got.tgz:4881.got - 2010.06.03 13:58:18.
