data_PCOD9435696
_publ_section_title
;
Structure prediction by ZEFSAII (Michael W. Deem and Ramdas Pophale) SiO2 
 PCOD9435696
Probable space group: P B C M
;
_chemical_formula_sum "Si O2"
_cell_formula_units_Z 64
_cell_length_a 20.144171
_cell_length_b 8.052229
_cell_length_c 17.467650
_cell_angle_alpha 90.000000
_cell_angle_beta 90.000000
_cell_angle_gamma 90.000000
_cell_volume 2833.348516
_symmetry_space_group_name_H-M "P B C M"
_symmetry_group_IT_number 57
_symmetry_cell_setting 'orthorhombic'
loop_
_space_group_symop_operation_xyz
x,y,z
-x,-y,1/2+z
x,1/2-y,-z
-x,1/2+y,1/2-z
-x,-y,-z
x,y,1/2-z
-x,1/2+y,z
x,1/2-y,1/2+z
loop_
_atom_site_type_symbol
_atom_site_label
_atom_site_fract_x
_atom_site_fract_y
_atom_site_fract_z
Si Si1 0.528072 0.488485 0.160049
Si Si2 0.400321 0.343723 0.161458
Si Si3 0.087661 0.796485 0.090628
Si Si4 0.977305 0.976171 0.160120
Si Si5 0.221765 0.823529 0.585248
Si Si6 0.852097 0.682804 0.584868
Si Si7 0.721602 0.679661 0.085121
Si Si8 0.349822 0.679591 0.583781
O O1 0.522210 0.449096 0.250000
O O2 0.453531 0.472561 0.127127
O O3 0.558450 0.671186 0.154354
O O4 0.582078 0.363360 0.125757
O O5 0.387498 0.381838 0.250000
O O6 0.330789 0.303159 0.123623
O O7 0.051909 0.654986 0.139839
O O8 0.163728 0.794047 0.117439
O O9 0.043245 0.953698 0.109256
O O10 0.086086 0.750000 0.000000
O O11 0.990362 0.958235 0.250000
O O12 0.918389 0.852519 0.132364
O O13 0.231747 0.750000 0.500000
O O14 0.294975 0.804691 0.620645
O O15 0.187697 0.004581 0.580854
O O16 0.869909 0.750000 0.500000
O O17 0.795769 0.805285 0.618582
O O18 0.689884 0.497166 0.082787
O O19 0.728804 0.750000 0.000000
O O20 0.366165 0.750000 0.500000
#
# Coordination Sequence:
#
# PCOD9435696 Si02
#       8
#     8   8   8   8   8   8   8   8
#     4   9  19  35  52  73  99 134 174 212 256 313
#     4   9  19  35  53  72 100 135 174 215 258 310
#     4  10  21  38  60  82 108 148 190 224 267 332
#     4  11  23  38  56  84 117 144 179 232 280 321
#     4   9  18  33  54  79 103 132 175 219 257 306
#     4  10  20  35  55  78 106 141 180 217 260 324
#     4  10  20  33  53  79 106 135 174 218 260 313
#     4  10  19  33  53  77 105 133 168 217 264 307
#
# _framework density 22.588115999999999
#
# number of rings (size 3 to 8) (size 9 to 14) (size 15 to 20)
#    0.000    2.250    0.000    4.125    0.000    6.000 
#    0.000    5.625    0.000    0.000    0.000    0.000 
#    0.000    0.000    0.000    0.000    0.000    0.000 
#
# Total GULP energy -357187.735619 kJ/mol
# GULP energy per Si atom -5581.058369 kJ/mol
# Density = 2.253670 g / cm^3
# Si number density = 22.588116 Si / 1000 Ang^3
#
#
#
# Elastic Constant Matrix: (Units=GPa)
#
#
# Indices 1 2 3 4 5 6 
#
# 1 59.5030 -4.4120 5.6603 0.0000 0.0000 0.0000
# 2 -4.4120 68.9332 -1.2538 0.0000 0.0000 0.0000
# 3 5.6603 -1.2538 34.6751 0.0000 0.0000 0.0000
# 4 0.0000 0.0000 0.0000 22.1585 0.0000 0.0000
# 5 0.0000 0.0000 0.0000 0.0000 111.5314 0.0000
# 6 0.0000 0.0000 0.0000 0.0000 0.0000 47.8802
#
#
#
# Elastic Compliance Matrix: (Units=1/GPa)
#
#
# Indices 1 2 3 4 5 6 
#
# 1 0.017146 0.001047 -0.002761 0.000000 0.000000 0.000000
# 2 0.001047 0.014580 0.000356 0.000000 0.000000 0.000000
# 3 -0.002761 0.000356 0.029303 0.000000 0.000000 0.000000
# 4 0.000000 0.000000 0.000000 0.045129 0.000000 0.000000
# 5 0.000000 0.000000 0.000000 0.000000 0.008966 0.000000
# 6 0.000000 0.000000 0.000000 0.000000 0.000000 0.020885
#
#
# Mechanical properties :
#
#
# Convention : Reuss Voigt Hill
#
# Bulk Modulus (GPa) = 17.14853 18.12226 17.63540
# Shear Modulus (GPa) = 31.61291 47.18847 39.40069
#
# Velocity S-wave (km/s) = 3.74510 4.57561 4.18103
# Velocity P-wave (km/s) = 5.12926 5.99627 5.57963
#
# Compressibility (1/GPa) = 0.05831403
#
# Stress axis : x y z
#
# Youngs Moduli (GPa) = 58.32211 68.58568 34.12653
#
# Poissons Ratio (x) = -0.07182 0.09422
# Poissons Ratio (y) = -0.06107 -0.01216
# Poissons Ratio (z) = 0.16103 -0.02443
#
# Static dielectric constant tensor:
#      x y z
#    x 1.908860 0.000000 0.000000 
#    y 0.000000 1.943650 0.000000 
#    z 0.000000 0.000000 1.803950 
# 
# From -- ./inp_files/25787.got.cif
#   From: 2010.05.17/outbox.cif.g08.bks.cpg/sg57_13_cif.got.tgz:25787.got - 2010.06.03 13:58:18.
