data_PCOD9435905
_publ_section_title
;
Structure prediction by ZEFSAII (Michael W. Deem and Ramdas Pophale) SiO2 
 PCOD9435905
Probable space group: P B C M
;
_chemical_formula_sum "Si O2"
_cell_formula_units_Z 64
_cell_length_a 8.685950
_cell_length_b 21.937436
_cell_length_c 18.365714
_cell_angle_alpha 90.000000
_cell_angle_beta 90.000000
_cell_angle_gamma 90.000000
_cell_volume 3499.540378
_symmetry_space_group_name_H-M "P B C M"
_symmetry_group_IT_number 57
_symmetry_cell_setting 'orthorhombic'
loop_
_space_group_symop_operation_xyz
x,y,z
-x,-y,1/2+z
x,1/2-y,-z
-x,1/2+y,1/2-z
-x,-y,-z
x,y,1/2-z
-x,1/2+y,z
x,1/2-y,1/2+z
loop_
_atom_site_type_symbol
_atom_site_label
_atom_site_fract_x
_atom_site_fract_y
_atom_site_fract_z
Si Si1 0.714870 0.159346 0.338304
Si Si2 0.987318 0.452557 0.436128
Si Si3 0.196475 0.335265 0.053015
Si Si4 0.599062 0.904080 0.333689
Si Si5 0.504147 0.682639 0.467968
Si Si6 0.782130 0.480673 0.663356
Si Si7 0.093843 0.739032 0.915553
Si Si8 0.300505 0.623031 0.590712
O O1 0.696386 0.164354 0.250000
O O2 0.563554 0.177254 0.386393
O O3 0.755823 0.089261 0.358509
O O4 0.850734 0.203786 0.367841
O O5 0.814188 0.432384 0.422218
O O6 0.000000 0.500000 0.500000
O O7 0.080441 0.391605 0.458375
O O8 0.068944 0.485646 0.368604
O O9 0.305848 0.355944 0.118926
O O10 0.085954 0.280096 0.078934
O O11 0.314414 0.327917 0.985361
O O12 0.641897 0.897911 0.250000
O O13 0.421387 0.891498 0.346862
O O14 0.645092 0.972613 0.358091
O O15 0.477525 0.750000 0.500000
O O16 0.401622 0.638237 0.518944
O O17 0.791305 0.479429 0.750000
O O18 0.194559 0.681154 0.890683
O O19 0.135508 0.750000 0.000000
#
# Coordination Sequence:
#
# PCOD9435905 Si02
#       8
#     8   8   8   8   8   8   8   8
#     4  11  22  36  62  88 117 159 194 233 289 361
#     4  10  20  34  56  87 112 144 198 251 278 336
#     4   9  22  35  59  86 110 154 196 235 304 335
#     4   9  19  37  57  82 117 150 189 243 292 346
#     4  11  19  39  57  84 118 150 189 239 294 340
#     4   9  20  38  55  78 118 158 185 228 298 350
#     4  11  20  38  59  83 116 151 192 241 291 344
#     4  10  19  33  59  86 108 149 196 238 297 332
#
# _framework density 18.288117
#
# number of rings (size 3 to 8) (size 9 to 14) (size 15 to 20)
#    0.000    2.000    2.500    1.125    1.750    2.500 
#    0.000    6.250    0.000    3.000    0.000    0.000 
#    0.000    0.000    0.000    0.000    0.000    0.000 
#
# Total GULP energy -356638.060072 kJ/mol
# GULP energy per Si atom -5572.469689 kJ/mol
# Density = 1.824649 g / cm^3
# Si number density = 18.288117 Si / 1000 Ang^3
#
#
#
# Elastic Constant Matrix: (Units=GPa)
#
#
# Indices 1 2 3 4 5 6 
#
# 1 119.7239 43.8186 26.3057 0.0000 0.0000 0.0000
# 2 43.8186 90.6560 33.4567 0.0000 0.0000 0.0000
# 3 26.3057 33.4567 59.5718 0.0000 0.0000 0.0000
# 4 0.0000 0.0000 0.0000 27.6509 0.0000 0.0000
# 5 0.0000 0.0000 0.0000 0.0000 18.4174 0.0000
# 6 0.0000 0.0000 0.0000 0.0000 0.0000 12.0193
#
#
#
# Elastic Compliance Matrix: (Units=1/GPa)
#
#
# Indices 1 2 3 4 5 6 
#
# 1 0.010377 -0.004194 -0.002227 0.000000 0.000000 0.000000
# 2 -0.004194 0.015610 -0.006915 0.000000 0.000000 0.000000
# 3 -0.002227 -0.006915 0.021653 0.000000 0.000000 0.000000
# 4 0.000000 0.000000 0.000000 0.036165 0.000000 0.000000
# 5 0.000000 0.000000 0.000000 0.000000 0.054296 0.000000
# 6 0.000000 0.000000 0.000000 0.000000 0.000000 0.083200
#
#
# Mechanical properties :
#
#
# Convention : Reuss Voigt Hill
#
# Bulk Modulus (GPa) = 47.68983 53.01264 50.35123
# Shear Modulus (GPa) = 19.61081 22.70890 21.15986
#
# Velocity S-wave (km/s) = 3.27819 3.52764 3.40520
# Velocity P-wave (km/s) = 6.36100 6.75594 6.56144
#
# Compressibility (1/GPa) = 0.02096883
#
# Stress axis : x y z
#
# Youngs Moduli (GPa) = 96.36936 64.06278 46.18236
#
# Poissons Ratio (x) = 0.26867 0.10284
# Poissons Ratio (y) = 0.40415 0.31934
# Poissons Ratio (z) = 0.21460 0.44298
#
# Static dielectric constant tensor:
#      x y z
#    x 1.618890 0.000000 0.000000 
#    y 0.000000 1.662560 0.000000 
#    z 0.000000 0.000000 1.627390 
# 
# From -- ./inp_files/21390.got.cif
#   From: 2010.05.17/outbox.cif.g08.bks.cpg/sg57_11_cif.got.tgz:21390.got - 2010.06.03 13:58:18.
