data_PCOD9435579
_publ_section_title
;
Structure prediction by ZEFSAII (Michael W. Deem and Ramdas Pophale) SiO2 
 PCOD9435579
Probable space group: P B C M
;
_chemical_formula_sum "Si O2"
_cell_formula_units_Z 56
_cell_length_a 14.531440
_cell_length_b 21.015551
_cell_length_c 9.388727
_cell_angle_alpha 90.000000
_cell_angle_beta 90.000000
_cell_angle_gamma 90.000000
_cell_volume 2867.187834
_symmetry_space_group_name_H-M "P B C M"
_symmetry_group_IT_number 57
_symmetry_cell_setting 'orthorhombic'
loop_
_space_group_symop_operation_xyz
x,y,z
-x,-y,1/2+z
x,1/2-y,-z
-x,1/2+y,1/2-z
-x,-y,-z
x,y,1/2-z
-x,1/2+y,z
x,1/2-y,1/2+z
loop_
_atom_site_type_symbol
_atom_site_label
_atom_site_fract_x
_atom_site_fract_y
_atom_site_fract_z
Si Si1 0.792664 0.300544 0.594904
Si Si2 0.490328 0.430005 0.421946
Si Si3 0.655086 0.683279 0.579946
Si Si4 0.664121 0.078618 0.088860
Si Si5 0.059466 0.866748 0.415388
Si Si6 0.181719 0.510267 0.919176
Si Si7 0.152881 0.117763 0.916717
O O1 0.740498 0.250000 0.500000
O O2 0.810861 0.274620 0.750000
O O3 0.732887 0.363109 0.604121
O O4 0.885302 0.319826 0.515721
O O5 0.500000 0.500000 0.500000
O O6 0.495490 0.437092 0.250000
O O7 0.406333 0.380573 0.453923
O O8 0.580120 0.398848 0.492310
O O9 0.632204 0.750000 0.500000
O O10 0.644493 0.693541 0.750000
O O11 0.761804 0.664215 0.551197
O O12 0.638430 0.057282 0.250000
O O13 0.724528 0.027802 0.002466
O O14 0.082826 0.856724 0.250000
O O15 0.101216 0.937417 0.448601
O O16 0.950886 0.857241 0.430765
O O17 0.197478 0.509850 0.750000
O O18 0.155072 0.442351 0.979808
O O19 0.164361 0.097692 0.750000
#
# Coordination Sequence:
#
# PCOD9435579 Si02
#       7
#     8   8   8   8   8   8   8
#     4  10  21  36  55  78 108 145 185 231 284 341
#     4  11  23  40  64  93 121 153 194 243 298 358
#     4  10  24  43  61  84 117 156 199 245 297 356
#     4  10  21  37  57  82 111 145 182 226 283 342
#     4   9  19  34  53  80 115 151 191 239 289 341
#     4  10  19  32  54  86 118 149 187 234 287 347
#     4  10  20  36  57  81 113 153 192 236 287 341
#
# _framework density 19.531333
#
# number of rings (size 3 to 8) (size 9 to 14) (size 15 to 20)
#    0.000    2.000    0.000    3.000    0.000    6.857 
#    0.000    4.286    0.000    0.000    0.000    0.000 
#    0.000    0.000    0.000    0.000    0.000    0.000 
#
# Total GULP energy -311996.490231 kJ/mol
# GULP energy per Si atom -5571.365897 kJ/mol
# Density = 1.948688 g / cm^3
# Si number density = 19.531333 Si / 1000 Ang^3
#
#
#
# Elastic Constant Matrix: (Units=GPa)
#
#
# Indices 1 2 3 4 5 6 
#
# 1 103.5601 29.4973 46.9449 0.0000 0.0000 0.0000
# 2 29.4973 91.5813 45.2103 0.0000 0.0000 0.0000
# 3 46.9449 45.2103 94.7102 0.0000 0.0000 0.0000
# 4 0.0000 0.0000 0.0000 31.6238 0.0000 0.0000
# 5 0.0000 0.0000 0.0000 0.0000 12.7215 0.0000
# 6 0.0000 0.0000 0.0000 0.0000 0.0000 2.0484
#
#
#
# Elastic Compliance Matrix: (Units=1/GPa)
#
#
# Indices 1 2 3 4 5 6 
#
# 1 0.012567 -0.001272 -0.005622 0.000000 0.000000 0.000000
# 2 -0.001272 0.014415 -0.006250 0.000000 0.000000 0.000000
# 3 -0.005622 -0.006250 0.016329 0.000000 0.000000 0.000000
# 4 0.000000 0.000000 0.000000 0.031622 0.000000 0.000000
# 5 0.000000 0.000000 0.000000 0.000000 0.078607 0.000000
# 6 0.000000 0.000000 0.000000 0.000000 0.000000 0.488188
#
#
# Mechanical properties :
#
#
# Convention : Reuss Voigt Hill
#
# Bulk Modulus (GPa) = 58.74892 59.23962 58.99427
# Shear Modulus (GPa) = 7.42182 20.49201 13.95692
#
# Velocity S-wave (km/s) = 1.95146 3.24263 2.67608
# Velocity P-wave (km/s) = 5.93483 6.66453 6.31024
#
# Compressibility (1/GPa) = 0.01702159
#
# Stress axis : x y z
#
# Youngs Moduli (GPa) = 79.57323 69.37429 61.24246
#
# Poissons Ratio (x) = 0.08828 0.34428
# Poissons Ratio (y) = 0.10126 0.38277
# Poissons Ratio (z) = 0.44733 0.43360
#
# Static dielectric constant tensor:
#      x y z
#    x 1.712620 0.000000 0.000000 
#    y 0.000000 1.779420 0.000000 
#    z 0.000000 0.000000 1.699780 
# 
# From -- ./inp_files/5217.got.cif
#   From: 2010.05.17/outbox.cif.g08.bks.cpg/sg57_3_cif.got.tgz:5217.got - 2010.06.03 13:58:18.
