data_PCOD9435630
_publ_section_title
;
Structure prediction by ZEFSAII (Michael W. Deem and Ramdas Pophale) SiO2 
 PCOD9435630
Probable space group: P B C M
;
_chemical_formula_sum "Si O2"
_cell_formula_units_Z 56
_cell_length_a 16.793661
_cell_length_b 12.742176
_cell_length_c 14.455171
_cell_angle_alpha 90.000000
_cell_angle_beta 90.000000
_cell_angle_gamma 90.000000
_cell_volume 3093.230012
_symmetry_space_group_name_H-M "P B C M"
_symmetry_group_IT_number 57
_symmetry_cell_setting 'orthorhombic'
loop_
_space_group_symop_operation_xyz
x,y,z
-x,-y,1/2+z
x,1/2-y,-z
-x,1/2+y,1/2-z
-x,-y,-z
x,y,1/2-z
-x,1/2+y,z
x,1/2-y,1/2+z
loop_
_atom_site_type_symbol
_atom_site_label
_atom_site_fract_x
_atom_site_fract_y
_atom_site_fract_z
Si Si1 0.108506 0.264850 0.143433
Si Si2 0.252217 0.500760 0.522228
Si Si3 0.494550 0.516408 0.358364
Si Si4 0.922244 0.569116 0.484694
Si Si5 0.718848 0.859128 0.354945
Si Si6 0.646388 0.661154 0.358850
Si Si7 0.597979 0.127246 0.983285
O O1 0.083067 0.273186 0.250000
O O2 0.080653 0.156001 0.097357
O O3 0.204146 0.282101 0.141369
O O4 0.082487 0.359812 0.077285
O O5 0.156980 0.501501 0.532250
O O6 0.264811 0.456281 0.419343
O O7 0.291448 0.410865 0.586489
O O8 0.309457 0.599889 0.538285
O O9 0.474193 0.502142 0.250000
O O10 0.560948 0.607961 0.366434
O O11 0.425932 0.556791 0.426942
O O12 0.539891 0.416176 0.402437
O O13 0.000000 0.500000 0.500000
O O14 0.705846 0.891833 0.250000
O O15 0.648917 0.782524 0.389047
O O16 0.667229 0.661242 0.250000
O O17 0.587343 0.250000 0.000000
#
# Coordination Sequence:
#
# PCOD9435630 Si02
#       7
#     8   8   8   8   8   8   8
#     4   9  18  34  54  78 108 139 176 225 279 321
#     4  10  19  33  51  74 108 141 175 217 270 324
#     4   9  20  37  57  79 106 142 187 228 262 314
#     4  10  20  34  54  84 108 143 185 227 271 327
#     4   9  16  28  51  79 103 130 168 217 272 321
#     4   9  16  28  51  81 104 129 170 218 267 316
#     4  10  22  38  54  79 110 150 184 219 274 329
#
# _framework density 18.104053
#
# number of rings (size 3 to 8) (size 9 to 14) (size 15 to 20)
#    0.000    2.571    1.429    0.429    0.000    5.143 
#    2.571    1.429    0.000    0.000    0.000    0.000 
#    0.000    0.000    0.000    0.000    0.000    0.000 
#
# Total GULP energy -311981.663391 kJ/mol
# GULP energy per Si atom -5571.101132 kJ/mol
# Density = 1.806285 g / cm^3
# Si number density = 18.104053 Si / 1000 Ang^3
#
#
#
# Elastic Constant Matrix: (Units=GPa)
#
#
# Indices 1 2 3 4 5 6 
#
# 1 97.5580 20.2246 10.9419 0.0000 0.0000 0.0000
# 2 20.2246 54.4434 0.4440 0.0000 0.0000 0.0000
# 3 10.9419 0.4440 81.6872 0.0000 0.0000 0.0000
# 4 0.0000 0.0000 0.0000 13.7998 0.0000 0.0000
# 5 0.0000 0.0000 0.0000 0.0000 15.9309 0.0000
# 6 0.0000 0.0000 0.0000 0.0000 0.0000 17.5989
#
#
#
# Elastic Compliance Matrix: (Units=1/GPa)
#
#
# Indices 1 2 3 4 5 6 
#
# 1 0.011284 -0.004180 -0.001489 0.000000 0.000000 0.000000
# 2 -0.004180 0.019917 0.000452 0.000000 0.000000 0.000000
# 3 -0.001489 0.000452 0.012439 0.000000 0.000000 0.000000
# 4 0.000000 0.000000 0.000000 0.072465 0.000000 0.000000
# 5 0.000000 0.000000 0.000000 0.000000 0.062771 0.000000
# 6 0.000000 0.000000 0.000000 0.000000 0.000000 0.056822
#
#
# Mechanical properties :
#
#
# Convention : Reuss Voigt Hill
#
# Bulk Modulus (GPa) = 30.11522 32.98995 31.55258
# Shear Modulus (GPa) = 19.44023 22.93780 21.18901
#
# Velocity S-wave (km/s) = 3.28045 3.56335 3.42482
# Velocity P-wave (km/s) = 5.56948 5.93228 5.75374
#
# Compressibility (1/GPa) = 0.03320580
#
# Stress axis : x y z
#
# Youngs Moduli (GPa) = 88.62312 50.20936 80.39371
#
# Poissons Ratio (x) = 0.20985 0.11968
# Poissons Ratio (y) = 0.37040 -0.03630
# Poissons Ratio (z) = 0.13194 -0.02267
#
# Static dielectric constant tensor:
#      x y z
#    x 1.659740 0.000000 0.000000 
#    y 0.000000 1.624010 0.000000 
#    z 0.000000 0.000000 1.642810 
# 
# From -- ./inp_files/19162.got.cif
#   From: 2010.05.17/outbox.cif.g08.bks.cpg/sg57_10_cif.got.tgz:19162.got - 2010.06.03 13:58:18.
