data_PCOD9435477
_publ_section_title
;
Structure prediction by ZEFSAII (Michael W. Deem and Ramdas Pophale) SiO2 
 PCOD9435477
Probable space group: P B C M
;
_chemical_formula_sum "Si O2"
_cell_formula_units_Z 56
_cell_length_a 15.142128
_cell_length_b 23.262149
_cell_length_c 8.663135
_cell_angle_alpha 90.000000
_cell_angle_beta 90.000000
_cell_angle_gamma 90.000000
_cell_volume 3051.489138
_symmetry_space_group_name_H-M "P B C M"
_symmetry_group_IT_number 57
_symmetry_cell_setting 'orthorhombic'
loop_
_space_group_symop_operation_xyz
x,y,z
-x,-y,1/2+z
x,1/2-y,-z
-x,1/2+y,1/2-z
-x,-y,-z
x,y,1/2-z
-x,1/2+y,z
x,1/2-y,1/2+z
loop_
_atom_site_type_symbol
_atom_site_label
_atom_site_fract_x
_atom_site_fract_y
_atom_site_fract_z
Si Si1 0.795806 0.593000 0.564146
Si Si2 0.073087 0.311802 0.565663
Si Si3 0.612865 0.950241 0.063765
Si Si4 0.307098 0.688902 0.565079
Si Si5 0.905310 0.018145 0.435325
Si Si6 0.413169 0.574809 0.936370
Si Si7 0.877119 0.148529 0.063130
O O1 0.799942 0.599013 0.750000
O O2 0.857815 0.640961 0.491606
O O3 0.693680 0.590446 0.515818
O O4 0.836424 0.531049 0.522203
O O5 0.097220 0.250000 0.500000
O O6 0.073298 0.311037 0.750000
O O7 0.972694 0.326927 0.516028
O O8 0.614326 0.953870 0.250000
O O9 0.516620 0.926967 0.016965
O O10 0.625069 0.014966 0.000967
O O11 0.339634 0.750000 0.500000
O O12 0.309846 0.690933 0.750000
O O13 0.362832 0.632642 0.513049
O O14 0.206470 0.679747 0.509752
O O15 0.912056 0.019865 0.250000
O O16 0.877097 0.081603 0.485452
O O17 0.000000 0.000000 0.500000
O O18 0.409055 0.572803 0.750000
O O19 0.870461 0.151923 0.250000
#
# Coordination Sequence:
#
# PCOD9435477 Si02
#       7
#     8   8   8   8   8   8   8
#     4  10  20  34  55  81 110 143 178 217 266 318
#     4  11  23  38  55  74 103 142 184 226 265 313
#     4   9  18  35  60  85 111 142 176 221 273 326
#     4  11  23  37  55  80 110 146 185 227 273 325
#     4  10  19  32  51  79 110 140 174 215 264 314
#     4   9  19  36  57  84 113 141 177 221 273 327
#     4  10  21  37  56  80 109 143 183 222 268 322
#
# _framework density 18.351694999999999
#
# number of rings (size 3 to 8) (size 9 to 14) (size 15 to 20)
#    0.000    2.000    1.429    2.143    0.000    5.714 
#    0.000    0.714    0.000    1.714    0.000    0.000 
#    0.000    0.000    0.000    0.000    0.000    0.000 
#
# Total GULP energy -312631.037284 kJ/mol
# GULP energy per Si atom -5582.697094 kJ/mol
# Density = 1.830993 g / cm^3
# Si number density = 18.351695 Si / 1000 Ang^3
#
#
#
# Elastic Constant Matrix: (Units=GPa)
#
#
# Indices 1 2 3 4 5 6 
#
# 1 115.4457 56.9322 25.9590 0.0000 0.0000 0.0000
# 2 56.9322 117.6827 24.0688 0.0000 0.0000 0.0000
# 3 25.9590 24.0688 11.9119 0.0000 0.0000 0.0000
# 4 0.0000 0.0000 0.0000 27.4539 0.0000 0.0000
# 5 0.0000 0.0000 0.0000 0.0000 20.0645 0.0000
# 6 0.0000 0.0000 0.0000 0.0000 0.0000 21.4771
#
#
#
# Elastic Compliance Matrix: (Units=1/GPa)
#
#
# Indices 1 2 3 4 5 6 
#
# 1 0.017070 -0.001108 -0.034961 0.000000 0.000000 0.000000
# 2 -0.001108 0.014554 -0.026994 0.000000 0.000000 0.000000
# 3 -0.034961 -0.026994 0.214680 0.000000 0.000000 0.000000
# 4 0.000000 0.000000 0.000000 0.036425 0.000000 0.000000
# 5 0.000000 0.000000 0.000000 0.000000 0.049839 0.000000
# 6 0.000000 0.000000 0.000000 0.000000 0.000000 0.046561
#
#
# Mechanical properties :
#
#
# Convention : Reuss Voigt Hill
#
# Bulk Modulus (GPa) = 8.32090 50.99561 29.65826
# Shear Modulus (GPa) = 9.16906 23.00446 16.08676
#
# Velocity S-wave (km/s) = 2.23767 3.54437 2.96392
# Velocity P-wave (km/s) = 3.34965 6.67820 5.28292
#
# Compressibility (1/GPa) = 0.12017928
#
# Stress axis : x y z
#
# Youngs Moduli (GPa) = 58.58394 68.70923 4.65810
#
# Poissons Ratio (x) = 0.07610 0.16285
# Poissons Ratio (y) = 0.06489 0.12574
# Poissons Ratio (z) = 2.04814 1.85472
#
# Static dielectric constant tensor:
#      x y z
#    x 1.639390 0.000000 0.000000 
#    y 0.000000 1.821200 0.000000 
#    z 0.000000 0.000000 1.618650 
# 
# From -- ./inp_files/5202.got.cif
#   From: 2010.05.17/outbox.cif.g08.bks.cpg/sg57_3_cif.got.tgz:5202.got - 2010.06.03 13:58:18.
