data_PCOD9435725
_publ_section_title
;
Structure prediction by ZEFSAII (Michael W. Deem and Ramdas Pophale) SiO2 
 PCOD9435725
Probable space group: P B C M
;
_chemical_formula_sum "Si O2"
_cell_formula_units_Z 64
_cell_length_a 9.562765
_cell_length_b 18.273860
_cell_length_c 19.359435
_cell_angle_alpha 90.000000
_cell_angle_beta 90.000000
_cell_angle_gamma 90.000000
_cell_volume 3383.034721
_symmetry_space_group_name_H-M "P B C M"
_symmetry_group_IT_number 57
_symmetry_cell_setting 'orthorhombic'
loop_
_space_group_symop_operation_xyz
x,y,z
-x,-y,1/2+z
x,1/2-y,-z
-x,1/2+y,1/2-z
-x,-y,-z
x,y,1/2-z
-x,1/2+y,z
x,1/2-y,1/2+z
loop_
_atom_site_type_symbol
_atom_site_label
_atom_site_fract_x
_atom_site_fract_y
_atom_site_fract_z
Si Si1 0.497968 0.463562 0.169275
Si Si2 0.720494 0.660631 0.671965
Si Si3 0.227153 0.380420 0.023977
Si Si4 0.395366 0.321899 0.827342
Si Si5 0.001911 0.937804 0.941397
Si Si6 0.218712 0.471390 0.670283
Si Si7 0.482513 0.674806 0.027924
Si Si8 0.314465 0.541069 0.444984
O O1 0.489510 0.486162 0.250000
O O2 0.426050 0.384095 0.164533
O O3 0.660444 0.470892 0.149901
O O4 0.406544 0.516211 0.120729
O O5 0.773436 0.643935 0.750000
O O6 0.805183 0.634074 0.604719
O O7 0.691899 0.746733 0.667413
O O8 0.283050 0.464190 0.017002
O O9 0.092429 0.373688 0.975199
O O10 0.359822 0.332818 0.001420
O O11 0.455978 0.324452 0.750000
O O12 0.296802 0.392709 0.835673
O O13 0.504331 0.321467 0.889405
O O14 0.916713 0.968473 0.876679
O O15 0.163997 0.924968 0.925421
O O16 0.000000 0.000000 0.000000
O O17 0.181933 0.483264 0.750000
O O18 0.398736 0.600973 0.011655
O O19 0.420364 0.750000 0.000000
#
# Coordination Sequence:
#
# PCOD9435725 Si02
#       8
#     8   8   8   8   8   8   8   8
#     4   9  17  32  57  84 108 138 182 231 278 327
#     4   9  18  31  50  83 109 136 178 229 282 322
#     4  10  19  35  56  77 105 147 184 227 267 329
#     4  10  19  33  53  80 111 138 174 228 276 325
#     4  10  21  36  52  77 111 148 182 220 276 321
#     4  10  19  34  57  83 107 142 188 229 269 330
#     4  12  21  34  54  84 107 138 184 226 279 334
#     4  10  21  34  52  77 114 143 174 227 278 326
#
# _framework density 18.917926999999999
#
# number of rings (size 3 to 8) (size 9 to 14) (size 15 to 20)
#    0.000    2.000    3.750    0.375    0.000    3.500 
#    0.000    3.750    0.000    0.000    0.000    1.750 
#    0.000    0.000    0.000    0.000    0.000    0.000 
#
# Total GULP energy -356785.527349 kJ/mol
# GULP energy per Si atom -5574.773865 kJ/mol
# Density = 1.887487 g / cm^3
# Si number density = 18.917927 Si / 1000 Ang^3
#
#
#
# Elastic Constant Matrix: (Units=GPa)
#
#
# Indices 1 2 3 4 5 6 
#
# 1 76.0106 -8.8201 17.5430 0.0000 0.0000 0.0000
# 2 -8.8201 58.6724 -2.3458 0.0000 0.0000 0.0000
# 3 17.5430 -2.3458 82.8767 0.0000 0.0000 0.0000
# 4 0.0000 0.0000 0.0000 22.2746 0.0000 0.0000
# 5 0.0000 0.0000 0.0000 0.0000 24.9048 0.0000
# 6 0.0000 0.0000 0.0000 0.0000 0.0000 4.9299
#
#
#
# Elastic Compliance Matrix: (Units=1/GPa)
#
#
# Indices 1 2 3 4 5 6 
#
# 1 0.014062 0.001997 -0.002920 0.000000 0.000000 0.000000
# 2 0.001997 0.017347 0.000068 0.000000 0.000000 0.000000
# 3 -0.002920 0.000068 0.012686 0.000000 0.000000 0.000000
# 4 0.000000 0.000000 0.000000 0.044894 0.000000 0.000000
# 5 0.000000 0.000000 0.000000 0.000000 0.040153 0.000000
# 6 0.000000 0.000000 0.000000 0.000000 0.000000 0.202842
#
#
# Mechanical properties :
#
#
# Convention : Reuss Voigt Hill
#
# Bulk Modulus (GPa) = 23.59307 25.59045 24.59176
# Shear Modulus (GPa) = 14.37519 24.50070 19.43794
#
# Velocity S-wave (km/s) = 2.75957 3.60266 3.20892
# Velocity P-wave (km/s) = 4.75941 5.55536 5.17272
#
# Compressibility (1/GPa) = 0.04238533
#
# Stress axis : x y z
#
# Youngs Moduli (GPa) = 71.11499 57.64773 78.82613
#
# Poissons Ratio (x) = -0.11513 0.23017
# Poissons Ratio (y) = -0.14203 -0.00538
# Poissons Ratio (z) = 0.20766 -0.00393
#
# Static dielectric constant tensor:
#      x y z
#    x 1.676340 0.000000 0.000000 
#    y 0.000000 1.692060 0.000000 
#    z 0.000000 0.000000 1.711750 
# 
# From -- ./inp_files/24634.got.cif
#   From: 2010.05.17/outbox.cif.g08.bks.cpg/sg57_13_cif.got.tgz:24634.got - 2010.06.03 13:58:18.
