data_PCOD9435373
_publ_section_title
;
Structure prediction by ZEFSAII (Michael W. Deem and Ramdas Pophale) SiO2 
 PCOD9435373
Probable space group: P B C M
;
_chemical_formula_sum "Si O2"
_cell_formula_units_Z 56
_cell_length_a 20.227093
_cell_length_b 18.673261
_cell_length_c 7.903610
_cell_angle_alpha 90.000000
_cell_angle_beta 90.000000
_cell_angle_gamma 90.000000
_cell_volume 2985.239234
_symmetry_space_group_name_H-M "P B C M"
_symmetry_group_IT_number 57
_symmetry_cell_setting 'orthorhombic'
loop_
_space_group_symop_operation_xyz
x,y,z
-x,-y,1/2+z
x,1/2-y,-z
-x,1/2+y,1/2-z
-x,-y,-z
x,y,1/2-z
-x,1/2+y,z
x,1/2-y,1/2+z
loop_
_atom_site_type_symbol
_atom_site_label
_atom_site_fract_x
_atom_site_fract_y
_atom_site_fract_z
Si Si1 0.567250 0.459395 0.046365
Si Si2 0.660175 0.668342 0.951726
Si Si3 0.841344 0.039980 0.950683
Si Si4 0.950386 0.935766 0.047968
Si Si5 0.061471 0.666963 0.545745
Si Si6 0.294364 0.480127 0.953042
Si Si7 0.510930 0.830706 0.453032
O O1 0.572724 0.460444 0.250000
O O2 0.635304 0.491332 0.978325
O O3 0.548341 0.380268 0.985687
O O4 0.500000 0.500000 0.000000
O O5 0.658102 0.665387 0.750000
O O6 0.585247 0.652510 0.018725
O O7 0.676945 0.750000 0.000000
O O8 0.707157 0.604812 0.012602
O O9 0.835771 0.052168 0.750000
O O10 0.883192 0.108926 0.016447
O O11 0.768346 0.024289 0.020470
O O12 0.882283 0.966081 0.975158
O O13 0.943150 0.931822 0.250000
O O14 0.989717 0.864724 0.989394
O O15 0.000000 0.000000 0.000000
O O16 0.071883 0.750000 0.500000
O O17 0.061756 0.662696 0.750000
O O18 0.294277 0.488731 0.750000
O O19 0.498026 0.750000 0.500000
O O20 0.514260 0.838282 0.250000
#
# Coordination Sequence:
#
# PCOD9435373 Si02
#       7
#     8   8   8   8   8   8   8
#     4  10  19  32  50  73  98 128 170 217 263 311
#     4  10  19  32  50  72  98 126 165 213 262 318
#     4   9  19  35  52  75 106 140 175 212 255 309
#     4   9  17  31  52  77 102 131 167 207 248 294
#     4   9  18  32  52  78 106 134 168 206 246 292
#     4  10  20  34  53  74 102 140 175 213 267 316
#     4   9  18  31  47  69  95 124 160 209 263 312
#
# _framework density 18.758966000000001
#
# number of rings (size 3 to 8) (size 9 to 14) (size 15 to 20)
#    0.000    2.571    1.429    1.714    0.000    4.571 
#    0.000    1.429    0.000    1.714    0.000    0.000 
#    0.000    0.000    0.000    0.000    0.000    0.000 
#
# Total GULP energy -311738.848365 kJ/mol
# GULP energy per Si atom -5566.765149 kJ/mol
# Density = 1.871627 g / cm^3
# Si number density = 18.758966 Si / 1000 Ang^3
#
#
#
# Elastic Constant Matrix: (Units=GPa)
#
#
# Indices 1 2 3 4 5 6 
#
# 1 106.8790 64.1114 -0.0201 0.0000 0.0000 0.0000
# 2 64.1114 124.3926 -2.0299 0.0000 0.0000 0.0000
# 3 -0.0201 -2.0299 14.8848 0.0000 0.0000 0.0000
# 4 0.0000 0.0000 0.0000 24.6671 0.0000 0.0000
# 5 0.0000 0.0000 0.0000 0.0000 12.0031 0.0000
# 6 0.0000 0.0000 0.0000 0.0000 0.0000 30.8960
#
#
#
# Elastic Compliance Matrix: (Units=1/GPa)
#
#
# Indices 1 2 3 4 5 6 
#
# 1 0.013556 -0.007002 -0.000937 0.000000 0.000000 0.000000
# 2 -0.007002 0.011674 0.001583 0.000000 0.000000 0.000000
# 3 -0.000937 0.001583 0.067397 0.000000 0.000000 0.000000
# 4 0.000000 0.000000 0.000000 0.040540 0.000000 0.000000
# 5 0.000000 0.000000 0.000000 0.000000 0.083312 0.000000
# 6 0.000000 0.000000 0.000000 0.000000 0.000000 0.032367
#
#
# Mechanical properties :
#
#
# Convention : Reuss Voigt Hill
#
# Bulk Modulus (GPa) = 12.51332 41.14214 26.82773
# Shear Modulus (GPa) = 17.34928 25.78626 21.56777
#
# Velocity S-wave (km/s) = 3.04444 3.71160 3.39445
# Velocity P-wave (km/s) = 4.36385 6.35197 5.44935
#
# Compressibility (1/GPa) = 0.07991485
#
# Stress axis : x y z
#
# Youngs Moduli (GPa) = 73.76543 85.66188 14.83742
#
# Poissons Ratio (x) = 0.59982 0.01390
# Poissons Ratio (y) = 0.51652 -0.02348
# Poissons Ratio (z) = 0.06909 -0.13556
#
# Static dielectric constant tensor:
#      x y z
#    x 1.691040 0.000000 0.000000 
#    y 0.000000 1.684390 0.000000 
#    z 0.000000 0.000000 1.674060 
# 
# From -- ./inp_files/8290.got.cif
#   From: 2010.05.17/outbox.cif.g08.bks.cpg/sg57_5_cif.got.tgz:8290.got - 2010.06.03 13:58:18.
