data_PCOD9435946
_publ_section_title
;
Structure prediction by ZEFSAII (Michael W. Deem and Ramdas Pophale) SiO2 
 PCOD9435946
Probable space group: P B C M
;
_chemical_formula_sum "Si O2"
_cell_formula_units_Z 64
_cell_length_a 18.156594
_cell_length_b 20.439067
_cell_length_c 9.446916
_cell_angle_alpha 90.000000
_cell_angle_beta 90.000000
_cell_angle_gamma 90.000000
_cell_volume 3505.786816
_symmetry_space_group_name_H-M "P B C M"
_symmetry_group_IT_number 57
_symmetry_cell_setting 'orthorhombic'
loop_
_space_group_symop_operation_xyz
x,y,z
-x,-y,1/2+z
x,1/2-y,-z
-x,1/2+y,1/2-z
-x,-y,-z
x,y,1/2-z
-x,1/2+y,z
x,1/2-y,1/2+z
loop_
_atom_site_type_symbol
_atom_site_label
_atom_site_fract_x
_atom_site_fract_y
_atom_site_fract_z
Si Si1 0.214948 0.462354 0.080539
Si Si2 0.755414 0.683911 0.917960
Si Si3 0.062696 0.539377 0.079740
Si Si4 0.926514 0.311506 0.589474
Si Si5 0.519445 0.435839 0.084757
Si Si6 0.250882 0.812315 0.912122
Si Si7 0.306046 0.563527 0.916388
Si Si8 0.419176 0.315418 0.418647
O O1 0.230874 0.466130 0.250000
O O2 0.206788 0.385419 0.044647
O O3 0.141308 0.504592 0.052645
O O4 0.279359 0.496731 0.990898
O O5 0.765168 0.694693 0.750000
O O6 0.667820 0.672976 0.944473
O O7 0.777748 0.750000 0.000000
O O8 0.052768 0.538151 0.250000
O O9 0.059369 0.615361 0.033883
O O10 0.000000 0.500000 0.000000
O O11 0.954277 0.250000 0.500000
O O12 0.954541 0.307037 0.750000
O O13 0.837627 0.306559 0.595238
O O14 0.501697 0.445583 0.250000
O O15 0.606666 0.425363 0.073112
O O16 0.470262 0.375157 0.034724
O O17 0.500000 0.500000 0.000000
O O18 0.278225 0.814214 0.750000
O O19 0.279343 0.750000 0.000000
O O20 0.268976 0.877703 0.997116
O O21 0.285665 0.563882 0.750000
O O22 0.440343 0.250000 0.500000
O O23 0.428330 0.306740 0.250000
#
# Coordination Sequence:
#
# PCOD9435946 Si02
#       8
#     8   8   8   8   8   8   8   8
#     4  10  20  38  59  79 108 146 183 223 277 340
#     4   9  18  33  57  81 103 137 179 223 273 325
#     4  10  21  38  58  84 115 147 185 226 274 334
#     4   9  18  34  56  81 109 143 183 223 262 318
#     4  10  22  37  52  75 107 141 184 230 275 331
#     4  10  19  34  54  78 109 144 182 225 271 323
#     4  11  22  34  52  81 111 141 183 235 282 330
#     4   9  18  34  53  75 103 138 180 222 266 321
#
# _framework density 18.255531000000001
#
# number of rings (size 3 to 8) (size 9 to 14) (size 15 to 20)
#    0.000    2.250    1.250    1.500    0.000    5.000 
#    0.000    4.375    0.000    3.000    0.000    0.000 
#    0.000    0.000    0.000    0.000    0.000    0.000 
#
# Total GULP energy -356958.866921 kJ/mol
# GULP energy per Si atom -5577.482296 kJ/mol
# Density = 1.821398 g / cm^3
# Si number density = 18.255531 Si / 1000 Ang^3
#
#
#
# Elastic Constant Matrix: (Units=GPa)
#
#
# Indices 1 2 3 4 5 6 
#
# 1 21.4518 28.6357 19.3653 0.0000 0.0000 0.0000
# 2 28.6357 177.2630 57.6115 0.0000 0.0000 0.0000
# 3 19.3653 57.6115 52.7377 0.0000 0.0000 0.0000
# 4 0.0000 0.0000 0.0000 37.4688 0.0000 0.0000
# 5 0.0000 0.0000 0.0000 0.0000 18.8153 0.0000
# 6 0.0000 0.0000 0.0000 0.0000 0.0000 26.3356
#
#
#
# Elastic Compliance Matrix: (Units=1/GPa)
#
#
# Indices 1 2 3 4 5 6 
#
# 1 0.072195 -0.004724 -0.021350 0.000000 0.000000 0.000000
# 2 -0.004724 0.009056 -0.008158 0.000000 0.000000 0.000000
# 3 -0.021350 -0.008158 0.035713 0.000000 0.000000 0.000000
# 4 0.000000 0.000000 0.000000 0.026689 0.000000 0.000000
# 5 0.000000 0.000000 0.000000 0.000000 0.053148 0.000000
# 6 0.000000 0.000000 0.000000 0.000000 0.000000 0.037971
#
#
# Mechanical properties :
#
#
# Convention : Reuss Voigt Hill
#
# Bulk Modulus (GPa) = 20.61814 51.40861 36.01337
# Shear Modulus (GPa) = 15.65421 26.24662 20.95041
#
# Velocity S-wave (km/s) = 2.93150 3.79586 3.39133
# Velocity P-wave (km/s) = 4.77252 6.88717 5.92495
#
# Compressibility (1/GPa) = 0.04850099
#
# Stress axis : x y z
#
# Youngs Moduli (GPa) = 13.85140 110.42512 28.00066
#
# Poissons Ratio (x) = 0.52164 0.59780
# Poissons Ratio (y) = 0.06543 0.22843
# Poissons Ratio (z) = 0.29572 0.90087
#
# Static dielectric constant tensor:
#      x y z
#    x 1.625550 0.000000 0.000000 
#    y 0.000000 1.626090 0.000000 
#    z 0.000000 0.000000 1.614710 
# 
# From -- ./inp_files/7189.got.cif
#   From: 2010.05.17/outbox.cif.g08.bks.cpg/sg57_4_cif.got.tgz:7189.got - 2010.06.03 13:58:18.
