data_PCOD9435809
_publ_section_title
;
Structure prediction by ZEFSAII (Michael W. Deem and Ramdas Pophale) SiO2 
 PCOD9435809
Probable space group: P B C M
;
_chemical_formula_sum "Si O2"
_cell_formula_units_Z 56
_cell_length_a 23.147767
_cell_length_b 14.787654
_cell_length_c 8.383278
_cell_angle_alpha 90.000000
_cell_angle_beta 90.000000
_cell_angle_gamma 90.000000
_cell_volume 2869.605862
_symmetry_space_group_name_H-M "P B C M"
_symmetry_group_IT_number 57
_symmetry_cell_setting 'orthorhombic'
loop_
_space_group_symop_operation_xyz
x,y,z
-x,-y,1/2+z
x,1/2-y,-z
-x,1/2+y,1/2-z
-x,-y,-z
x,y,1/2-z
-x,1/2+y,z
x,1/2-y,1/2+z
loop_
_atom_site_type_symbol
_atom_site_label
_atom_site_fract_x
_atom_site_fract_y
_atom_site_fract_z
Si Si1 0.364031 0.464715 0.557611
Si Si2 0.528570 0.650663 0.057390
Si Si3 0.018028 0.098874 0.942040
Si Si4 0.895495 0.155456 0.941396
Si Si5 0.140141 0.456795 0.058379
Si Si6 0.603827 0.348476 0.940436
Si Si7 0.252676 0.352692 0.558976
O O1 0.364590 0.464145 0.750000
O O2 0.424921 0.422341 0.500795
O O3 0.359379 0.567387 0.500762
O O4 0.311414 0.401824 0.502914
O O5 0.527986 0.649660 0.250000
O O6 0.462669 0.637082 0.001117
O O7 0.546971 0.750000 0.000000
O O8 0.018370 0.104754 0.750000
O O9 0.084608 0.104351 0.995615
O O10 0.962785 0.155052 0.999675
O O11 0.000000 0.000000 0.000000
O O12 0.894488 0.153904 0.750000
O O13 0.868723 0.250000 0.000000
O O14 0.868359 0.060515 0.000246
O O15 0.139973 0.458520 0.250000
O O16 0.198154 0.411013 0.997559
O O17 0.603208 0.347969 0.750000
O O18 0.622618 0.250000 0.000000
O O19 0.249397 0.250000 0.500000
O O20 0.253338 0.351618 0.750000
#
# Coordination Sequence:
#
# PCOD9435809 Si02
#       7
#     8   8   8   8   8   8   8
#     4  10  21  37  56  79 110 144 182 226 271 318
#     4   9  18  32  52  81 113 145 179 220 268 321
#     4   8  16  30  50  76 106 140 177 218 266 317
#     4  10  19  33  54  83 116 148 183 224 272 328
#     4  10  20  37  58  81 111 147 186 229 275 324
#     4  10  20  34  55  82 112 144 179 219 269 325
#     4  11  24  41  60  82 108 142 183 228 273 321
#
# _framework density 19.514876000000001
#
# number of rings (size 3 to 8) (size 9 to 14) (size 15 to 20)
#    0.000    2.286    0.000    2.571    0.000    4.000 
#    0.000    2.143    0.000    3.429    0.000    0.000 
#    0.000    0.000    0.000    0.000    0.000    0.000 
#
# Total GULP energy -312273.210209 kJ/mol
# GULP energy per Si atom -5576.307325 kJ/mol
# Density = 1.947046 g / cm^3
# Si number density = 19.514876 Si / 1000 Ang^3
#
#
#
# Elastic Constant Matrix: (Units=GPa)
#
#
# Indices 1 2 3 4 5 6 
#
# 1 53.6015 56.2529 17.3673 0.0000 0.0000 0.0000
# 2 56.2529 160.7737 19.6327 0.0000 0.0000 0.0000
# 3 17.3673 19.6327 23.3636 0.0000 0.0000 0.0000
# 4 0.0000 0.0000 0.0000 31.7141 0.0000 0.0000
# 5 0.0000 0.0000 0.0000 0.0000 20.7654 0.0000
# 6 0.0000 0.0000 0.0000 0.0000 0.0000 25.9856
#
#
#
# Elastic Compliance Matrix: (Units=1/GPa)
#
#
# Indices 1 2 3 4 5 6 
#
# 1 0.034889 -0.010074 -0.017469 0.000000 0.000000 0.000000
# 2 -0.010074 0.009840 -0.000780 0.000000 0.000000 0.000000
# 3 -0.017469 -0.000780 0.056443 0.000000 0.000000 0.000000
# 4 0.000000 0.000000 0.000000 0.031532 0.000000 0.000000
# 5 0.000000 0.000000 0.000000 0.000000 0.048157 0.000000
# 6 0.000000 0.000000 0.000000 0.000000 0.000000 0.038483
#
#
# Mechanical properties :
#
#
# Convention : Reuss Voigt Hill
#
# Bulk Modulus (GPa) = 22.45933 47.13831 34.79882
# Shear Modulus (GPa) = 17.19210 25.32541 21.25875
#
# Velocity S-wave (km/s) = 2.97134 3.60634 3.30413
# Velocity P-wave (km/s) = 4.82759 6.44580 5.69447
#
# Compressibility (1/GPa) = 0.04452492
#
# Stress axis : x y z
#
# Youngs Moduli (GPa) = 28.66273 101.62683 17.71697
#
# Poissons Ratio (x) = 1.02377 0.30950
# Poissons Ratio (y) = 0.28874 0.01382
# Poissons Ratio (z) = 0.50072 0.07929
#
# Static dielectric constant tensor:
#      x y z
#    x 1.713450 0.000000 0.000000 
#    y 0.000000 1.678120 0.000000 
#    z 0.000000 0.000000 1.669360 
# 
# From -- ./inp_files/8097.got.cif
#   From: 2010.05.17/outbox.cif.g08.bks.cpg/sg57_5_cif.got.tgz:8097.got - 2010.06.03 13:58:18.
