data_PCOD9435033
_publ_section_title
;
Structure prediction by ZEFSAII (Michael W. Deem and Ramdas Pophale) SiO2 
 PCOD9435033
Probable space group: P B C M
;
_chemical_formula_sum "Si O2"
_cell_formula_units_Z 48
_cell_length_a 14.081374
_cell_length_b 24.403419
_cell_length_c 8.913124
_cell_angle_alpha 90.000000
_cell_angle_beta 90.000000
_cell_angle_gamma 90.000000
_cell_volume 3062.849510
_symmetry_space_group_name_H-M "P B C M"
_symmetry_group_IT_number 57
_symmetry_cell_setting 'orthorhombic'
loop_
_space_group_symop_operation_xyz
x,y,z
-x,-y,1/2+z
x,1/2-y,-z
-x,1/2+y,1/2-z
-x,-y,-z
x,y,1/2-z
-x,1/2+y,z
x,1/2-y,1/2+z
loop_
_atom_site_type_symbol
_atom_site_label
_atom_site_fract_x
_atom_site_fract_y
_atom_site_fract_z
Si Si1 0.139559 0.528952 0.430343
Si Si2 0.036477 0.415748 0.430679
Si Si3 0.644662 0.017770 0.069650
Si Si4 0.149177 0.191652 0.930517
Si Si5 0.541581 0.585053 0.429020
Si Si6 0.628650 0.808534 0.070453
O O1 0.133659 0.533544 0.250000
O O2 0.102114 0.468042 0.471836
O O3 0.249221 0.534559 0.474810
O O4 0.066771 0.571652 0.502776
O O5 0.030827 0.414715 0.250000
O O6 0.084807 0.359253 0.480933
O O7 0.644233 0.008622 0.250000
O O8 0.564270 0.062886 0.035813
O O9 0.612075 0.961811 0.990915
O O10 0.143357 0.195253 0.750000
O O11 0.260024 0.181277 0.968262
O O12 0.121703 0.250000 0.000000
O O13 0.550694 0.589369 0.250000
O O14 0.567021 0.642203 0.505123
O O15 0.620946 0.806452 0.250000
O O16 0.602623 0.750000 0.000000
#
# Coordination Sequence:
#
# PCOD9435033 Si02
#       6
#     8   8   8   8   8   8
#     4   9  17  30  47  66  90 121 152 183 224 270
#     4   9  17  29  45  67  93 118 147 184 225 267
#     4   9  18  32  48  67  94 125 154 187 228 273
#     4   9  18  31  47  67  92 121 150 183 224 270
#     4  10  19  30  47  71  95 121 155 191 228 271
#     4  10  19  32  49  69  95 124 153 187 229 274
#
# _framework density 15.671681
#
# number of rings (size 3 to 8) (size 9 to 14) (size 15 to 20)
#    0.000    2.667    0.000    2.000    0.000    5.333 
#    0.000    3.333    0.000    1.000    0.000    2.333 
#    0.000    0.000    0.000    0.000    0.000    0.000 
#
# Total GULP energy -267628.039852 kJ/mol
# GULP energy per Si atom -5575.584164 kJ/mol
# Density = 1.563601 g / cm^3
# Si number density = 15.671681 Si / 1000 Ang^3
#
#
#
# Elastic Constant Matrix: (Units=GPa)
#
#
# Indices 1 2 3 4 5 6 
#
# 1 110.0839 74.2778 37.4094 0.0000 0.0000 0.0000
# 2 74.2778 140.2457 47.1254 0.0000 0.0000 0.0000
# 3 37.4094 47.1254 27.1413 0.0000 0.0000 0.0000
# 4 0.0000 0.0000 0.0000 30.3224 0.0000 0.0000
# 5 0.0000 0.0000 0.0000 0.0000 23.5568 0.0000
# 6 0.0000 0.0000 0.0000 0.0000 0.0000 22.9317
#
#
#
# Elastic Compliance Matrix: (Units=1/GPa)
#
#
# Indices 1 2 3 4 5 6 
#
# 1 0.017533 -0.002798 -0.019308 0.000000 0.000000 0.000000
# 2 -0.002798 0.017563 -0.026638 0.000000 0.000000 0.000000
# 3 -0.019308 -0.026638 0.109709 0.000000 0.000000 0.000000
# 4 0.000000 0.000000 0.000000 0.032979 0.000000 0.000000
# 5 0.000000 0.000000 0.000000 0.000000 0.042451 0.000000
# 6 0.000000 0.000000 0.000000 0.000000 0.000000 0.043608
#
#
# Mechanical properties :
#
#
# Convention : Reuss Voigt Hill
#
# Bulk Modulus (GPa) = 21.13433 66.12180 43.62806
# Shear Modulus (GPa) = 13.25893 23.27275 18.26584
#
# Velocity S-wave (km/s) = 2.91184 3.85778 3.41769
# Velocity P-wave (km/s) = 4.98197 7.88205 6.59344
#
# Compressibility (1/GPa) = 0.04731638
#
# Stress axis : x y z
#
# Youngs Moduli (GPa) = 57.03371 56.93649 9.11504
#
# Poissons Ratio (x) = 0.15933 0.17599
# Poissons Ratio (y) = 0.15960 0.24281
# Poissons Ratio (z) = 1.10121 1.51669
#
# Static dielectric constant tensor:
#      x y z
#    x 1.516500 0.000000 0.000000 
#    y 0.000000 1.499670 0.000000 
#    z 0.000000 0.000000 1.545440 
# 
# From -- ./inp_files/4887.got.cif
#   From: 2010.05.17/outbox.cif.g08.bks.cpg/sg57_3_cif.got.tgz:4887.got - 2010.06.03 13:58:18.
