data_PCOD9435355
_publ_section_title
;
Structure prediction by ZEFSAII (Michael W. Deem and Ramdas Pophale) SiO2 
 PCOD9435355
Probable space group: P B C M
;
_chemical_formula_sum "Si O2"
_cell_formula_units_Z 64
_cell_length_a 28.267364
_cell_length_b 15.069187
_cell_length_c 8.637073
_cell_angle_alpha 90.000000
_cell_angle_beta 90.000000
_cell_angle_gamma 90.000000
_cell_volume 3679.101114
_symmetry_space_group_name_H-M "P B C M"
_symmetry_group_IT_number 57
_symmetry_cell_setting 'orthorhombic'
loop_
_space_group_symop_operation_xyz
x,y,z
-x,-y,1/2+z
x,1/2-y,-z
-x,1/2+y,1/2-z
-x,-y,-z
x,y,1/2-z
-x,1/2+y,z
x,1/2-y,1/2+z
loop_
_atom_site_type_symbol
_atom_site_label
_atom_site_fract_x
_atom_site_fract_y
_atom_site_fract_z
Si Si1 0.917270 0.657800 0.436152
Si Si2 0.307162 0.846681 0.064670
Si Si3 0.196780 0.653144 0.564732
Si Si4 0.614458 0.475920 0.564409
Si Si5 0.983311 0.094251 0.063854
Si Si6 0.421894 0.153510 0.435425
Si Si7 0.884248 0.467483 0.563820
Si Si8 0.530808 0.153478 0.063497
O O1 0.896652 0.750000 0.500000
O O2 0.914798 0.656894 0.250000
O O3 0.894106 0.566496 0.498679
O O4 0.972932 0.655003 0.486384
O O5 0.311300 0.845682 0.250000
O O6 0.251987 0.860842 0.023335
O O7 0.340500 0.921914 0.995268
O O8 0.321232 0.750000 0.000000
O O9 0.182985 0.750000 0.500000
O O10 0.192950 0.654284 0.750000
O O11 0.163240 0.577347 0.497081
O O12 0.385240 0.521505 0.250000
O O13 0.609992 0.574480 0.498752
O O14 0.567890 0.420658 0.512219
O O15 0.983445 0.095147 0.250000
O O16 0.928449 0.097127 0.015476
O O17 0.000000 0.000000 0.000000
O O18 0.408767 0.250000 0.500000
O O19 0.420671 0.155045 0.250000
O O20 0.476625 0.136222 0.485698
O O21 0.883793 0.472674 0.750000
O O22 0.531552 0.156810 0.250000
O O23 0.544645 0.250000 0.000000
#
# Coordination Sequence:
#
# PCOD9435355 Si02
#       8
#     8   8   8   8   8   8   8   8
#     4  10  19  32  49  72 104 141 178 214 254 299
#     4  10  21  37  56  79 106 134 166 207 256 308
#     4  10  21  37  56  78 104 134 168 208 256 308
#     4  11  21  33  52  78 105 136 174 212 255 305
#     4   8  16  29  45  67  96 130 167 207 248 292
#     4  10  20  35  52  72 102 139 177 215 254 297
#     4  10  19  33  53  77 104 135 173 214 257 305
#     4   9  19  32  48  73 105 139 173 211 252 298
#
# _framework density 17.395551999999999
#
# number of rings (size 3 to 8) (size 9 to 14) (size 15 to 20)
#    0.000    2.250    0.000    3.000    0.000    5.500 
#    0.000    1.250    0.000    0.750    0.000    0.000 
#    0.000    0.000    0.000    0.000    0.000    0.000 
#
# Total GULP energy -356892.597808 kJ/mol
# GULP energy per Si atom -5576.446841 kJ/mol
# Density = 1.735596 g / cm^3
# Si number density = 17.395552 Si / 1000 Ang^3
#
#
#
# Elastic Constant Matrix: (Units=GPa)
#
#
# Indices 1 2 3 4 5 6 
#
# 1 79.9096 76.3914 34.4686 0.0000 0.0000 0.0000
# 2 76.3914 146.0501 42.4477 0.0000 0.0000 0.0000
# 3 34.4686 42.4477 41.0553 0.0000 0.0000 0.0000
# 4 0.0000 0.0000 0.0000 30.3520 0.0000 0.0000
# 5 0.0000 0.0000 0.0000 0.0000 22.2493 0.0000
# 6 0.0000 0.0000 0.0000 0.0000 0.0000 28.0426
#
#
#
# Elastic Compliance Matrix: (Units=1/GPa)
#
#
# Indices 1 2 3 4 5 6 
#
# 1 0.028807 -0.011491 -0.012304 0.000000 0.000000 0.000000
# 2 -0.011491 0.014372 -0.005212 0.000000 0.000000 0.000000
# 3 -0.012304 -0.005212 0.040076 0.000000 0.000000 0.000000
# 4 0.000000 0.000000 0.000000 0.032947 0.000000 0.000000
# 5 0.000000 0.000000 0.000000 0.000000 0.044945 0.000000
# 6 0.000000 0.000000 0.000000 0.000000 0.000000 0.035660
#
#
# Mechanical properties :
#
#
# Convention : Reuss Voigt Hill
#
# Bulk Modulus (GPa) = 39.61896 63.73673 51.67785
# Shear Modulus (GPa) = 18.99434 23.70926 21.35180
#
# Velocity S-wave (km/s) = 3.30799 3.69582 3.50727
# Velocity P-wave (km/s) = 6.11679 7.41157 6.79509
#
# Compressibility (1/GPa) = 0.02524044
#
# Stress axis : x y z
#
# Youngs Moduli (GPa) = 34.71386 69.57810 24.95239
#
# Poissons Ratio (x) = 0.79955 0.30702
# Poissons Ratio (y) = 0.39891 0.13005
# Poissons Ratio (z) = 0.42713 0.36264
#
# Static dielectric constant tensor:
#      x y z
#    x 1.606120 0.000000 0.000000 
#    y 0.000000 1.575980 0.000000 
#    z 0.000000 0.000000 1.579990 
# 
# From -- ./inp_files/9332.got.cif
#   From: 2010.05.17/outbox.cif.g08.bks.cpg/sg57_5_cif.got.tgz:9332.got - 2010.06.03 13:58:18.
