data_PCOD9435841
_publ_section_title
;
Structure prediction by ZEFSAII (Michael W. Deem and Ramdas Pophale) SiO2 
 PCOD9435841
Probable space group: P B C M
;
_chemical_formula_sum "Si O2"
_cell_formula_units_Z 64
_cell_length_a 12.469022
_cell_length_b 31.328071
_cell_length_c 8.899321
_cell_angle_alpha 90.000000
_cell_angle_beta 90.000000
_cell_angle_gamma 90.000000
_cell_volume 3476.345380
_symmetry_space_group_name_H-M "P B C M"
_symmetry_group_IT_number 57
_symmetry_cell_setting 'orthorhombic'
loop_
_space_group_symop_operation_xyz
x,y,z
-x,-y,1/2+z
x,1/2-y,-z
-x,1/2+y,1/2-z
-x,-y,-z
x,y,1/2-z
-x,1/2+y,z
x,1/2-y,1/2+z
loop_
_atom_site_type_symbol
_atom_site_label
_atom_site_fract_x
_atom_site_fract_y
_atom_site_fract_z
Si Si1 0.811724 0.885777 0.428623
Si Si2 0.583507 0.881812 0.580965
Si Si3 0.600290 0.983265 0.914581
Si Si4 0.011440 0.851798 0.572421
Si Si5 0.213135 0.703837 0.070723
Si Si6 0.149294 0.572564 0.930986
Si Si7 0.163044 0.478332 0.567075
Si Si8 0.647944 0.372259 0.070371
O O1 0.806309 0.889292 0.250000
O O2 0.694890 0.873195 0.493859
O O3 0.852418 0.931854 0.494841
O O4 0.901044 0.852305 0.482149
O O5 0.585026 0.636767 0.250000
O O6 0.586960 0.932835 0.596907
O O7 0.471059 0.872926 0.498965
O O8 0.603628 0.003543 0.750000
O O9 0.715697 0.989486 0.984517
O O10 0.500000 0.000000 0.000000
O O11 0.990196 0.854991 0.750000
O O12 0.091328 0.812408 0.544374
O O13 0.077989 0.893186 0.517690
O O14 0.231054 0.704190 0.250000
O O15 0.230426 0.750000 0.000000
O O16 0.289620 0.668650 0.994922
O O17 0.136684 0.577240 0.750000
O O18 0.110520 0.524274 0.968582
O O19 0.273124 0.587126 0.964125
O O20 0.160633 0.473082 0.750000
O O21 0.639984 0.369758 0.250000
#
# Coordination Sequence:
#
# PCOD9435841 Si02
#       8
#     8   8   8   8   8   8   8   8
#     4  11  22  35  52  74 101 140 189 231 269 314
#     4  10  20  34  50  71 103 141 178 216 262 312
#     4   9  17  27  41  62  91 130 174 220 264 306
#     4  10  21  37  56  78 106 139 175 217 267 320
#     4  10  21  38  62  90 115 139 167 204 256 315
#     4   9  18  32  51  75 104 139 180 227 274 318
#     4   9  18  32  46  65  98 138 180 226 273 315
#     4  10  19  33  55  83 112 140 174 216 263 316
#
# _framework density 18.410138
#
# number of rings (size 3 to 8) (size 9 to 14) (size 15 to 20)
#    0.000    2.250    0.000    4.125    0.000    6.500 
#    0.000    0.000    0.000    0.750    0.000    3.500 
#    0.000    0.000    0.000    0.000    0.000    0.000 
#
# Total GULP energy -356643.966840 kJ/mol
# GULP energy per Si atom -5572.561982 kJ/mol
# Density = 1.836824 g / cm^3
# Si number density = 18.410138 Si / 1000 Ang^3
#
#
#
# Elastic Constant Matrix: (Units=GPa)
#
#
# Indices 1 2 3 4 5 6 
#
# 1 96.0252 24.1952 40.9905 0.0000 0.0000 0.0000
# 2 24.1952 71.8860 27.6632 0.0000 0.0000 0.0000
# 3 40.9905 27.6632 78.5337 0.0000 0.0000 0.0000
# 4 0.0000 0.0000 0.0000 23.1603 0.0000 0.0000
# 5 0.0000 0.0000 0.0000 0.0000 30.0637 0.0000
# 6 0.0000 0.0000 0.0000 0.0000 0.0000 16.6467
#
#
#
# Elastic Compliance Matrix: (Units=1/GPa)
#
#
# Indices 1 2 3 4 5 6 
#
# 1 0.013680 -0.002148 -0.006384 0.000000 0.000000 0.000000
# 2 -0.002148 0.016429 -0.004666 0.000000 0.000000 0.000000
# 3 -0.006384 -0.004666 0.017709 0.000000 0.000000 0.000000
# 4 0.000000 0.000000 0.000000 0.043177 0.000000 0.000000
# 5 0.000000 0.000000 0.000000 0.000000 0.033263 0.000000
# 6 0.000000 0.000000 0.000000 0.000000 0.000000 0.060072
#
#
# Mechanical properties :
#
#
# Convention : Reuss Voigt Hill
#
# Bulk Modulus (GPa) = 46.67852 48.01586 47.34719
# Shear Modulus (GPa) = 22.94978 24.21389 23.58183
#
# Velocity S-wave (km/s) = 3.53453 3.63057 3.58287
# Velocity P-wave (km/s) = 6.48591 6.61155 6.54903
#
# Compressibility (1/GPa) = 0.02142313
#
# Stress axis : x y z
#
# Youngs Moduli (GPa) = 73.09849 60.86629 56.46837
#
# Poissons Ratio (x) = 0.13073 0.36048
# Poissons Ratio (y) = 0.15700 0.26349
# Poissons Ratio (z) = 0.46664 0.28401
#
# Static dielectric constant tensor:
#      x y z
#    x 1.767380 0.000000 0.000000 
#    y 0.000000 1.740760 0.000000 
#    z 0.000000 0.000000 1.627090 
# 
# From -- ./inp_files/3749.got.cif
#   From: 2010.05.17/outbox.cif.g08.bks.cpg/sg57_2_cif.got.tgz:3749.got - 2010.06.03 13:58:18.
