data_PCOD9435160
_publ_section_title
;
Structure prediction by ZEFSAII (Michael W. Deem and Ramdas Pophale) SiO2 
 PCOD9435160
Probable space group: P B C M
;
_chemical_formula_sum "Si O2"
_cell_formula_units_Z 64
_cell_length_a 16.600957
_cell_length_b 25.005042
_cell_length_c 8.845376
_cell_angle_alpha 90.000000
_cell_angle_beta 90.000000
_cell_angle_gamma 90.000000
_cell_volume 3671.783042
_symmetry_space_group_name_H-M "P B C M"
_symmetry_group_IT_number 57
_symmetry_cell_setting 'orthorhombic'
loop_
_space_group_symop_operation_xyz
x,y,z
-x,-y,1/2+z
x,1/2-y,-z
-x,1/2+y,1/2-z
-x,-y,-z
x,y,1/2-z
-x,1/2+y,z
x,1/2-y,1/2+z
loop_
_atom_site_type_symbol
_atom_site_label
_atom_site_fract_x
_atom_site_fract_y
_atom_site_fract_z
Si Si1 0.050502 0.918033 0.067419
Si Si2 0.889044 0.533967 0.067612
Si Si3 0.560284 0.541434 0.927080
Si Si4 0.860495 0.190565 0.931534
Si Si5 0.326306 0.808927 0.431386
Si Si6 0.515719 0.355916 0.928698
Si Si7 0.650655 0.695193 0.427767
Si Si8 0.283155 0.080563 0.432617
O O1 0.047228 0.916351 0.250000
O O2 0.085587 0.860308 0.017397
O O3 0.103252 0.970927 0.025961
O O4 0.962974 0.933061 0.002892
O O5 0.895294 0.536739 0.250000
O O6 0.804471 0.560045 0.022173
O O7 0.567737 0.533315 0.750000
O O8 0.500000 0.500000 0.000000
O O9 0.519518 0.597457 0.968635
O O10 0.647712 0.542320 0.003240
O O11 0.868937 0.195593 0.750000
O O12 0.766672 0.175726 0.961870
O O13 0.876529 0.250000 0.000000
O O14 0.334991 0.750000 0.500000
O O15 0.338483 0.809114 0.250000
O O16 0.395835 0.842015 0.513626
O O17 0.516327 0.370241 0.750000
O O18 0.446215 0.311033 0.946468
O O19 0.678909 0.750000 0.500000
O O20 0.666108 0.697593 0.250000
O O21 0.694012 0.640898 0.483994
O O22 0.288255 0.080076 0.250000
#
# Coordination Sequence:
#
# PCOD9435160 Si02
#       8
#     8   8   8   8   8   8   8   8
#     4   9  18  34  55  79 104 131 169 215 259 309
#     4   9  18  34  57  80 104 135 169 210 261 313
#     4  11  22  36  53  74 102 136 172 210 256 307
#     4   9  19  34  51  74 106 141 176 216 264 317
#     4  10  19  31  48  72 101 135 174 214 258 305
#     4  10  20  34  50  71  99 132 173 218 260 305
#     4   9  18  31  48  69  96 130 168 209 251 301
#     4   9  19  36  54  75 104 136 171 212 259 311
#
# _framework density 17.430223999999999
#
# number of rings (size 3 to 8) (size 9 to 14) (size 15 to 20)
#    0.000    2.500    0.000    3.000    0.000    6.000 
#    0.000    3.125    0.000    3.000    0.000    0.000 
#    0.000    0.000    0.000    0.000    0.000    0.000 
#
# Total GULP energy -356542.076687 kJ/mol
# GULP energy per Si atom -5570.969948 kJ/mol
# Density = 1.739055 g / cm^3
# Si number density = 17.430224 Si / 1000 Ang^3
#
#
#
# Elastic Constant Matrix: (Units=GPa)
#
#
# Indices 1 2 3 4 5 6 
#
# 1 126.1580 76.3728 32.6080 0.0000 0.0000 0.0000
# 2 76.3728 94.0104 28.2409 0.0000 0.0000 0.0000
# 3 32.6080 28.2409 25.1884 0.0000 0.0000 0.0000
# 4 0.0000 0.0000 0.0000 28.1623 0.0000 0.0000
# 5 0.0000 0.0000 0.0000 0.0000 27.5226 0.0000
# 6 0.0000 0.0000 0.0000 0.0000 0.0000 -4.5949
#
#
#
# Elastic Compliance Matrix: (Units=1/GPa)
#
#
# Indices 1 2 3 4 5 6 
#
# 1 0.017088 -0.010912 -0.009887 0.000000 0.000000 0.000000
# 2 -0.010912 0.023007 -0.011669 0.000000 0.000000 0.000000
# 3 -0.009887 -0.011669 0.065584 0.000000 0.000000 0.000000
# 4 0.000000 0.000000 0.000000 0.035508 0.000000 0.000000
# 5 0.000000 0.000000 0.000000 0.000000 0.036334 0.000000
# 6 0.000000 0.000000 0.000000 0.000000 0.000000 -0.217632
#
#
# Mechanical properties :
#
#
# Convention : Reuss Voigt Hill
#
# Bulk Modulus (GPa) = 24.54451 57.75558 41.15004
# Shear Modulus (GPa) = 130.18581 17.42701 73.80641
#
# Velocity S-wave (km/s) = 8.65170 3.16542 6.51428
# Velocity P-wave (km/s) = 10.67308 6.82401 8.95772
#
# Compressibility (1/GPa) = 0.04074231
#
# Stress axis : x y z
#
# Youngs Moduli (GPa) = 58.52140 43.46454 15.24767
#
# Poissons Ratio (x) = 0.47428 0.15075
# Poissons Ratio (y) = 0.63857 0.17793
# Poissons Ratio (z) = 0.57860 0.50721
#
# Static dielectric constant tensor:
#      x y z
#    x 1.593000 0.000000 0.000000 
#    y 0.000000 1.582500 0.000000 
#    z 0.000000 0.000000 1.586190 
# 
# From -- ./inp_files/5622.got.cif
#   From: 2010.05.17/outbox.cif.g08.bks.cpg/sg57_3_cif.got.tgz:5622.got - 2010.06.03 13:58:18.
