data_PCOD9435131
_publ_section_title
;
Structure prediction by ZEFSAII (Michael W. Deem and Ramdas Pophale) SiO2 
 PCOD9435131
Probable space group: P B C M
;
_chemical_formula_sum "Si O2"
_cell_formula_units_Z 64
_cell_length_a 35.525817
_cell_length_b 5.263508
_cell_length_c 13.445695
_cell_angle_alpha 90.000000
_cell_angle_beta 90.000000
_cell_angle_gamma 90.000000
_cell_volume 2514.216182
_symmetry_space_group_name_H-M "P B C M"
_symmetry_group_IT_number 57
_symmetry_cell_setting 'orthorhombic'
loop_
_space_group_symop_operation_xyz
x,y,z
-x,-y,1/2+z
x,1/2-y,-z
-x,1/2+y,1/2-z
-x,-y,-z
x,y,1/2-z
-x,1/2+y,z
x,1/2-y,1/2+z
loop_
_atom_site_type_symbol
_atom_site_label
_atom_site_fract_x
_atom_site_fract_y
_atom_site_fract_z
Si Si1 0.021177 0.086995 0.871444
Si Si2 0.599886 0.400074 0.130034
Si Si3 0.896429 0.410671 0.871404
Si Si4 0.274873 0.916007 0.628646
Si Si5 0.486075 0.668333 0.892392
Si Si6 0.853248 0.912375 0.871298
Si Si7 0.642992 0.599168 0.628514
Si Si8 0.231778 0.416773 0.628753
O O1 0.022022 0.089781 0.750000
O O2 0.008989 0.370719 0.900211
O O3 0.062195 0.995141 0.904754
O O4 0.600540 0.405755 0.250000
O O5 0.556466 0.428884 0.102145
O O6 0.627701 0.625697 0.097800
O O7 0.614204 0.122860 0.100078
O O8 0.897777 0.405927 0.750000
O O9 0.867092 0.631747 0.898933
O O10 0.882284 0.132446 0.901433
O O11 0.276514 0.908858 0.750000
O O12 0.260984 0.636571 0.598449
O O13 0.315740 0.011119 0.594742
O O14 0.245144 0.134751 0.601621
O O15 0.511689 0.449876 0.847114
O O16 0.501115 0.750000 0.000000
O O17 0.852713 0.916034 0.750000
O O18 0.810778 0.968910 0.904276
O O19 0.644640 0.605925 0.750000
O O20 0.231436 0.422248 0.750000
#
# Coordination Sequence:
#
# PCOD9435131 Si02
#       8
#     8   8   8   8   8   8   8   8
#     4   9  15  21  27  33  39  49  69  98 138 191
#     4  10  19  31  48  69  91 115 144 177 211 247
#     4   9  15  21  27  33  43  58  76 107 148 187
#     4   9  15  23  34  48  68  92 115 140 172 208
#     4  10  21  36  52  70  93 120 148 178 213 252
#     4   9  15  21  27  36  49  65  88 115 145 184
#     4   9  17  28  42  62  86 109 134 166 202 237
#     4   9  15  21  30  43  59  82 109 133 159 200
#
# _framework density 25.455249999999999
#
# number of rings (size 3 to 8) (size 9 to 14) (size 15 to 20)
#    0.000    2.750    0.000    3.000    0.000    9.500 
#    0.000    0.000    0.000    0.000    0.000    0.000 
#    0.000    0.000    0.000    0.000    0.000    0.000 
#
# Total GULP energy -358394.233411 kJ/mol
# GULP energy per Si atom -5599.909897 kJ/mol
# Density = 2.539731 g / cm^3
# Si number density = 25.455250 Si / 1000 Ang^3
#
#
#
# Elastic Constant Matrix: (Units=GPa)
#
#
# Indices 1 2 3 4 5 6 
#
# 1 150.7073 63.3603 -5.9522 0.0000 0.0000 0.0000
# 2 63.3603 179.7245 7.6814 0.0000 0.0000 0.0000
# 3 -5.9522 7.6814 89.1579 0.0000 0.0000 0.0000
# 4 0.0000 0.0000 0.0000 15.0924 0.0000 0.0000
# 5 0.0000 0.0000 0.0000 0.0000 24.7341 0.0000
# 6 0.0000 0.0000 0.0000 0.0000 0.0000 45.0344
#
#
#
# Elastic Compliance Matrix: (Units=1/GPa)
#
#
# Indices 1 2 3 4 5 6 
#
# 1 0.007842 -0.002797 0.000764 0.000000 0.000000 0.000000
# 2 -0.002797 0.006582 -0.000754 0.000000 0.000000 0.000000
# 3 0.000764 -0.000754 0.011332 0.000000 0.000000 0.000000
# 4 0.000000 0.000000 0.000000 0.066259 0.000000 0.000000
# 5 0.000000 0.000000 0.000000 0.000000 0.040430 0.000000
# 6 0.000000 0.000000 0.000000 0.000000 0.000000 0.022205
#
#
# Mechanical properties :
#
#
# Convention : Reuss Voigt Hill
#
# Bulk Modulus (GPa) = 49.54665 61.08540 55.31603
# Shear Modulus (GPa) = 29.94898 40.60552 35.27725
#
# Velocity S-wave (km/s) = 3.43379 3.99829 3.72674
# Velocity P-wave (km/s) = 5.93529 6.73531 6.34792
#
# Compressibility (1/GPa) = 0.02018300
#
# Stress axis : x y z
#
# Youngs Moduli (GPa) = 127.52583 151.92026 88.24534
#
# Poissons Ratio (x) = 0.42494 -0.06746
# Poissons Ratio (y) = 0.35671 0.06652
# Poissons Ratio (z) = -0.09749 0.11452
#
# Static dielectric constant tensor:
#      x y z
#    x 1.887200 0.000000 0.000000 
#    y 0.000000 1.953130 0.000000 
#    z 0.000000 0.000000 2.147000 
# 
# From -- ./inp_files/25896.got.cif
#   From: 2010.05.17/outbox.cif.g08.bks.cpg/sg57_13_cif.got.tgz:25896.got - 2010.06.03 13:58:18.
