data_PCOD9435240
_publ_section_title
;
Structure prediction by ZEFSAII (Michael W. Deem and Ramdas Pophale) SiO2 
 PCOD9435240
Probable space group: P B C M
;
_chemical_formula_sum "Si O2"
_cell_formula_units_Z 48
_cell_length_a 10.317011
_cell_length_b 30.364657
_cell_length_c 8.853418
_cell_angle_alpha 90.000000
_cell_angle_beta 90.000000
_cell_angle_gamma 90.000000
_cell_volume 2773.532393
_symmetry_space_group_name_H-M "P B C M"
_symmetry_group_IT_number 57
_symmetry_cell_setting 'orthorhombic'
loop_
_space_group_symop_operation_xyz
x,y,z
-x,-y,1/2+z
x,1/2-y,-z
-x,1/2+y,1/2-z
-x,-y,-z
x,y,1/2-z
-x,1/2+y,z
x,1/2-y,1/2+z
loop_
_atom_site_type_symbol
_atom_site_label
_atom_site_fract_x
_atom_site_fract_y
_atom_site_fract_z
Si Si1 0.783792 0.388353 0.929189
Si Si2 0.211226 0.795594 0.076019
Si Si3 0.872228 0.021778 0.569244
Si Si4 0.473366 0.295337 0.424141
Si Si5 0.622494 0.525445 0.930182
Si Si6 0.472917 0.112633 0.428544
O O1 0.804932 0.391966 0.750000
O O2 0.628106 0.392842 0.955581
O O3 0.824218 0.340112 0.987836
O O4 0.854311 0.427866 0.015003
O O5 0.169723 0.797956 0.250000
O O6 0.368932 0.794307 0.074986
O O7 0.166952 0.750000 0.000000
O O8 0.873922 0.019724 0.750000
O O9 0.749939 0.995217 0.503390
O O10 0.000000 0.000000 0.500000
O O11 0.428660 0.250000 0.500000
O O12 0.432395 0.298525 0.250000
O O13 0.436276 0.338511 0.517767
O O14 0.624964 0.520021 0.750000
O O15 0.500000 0.500000 0.000000
O O16 0.602541 0.576010 0.977248
O O17 0.450977 0.106877 0.250000
#
# Coordination Sequence:
#
# PCOD9435240 Si02
#       6
#     8   8   8   8   8   8
#     4  10  19  32  51  75 106 141 180 222 272 325
#     4   9  16  26  42  67 100 136 175 217 268 321
#     4  12  25  41  59  80 110 146 186 230 279 332
#     4   9  16  26  41  65 100 138 175 216 268 324
#     4  12  23  37  57  82 110 143 184 227 273 324
#     4  10  19  31  50  76 106 140 180 224 272 323
#
# _framework density 17.306450000000002
#
# number of rings (size 3 to 8) (size 9 to 14) (size 15 to 20)
#    0.000    1.667    1.667    5.000    0.000    5.333 
#    0.000    0.000    0.000    0.000    0.000    1.167 
#    0.000    0.000    0.000    0.000    0.000    0.000 
#
# Total GULP energy -268013.149500 kJ/mol
# GULP energy per Si atom -5583.607281 kJ/mol
# Density = 1.726706 g / cm^3
# Si number density = 17.306450 Si / 1000 Ang^3
#
#
#
# Elastic Constant Matrix: (Units=GPa)
#
#
# Indices 1 2 3 4 5 6 
#
# 1 67.0099 47.8267 48.6905 0.0000 0.0000 0.0000
# 2 47.8267 159.1674 78.7219 0.0000 0.0000 0.0000
# 3 48.6905 78.7219 160.0623 0.0000 0.0000 0.0000
# 4 0.0000 0.0000 0.0000 39.5534 0.0000 0.0000
# 5 0.0000 0.0000 0.0000 0.0000 18.5362 0.0000
# 6 0.0000 0.0000 0.0000 0.0000 0.0000 9.3962
#
#
#
# Elastic Compliance Matrix: (Units=1/GPa)
#
#
# Indices 1 2 3 4 5 6 
#
# 1 0.021069 -0.004177 -0.004355 0.000000 0.000000 0.000000
# 2 -0.004177 0.009130 -0.003220 0.000000 0.000000 0.000000
# 3 -0.004355 -0.003220 0.009156 0.000000 0.000000 0.000000
# 4 0.000000 0.000000 0.000000 0.025282 0.000000 0.000000
# 5 0.000000 0.000000 0.000000 0.000000 0.053948 0.000000
# 6 0.000000 0.000000 0.000000 0.000000 0.000000 0.106426
#
#
# Mechanical properties :
#
#
# Convention : Reuss Voigt Hill
#
# Bulk Modulus (GPa) = 63.08460 81.85754 72.47107
# Shear Modulus (GPa) = 19.70067 27.56386 23.63227
#
# Velocity S-wave (km/s) = 3.37759 3.99519 3.69930
# Velocity P-wave (km/s) = 7.19316 8.28755 7.75967
#
# Compressibility (1/GPa) = 0.01585173
#
# Stress axis : x y z
#
# Youngs Moduli (GPa) = 47.46409 109.52588 109.21991
#
# Poissons Ratio (x) = 0.45748 0.47562
# Poissons Ratio (y) = 0.19825 0.35167
# Poissons Ratio (z) = 0.20669 0.35266
#
# Static dielectric constant tensor:
#      x y z
#    x 1.608740 0.000000 0.000000 
#    y 0.000000 1.600500 0.000000 
#    z 0.000000 0.000000 1.575580 
# 
# From -- ./inp_files/2009.got.cif
#   From: 2010.05.17/outbox.cif.g08.bks.cpg/sg57_2_cif.got.tgz:2009.got - 2010.06.03 13:58:18.
