data_PCOD9435401
_publ_section_title
;
Structure prediction by ZEFSAII (Michael W. Deem and Ramdas Pophale) SiO2 
 PCOD9435401
Probable space group: P B C M
;
_chemical_formula_sum "Si O2"
_cell_formula_units_Z 48
_cell_length_a 16.483231
_cell_length_b 19.085219
_cell_length_c 8.572669
_cell_angle_alpha 90.000000
_cell_angle_beta 90.000000
_cell_angle_gamma 90.000000
_cell_volume 2696.842280
_symmetry_space_group_name_H-M "P B C M"
_symmetry_group_IT_number 57
_symmetry_cell_setting 'orthorhombic'
loop_
_space_group_symop_operation_xyz
x,y,z
-x,-y,1/2+z
x,1/2-y,-z
-x,1/2+y,1/2-z
-x,-y,-z
x,y,1/2-z
-x,1/2+y,z
x,1/2-y,1/2+z
loop_
_atom_site_type_symbol
_atom_site_label
_atom_site_fract_x
_atom_site_fract_y
_atom_site_fract_z
Si Si1 0.499799 0.420587 0.062247
Si Si2 0.172796 0.329094 0.438296
Si Si3 0.826402 0.170895 0.435113
Si Si4 0.322741 0.076075 0.939355
Si Si5 0.676965 0.417297 0.437296
Si Si6 0.005471 0.670313 0.563117
O O1 0.501130 0.422045 0.250000
O O2 0.411190 0.392146 0.015850
O O3 0.586917 0.390020 0.012793
O O4 0.500000 0.500000 0.000000
O O5 0.180342 0.250000 0.500000
O O6 0.174759 0.326187 0.250000
O O7 0.247423 0.376759 0.491471
O O8 0.083339 0.358389 0.482088
O O9 0.819844 0.250000 0.500000
O O10 0.829054 0.174139 0.250000
O O11 0.749721 0.126770 0.491117
O O12 0.911844 0.138980 0.495295
O O13 0.320325 0.070917 0.750000
O O14 0.317019 0.997971 0.007887
O O15 0.681978 0.414346 0.250000
O O16 0.004223 0.750000 0.500000
O O17 0.011501 0.671117 0.750000
#
# Coordination Sequence:
#
# PCOD9435401 Si02
#       6
#     8   8   8   8   8   8
#     4   8  15  28  48  69  94 126 161 196 234 281
#     4   9  18  31  50  73  99 128 160 196 238 284
#     4  11  21  34  52  73  96 126 160 199 242 287
#     4   9  17  32  51  73  99 129 162 199 240 285
#     4  10  19  32  50  74  99 127 162 201 241 286
#     4   9  16  29  48  70  94 124 159 195 233 283
#
# _framework density 17.798593
#
# number of rings (size 3 to 8) (size 9 to 14) (size 15 to 20)
#    0.000    2.667    0.000    3.500    0.000    2.000 
#    0.000    1.667    0.000    2.000    0.000    0.000 
#    0.000    0.000    0.000    0.000    0.000    0.000 
#
# Total GULP energy -267252.305730 kJ/mol
# GULP energy per Si atom -5567.756369 kJ/mol
# Density = 1.775808 g / cm^3
# Si number density = 17.798593 Si / 1000 Ang^3
#
#
#
# Elastic Constant Matrix: (Units=GPa)
#
#
# Indices 1 2 3 4 5 6 
#
# 1 240.1031 62.1805 52.2226 0.0000 0.0000 0.0000
# 2 62.1805 37.7086 16.6200 0.0000 0.0000 0.0000
# 3 52.2226 16.6200 51.0542 0.0000 0.0000 0.0000
# 4 0.0000 0.0000 0.0000 21.4966 0.0000 0.0000
# 5 0.0000 0.0000 0.0000 0.0000 140.1347 0.0000
# 6 0.0000 0.0000 0.0000 0.0000 0.0000 33.3961
#
#
#
# Elastic Compliance Matrix: (Units=1/GPa)
#
#
# Indices 1 2 3 4 5 6 
#
# 1 0.008098 -0.011328 -0.004596 0.000000 0.000000 0.000000
# 2 -0.011328 0.046807 -0.003650 0.000000 0.000000 0.000000
# 3 -0.004596 -0.003650 0.025476 0.000000 0.000000 0.000000
# 4 0.000000 0.000000 0.000000 0.046519 0.000000 0.000000
# 5 0.000000 0.000000 0.000000 0.000000 0.007136 0.000000
# 6 0.000000 0.000000 0.000000 0.000000 0.000000 0.029944
#
#
# Mechanical properties :
#
#
# Convention : Reuss Voigt Hill
#
# Bulk Modulus (GPa) = 24.25196 65.65689 44.95443
# Shear Modulus (GPa) = 23.05495 52.19500 37.62497
#
# Velocity S-wave (km/s) = 3.60297 5.42116 4.60274
# Velocity P-wave (km/s) = 5.56452 8.72664 7.31840
#
# Compressibility (1/GPa) = 0.04123377
#
# Stress axis : x y z
#
# Youngs Moduli (GPa) = 123.48554 21.36410 39.25220
#
# Poissons Ratio (x) = 0.24201 0.18039
# Poissons Ratio (y) = 1.39884 0.14328
# Poissons Ratio (z) = 0.56751 0.07799
#
# Static dielectric constant tensor:
#      x y z
#    x 1.689810 0.000000 0.000000 
#    y 0.000000 1.552610 0.000000 
#    z 0.000000 0.000000 1.593890 
# 
# From -- ./inp_files/4869.got.cif
#   From: 2010.05.17/outbox.cif.g08.bks.cpg/sg57_3_cif.got.tgz:4869.got - 2010.06.03 13:58:18.
