data_PCOD9435286
_publ_section_title
;
Structure prediction by ZEFSAII (Michael W. Deem and Ramdas Pophale) SiO2 
 PCOD9435286
Probable space group: P B C M
;
_chemical_formula_sum "Si O2"
_cell_formula_units_Z 40
_cell_length_a 12.793757
_cell_length_b 21.094904
_cell_length_c 8.859437
_cell_angle_alpha 90.000000
_cell_angle_beta 90.000000
_cell_angle_gamma 90.000000
_cell_volume 2391.012107
_symmetry_space_group_name_H-M "P B C M"
_symmetry_group_IT_number 57
_symmetry_cell_setting 'orthorhombic'
loop_
_space_group_symop_operation_xyz
x,y,z
-x,-y,1/2+z
x,1/2-y,-z
-x,1/2+y,1/2-z
-x,-y,-z
x,y,1/2-z
-x,1/2+y,z
x,1/2-y,1/2+z
loop_
_atom_site_type_symbol
_atom_site_label
_atom_site_fract_x
_atom_site_fract_y
_atom_site_fract_z
Si Si1 0.078918 0.910027 0.570839
Si Si2 0.647080 0.546171 0.429513
Si Si3 0.136397 0.057769 0.929096
Si Si4 0.747194 0.180358 0.930086
Si Si5 0.582624 0.088546 0.429534
O O1 0.080230 0.898468 0.750000
O O2 0.155944 0.861985 0.487992
O O3 0.961555 0.908028 0.506733
O O4 0.118865 0.982170 0.545252
O O5 0.659293 0.537048 0.250000
O O6 0.752218 0.574385 0.499328
O O7 0.625867 0.478080 0.506544
O O8 0.542041 0.586837 0.455097
O O9 0.135620 0.068587 0.750000
O O10 0.747153 0.183203 0.750000
O O11 0.753578 0.250000 0.000000
O O12 0.643632 0.144706 0.989442
O O13 0.602423 0.090875 0.250000
#
# Coordination Sequence:
#
# PCOD9435286 Si02
#       5
#     8   8   8   8   8
#     4  10  20  34  52  77 109 141 179 221 266 319
#     4  10  19  31  52  79 110 143 174 218 271 321
#     4  10  19  31  52  79 111 143 174 219 270 321
#     4  12  24  38  57  78 107 144 183 223 266 316
#     4  10  20  34  51  77 109 141 180 220 265 318
#
# _framework density 16.729317999999999
#
# number of rings (size 3 to 8) (size 9 to 14) (size 15 to 20)
#    0.000    1.600    2.000    4.200    0.000    4.000 
#    0.000    0.000    0.000    1.200    0.000    2.800 
#    0.000    0.000    0.000    0.000    0.000    0.000 
#
# Total GULP energy -223410.818255 kJ/mol
# GULP energy per Si atom -5585.270456 kJ/mol
# Density = 1.669124 g / cm^3
# Si number density = 16.729318 Si / 1000 Ang^3
#
#
#
# Elastic Constant Matrix: (Units=GPa)
#
#
# Indices 1 2 3 4 5 6 
#
# 1 143.4777 43.2408 84.5814 0.0000 0.0000 0.0000
# 2 43.2408 73.8059 63.4512 0.0000 0.0000 0.0000
# 3 84.5814 63.4512 130.5905 0.0000 0.0000 0.0000
# 4 0.0000 0.0000 0.0000 24.9473 0.0000 0.0000
# 5 0.0000 0.0000 0.0000 0.0000 33.9427 0.0000
# 6 0.0000 0.0000 0.0000 0.0000 0.0000 12.5491
#
#
#
# Elastic Compliance Matrix: (Units=1/GPa)
#
#
# Indices 1 2 3 4 5 6 
#
# 1 0.011288 -0.000563 -0.007037 0.000000 0.000000 0.000000
# 2 -0.000563 0.023297 -0.010955 0.000000 0.000000 0.000000
# 3 -0.007037 -0.010955 0.017538 0.000000 0.000000 0.000000
# 4 0.000000 0.000000 0.000000 0.040084 0.000000 0.000000
# 5 0.000000 0.000000 0.000000 0.000000 0.029461 0.000000
# 6 0.000000 0.000000 0.000000 0.000000 0.000000 0.079687
#
#
# Mechanical properties :
#
#
# Convention : Reuss Voigt Hill
#
# Bulk Modulus (GPa) = 66.61146 81.15786 73.88466
# Shear Modulus (GPa) = 20.53634 24.72787 22.63211
#
# Velocity S-wave (km/s) = 3.50746 3.84880 3.68209
# Velocity P-wave (km/s) = 7.50378 8.26854 7.89542
#
# Compressibility (1/GPa) = 0.01501243
#
# Stress axis : x y z
#
# Youngs Moduli (GPa) = 88.58863 42.92450 57.01849
#
# Poissons Ratio (x) = 0.02418 0.40127
# Poissons Ratio (y) = 0.04990 0.62461
# Poissons Ratio (z) = 0.62344 0.47022
#
# Static dielectric constant tensor:
#      x y z
#    x 1.577570 0.000000 0.000000 
#    y 0.000000 1.527000 0.000000 
#    z 0.000000 0.000000 1.552820 
# 
# From -- ./inp_files/2657.got.cif
#   From: 2010.05.17/outbox.cif.g08.bks.cpg/sg57_2_cif.got.tgz:2657.got - 2010.06.03 13:58:18.
