data_PCOD9435783
_publ_section_title
;
Structure prediction by ZEFSAII (Michael W. Deem and Ramdas Pophale) SiO2 
 PCOD9435783
Probable space group: P B C M
;
_chemical_formula_sum "Si O2"
_cell_formula_units_Z 48
_cell_length_a 32.209136
_cell_length_b 9.181403
_cell_length_c 8.636374
_cell_angle_alpha 90.000000
_cell_angle_beta 90.000000
_cell_angle_gamma 90.000000
_cell_volume 2553.992201
_symmetry_space_group_name_H-M "P B C M"
_symmetry_group_IT_number 57
_symmetry_cell_setting 'orthorhombic'
loop_
_space_group_symop_operation_xyz
x,y,z
-x,-y,1/2+z
x,1/2-y,-z
-x,1/2+y,1/2-z
-x,-y,-z
x,y,1/2-z
-x,1/2+y,z
x,1/2-y,1/2+z
loop_
_atom_site_type_symbol
_atom_site_label
_atom_site_fract_x
_atom_site_fract_y
_atom_site_fract_z
Si Si1 0.370053 0.584745 0.935619
Si Si2 0.202115 0.087449 0.563466
Si Si3 0.880919 0.086275 0.063327
Si Si4 0.538981 0.413555 0.435397
Si Si5 0.715884 0.085382 0.064212
Si Si6 0.039763 0.413882 0.564336
O O1 0.366595 0.588349 0.750000
O O2 0.415403 0.522122 0.977652
O O3 0.370900 0.750000 0.000000
O O4 0.327911 0.520479 0.005377
O O5 0.198968 0.250000 0.500000
O O6 0.202626 0.093693 0.750000
O O7 0.162169 0.991965 0.518156
O O8 0.244636 0.008951 0.513186
O O9 0.883913 0.087998 0.250000
O O10 0.881880 0.250000 0.000000
O O11 0.919129 0.995710 0.994445
O O12 0.537310 0.250000 0.500000
O O13 0.500000 0.500000 0.500000
O O14 0.536937 0.409018 0.250000
O O15 0.715023 0.092849 0.250000
O O16 0.719883 0.250000 0.000000
O O17 0.039371 0.250000 0.500000
O O18 0.038731 0.411777 0.750000
O O19 0.000000 0.500000 0.500000
#
# Coordination Sequence:
#
# PCOD9435783 Si02
#       6
#     8   8   8   8   8   8
#     4   9  17  30  50  76 103 136 175 219 268 322
#     4  10  23  39  57  82 114 149 187 228 278 333
#     4  11  23  41  63  90 120 154 195 240 287 338
#     4  10  20  34  53  77 106 139 179 223 273 328
#     4  10  19  33  54  81 107 138 179 224 270 323
#     4  12  25  43  65  92 124 160 199 242 290 342
#
# _framework density 18.794105999999999
#
# number of rings (size 3 to 8) (size 9 to 14) (size 15 to 20)
#    0.000    1.667    0.000    6.000    0.000    6.000 
#    0.000    0.833    0.000    2.000    0.000    0.000 
#    0.000    0.000    0.000    0.000    0.000    0.000 
#
# Total GULP energy -268101.851182 kJ/mol
# GULP energy per Si atom -5585.455233 kJ/mol
# Density = 1.875133 g / cm^3
# Si number density = 18.794106 Si / 1000 Ang^3
#
#
#
# Elastic Constant Matrix: (Units=GPa)
#
#
# Indices 1 2 3 4 5 6 
#
# 1 230.6441 99.1415 71.3993 0.0000 0.0000 0.0000
# 2 99.1415 127.2703 44.2482 0.0000 0.0000 0.0000
# 3 71.3993 44.2482 91.9554 0.0000 0.0000 0.0000
# 4 0.0000 0.0000 0.0000 32.8056 0.0000 0.0000
# 5 0.0000 0.0000 0.0000 0.0000 32.8051 0.0000
# 6 0.0000 0.0000 0.0000 0.0000 0.0000 33.5571
#
#
#
# Elastic Compliance Matrix: (Units=1/GPa)
#
#
# Indices 1 2 3 4 5 6 
#
# 1 0.007374 -0.004508 -0.003557 0.000000 0.000000 0.000000
# 2 -0.004508 0.012192 -0.002366 0.000000 0.000000 0.000000
# 3 -0.003557 -0.002366 0.014775 0.000000 0.000000 0.000000
# 4 0.000000 0.000000 0.000000 0.030483 0.000000 0.000000
# 5 0.000000 0.000000 0.000000 0.000000 0.030483 0.000000
# 6 0.000000 0.000000 0.000000 0.000000 0.000000 0.029800
#
#
# Mechanical properties :
#
#
# Convention : Reuss Voigt Hill
#
# Bulk Modulus (GPa) = 74.18820 97.71642 85.95231
# Shear Modulus (GPa) = 33.23100 35.50561 34.36831
#
# Velocity S-wave (km/s) = 4.20951 4.35120 4.28094
# Velocity P-wave (km/s) = 7.94900 8.79488 8.38261
#
# Compressibility (1/GPa) = 0.01347923
#
# Stress axis : x y z
#
# Youngs Moduli (GPa) = 135.60274 82.02338 67.68146
#
# Poissons Ratio (x) = 0.36976 0.24073
# Poissons Ratio (y) = 0.61130 0.16015
# Poissons Ratio (z) = 0.48230 0.19409
#
# Static dielectric constant tensor:
#      x y z
#    x 1.679140 0.000000 0.000000 
#    y 0.000000 1.610960 0.000000 
#    z 0.000000 0.000000 1.633120 
# 
# From -- ./inp_files/9887.got.cif
#   From: 2010.05.17/outbox.cif.g08.bks.cpg/sg57_5_cif.got.tgz:9887.got - 2010.06.03 13:58:18.
