data_PCOD9435496
_publ_section_title
;
Structure prediction by ZEFSAII (Michael W. Deem and Ramdas Pophale) SiO2 
 PCOD9435496
Probable space group: P B C M
;
_chemical_formula_sum "Si O2"
_cell_formula_units_Z 48
_cell_length_a 10.813340
_cell_length_b 23.541611
_cell_length_c 9.401741
_cell_angle_alpha 90.000000
_cell_angle_beta 90.000000
_cell_angle_gamma 90.000000
_cell_volume 2393.339568
_symmetry_space_group_name_H-M "P B C M"
_symmetry_group_IT_number 57
_symmetry_cell_setting 'orthorhombic'
loop_
_space_group_symop_operation_xyz
x,y,z
-x,-y,1/2+z
x,1/2-y,-z
-x,1/2+y,1/2-z
-x,-y,-z
x,y,1/2-z
-x,1/2+y,z
x,1/2-y,1/2+z
loop_
_atom_site_type_symbol
_atom_site_label
_atom_site_fract_x
_atom_site_fract_y
_atom_site_fract_z
Si Si1 0.433384 0.406043 0.584418
Si Si2 0.306209 0.308642 0.415805
Si Si3 0.948719 0.879913 0.085159
Si Si4 0.671380 0.079468 0.918429
Si Si5 0.184541 0.691472 0.580904
Si Si6 0.176070 0.475852 0.914137
O O1 0.456675 0.393674 0.750000
O O2 0.402199 0.349760 0.494776
O O3 0.552367 0.433986 0.512014
O O4 0.310200 0.444498 0.577325
O O5 0.297225 0.250000 0.500000
O O6 0.338050 0.300118 0.250000
O O7 0.174914 0.341452 0.421161
O O8 0.976330 0.892945 0.250000
O O9 0.060177 0.840893 0.030134
O O10 0.917196 0.938264 0.005460
O O11 0.647347 0.069461 0.750000
O O12 0.708315 0.144954 0.938161
O O13 0.788304 0.039750 0.957185
O O14 0.204289 0.750000 0.500000
O O15 0.171356 0.702408 0.750000
O O16 0.136182 0.475396 0.750000
#
# Coordination Sequence:
#
# PCOD9435496 Si02
#       6
#     8   8   8   8   8   8
#     4  10  20  34  53  78 107 140 180 221 266 321
#     4  10  19  32  52  77 105 137 175 221 270 317
#     4   9  19  35  55  80 108 137 172 218 269 317
#     4  10  21  37  55  77 109 145 179 219 267 315
#     4  10  22  39  57  78 107 143 180 218 261 312
#     4   9  19  35  56  82 109 138 174 220 271 320
#
# _framework density 20.055658000000001
#
# number of rings (size 3 to 8) (size 9 to 14) (size 15 to 20)
#    0.000    2.333    0.000    2.000    0.000    4.667 
#    0.000    1.667    0.000    0.000    0.000    0.000 
#    0.000    0.000    0.000    0.000    0.000    0.000 
#
# Total GULP energy -268090.482533 kJ/mol
# GULP energy per Si atom -5585.218386 kJ/mol
# Density = 2.001001 g / cm^3
# Si number density = 20.055658 Si / 1000 Ang^3
#
#
#
# Elastic Constant Matrix: (Units=GPa)
#
#
# Indices 1 2 3 4 5 6 
#
# 1 49.6393 6.7588 27.7733 0.0000 0.0000 0.0000
# 2 6.7588 115.3672 50.2271 0.0000 0.0000 0.0000
# 3 27.7733 50.2271 81.6377 0.0000 0.0000 0.0000
# 4 0.0000 0.0000 0.0000 32.7709 0.0000 0.0000
# 5 0.0000 0.0000 0.0000 0.0000 20.5539 0.0000
# 6 0.0000 0.0000 0.0000 0.0000 0.0000 19.1674
#
#
#
# Elastic Compliance Matrix: (Units=1/GPa)
#
#
# Indices 1 2 3 4 5 6 
#
# 1 0.025689 0.003141 -0.010672 0.000000 0.000000 0.000000
# 2 0.003141 0.012223 -0.008589 0.000000 0.000000 0.000000
# 3 -0.010672 -0.008589 0.021164 0.000000 0.000000 0.000000
# 4 0.000000 0.000000 0.000000 0.030515 0.000000 0.000000
# 5 0.000000 0.000000 0.000000 0.000000 0.048653 0.000000
# 6 0.000000 0.000000 0.000000 0.000000 0.000000 0.052172
#
#
# Mechanical properties :
#
#
# Convention : Reuss Voigt Hill
#
# Bulk Modulus (GPa) = 37.26237 46.24029 41.75133
# Shear Modulus (GPa) = 21.58892 25.29077 23.43985
#
# Velocity S-wave (km/s) = 3.28449 3.55495 3.42239
# Velocity P-wave (km/s) = 5.74488 6.32110 6.03986
#
# Compressibility (1/GPa) = 0.02683673
#
# Stress axis : x y z
#
# Youngs Moduli (GPa) = 38.92784 81.81102 47.24975
#
# Poissons Ratio (x) = -0.25699 0.50425
# Poissons Ratio (y) = -0.12228 0.40583
# Poissons Ratio (z) = 0.41543 0.70267
#
# Static dielectric constant tensor:
#      x y z
#    x 1.728380 0.000000 0.000000 
#    y 0.000000 1.713980 0.000000 
#    z 0.000000 0.000000 1.670430 
# 
# From -- ./inp_files/3099.got.cif
#   From: 2010.05.17/outbox.cif.g08.bks.cpg/sg57_2_cif.got.tgz:3099.got - 2010.06.03 13:58:18.
