data_PCOD9435396
_publ_section_title
;
Structure prediction by ZEFSAII (Michael W. Deem and Ramdas Pophale) SiO2 
 PCOD9435396
Probable space group: P B C M
;
_chemical_formula_sum "Si O2"
_cell_formula_units_Z 64
_cell_length_a 20.132467
_cell_length_b 20.485644
_cell_length_c 8.918785
_cell_angle_alpha 90.000000
_cell_angle_beta 90.000000
_cell_angle_gamma 90.000000
_cell_volume 3678.343744
_symmetry_space_group_name_H-M "P B C M"
_symmetry_group_IT_number 57
_symmetry_cell_setting 'orthorhombic'
loop_
_space_group_symop_operation_xyz
x,y,z
-x,-y,1/2+z
x,1/2-y,-z
-x,1/2+y,1/2-z
-x,-y,-z
x,y,1/2-z
-x,1/2+y,z
x,1/2-y,1/2+z
loop_
_atom_site_type_symbol
_atom_site_label
_atom_site_fract_x
_atom_site_fract_y
_atom_site_fract_z
Si Si1 0.353119 0.915320 0.429547
Si Si2 0.110800 0.886881 0.570801
Si Si3 0.017810 0.070419 0.930087
Si Si4 0.613050 0.680983 0.430302
Si Si5 0.542162 0.180432 0.429144
Si Si6 0.160288 0.034651 0.928885
Si Si7 0.767089 0.182574 0.571543
Si Si8 0.302754 0.444039 0.568948
O O1 0.364076 0.914467 0.250000
O O2 0.412791 0.877640 0.508821
O O3 0.286139 0.874184 0.459847
O O4 0.340415 0.989604 0.478583
O O5 0.107038 0.880907 0.750000
O O6 0.162923 0.836823 0.501443
O O7 0.037534 0.882446 0.499415
O O8 0.139683 0.959627 0.535715
O O9 0.011340 0.067778 0.750000
O O10 0.095756 0.078838 0.966242
O O11 0.000000 0.000000 0.000000
O O12 0.633602 0.750000 0.500000
O O13 0.617030 0.685408 0.250000
O O14 0.535417 0.669986 0.468577
O O15 0.657944 0.620402 0.480398
O O16 0.562614 0.250000 0.500000
O O17 0.548130 0.184508 0.250000
O O18 0.170255 0.037781 0.750000
O O19 0.227703 0.053478 0.010210
O O20 0.743106 0.250000 0.500000
O O21 0.773676 0.189091 0.750000
O O22 0.301238 0.444758 0.750000
#
# Coordination Sequence:
#
# PCOD9435396 Si02
#       8
#     8   8   8   8   8   8   8   8
#     4  10  21  35  52  78 108 140 177 219 267 318
#     4  10  19  32  50  74 103 136 177 223 264 313
#     4   9  17  29  47  73 103 135 171 214 261 310
#     4   9  20  38  58  80 105 135 175 217 265 323
#     4  10  20  35  55  77 104 141 180 221 263 311
#     4   9  18  31  49  77 108 136 170 214 262 311
#     4  11  22  35  51  73 104 146 185 221 268 320
#     4  10  20  35  55  79 109 141 173 218 270 321
#
# _framework density 17.399135999999999
#
# number of rings (size 3 to 8) (size 9 to 14) (size 15 to 20)
#    0.000    2.250    1.250    2.625    0.000    6.500 
#    0.000    0.000    0.000    0.750    0.000    1.750 
#    0.000    0.000    0.000    0.000    0.000    0.000 
#
# Total GULP energy -357015.708974 kJ/mol
# GULP energy per Si atom -5578.370453 kJ/mol
# Density = 1.735953 g / cm^3
# Si number density = 17.399136 Si / 1000 Ang^3
#
#
#
# Elastic Constant Matrix: (Units=GPa)
#
#
# Indices 1 2 3 4 5 6 
#
# 1 109.5109 71.6383 42.3380 0.0000 0.0000 0.0000
# 2 71.6383 111.8903 40.4686 0.0000 0.0000 0.0000
# 3 42.3380 40.4686 34.9368 0.0000 0.0000 0.0000
# 4 0.0000 0.0000 0.0000 24.1201 0.0000 0.0000
# 5 0.0000 0.0000 0.0000 0.0000 30.7573 0.0000
# 6 0.0000 0.0000 0.0000 0.0000 0.0000 20.3986
#
#
#
# Elastic Compliance Matrix: (Units=1/GPa)
#
#
# Indices 1 2 3 4 5 6 
#
# 1 0.019861 -0.006903 -0.016072 0.000000 0.000000 0.000000
# 2 -0.006903 0.017781 -0.012230 0.000000 0.000000 0.000000
# 3 -0.016072 -0.012230 0.062267 0.000000 0.000000 0.000000
# 4 0.000000 0.000000 0.000000 0.041459 0.000000 0.000000
# 5 0.000000 0.000000 0.000000 0.000000 0.032513 0.000000
# 6 0.000000 0.000000 0.000000 0.000000 0.000000 0.049023
#
#
# Mechanical properties :
#
#
# Convention : Reuss Voigt Hill
#
# Bulk Modulus (GPa) = 33.90164 62.80311 48.35238
# Shear Modulus (GPa) = 16.49360 21.84809 19.17085
#
# Velocity S-wave (km/s) = 3.08223 3.54743 3.32298
# Velocity P-wave (km/s) = 5.67396 7.27687 6.52483
#
# Compressibility (1/GPa) = 0.02949710
#
# Stress axis : x y z
#
# Youngs Moduli (GPa) = 50.34995 56.24130 16.05976
#
# Poissons Ratio (x) = 0.38823 0.25812
# Poissons Ratio (y) = 0.34757 0.19642
# Poissons Ratio (z) = 0.80925 0.68786
#
# Static dielectric constant tensor:
#      x y z
#    x 1.600360 0.000000 0.000000 
#    y 0.000000 1.618820 0.000000 
#    z 0.000000 0.000000 1.581170 
# 
# From -- ./inp_files/7122.got.cif
#   From: 2010.05.17/outbox.cif.g08.bks.cpg/sg57_4_cif.got.tgz:7122.got - 2010.06.03 13:58:18.
