data_PCOD9435437
_publ_section_title
;
Structure prediction by ZEFSAII (Michael W. Deem and Ramdas Pophale) SiO2 
 PCOD9435437
Probable space group: P B C M
;
_chemical_formula_sum "Si O2"
_cell_formula_units_Z 64
_cell_length_a 19.424345
_cell_length_b 23.785203
_cell_length_c 8.872751
_cell_angle_alpha 90.000000
_cell_angle_beta 90.000000
_cell_angle_gamma 90.000000
_cell_volume 4099.317337
_symmetry_space_group_name_H-M "P B C M"
_symmetry_group_IT_number 57
_symmetry_cell_setting 'orthorhombic'
loop_
_space_group_symop_operation_xyz
x,y,z
-x,-y,1/2+z
x,1/2-y,-z
-x,1/2+y,1/2-z
-x,-y,-z
x,y,1/2-z
-x,1/2+y,z
x,1/2-y,1/2+z
loop_
_atom_site_type_symbol
_atom_site_label
_atom_site_fract_x
_atom_site_fract_y
_atom_site_fract_z
Si Si1 0.607554 0.023965 0.929556
Si Si2 0.104740 0.311592 0.069163
Si Si3 0.252770 0.134874 0.930994
Si Si4 0.248788 0.497471 0.430399
Si Si5 0.483678 0.414189 0.569424
Si Si6 0.611003 0.689080 0.430588
Si Si7 0.018977 0.088814 0.430056
Si Si8 0.895117 0.024224 0.929941
O O1 0.615751 0.026926 0.750000
O O2 0.570078 0.964480 0.966610
O O3 0.681072 0.024577 0.009235
O O4 0.554581 0.071020 0.987414
O O5 0.099814 0.309540 0.250000
O O6 0.180659 0.335596 0.029720
O O7 0.096266 0.250000 0.000000
O O8 0.049639 0.355464 0.004048
O O9 0.261737 0.138684 0.750000
O O10 0.250217 0.068957 0.971878
O O11 0.316489 0.164912 0.010531
O O12 0.245099 0.501189 0.250000
O O13 0.181056 0.524318 0.503027
O O14 0.494399 0.415367 0.750000
O O15 0.447987 0.355789 0.526978
O O16 0.598818 0.750000 0.500000
O O17 0.613356 0.692496 0.250000
O O18 0.015039 0.094568 0.250000
O O19 0.945737 0.069895 0.496655
O O20 0.070724 0.036764 0.464633
O O21 0.894067 0.030756 0.750000
#
# Coordination Sequence:
#
# PCOD9435437 Si02
#       8
#     8   8   8   8   8   8   8   8
#     4  10  19  32  51  74  99 129 167 208 254 304
#     4  11  22  36  51  72 101 137 179 216 254 299
#     4  10  21  34  49  71 101 138 177 212 247 293
#     4  11  20  32  51  76 105 136 169 207 253 305
#     4   9  19  34  49  70  98 131 167 209 254 298
#     4  11  22  35  51  71 100 135 175 213 251 298
#     4  10  20  34  52  74 100 133 170 212 258 301
#     4  10  20  33  52  75 102 133 168 210 255 305
#
# _framework density 15.612356999999999
#
# number of rings (size 3 to 8) (size 9 to 14) (size 15 to 20)
#    0.000    1.750    2.500    2.625    0.000    5.000 
#    0.000    0.000    0.000    0.000    0.000    0.875 
#    0.000    2.000    0.000    0.000    0.000    0.000 
#
# Total GULP energy -357408.519355 kJ/mol
# GULP energy per Si atom -5584.508115 kJ/mol
# Density = 1.557682 g / cm^3
# Si number density = 15.612357 Si / 1000 Ang^3
#
#
#
# Elastic Constant Matrix: (Units=GPa)
#
#
# Indices 1 2 3 4 5 6 
#
# 1 140.8595 75.1119 56.8751 0.0000 0.0000 0.0000
# 2 75.1119 107.2884 44.9365 0.0000 0.0000 0.0000
# 3 56.8751 44.9365 47.3295 0.0000 0.0000 0.0000
# 4 0.0000 0.0000 0.0000 22.8280 0.0000 0.0000
# 5 0.0000 0.0000 0.0000 0.0000 29.6842 0.0000
# 6 0.0000 0.0000 0.0000 0.0000 0.0000 18.1143
#
#
#
# Elastic Compliance Matrix: (Units=1/GPa)
#
#
# Indices 1 2 3 4 5 6 
#
# 1 0.015240 -0.004979 -0.013587 0.000000 0.000000 0.000000
# 2 -0.004979 0.017101 -0.010253 0.000000 0.000000 0.000000
# 3 -0.013587 -0.010253 0.047190 0.000000 0.000000 0.000000
# 4 0.000000 0.000000 0.000000 0.043806 0.000000 0.000000
# 5 0.000000 0.000000 0.000000 0.000000 0.033688 0.000000
# 6 0.000000 0.000000 0.000000 0.000000 0.000000 0.055205
#
#
# Mechanical properties :
#
#
# Convention : Reuss Voigt Hill
#
# Bulk Modulus (GPa) = 45.67537 72.14716 58.91127
# Shear Modulus (GPa) = 18.03981 22.02888 20.03434
#
# Velocity S-wave (km/s) = 3.40293 3.76039 3.58612
# Velocity P-wave (km/s) = 6.69024 8.07254 7.41368
#
# Compressibility (1/GPa) = 0.02189364
#
# Stress axis : x y z
#
# Youngs Moduli (GPa) = 65.61620 58.47698 21.19096
#
# Poissons Ratio (x) = 0.29115 0.28791
# Poissons Ratio (y) = 0.32670 0.21727
# Poissons Ratio (z) = 0.89150 0.59957
#
# Static dielectric constant tensor:
#      x y z
#    x 1.498960 0.000000 0.000000 
#    y 0.000000 1.499920 0.000000 
#    z 0.000000 0.000000 1.512980 
# 
# From -- ./inp_files/7170.got.cif
#   From: 2010.05.17/outbox.cif.g08.bks.cpg/sg57_4_cif.got.tgz:7170.got - 2010.06.03 13:58:18.
