data_PCOD9435307
_publ_section_title
;
Structure prediction by ZEFSAII (Michael W. Deem and Ramdas Pophale) SiO2 
 PCOD9435307
Probable space group: P B C M
;
_chemical_formula_sum "Si O2"
_cell_formula_units_Z 56
_cell_length_a 6.058877
_cell_length_b 16.144709
_cell_length_c 25.760004
_cell_angle_alpha 90.000000
_cell_angle_beta 90.000000
_cell_angle_gamma 90.000000
_cell_volume 2519.812835
_symmetry_space_group_name_H-M "P B C M"
_symmetry_group_IT_number 57
_symmetry_cell_setting 'orthorhombic'
loop_
_space_group_symop_operation_xyz
x,y,z
-x,-y,1/2+z
x,1/2-y,-z
-x,1/2+y,1/2-z
-x,-y,-z
x,y,1/2-z
-x,1/2+y,z
x,1/2-y,1/2+z
loop_
_atom_site_type_symbol
_atom_site_label
_atom_site_fract_x
_atom_site_fract_y
_atom_site_fract_z
Si Si1 0.096122 0.731147 0.804830
Si Si2 0.291978 0.119775 0.690155
Si Si3 0.812566 0.030935 0.960436
Si Si4 0.234951 0.384152 0.807397
Si Si5 0.432557 0.892053 0.952013
Si Si6 0.520726 0.268103 0.628008
Si Si7 0.892660 0.487764 0.874466
O O1 0.226928 0.736576 0.750000
O O2 0.232056 0.748240 0.855765
O O3 0.964873 0.645970 0.806104
O O4 0.912757 0.801661 0.801717
O O5 0.374645 0.119703 0.750000
O O6 0.398617 0.187369 0.651313
O O7 0.287768 0.032590 0.661427
O O8 0.958444 0.049583 0.909878
O O9 0.639246 0.955911 0.950043
O O10 0.670790 0.100761 0.990238
O O11 0.000000 0.000000 0.000000
O O12 0.290975 0.415746 0.750000
O O13 0.441784 0.348121 0.838505
O O14 0.075357 0.443591 0.839224
O O15 0.500864 0.802117 0.930218
O O16 0.240970 0.927233 0.913356
#
# Coordination Sequence:
#
# PCOD9435307 Si02
#       7
#     8   8   8   8   8   8   8
#     4   9  18  34  53  76 111 155 195 233 279 347
#     4  10  23  37  53  83 128 166 193 236 307 368
#     4   9  20  37  61  87 114 141 193 256 313 352
#     4  10  19  31  53  84 113 148 200 239 276 345
#     4  10  20  36  64  91 106 150 207 250 298 357
#     4  11  19  36  59  83 113 156 203 240 288 355
#     4  11  20  37  58  86 120 155 191 250 305 356
#
# _framework density 22.223870999999999
#
# number of rings (size 3 to 8) (size 9 to 14) (size 15 to 20)
#    0.000    2.000    2.857    2.571    0.000    1.143 
#    0.000    0.000    0.000   20.571    0.000    0.000 
#    0.000    0.000    0.000    0.000    0.000    0.000 
#
# Total GULP energy -311995.104596 kJ/mol
# GULP energy per Si atom -5571.341154 kJ/mol
# Density = 2.217329 g / cm^3
# Si number density = 22.223871 Si / 1000 Ang^3
#
#
#
# Elastic Constant Matrix: (Units=GPa)
#
#
# Indices 1 2 3 4 5 6 
#
# 1 42.1561 -11.0239 0.9182 0.0000 0.0000 0.0000
# 2 -11.0239 41.7528 10.2439 0.0000 0.0000 0.0000
# 3 0.9182 10.2439 46.8505 0.0000 0.0000 0.0000
# 4 0.0000 0.0000 0.0000 14.8295 0.0000 0.0000
# 5 0.0000 0.0000 0.0000 0.0000 29.5049 0.0000
# 6 0.0000 0.0000 0.0000 0.0000 0.0000 22.4812
#
#
#
# Elastic Compliance Matrix: (Units=1/GPa)
#
#
# Indices 1 2 3 4 5 6 
#
# 1 0.025674 0.007293 -0.002098 0.000000 0.000000 0.000000
# 2 0.007293 0.027380 -0.006130 0.000000 0.000000 0.000000
# 3 -0.002098 -0.006130 0.022726 0.000000 0.000000 0.000000
# 4 0.000000 0.000000 0.000000 0.067433 0.000000 0.000000
# 5 0.000000 0.000000 0.000000 0.000000 0.033893 0.000000
# 6 0.000000 0.000000 0.000000 0.000000 0.000000 0.044482
#
#
# Mechanical properties :
#
#
# Convention : Reuss Voigt Hill
#
# Bulk Modulus (GPa) = 13.52960 14.55954 14.04457
# Shear Modulus (GPa) = 20.15374 22.07122 21.11248
#
# Velocity S-wave (km/s) = 3.01466 3.15482 3.08554
# Velocity P-wave (km/s) = 4.26833 4.45377 4.36204
#
# Compressibility (1/GPa) = 0.07391202
#
# Stress axis : x y z
#
# Youngs Moduli (GPa) = 38.94948 36.52301 44.00276
#
# Poissons Ratio (x) = -0.26638 0.09231
# Poissons Ratio (y) = -0.28408 0.26972
# Poissons Ratio (z) = 0.08171 0.22387
#
# Static dielectric constant tensor:
#      x y z
#    x 1.825060 0.000000 0.000000 
#    y 0.000000 1.838660 0.000000 
#    z 0.000000 0.000000 1.928620 
# 
# From -- ./inp_files/29146.got.cif
#   From: 2010.05.17/outbox.cif.g08.bks.cpg/sg57_15_cif.got.tgz:29146.got - 2010.06.03 13:58:18.
