data_PCOD9435613
_publ_section_title
;
Structure prediction by ZEFSAII (Michael W. Deem and Ramdas Pophale) SiO2 
 PCOD9435613
Probable space group: P B C M
;
_chemical_formula_sum "Si O2"
_cell_formula_units_Z 64
_cell_length_a 15.378892
_cell_length_b 7.999871
_cell_length_c 25.988422
_cell_angle_alpha 90.000000
_cell_angle_beta 90.000000
_cell_angle_gamma 90.000000
_cell_volume 3197.333524
_symmetry_space_group_name_H-M "P B C M"
_symmetry_group_IT_number 57
_symmetry_cell_setting 'orthorhombic'
loop_
_space_group_symop_operation_xyz
x,y,z
-x,-y,1/2+z
x,1/2-y,-z
-x,1/2+y,1/2-z
-x,-y,-z
x,y,1/2-z
-x,1/2+y,z
x,1/2-y,1/2+z
loop_
_atom_site_type_symbol
_atom_site_label
_atom_site_fract_x
_atom_site_fract_y
_atom_site_fract_z
Si Si1 0.514888 0.495837 0.689374
Si Si2 0.217067 0.763247 0.811712
Si Si3 0.422895 0.847411 0.911878
Si Si4 0.339698 0.535702 0.873250
Si Si5 0.040972 0.873850 0.311870
Si Si6 0.130574 0.288020 0.687190
Si Si7 0.388734 0.269012 0.442398
Si Si8 0.302154 0.113505 0.811374
O O1 0.514636 0.451631 0.750000
O O2 0.550033 0.362804 0.648249
O O3 0.418818 0.528413 0.668360
O O4 0.593731 0.632048 0.682028
O O5 0.229044 0.741309 0.750000
O O6 0.259153 0.607804 0.841343
O O7 0.113591 0.768823 0.821178
O O8 0.267550 0.930686 0.828089
O O9 0.362080 0.685182 0.913865
O O10 0.511711 0.798729 0.940753
O O11 0.390236 0.032949 0.927701
O O12 0.340850 0.361411 0.904316
O O13 0.034096 0.887263 0.250000
O O14 0.087696 0.040155 0.330674
O O15 0.943439 0.843118 0.329643
O O16 0.132301 0.294065 0.750000
O O17 0.227436 0.240066 0.670799
O O18 0.354577 0.250000 0.500000
O O19 0.293530 0.112158 0.750000
#
# Coordination Sequence:
#
# PCOD9435613 Si02
#       8
#     8   8   8   8   8   8   8   8
#     4  10  20  33  49  72 107 148 185 218 252 306
#     4  10  19  33  49  70 102 143 179 215 261 308
#     4  11  21  36  54  79  99 133 184 217 268 320
#     4  11  23  37  54  76 108 142 183 223 262 319
#     4   9  17  28  44  64  91 128 176 223 263 300
#     4   9  16  28  43  64  88 123 177 229 261 297
#     4  11  23  39  58  77  98 130 178 232 283 326
#     4   9  17  29  47  66  93 135 179 216 257 299
#
# _framework density 20.016679
#
# number of rings (size 3 to 8) (size 9 to 14) (size 15 to 20)
#    0.000    2.000    3.750    1.500    0.000    4.500 
#    0.000    1.875    0.000    0.000    0.000    0.000 
#    0.000    0.000    0.000   14.625    1.500    2.375 
#
# Total GULP energy -356534.567735 kJ/mol
# GULP energy per Si atom -5570.852621 kJ/mol
# Density = 1.997112 g / cm^3
# Si number density = 20.016679 Si / 1000 Ang^3
#
#
#
# Elastic Constant Matrix: (Units=GPa)
#
#
# Indices 1 2 3 4 5 6 
#
# 1 65.2704 21.8748 27.7466 0.0000 0.0000 0.0000
# 2 21.8748 110.4678 32.0234 0.0000 0.0000 0.0000
# 3 27.7466 32.0234 73.7158 0.0000 0.0000 0.0000
# 4 0.0000 0.0000 0.0000 17.0937 0.0000 0.0000
# 5 0.0000 0.0000 0.0000 0.0000 10.1095 0.0000
# 6 0.0000 0.0000 0.0000 0.0000 0.0000 26.2001
#
#
#
# Elastic Compliance Matrix: (Units=1/GPa)
#
#
# Indices 1 2 3 4 5 6 
#
# 1 0.018578 -0.001890 -0.006172 0.000000 0.000000 0.000000
# 2 -0.001890 0.010549 -0.003871 0.000000 0.000000 0.000000
# 3 -0.006172 -0.003871 0.017570 0.000000 0.000000 0.000000
# 4 0.000000 0.000000 0.000000 0.058501 0.000000 0.000000
# 5 0.000000 0.000000 0.000000 0.000000 0.098917 0.000000
# 6 0.000000 0.000000 0.000000 0.000000 0.000000 0.038168
#
#
# Mechanical properties :
#
#
# Convention : Reuss Voigt Hill
#
# Bulk Modulus (GPa) = 43.79900 45.86041 44.82971
# Shear Modulus (GPa) = 18.26425 21.86794 20.06609
#
# Velocity S-wave (km/s) = 3.02396 3.30886 3.16961
# Velocity P-wave (km/s) = 5.84133 6.12853 5.98666
#
# Compressibility (1/GPa) = 0.02283157
#
# Stress axis : x y z
#
# Youngs Moduli (GPa) = 53.82767 94.79696 56.91380
#
# Poissons Ratio (x) = 0.17913 0.35126
# Poissons Ratio (y) = 0.10172 0.22033
# Poissons Ratio (z) = 0.33221 0.36699
#
# Static dielectric constant tensor:
#      x y z
#    x 1.739080 0.000000 0.000000 
#    y 0.000000 1.849530 0.000000 
#    z 0.000000 0.000000 1.697370 
# 
# From -- ./inp_files/29904.got.cif
#   From: 2010.05.17/outbox.cif.g08.bks.cpg/sg57_15_cif.got.tgz:29904.got - 2010.06.03 13:58:18.
