data_PCOD9435844
_publ_section_title
;
Structure prediction by ZEFSAII (Michael W. Deem and Ramdas Pophale) SiO2 
 PCOD9435844
Probable space group: P B C M
;
_chemical_formula_sum "Si O2"
_cell_formula_units_Z 48
_cell_length_a 16.126203
_cell_length_b 18.443028
_cell_length_c 8.571490
_cell_angle_alpha 90.000000
_cell_angle_beta 90.000000
_cell_angle_gamma 90.000000
_cell_volume 2549.298385
_symmetry_space_group_name_H-M "P B C M"
_symmetry_group_IT_number 57
_symmetry_cell_setting 'orthorhombic'
loop_
_space_group_symop_operation_xyz
x,y,z
-x,-y,1/2+z
x,1/2-y,-z
-x,1/2+y,1/2-z
-x,-y,-z
x,y,1/2-z
-x,1/2+y,z
x,1/2-y,1/2+z
loop_
_atom_site_type_symbol
_atom_site_label
_atom_site_fract_x
_atom_site_fract_y
_atom_site_fract_z
Si Si1 0.662326 0.669500 0.435465
Si Si2 0.003981 0.917974 0.062310
Si Si3 0.492820 0.081164 0.562772
Si Si4 0.657084 0.168512 0.938423
Si Si5 0.177162 0.408752 0.437494
Si Si6 0.814817 0.426600 0.439247
O O1 0.649878 0.750000 0.500000
O O2 0.657654 0.670117 0.250000
O O3 0.590567 0.618097 0.501806
O O4 0.751085 0.639111 0.488727
O O5 0.002571 0.919268 0.250000
O O6 0.916041 0.884210 0.012960
O O7 0.095780 0.891719 0.016007
O O8 0.000000 0.000000 0.000000
O O9 0.491644 0.079752 0.750000
O O10 0.572845 0.127993 0.512023
O O11 0.500000 0.000000 0.500000
O O12 0.657703 0.170465 0.750000
O O13 0.737169 0.121920 0.988848
O O14 0.659844 0.250000 0.000000
O O15 0.182978 0.405445 0.250000
O O16 0.188843 0.492418 0.490877
O O17 0.812491 0.433353 0.250000
#
# Coordination Sequence:
#
# PCOD9435844 Si02
#       6
#     8   8   8   8   8   8
#     4  12  25  41  59  81 111 149 188 233 286 339
#     4   8  15  28  50  78 110 143 180 226 274 322
#     4  11  23  40  62  89 115 144 182 225 273 330
#     4  10  22  37  55  79 110 145 180 217 266 321
#     4  10  19  33  55  84 112 144 186 231 278 333
#     4   9  17  33  55  81 112 147 185 228 274 325
#
# _framework density 18.828710999999998
#
# number of rings (size 3 to 8) (size 9 to 14) (size 15 to 20)
#    0.000    2.000    0.000    4.000    0.000    5.333 
#    0.000    0.833    0.000    2.000    0.000    0.000 
#    0.000    0.000    0.000    0.000    0.000    0.000 
#
# Total GULP energy -267895.308635 kJ/mol
# GULP energy per Si atom -5581.152263 kJ/mol
# Density = 1.878586 g / cm^3
# Si number density = 18.828711 Si / 1000 Ang^3
#
#
#
# Elastic Constant Matrix: (Units=GPa)
#
#
# Indices 1 2 3 4 5 6 
#
# 1 108.2725 18.4067 31.5224 0.0000 0.0000 0.0000
# 2 18.4067 69.7871 22.6392 0.0000 0.0000 0.0000
# 3 31.5224 22.6392 49.8866 0.0000 0.0000 0.0000
# 4 0.0000 0.0000 0.0000 32.9276 0.0000 0.0000
# 5 0.0000 0.0000 0.0000 0.0000 9.7965 0.0000
# 6 0.0000 0.0000 0.0000 0.0000 0.0000 -9.0562
#
#
#
# Elastic Compliance Matrix: (Units=1/GPa)
#
#
# Indices 1 2 3 4 5 6 
#
# 1 0.011354 -0.000783 -0.006820 0.000000 0.000000 0.000000
# 2 -0.000783 0.016857 -0.007155 0.000000 0.000000 0.000000
# 3 -0.006820 -0.007155 0.027602 0.000000 0.000000 0.000000
# 4 0.000000 0.000000 0.000000 0.030370 0.000000 0.000000
# 5 0.000000 0.000000 0.000000 0.000000 0.102077 0.000000
# 6 0.000000 0.000000 0.000000 0.000000 0.000000 -0.110422
#
#
# Mechanical properties :
#
#
# Convention : Reuss Voigt Hill
#
# Bulk Modulus (GPa) = 38.02536 41.45363 39.73950
# Shear Modulus (GPa) = 43.05911 17.09211 30.07561
#
# Velocity S-wave (km/s) = 4.78733 3.01619 4.00099
# Velocity P-wave (km/s) = 7.12722 5.84755 6.51886
#
# Compressibility (1/GPa) = 0.02629824
#
# Stress axis : x y z
#
# Youngs Moduli (GPa) = 88.07147 59.32270 36.22946
#
# Poissons Ratio (x) = 0.04642 0.24707
# Poissons Ratio (y) = 0.06892 0.25924
# Poissons Ratio (z) = 0.60061 0.42448
#
# Static dielectric constant tensor:
#      x y z
#    x 1.690160 0.000000 0.000000 
#    y 0.000000 1.588460 0.000000 
#    z 0.000000 0.000000 1.631070 
# 
# From -- ./inp_files/4540.got.cif
#   From: 2010.05.17/outbox.cif.g08.bks.cpg/sg57_3_cif.got.tgz:4540.got - 2010.06.03 13:58:18.
