data_PCOD9435217
_publ_section_title
;
Structure prediction by ZEFSAII (Michael W. Deem and Ramdas Pophale) SiO2 
 PCOD9435217
Probable space group: P B C M
;
_chemical_formula_sum "Si O2"
_cell_formula_units_Z 64
_cell_length_a 19.477596
_cell_length_b 22.124202
_cell_length_c 8.712965
_cell_angle_alpha 90.000000
_cell_angle_beta 90.000000
_cell_angle_gamma 90.000000
_cell_volume 3754.645494
_symmetry_space_group_name_H-M "P B C M"
_symmetry_group_IT_number 57
_symmetry_cell_setting 'orthorhombic'
loop_
_space_group_symop_operation_xyz
x,y,z
-x,-y,1/2+z
x,1/2-y,-z
-x,1/2+y,1/2-z
-x,-y,-z
x,y,1/2-z
-x,1/2+y,z
x,1/2-y,1/2+z
loop_
_atom_site_type_symbol
_atom_site_label
_atom_site_fract_x
_atom_site_fract_y
_atom_site_fract_z
Si Si1 0.038708 0.560039 0.566751
Si Si2 0.458291 0.557709 0.065388
Si Si3 0.593065 0.614590 0.433427
Si Si4 0.026472 0.183659 0.432045
Si Si5 0.156378 0.126732 0.567989
Si Si6 0.293543 0.187852 0.568925
Si Si7 0.673023 0.491358 0.065582
Si Si8 0.173713 0.987431 0.567067
O O1 0.030121 0.559063 0.750000
O O2 0.010912 0.624268 0.503038
O O3 0.118426 0.553978 0.518284
O O4 0.000000 0.500000 0.500000
O O5 0.452813 0.552946 0.250000
O O6 0.512932 0.609976 0.025442
O O7 0.500000 0.500000 0.000000
O O8 0.383199 0.557435 0.991690
O O9 0.596784 0.615435 0.250000
O O10 0.633621 0.670265 0.500870
O O11 0.636588 0.554859 0.483084
O O12 0.008450 0.250000 0.500000
O O13 0.015990 0.184639 0.250000
O O14 0.105684 0.168745 0.473085
O O15 0.145946 0.138761 0.750000
O O16 0.235278 0.139516 0.529090
O O17 0.146455 0.055856 0.541048
O O18 0.268497 0.250000 0.500000
O O19 0.298635 0.191605 0.750000
O O20 0.677731 0.490750 0.250000
O O21 0.748314 0.483615 0.994097
O O22 0.173160 0.976584 0.750000
#
# Coordination Sequence:
#
# PCOD9435217 Si02
#       8
#     8   8   8   8   8   8   8   8
#     4  12  24  40  60  85 115 149 190 235 286 344
#     4   9  17  29  46  70  98 130 167 209 257 309
#     4   9  18  31  47  68  97 133 173 216 261 311
#     4  12  25  41  62  85 112 149 190 238 287 339
#     4  10  21  36  54  78 108 145 188 230 275 331
#     4  11  22  34  48  69  99 139 182 225 268 317
#     4  10  19  31  49  75 105 137 173 214 264 321
#     4  11  21  35  56  82 113 147 185 228 279 334
#
# _framework density 17.045549000000001
#
# number of rings (size 3 to 8) (size 9 to 14) (size 15 to 20)
#    0.000    1.500    2.500    4.875    0.000    5.000 
#    0.000    0.000    0.000    0.000    0.000    0.875 
#    0.000    4.000    0.000    0.000    0.000    0.000 
#
# Total GULP energy -356903.748582 kJ/mol
# GULP energy per Si atom -5576.621072 kJ/mol
# Density = 1.700675 g / cm^3
# Si number density = 17.045549 Si / 1000 Ang^3
#
#
#
# Elastic Constant Matrix: (Units=GPa)
#
#
# Indices 1 2 3 4 5 6 
#
# 1 101.4570 37.9722 42.2703 0.0000 0.0000 0.0000
# 2 37.9722 72.7200 43.1871 0.0000 0.0000 0.0000
# 3 42.2703 43.1871 71.5896 0.0000 0.0000 0.0000
# 4 0.0000 0.0000 0.0000 23.4965 0.0000 0.0000
# 5 0.0000 0.0000 0.0000 0.0000 30.1956 0.0000
# 6 0.0000 0.0000 0.0000 0.0000 0.0000 24.3277
#
#
#
# Elastic Compliance Matrix: (Units=1/GPa)
#
#
# Indices 1 2 3 4 5 6 
#
# 1 0.013668 -0.003653 -0.005867 0.000000 0.000000 0.000000
# 2 -0.003653 0.022405 -0.011359 0.000000 0.000000 0.000000
# 3 -0.005867 -0.011359 0.024285 0.000000 0.000000 0.000000
# 4 0.000000 0.000000 0.000000 0.042560 0.000000 0.000000
# 5 0.000000 0.000000 0.000000 0.000000 0.033117 0.000000
# 6 0.000000 0.000000 0.000000 0.000000 0.000000 0.041105
#
#
# Mechanical properties :
#
#
# Convention : Reuss Voigt Hill
#
# Bulk Modulus (GPa) = 53.76201 54.73619 54.24910
# Shear Modulus (GPa) = 22.21268 23.75975 22.98621
#
# Velocity S-wave (km/s) = 3.61381 3.73754 3.67620
# Velocity P-wave (km/s) = 7.00154 7.12791 7.06501
#
# Compressibility (1/GPa) = 0.01860050
#
# Stress axis : x y z
#
# Youngs Moduli (GPa) = 73.16505 44.63351 41.17791
#
# Poissons Ratio (x) = 0.16304 0.24157
# Poissons Ratio (y) = 0.26726 0.46774
# Poissons Ratio (z) = 0.42923 0.50699
#
# Static dielectric constant tensor:
#      x y z
#    x 1.601120 0.000000 0.000000 
#    y 0.000000 1.587840 0.000000 
#    z 0.000000 0.000000 1.572700 
# 
# From -- ./inp_files/7174.got.cif
#   From: 2010.05.17/outbox.cif.g08.bks.cpg/sg57_4_cif.got.tgz:7174.got - 2010.06.03 13:58:18.
