data_PCOD9435102
_publ_section_title
;
Structure prediction by ZEFSAII (Michael W. Deem and Ramdas Pophale) SiO2 
 PCOD9435102
Probable space group: P B C M
;
_chemical_formula_sum "Si O2"
_cell_formula_units_Z 56
_cell_length_a 14.140703
_cell_length_b 14.367350
_cell_length_c 14.401036
_cell_angle_alpha 90.000000
_cell_angle_beta 90.000000
_cell_angle_gamma 90.000000
_cell_volume 2925.778260
_symmetry_space_group_name_H-M "P B C M"
_symmetry_group_IT_number 57
_symmetry_cell_setting 'orthorhombic'
loop_
_space_group_symop_operation_xyz
x,y,z
-x,-y,1/2+z
x,1/2-y,-z
-x,1/2+y,1/2-z
-x,-y,-z
x,y,1/2-z
-x,1/2+y,z
x,1/2-y,1/2+z
loop_
_atom_site_type_symbol
_atom_site_label
_atom_site_fract_x
_atom_site_fract_y
_atom_site_fract_z
Si Si1 0.813955 0.793591 0.360581
Si Si2 0.020691 0.771657 0.140623
Si Si3 0.400729 0.250439 0.140293
Si Si4 0.568984 0.911958 0.506654
Si Si5 0.043420 0.511433 0.898662
Si Si6 0.782326 0.966761 0.496461
Si Si7 0.132810 0.895016 0.854196
O O1 0.819782 0.820077 0.250000
O O2 0.714113 0.741758 0.372425
O O3 0.913129 0.745310 0.385628
O O4 0.810413 0.880727 0.429687
O O5 0.026459 0.754444 0.250000
O O6 0.098926 0.702557 0.102235
O O7 0.038971 0.880245 0.126028
O O8 0.419548 0.256450 0.250000
O O9 0.428760 0.344677 0.084757
O O10 0.447526 0.161574 0.090423
O O11 0.500000 0.000000 0.500000
O O12 0.673714 0.953352 0.519878
O O13 0.966047 0.452261 0.844011
O O14 0.150262 0.476362 0.913410
O O15 0.000000 0.500000 0.000000
O O16 0.801364 0.053768 0.428152
O O17 0.174552 0.888351 0.750000
#
# Coordination Sequence:
#
# PCOD9435102 Si02
#       7
#     8   8   8   8   8   8   8
#     4   9  16  31  54  78 107 142 185 241 288 333
#     4  10  19  31  48  73 109 148 186 229 275 327
#     4   9  20  39  64  93 120 150 194 250 312 365
#     4  10  22  41  63  91 123 153 198 257 307 359
#     4  10  19  31  46  74 108 141 178 222 270 336
#     4  10  20  34  51  78 107 147 190 233 289 344
#     4  10  20  33  51  75 107 149 190 227 277 344
#
# _framework density 19.140205999999999
#
# number of rings (size 3 to 8) (size 9 to 14) (size 15 to 20)
#    0.000    2.286    2.857    0.857    2.000    3.429 
#    0.000    3.571    0.000    1.714    0.000    0.000 
#    0.000    0.000    0.000    0.000    0.000    0.000 
#
# Total GULP energy -312085.248740 kJ/mol
# GULP energy per Si atom -5572.950870 kJ/mol
# Density = 1.909664 g / cm^3
# Si number density = 19.140206 Si / 1000 Ang^3
#
#
#
# Elastic Constant Matrix: (Units=GPa)
#
#
# Indices 1 2 3 4 5 6 
#
# 1 66.4116 35.2952 14.5181 0.0000 0.0000 0.0000
# 2 35.2952 108.6853 20.9617 0.0000 0.0000 0.0000
# 3 14.5181 20.9617 83.2350 0.0000 0.0000 0.0000
# 4 0.0000 0.0000 0.0000 26.9255 0.0000 0.0000
# 5 0.0000 0.0000 0.0000 0.0000 16.8876 0.0000
# 6 0.0000 0.0000 0.0000 0.0000 0.0000 35.0437
#
#
#
# Elastic Compliance Matrix: (Units=1/GPa)
#
#
# Indices 1 2 3 4 5 6 
#
# 1 0.018451 -0.005645 -0.001797 0.000000 0.000000 0.000000
# 2 -0.005645 0.011398 -0.001886 0.000000 0.000000 0.000000
# 3 -0.001797 -0.001886 0.012802 0.000000 0.000000 0.000000
# 4 0.000000 0.000000 0.000000 0.037139 0.000000 0.000000
# 5 0.000000 0.000000 0.000000 0.000000 0.059215 0.000000
# 6 0.000000 0.000000 0.000000 0.000000 0.000000 0.028536
#
#
# Mechanical properties :
#
#
# Convention : Reuss Voigt Hill
#
# Bulk Modulus (GPa) = 41.67394 44.43131 43.05263
# Shear Modulus (GPa) = 25.74733 28.27515 27.01124
#
# Velocity S-wave (km/s) = 3.67167 3.84769 3.76071
# Velocity P-wave (km/s) = 6.30834 6.55771 6.43423
#
# Compressibility (1/GPa) = 0.02399581
#
# Stress axis : x y z
#
# Youngs Moduli (GPa) = 54.19877 87.73573 78.11020
#
# Poissons Ratio (x) = 0.49529 0.14033
# Poissons Ratio (y) = 0.30597 0.14730
# Poissons Ratio (z) = 0.09737 0.16545
#
# Static dielectric constant tensor:
#      x y z
#    x 1.686350 0.000000 0.000000 
#    y 0.000000 1.559330 0.000000 
#    z 0.000000 0.000000 1.716780 
# 
# From -- ./inp_files/18628.got.cif
#   From: 2010.05.17/outbox.cif.g08.bks.cpg/sg57_10_cif.got.tgz:18628.got - 2010.06.03 13:58:18.
