data_PCOD9435174
_publ_section_title
;
Structure prediction by ZEFSAII (Michael W. Deem and Ramdas Pophale) SiO2 
 PCOD9435174
Probable space group: P B C M
;
_chemical_formula_sum "Si O2"
_cell_formula_units_Z 64
_cell_length_a 15.199532
_cell_length_b 30.142326
_cell_length_c 9.041181
_cell_angle_alpha 90.000000
_cell_angle_beta 90.000000
_cell_angle_gamma 90.000000
_cell_volume 4142.210282
_symmetry_space_group_name_H-M "P B C M"
_symmetry_group_IT_number 57
_symmetry_cell_setting 'orthorhombic'
loop_
_space_group_symop_operation_xyz
x,y,z
-x,-y,1/2+z
x,1/2-y,-z
-x,1/2+y,1/2-z
-x,-y,-z
x,y,1/2-z
-x,1/2+y,z
x,1/2-y,1/2+z
loop_
_atom_site_type_symbol
_atom_site_label
_atom_site_fract_x
_atom_site_fract_y
_atom_site_fract_z
Si Si1 0.323628 0.037399 0.928036
Si Si2 0.797152 0.117438 0.926930
Si Si3 0.120780 0.466143 0.074399
Si Si4 0.283758 0.703578 0.425778
Si Si5 0.538416 0.887585 0.071925
Si Si6 0.632718 0.445370 0.072640
Si Si7 0.506245 0.203350 0.425568
Si Si8 0.950261 0.433833 0.575512
O O1 0.325820 0.032619 0.750000
O O2 0.221424 0.040650 0.973086
O O3 0.379706 0.080841 0.966561
O O4 0.365574 0.993253 0.997368
O O5 0.799362 0.121538 0.750000
O O6 0.722148 0.080959 0.964873
O O7 0.766992 0.163094 0.000303
O O8 0.889592 0.100722 0.989610
O O9 0.113850 0.457014 0.250000
O O10 0.094143 0.517643 0.052480
O O11 0.048649 0.437774 0.987282
O O12 0.258090 0.750000 0.500000
O O13 0.269662 0.704712 0.250000
O O14 0.388618 0.697796 0.452161
O O15 0.536167 0.881600 0.250000
O O16 0.450291 0.914956 0.029568
O O17 0.538710 0.839853 0.995362
O O18 0.629239 0.451035 0.250000
O O19 0.480056 0.250000 0.500000
O O20 0.492080 0.205452 0.250000
O O21 0.950445 0.424772 0.750000
#
# Coordination Sequence:
#
# PCOD9435174 Si02
#       8
#     8   8   8   8   8   8   8   8
#     4  10  20  33  50  69  97 134 170 209 248 289
#     4  11  20  31  49  72 100 133 165 201 244 291
#     4   9  18  32  47  68  95 125 163 205 248 292
#     4  10  20  33  50  72  98 129 164 203 246 293
#     4  10  20  34  49  70  99 133 169 204 245 293
#     4  10  20  31  45  68 100 135 170 203 237 285
#     4  10  20  33  51  72  96 127 163 206 249 290
#     4  10  19  31  49  70  94 126 163 204 245 292
#
# _framework density 15.450689000000001
#
# number of rings (size 3 to 8) (size 9 to 14) (size 15 to 20)
#    0.000    2.000    2.500    1.875    0.000    3.500 
#    0.000    0.000    0.000    0.000    0.000    0.875 
#    0.000    2.000    0.000    0.000    0.000    0.000 
#
# Total GULP energy -357172.875011 kJ/mol
# GULP energy per Si atom -5580.826172 kJ/mol
# Density = 1.541552 g / cm^3
# Si number density = 15.450689 Si / 1000 Ang^3
#
#
#
# Elastic Constant Matrix: (Units=GPa)
#
#
# Indices 1 2 3 4 5 6 
#
# 1 73.8670 51.4048 29.1844 0.0000 0.0000 0.0000
# 2 51.4048 131.9494 56.9617 0.0000 0.0000 0.0000
# 3 29.1844 56.9617 40.3890 0.0000 0.0000 0.0000
# 4 0.0000 0.0000 0.0000 31.1488 0.0000 0.0000
# 5 0.0000 0.0000 0.0000 0.0000 18.6666 0.0000
# 6 0.0000 0.0000 0.0000 0.0000 0.0000 20.5180
#
#
#
# Elastic Compliance Matrix: (Units=1/GPa)
#
#
# Indices 1 2 3 4 5 6 
#
# 1 0.019706 -0.003912 -0.008723 0.000000 0.000000 0.000000
# 2 -0.003912 0.020151 -0.025593 0.000000 0.000000 0.000000
# 3 -0.008723 -0.025593 0.067156 0.000000 0.000000 0.000000
# 4 0.000000 0.000000 0.000000 0.032104 0.000000 0.000000
# 5 0.000000 0.000000 0.000000 0.000000 0.053572 0.000000
# 6 0.000000 0.000000 0.000000 0.000000 0.000000 0.048738
#
#
# Mechanical properties :
#
#
# Convention : Reuss Voigt Hill
#
# Bulk Modulus (GPa) = 32.72347 57.92302 45.32325
# Shear Modulus (GPa) = 15.24079 21.31033 18.27556
#
# Velocity S-wave (km/s) = 3.14413 3.71785 3.44296
# Velocity P-wave (km/s) = 5.86567 7.48333 6.72333
#
# Compressibility (1/GPa) = 0.03055910
#
# Stress axis : x y z
#
# Youngs Moduli (GPa) = 50.74519 49.62600 14.89064
#
# Poissons Ratio (x) = 0.19412 0.12989
# Poissons Ratio (y) = 0.19849 0.38109
# Poissons Ratio (z) = 0.44264 1.27006
#
# Static dielectric constant tensor:
#      x y z
#    x 1.505120 0.000000 0.000000 
#    y 0.000000 1.488700 0.000000 
#    z 0.000000 0.000000 1.509540 
# 
# From -- ./inp_files/5961.got.cif
#   From: 2010.05.17/outbox.cif.g08.bks.cpg/sg57_3_cif.got.tgz:5961.got - 2010.06.03 13:58:18.
