data_PCOD9435648
_publ_section_title
;
Structure prediction by ZEFSAII (Michael W. Deem and Ramdas Pophale) SiO2 
 PCOD9435648
Probable space group: P B C M
;
_chemical_formula_sum "Si O2"
_cell_formula_units_Z 64
_cell_length_a 19.472094
_cell_length_b 23.660200
_cell_length_c 8.814915
_cell_angle_alpha 90.000000
_cell_angle_beta 90.000000
_cell_angle_gamma 90.000000
_cell_volume 4061.151562
_symmetry_space_group_name_H-M "P B C M"
_symmetry_group_IT_number 57
_symmetry_cell_setting 'orthorhombic'
loop_
_space_group_symop_operation_xyz
x,y,z
-x,-y,1/2+z
x,1/2-y,-z
-x,1/2+y,1/2-z
-x,-y,-z
x,y,1/2-z
-x,1/2+y,z
x,1/2-y,1/2+z
loop_
_atom_site_type_symbol
_atom_site_label
_atom_site_fract_x
_atom_site_fract_y
_atom_site_fract_z
Si Si1 0.101767 0.475106 0.431791
Si Si2 0.609799 0.311640 0.931376
Si Si3 0.521611 0.089524 0.569436
Si Si4 0.395394 0.473487 0.930634
Si Si5 0.254643 0.631612 0.567717
Si Si6 0.745592 0.005512 0.067791
Si Si7 0.979865 0.089540 0.430890
Si Si8 0.892162 0.312055 0.068975
O O1 0.094924 0.468961 0.250000
O O2 0.181919 0.476296 0.470991
O O3 0.055006 0.428448 0.511971
O O4 0.069455 0.536374 0.472641
O O5 0.612119 0.309309 0.750000
O O6 0.596643 0.250000 0.000000
O O7 0.553080 0.356441 0.986934
O O8 0.682363 0.334396 0.995363
O O9 0.518768 0.098617 0.750000
O O10 0.448029 0.070443 0.505570
O O11 0.572098 0.035914 0.541515
O O12 0.392506 0.465269 0.750000
O O13 0.320318 0.473289 0.003160
O O14 0.262982 0.629757 0.750000
O O15 0.254241 0.568250 0.502913
O O16 0.182589 0.661738 0.530683
O O17 0.741152 0.010197 0.250000
O O18 0.979061 0.095078 0.250000
O O19 0.949234 0.145312 0.505632
O O20 0.897014 0.309175 0.250000
O O21 0.898458 0.250000 0.000000
#
# Coordination Sequence:
#
# PCOD9435648 Si02
#       8
#     8   8   8   8   8   8   8   8
#     4   9  19  33  50  74 103 135 170 210 258 309
#     4  12  24  37  54  74 103 140 179 218 258 303
#     4  10  20  35  53  75 103 135 174 215 259 306
#     4  10  20  33  52  76 105 136 171 213 260 310
#     4  11  22  35  50  73 104 140 179 216 253 301
#     4  11  20  32  52  77 106 140 173 211 258 309
#     4  10  19  33  52  74 100 133 172 215 259 304
#     4  11  23  36  52  72 101 138 178 218 257 304
#
# _framework density 15.759077
#
# number of rings (size 3 to 8) (size 9 to 14) (size 15 to 20)
#    0.000    1.500    2.500    3.750    0.000    5.000 
#    0.000    0.000    0.000    0.000    0.000    0.875 
#    0.000    6.000    0.000    0.000    0.000    0.000 
#
# Total GULP energy -357545.339362 kJ/mol
# GULP energy per Si atom -5586.645928 kJ/mol
# Density = 1.572321 g / cm^3
# Si number density = 15.759077 Si / 1000 Ang^3
#
#
#
# Elastic Constant Matrix: (Units=GPa)
#
#
# Indices 1 2 3 4 5 6 
#
# 1 138.3457 69.5634 61.7404 0.0000 0.0000 0.0000
# 2 69.5634 98.1505 50.3850 0.0000 0.0000 0.0000
# 3 61.7404 50.3850 72.0653 0.0000 0.0000 0.0000
# 4 0.0000 0.0000 0.0000 27.5755 0.0000 0.0000
# 5 0.0000 0.0000 0.0000 0.0000 25.5073 0.0000
# 6 0.0000 0.0000 0.0000 0.0000 0.0000 14.9929
#
#
#
# Elastic Compliance Matrix: (Units=1/GPa)
#
#
# Indices 1 2 3 4 5 6 
#
# 1 0.013445 -0.005640 -0.007575 0.000000 0.000000 0.000000
# 2 -0.005640 0.018259 -0.007933 0.000000 0.000000 0.000000
# 3 -0.007575 -0.007933 0.025913 0.000000 0.000000 0.000000
# 4 0.000000 0.000000 0.000000 0.036264 0.000000 0.000000
# 5 0.000000 0.000000 0.000000 0.000000 0.039204 0.000000
# 6 0.000000 0.000000 0.000000 0.000000 0.000000 0.066698
#
#
# Mechanical properties :
#
#
# Convention : Reuss Voigt Hill
#
# Bulk Modulus (GPa) = 65.28024 74.65989 69.97007
# Shear Modulus (GPa) = 20.22758 22.07332 21.15045
#
# Velocity S-wave (km/s) = 3.58656 3.74662 3.66746
# Velocity P-wave (km/s) = 7.65931 8.13602 7.90126
#
# Compressibility (1/GPa) = 0.01531857
#
# Stress axis : x y z
#
# Youngs Moduli (GPa) = 74.37714 54.76895 38.59082
#
# Poissons Ratio (x) = 0.30891 0.29233
# Poissons Ratio (y) = 0.41951 0.30616
# Poissons Ratio (z) = 0.56342 0.43450
#
# Static dielectric constant tensor:
#      x y z
#    x 1.520380 0.000000 0.000000 
#    y 0.000000 1.494540 0.000000 
#    z 0.000000 0.000000 1.522700 
# 
# From -- ./inp_files/7196.got.cif
#   From: 2010.05.17/outbox.cif.g08.bks.cpg/sg57_4_cif.got.tgz:7196.got - 2010.06.03 13:58:18.
