data_PCOD9435479
_publ_section_title
;
Structure prediction by ZEFSAII (Michael W. Deem and Ramdas Pophale) SiO2 
 PCOD9435479
Probable space group: P B C M
;
_chemical_formula_sum "Si O2"
_cell_formula_units_Z 64
_cell_length_a 15.161031
_cell_length_b 30.389945
_cell_length_c 8.834348
_cell_angle_alpha 90.000000
_cell_angle_beta 90.000000
_cell_angle_gamma 90.000000
_cell_volume 4070.363102
_symmetry_space_group_name_H-M "P B C M"
_symmetry_group_IT_number 57
_symmetry_cell_setting 'orthorhombic'
loop_
_space_group_symop_operation_xyz
x,y,z
-x,-y,1/2+z
x,1/2-y,-z
-x,1/2+y,1/2-z
-x,-y,-z
x,y,1/2-z
-x,1/2+y,z
x,1/2-y,1/2+z
loop_
_atom_site_type_symbol
_atom_site_label
_atom_site_fract_x
_atom_site_fract_y
_atom_site_fract_z
Si Si1 0.327154 0.037657 0.932170
Si Si2 0.795938 0.117762 0.930278
Si Si3 0.121884 0.467921 0.068811
Si Si4 0.288204 0.703833 0.431036
Si Si5 0.539702 0.893493 0.932590
Si Si6 0.628965 0.443638 0.068271
Si Si7 0.504880 0.203815 0.431492
Si Si8 0.950042 0.434762 0.569721
O O1 0.335152 0.036672 0.750000
O O2 0.223422 0.039768 0.972149
O O3 0.380221 0.078523 0.000043
O O4 0.366364 0.992444 0.999626
O O5 0.798941 0.122107 0.750000
O O6 0.720561 0.081466 0.966871
O O7 0.765223 0.163068 0.004198
O O8 0.889110 0.101554 0.993139
O O9 0.113181 0.463274 0.250000
O O10 0.094364 0.518014 0.029847
O O11 0.049990 0.437214 0.988949
O O12 0.257662 0.750000 0.500000
O O13 0.283148 0.704764 0.250000
O O14 0.391662 0.698742 0.474175
O O15 0.538611 0.896101 0.750000
O O16 0.541276 0.841870 0.976536
O O17 0.450712 0.915903 0.996511
O O18 0.618309 0.445793 0.250000
O O19 0.472715 0.250000 0.500000
O O20 0.500676 0.207251 0.250000
O O21 0.948096 0.430133 0.750000
#
# Coordination Sequence:
#
# PCOD9435479 Si02
#       8
#     8   8   8   8   8   8   8   8
#     4  11  22  36  52  71 100 137 174 213 253 296
#     4  11  21  32  50  75 103 135 172 208 250 302
#     4   9  19  34  50  71  99 129 165 208 252 297
#     4  10  19  33  51  73 101 132 168 207 254 302
#     4  11  22  36  51  72 101 135 172 210 253 300
#     4  11  22  34  49  71 100 138 177 211 245 293
#     4   9  19  33  51  72  97 128 163 208 253 296
#     4  10  19  32  52  74  98 129 165 206 251 299
#
# _framework density 15.723414
#
# number of rings (size 3 to 8) (size 9 to 14) (size 15 to 20)
#    0.000    1.750    2.500    2.625    0.000    4.000 
#    0.000    0.000    0.000    0.000    0.000    0.875 
#    0.000    4.000    0.000    0.000    0.000    0.000 
#
# Total GULP energy -357297.217610 kJ/mol
# GULP energy per Si atom -5582.769025 kJ/mol
# Density = 1.568763 g / cm^3
# Si number density = 15.723414 Si / 1000 Ang^3
#
#
#
# Elastic Constant Matrix: (Units=GPa)
#
#
# Indices 1 2 3 4 5 6 
#
# 1 70.3616 51.1386 30.8216 0.0000 0.0000 0.0000
# 2 51.1386 140.3982 46.2823 0.0000 0.0000 0.0000
# 3 30.8216 46.2823 39.6600 0.0000 0.0000 0.0000
# 4 0.0000 0.0000 0.0000 28.4249 0.0000 0.0000
# 5 0.0000 0.0000 0.0000 0.0000 23.6011 0.0000
# 6 0.0000 0.0000 0.0000 0.0000 0.0000 16.6167
#
#
#
# Elastic Compliance Matrix: (Units=1/GPa)
#
#
# Indices 1 2 3 4 5 6 
#
# 1 0.022860 -0.004014 -0.013081 0.000000 0.000000 0.000000
# 2 -0.004014 0.012281 -0.011211 0.000000 0.000000 0.000000
# 3 -0.013081 -0.011211 0.048464 0.000000 0.000000 0.000000
# 4 0.000000 0.000000 0.000000 0.035180 0.000000 0.000000
# 5 0.000000 0.000000 0.000000 0.000000 0.042371 0.000000
# 6 0.000000 0.000000 0.000000 0.000000 0.000000 0.060180
#
#
# Mechanical properties :
#
#
# Convention : Reuss Voigt Hill
#
# Bulk Modulus (GPa) = 37.04963 56.32274 46.68618
# Shear Modulus (GPa) = 17.42489 21.87371 19.64930
#
# Velocity S-wave (km/s) = 3.33259 3.73387 3.53892
# Velocity P-wave (km/s) = 6.19861 7.38158 6.81581
#
# Compressibility (1/GPa) = 0.02699083
#
# Stress axis : x y z
#
# Youngs Moduli (GPa) = 43.74467 81.42876 20.63407
#
# Poissons Ratio (x) = 0.32689 0.26991
# Poissons Ratio (y) = 0.17561 0.23134
# Poissons Ratio (z) = 0.57221 0.91294
#
# Static dielectric constant tensor:
#      x y z
#    x 1.510060 0.000000 0.000000 
#    y 0.000000 1.513950 0.000000 
#    z 0.000000 0.000000 1.520510 
# 
# From -- ./inp_files/5960.got.cif
#   From: 2010.05.17/outbox.cif.g08.bks.cpg/sg57_3_cif.got.tgz:5960.got - 2010.06.03 13:58:18.
