data_PCOD9435567
_publ_section_title
;
Structure prediction by ZEFSAII (Michael W. Deem and Ramdas Pophale) SiO2 
 PCOD9435567
Probable space group: P B C M
;
_chemical_formula_sum "Si O2"
_cell_formula_units_Z 52
_cell_length_a 5.076543
_cell_length_b 16.753701
_cell_length_c 29.135963
_cell_angle_alpha 90.000000
_cell_angle_beta 90.000000
_cell_angle_gamma 90.000000
_cell_volume 2478.039396
_symmetry_space_group_name_H-M "P B C M"
_symmetry_group_IT_number 57
_symmetry_cell_setting 'orthorhombic'
loop_
_space_group_symop_operation_xyz
x,y,z
-x,-y,1/2+z
x,1/2-y,-z
-x,1/2+y,1/2-z
-x,-y,-z
x,y,1/2-z
-x,1/2+y,z
x,1/2-y,1/2+z
loop_
_atom_site_type_symbol
_atom_site_label
_atom_site_fract_x
_atom_site_fract_y
_atom_site_fract_z
Si Si1 0.763076 0.032292 0.955966
Si Si2 0.188977 0.641853 0.149407
Si Si3 0.380570 0.603121 0.449385
Si Si4 0.196434 0.240966 0.250000
Si Si5 0.301511 0.633425 0.250000
Si Si6 0.244458 0.371718 0.071738
Si Si7 0.393525 0.250000 0.500000
Si Si8 0.311370 0.251835 0.153267
O O1 0.517861 0.084090 0.937154
O O2 0.012821 0.065002 0.929676
O O3 0.662658 0.942379 0.949433
O O4 0.775603 0.056999 0.009926
O O5 0.256257 0.599906 0.101123
O O6 0.239617 0.597915 0.198893
O O7 0.896456 0.678713 0.147983
O O8 0.397805 0.715245 0.150185
O O9 0.432116 0.693575 0.466626
O O10 0.397879 0.164675 0.250000
O O11 0.899476 0.208937 0.250000
O O12 0.260638 0.285882 0.203719
O O13 0.217886 0.308843 0.030184
O O14 0.256314 0.318605 0.116487
#
# Coordination Sequence:
#
# PCOD9435567 Si02
#       8
#     8   8   8   4   4   8   4   8
#     4  10  25  38  54  75 120 152 180 215 280 341
#     4  10  19  32  56  80 108 136 180 229 275 316
#     4  10  22  40  55  82 110 153 183 227 276 323
#     4   8  16  30  48  76 112 132 168 221 283 322
#     4   8  16  30  48  80 106 132 168 227 281 318
#     4  11  22  38  55  82 110 144 183 226 269 323
#     4  10  22  34  60  82 108 134 200 228 260 316
#     4  10  19  32  54  83 106 139 177 230 274 315
#
# _framework density 20.984332999999999
#
# number of rings (size 3 to 8) (size 9 to 14) (size 15 to 20)
#    0.000    2.154    1.538    0.923    4.308    7.385 
#    0.000    0.000    0.000    1.846    0.000    0.000 
#    0.000    0.000    0.000    0.000    0.000    0.000 
#
# Total GULP energy -290362.518948 kJ/mol
# GULP energy per Si atom -5583.894595 kJ/mol
# Density = 2.093657 g / cm^3
# Si number density = 20.984333 Si / 1000 Ang^3
#
#
#
# Elastic Constant Matrix: (Units=GPa)
#
#
# Indices 1 2 3 4 5 6 
#
# 1 73.2404 12.0272 6.6819 0.0000 0.0000 0.0000
# 2 12.0272 62.7677 24.9878 0.0000 0.0000 0.0000
# 3 6.6819 24.9878 160.1571 0.0000 0.0000 0.0000
# 4 0.0000 0.0000 0.0000 23.6938 0.0000 0.0000
# 5 0.0000 0.0000 0.0000 0.0000 20.0936 0.0000
# 6 0.0000 0.0000 0.0000 0.0000 0.0000 17.4814
#
#
#
# Elastic Compliance Matrix: (Units=1/GPa)
#
#
# Indices 1 2 3 4 5 6 
#
# 1 0.014102 -0.002631 -0.000178 0.000000 0.000000 0.000000
# 2 -0.002631 0.017478 -0.002617 0.000000 0.000000 0.000000
# 3 -0.000178 -0.002617 0.006660 0.000000 0.000000 0.000000
# 4 0.000000 0.000000 0.000000 0.042205 0.000000 0.000000
# 5 0.000000 0.000000 0.000000 0.000000 0.049767 0.000000
# 6 0.000000 0.000000 0.000000 0.000000 0.000000 0.057204
#
#
# Mechanical properties :
#
#
# Convention : Reuss Voigt Hill
#
# Bulk Modulus (GPa) = 36.51383 42.61766 39.56574
# Shear Modulus (GPa) = 24.10837 29.08498 26.59668
#
# Velocity S-wave (km/s) = 3.39318 3.72699 3.56399
# Velocity P-wave (km/s) = 5.72624 6.23490 5.98598
#
# Compressibility (1/GPa) = 0.02738689
#
# Stress axis : x y z
#
# Youngs Moduli (GPa) = 70.91199 57.21527 150.15889
#
# Poissons Ratio (x) = 0.15055 0.02670
# Poissons Ratio (y) = 0.18660 0.39298
# Poissons Ratio (z) = 0.01261 0.14974
#
# Static dielectric constant tensor:
#      x y z
#    x 1.778160 0.000000 0.000000 
#    y 0.000000 1.732100 0.000000 
#    z 0.000000 0.000000 1.826200 
# 
# From -- ./inp_files/29240.got.cif
#   From: 2010.05.17/outbox.cif.g08.bks.cpg/sg57_15_cif.got.tgz:29240.got - 2010.06.03 13:58:18.
