data_PCOD9435986
_publ_section_title
;
Structure prediction by ZEFSAII (Michael W. Deem and Ramdas Pophale) SiO2 
 PCOD9435986
Probable space group: P B C M
;
_chemical_formula_sum "Si O2"
_cell_formula_units_Z 40
_cell_length_a 13.988972
_cell_length_b 18.671587
_cell_length_c 8.554484
_cell_angle_alpha 90.000000
_cell_angle_beta 90.000000
_cell_angle_gamma 90.000000
_cell_volume 2234.399635
_symmetry_space_group_name_H-M "P B C M"
_symmetry_group_IT_number 57
_symmetry_cell_setting 'orthorhombic'
loop_
_space_group_symop_operation_xyz
x,y,z
-x,-y,1/2+z
x,1/2-y,-z
-x,1/2+y,1/2-z
-x,-y,-z
x,y,1/2-z
-x,1/2+y,z
x,1/2-y,1/2+z
loop_
_atom_site_type_symbol
_atom_site_label
_atom_site_fract_x
_atom_site_fract_y
_atom_site_fract_z
Si Si1 0.613079 0.105533 0.060506
Si Si2 0.899586 0.471954 0.436501
Si Si3 0.185486 0.672050 0.062278
Si Si4 0.292940 0.458976 0.062124
Si Si5 0.411426 0.329960 0.937690
O O1 0.610270 0.105275 0.250000
O O2 0.705226 0.152547 0.014393
O O3 0.513617 0.138316 0.004872
O O4 0.636297 0.024120 0.011183
O O5 0.898163 0.474400 0.250000
O O6 0.879334 0.391212 0.494315
O O7 0.811659 0.518849 0.502904
O O8 0.000000 0.500000 0.500000
O O9 0.180915 0.670102 0.250000
O O10 0.159950 0.750000 0.000000
O O11 0.292163 0.457146 0.250000
O O12 0.331006 0.384733 0.995690
O O13 0.412410 0.328655 0.750000
O O14 0.398459 0.250000 0.000000
#
# Coordination Sequence:
#
# PCOD9435986 Si02
#       5
#     8   8   8   8   8
#     4   8  17  32  53  79 110 144 182 222 266 317
#     4  11  22  39  61  84 108 141 180 224 274 329
#     4  10  19  34  55  84 116 146 180 225 273 321
#     4  10  20  37  57  80 108 141 180 227 273 323
#     4  11  21  34  51  77 111 150 188 224 265 316
#
# _framework density 17.901900000000001
#
# number of rings (size 3 to 8) (size 9 to 14) (size 15 to 20)
#    0.000    2.000    0.000    6.000    0.000    0.000 
#    0.000   11.000    0.000    0.000    0.000    0.000 
#    0.000    0.000    0.000    0.000    0.000    0.000 
#
# Total GULP energy -223400.905809 kJ/mol
# GULP energy per Si atom -5585.022645 kJ/mol
# Density = 1.786115 g / cm^3
# Si number density = 17.901900 Si / 1000 Ang^3
#
#
#
# Elastic Constant Matrix: (Units=GPa)
#
#
# Indices 1 2 3 4 5 6 
#
# 1 112.1821 104.9371 40.6676 0.0000 0.0000 0.0000
# 2 104.9371 181.6209 57.1608 0.0000 0.0000 0.0000
# 3 40.6676 57.1608 92.8992 0.0000 0.0000 0.0000
# 4 0.0000 0.0000 0.0000 25.6395 0.0000 0.0000
# 5 0.0000 0.0000 0.0000 0.0000 24.6291 0.0000
# 6 0.0000 0.0000 0.0000 0.0000 0.0000 17.4830
#
#
#
# Elastic Compliance Matrix: (Units=1/GPa)
#
#
# Indices 1 2 3 4 5 6 
#
# 1 0.019696 -0.010748 -0.002009 0.000000 0.000000 0.000000
# 2 -0.010748 0.012693 -0.003105 0.000000 0.000000 0.000000
# 3 -0.002009 -0.003105 0.013554 0.000000 0.000000 0.000000
# 4 0.000000 0.000000 0.000000 0.039002 0.000000 0.000000
# 5 0.000000 0.000000 0.000000 0.000000 0.040602 0.000000
# 6 0.000000 0.000000 0.000000 0.000000 0.000000 0.057198
#
#
# Mechanical properties :
#
#
# Convention : Reuss Voigt Hill
#
# Bulk Modulus (GPa) = 70.32497 88.02590 79.17544
# Shear Modulus (GPa) = 22.80917 25.81275 24.31096
#
# Velocity S-wave (km/s) = 3.57335 3.80136 3.68912
# Velocity P-wave (km/s) = 7.50959 8.27920 7.90377
#
# Compressibility (1/GPa) = 0.01421970
#
# Stress axis : x y z
#
# Youngs Moduli (GPa) = 50.77200 78.78364 73.77664
#
# Poissons Ratio (x) = 0.84673 0.14822
# Poissons Ratio (y) = 0.54568 0.22908
# Poissons Ratio (z) = 0.10201 0.24463
#
# Static dielectric constant tensor:
#      x y z
#    x 1.595170 0.000000 0.000000 
#    y 0.000000 1.594100 0.000000 
#    z 0.000000 0.000000 1.596260 
# 
# From -- ./inp_files/2646.got.cif
#   From: 2010.05.17/outbox.cif.g08.bks.cpg/sg57_2_cif.got.tgz:2646.got - 2010.06.03 13:58:18.
