data_PCOD9435067
_publ_section_title
;
Structure prediction by ZEFSAII (Michael W. Deem and Ramdas Pophale) SiO2 
 PCOD9435067
Probable space group: P B C M
;
_chemical_formula_sum "Si O2"
_cell_formula_units_Z 36
_cell_length_a 15.888030
_cell_length_b 5.235223
_cell_length_c 24.862619
_cell_angle_alpha 90.000000
_cell_angle_beta 90.000000
_cell_angle_gamma 90.000000
_cell_volume 2068.007510
_symmetry_space_group_name_H-M "P B C M"
_symmetry_group_IT_number 57
_symmetry_cell_setting 'orthorhombic'
loop_
_space_group_symop_operation_xyz
x,y,z
-x,-y,1/2+z
x,1/2-y,-z
-x,1/2+y,1/2-z
-x,-y,-z
x,y,1/2-z
-x,1/2+y,z
x,1/2-y,1/2+z
loop_
_atom_site_type_symbol
_atom_site_label
_atom_site_fract_x
_atom_site_fract_y
_atom_site_fract_z
Si Si1 0.533527 0.944234 0.060977
Si Si2 0.942229 0.250000 0.500000
Si Si3 0.053555 0.853298 0.314239
Si Si4 0.724572 0.750657 0.562470
Si Si5 0.187401 0.749927 0.098734
O O1 0.475194 0.724422 0.086160
O O2 0.627129 0.833462 0.061546
O O3 0.500000 0.000000 0.000000
O O4 0.882890 0.238832 0.552066
O O5 0.000000 0.500000 0.500000
O O6 0.066542 0.846640 0.250000
O O7 0.139286 0.809733 0.346300
O O8 0.989886 0.622332 0.328441
O O9 0.753322 0.750000 0.500000
O O10 0.773289 0.531305 0.594873
O O11 0.744488 0.030326 0.585289
#
# Coordination Sequence:
#
# PCOD9435067 Si02
#       5
#     8   4   8   8   8
#     4  10  19  30  50  69 100 147 178 211 236 302
#     4  12  22  32  46  66 100 140 168 196 244 314
#     4  10  21  40  62  78  98 136 186 235 274 309
#     4  12  21  34  49  76 111 148 169 206 268 310
#     4  12  23  35  51  76 110 137 175 218 267 323
#
# _framework density 17.408059999999999
#
# number of rings (size 3 to 8) (size 9 to 14) (size 15 to 20)
#    0.000    0.889    4.444    5.333    3.111    0.000 
#    0.000    0.000    0.000    0.000    0.000    0.000 
#    0.000   17.778    0.000    0.000    0.000    0.000 
#
# Total GULP energy -200982.086450 kJ/mol
# GULP energy per Si atom -5582.835735 kJ/mol
# Density = 1.736844 g / cm^3
# Si number density = 17.408060 Si / 1000 Ang^3
#
#
#
# Elastic Constant Matrix: (Units=GPa)
#
#
# Indices 1 2 3 4 5 6 
#
# 1 74.1397 14.6705 9.3398 0.0000 0.0000 0.0000
# 2 14.6705 113.4524 -2.8716 0.0000 0.0000 0.0000
# 3 9.3398 -2.8716 22.1972 0.0000 0.0000 0.0000
# 4 0.0000 0.0000 0.0000 12.1701 0.0000 0.0000
# 5 0.0000 0.0000 0.0000 0.0000 13.8169 0.0000
# 6 0.0000 0.0000 0.0000 0.0000 0.0000 41.2412
#
#
#
# Elastic Compliance Matrix: (Units=1/GPa)
#
#
# Indices 1 2 3 4 5 6 
#
# 1 0.014710 -0.002066 -0.006457 0.000000 0.000000 0.000000
# 2 -0.002066 0.009133 0.002051 0.000000 0.000000 0.000000
# 3 -0.006457 0.002051 0.048033 0.000000 0.000000 0.000000
# 4 0.000000 0.000000 0.000000 0.082169 0.000000 0.000000
# 5 0.000000 0.000000 0.000000 0.000000 0.072375 0.000000
# 6 0.000000 0.000000 0.000000 0.000000 0.000000 0.024248
#
#
# Mechanical properties :
#
#
# Convention : Reuss Voigt Hill
#
# Bulk Modulus (GPa) = 16.96843 28.00741 22.48792
# Shear Modulus (GPa) = 17.65194 26.02235 21.83714
#
# Velocity S-wave (km/s) = 3.18781 3.87052 3.54563
# Velocity P-wave (km/s) = 4.82888 6.00818 5.45052
#
# Compressibility (1/GPa) = 0.05893296
#
# Stress axis : x y z
#
# Youngs Moduli (GPa) = 67.98020 109.48978 20.81910
#
# Poissons Ratio (x) = 0.22616 0.13442
# Poissons Ratio (y) = 0.14042 -0.04269
# Poissons Ratio (z) = 0.43893 -0.22453
#
# Static dielectric constant tensor:
#      x y z
#    x 1.607440 0.000000 0.000000 
#    y 0.000000 1.669960 0.000000 
#    z 0.000000 0.000000 1.597940 
# 
# From -- ./inp_files/27332.got.cif
#   From: 2010.05.17/outbox.cif.g08.bks.cpg/sg57_14_cif.got.tgz:27332.got - 2010.06.03 13:58:18.
