data_PCOD9435162
_publ_section_title
;
Structure prediction by ZEFSAII (Michael W. Deem and Ramdas Pophale) SiO2 
 PCOD9435162
Probable space group: P B C M
;
_chemical_formula_sum "Si O2"
_cell_formula_units_Z 64
_cell_length_a 22.409727
_cell_length_b 19.379531
_cell_length_c 8.546370
_cell_angle_alpha 90.000000
_cell_angle_beta 90.000000
_cell_angle_gamma 90.000000
_cell_volume 3711.603020
_symmetry_space_group_name_H-M "P B C M"
_symmetry_group_IT_number 57
_symmetry_cell_setting 'orthorhombic'
loop_
_space_group_symop_operation_xyz
x,y,z
-x,-y,1/2+z
x,1/2-y,-z
-x,1/2+y,1/2-z
-x,-y,-z
x,y,1/2-z
-x,1/2+y,z
x,1/2-y,1/2+z
loop_
_atom_site_type_symbol
_atom_site_label
_atom_site_fract_x
_atom_site_fract_y
_atom_site_fract_z
Si Si1 0.275053 0.379947 0.064718
Si Si2 0.811504 0.438305 0.061665
Si Si3 0.033160 0.172386 0.938395
Si Si4 0.903718 0.327290 0.563497
Si Si5 0.562140 0.971255 0.561867
Si Si6 0.852699 0.586757 0.937383
Si Si7 0.600123 0.822569 0.434828
Si Si8 0.685530 0.476677 0.433207
O O1 0.279176 0.399753 0.250000
O O2 0.205714 0.365136 0.033987
O O3 0.328132 0.326652 0.037435
O O4 0.291739 0.445130 0.958250
O O5 0.811152 0.435274 0.250000
O O6 0.742267 0.434040 0.003834
O O7 0.852558 0.378453 0.994110
O O8 0.838408 0.512374 0.010628
O O9 0.032277 0.173982 0.750000
O O10 0.086780 0.122854 0.991755
O O11 0.042998 0.250000 0.000000
O O12 0.968391 0.149546 0.999204
O O13 0.893781 0.250000 0.500000
O O14 0.905948 0.325477 0.750000
O O15 0.562887 0.972784 0.750000
O O16 0.573317 0.892342 0.508419
O O17 0.500000 0.000000 0.500000
O O18 0.618172 0.018367 0.502564
O O19 0.857276 0.577154 0.750000
O O20 0.577275 0.750000 0.500000
O O21 0.589901 0.825395 0.250000
O O22 0.680593 0.460073 0.250000
#
# Coordination Sequence:
#
# PCOD9435162 Si02
#       8
#     8   8   8   8   8   8   8   8
#     4   8  15  28  45  66  95 128 162 198 238 285
#     4  10  19  33  54  78 101 127 161 204 251 296
#     4  10  20  34  50  68  95 130 168 209 253 302
#     4  11  22  37  55  73  95 125 163 207 256 309
#     4  10  19  33  53  78 106 138 173 207 247 296
#     4   9  18  32  49  72 101 133 168 206 248 295
#     4  10  19  31  48  72 102 137 174 213 252 292
#     4   8  16  30  49  73 100 126 155 194 237 283
#
# _framework density 17.243223
#
# number of rings (size 3 to 8) (size 9 to 14) (size 15 to 20)
#    0.000    2.500    0.000    3.375    0.000    3.500 
#    0.000    0.000    0.000    0.750    0.000    3.500 
#    0.000    0.000    0.000    0.000    0.000    0.000 
#
# Total GULP energy -356412.233749 kJ/mol
# GULP energy per Si atom -5568.941152 kJ/mol
# Density = 1.720398 g / cm^3
# Si number density = 17.243223 Si / 1000 Ang^3
#
#
#
# Elastic Constant Matrix: (Units=GPa)
#
#
# Indices 1 2 3 4 5 6 
#
# 1 169.4418 71.2799 40.4435 0.0000 0.0000 0.0000
# 2 71.2799 65.6819 27.7046 0.0000 0.0000 0.0000
# 3 40.4435 27.7046 49.6185 0.0000 0.0000 0.0000
# 4 0.0000 0.0000 0.0000 26.1947 0.0000 0.0000
# 5 0.0000 0.0000 0.0000 0.0000 18.7932 0.0000
# 6 0.0000 0.0000 0.0000 0.0000 0.0000 14.9212
#
#
#
# Elastic Compliance Matrix: (Units=1/GPa)
#
#
# Indices 1 2 3 4 5 6 
#
# 1 0.011205 -0.010867 -0.003065 0.000000 0.000000 0.000000
# 2 -0.010867 0.030454 -0.008147 0.000000 0.000000 0.000000
# 3 -0.003065 -0.008147 0.027201 0.000000 0.000000 0.000000
# 4 0.000000 0.000000 0.000000 0.038176 0.000000 0.000000
# 5 0.000000 0.000000 0.000000 0.000000 0.053211 0.000000
# 6 0.000000 0.000000 0.000000 0.000000 0.000000 0.067019
#
#
# Mechanical properties :
#
#
# Convention : Reuss Voigt Hill
#
# Bulk Modulus (GPa) = 40.48223 62.62202 51.55213
# Shear Modulus (GPa) = 17.87905 21.66943 19.77424
#
# Velocity S-wave (km/s) = 3.22355 3.54883 3.39009
# Velocity P-wave (km/s) = 6.11418 7.29301 6.72946
#
# Compressibility (1/GPa) = 0.02470220
#
# Stress axis : x y z
#
# Youngs Moduli (GPa) = 89.24753 32.83628 36.76319
#
# Poissons Ratio (x) = 0.35682 0.11270
# Poissons Ratio (y) = 0.96983 0.29950
# Poissons Ratio (z) = 0.27358 0.26751
#
# Static dielectric constant tensor:
#      x y z
#    x 1.624690 0.000000 0.000000 
#    y 0.000000 1.556670 0.000000 
#    z 0.000000 0.000000 1.587800 
# 
# From -- ./inp_files/8514.got.cif
#   From: 2010.05.17/outbox.cif.g08.bks.cpg/sg57_5_cif.got.tgz:8514.got - 2010.06.03 13:58:18.
