data_PCOD9435669
_publ_section_title
;
Structure prediction by ZEFSAII (Michael W. Deem and Ramdas Pophale) SiO2 
 PCOD9435669
Probable space group: P B C M
;
_chemical_formula_sum "Si O2"
_cell_formula_units_Z 32
_cell_length_a 21.762066
_cell_length_b 9.292607
_cell_length_c 8.574378
_cell_angle_alpha 90.000000
_cell_angle_beta 90.000000
_cell_angle_gamma 90.000000
_cell_volume 1733.964968
_symmetry_space_group_name_H-M "P B C M"
_symmetry_group_IT_number 57
_symmetry_cell_setting 'orthorhombic'
loop_
_space_group_symop_operation_xyz
x,y,z
-x,-y,1/2+z
x,1/2-y,-z
-x,1/2+y,1/2-z
-x,-y,-z
x,y,1/2-z
-x,1/2+y,z
x,1/2-y,1/2+z
loop_
_atom_site_type_symbol
_atom_site_label
_atom_site_fract_x
_atom_site_fract_y
_atom_site_fract_z
Si Si1 0.057613 0.087261 0.937215
Si Si2 0.808861 0.913085 0.437719
Si Si3 0.673987 0.585981 0.561859
Si Si4 0.558113 0.088232 0.936186
O O1 0.055415 0.089651 0.750000
O O2 0.124849 0.024586 0.986231
O O3 0.054353 0.250000 0.000000
O O4 0.000000 0.000000 0.000000
O O5 0.809127 0.750000 0.500000
O O6 0.808839 0.909718 0.250000
O O7 0.742078 0.972247 0.484740
O O8 0.668590 0.750000 0.500000
O O9 0.669779 0.588197 0.750000
O O10 0.619846 0.490491 0.493119
O O11 0.556072 0.090131 0.750000
O O12 0.556059 0.250000 0.000000
O O13 0.500000 0.000000 0.000000
#
# Coordination Sequence:
#
# PCOD9435669 Si02
#       4
#     8   8   8   8
#     4  10  19  33  52  77 106 141 181 225 271 321
#     4   8  16  30  51  76 105 138 177 219 265 318
#     4  10  19  35  58  85 112 142 178 221 268 320
#     4  12  25  42  61  84 112 145 181 221 265 315
#
# _framework density 18.454813000000001
#
# number of rings (size 3 to 8) (size 9 to 14) (size 15 to 20)
#    0.000    2.000    0.000    4.500    0.000    2.000 
#    0.000    1.250    0.000    0.000    0.000    0.000 
#    0.000    0.000    0.000    0.000    0.000    0.000 
#
# Total GULP energy -178460.525454 kJ/mol
# GULP energy per Si atom -5576.891420 kJ/mol
# Density = 1.841281 g / cm^3
# Si number density = 18.454813 Si / 1000 Ang^3
#
#
#
# Elastic Constant Matrix: (Units=GPa)
#
#
# Indices 1 2 3 4 5 6 
#
# 1 250.6191 89.6245 70.5977 0.0000 0.0000 0.0000
# 2 89.6245 85.1590 38.3342 0.0000 0.0000 0.0000
# 3 70.5977 38.3342 96.7336 0.0000 0.0000 0.0000
# 4 0.0000 0.0000 0.0000 30.5339 0.0000 0.0000
# 5 0.0000 0.0000 0.0000 0.0000 29.5173 0.0000
# 6 0.0000 0.0000 0.0000 0.0000 0.0000 33.5208
#
#
#
# Elastic Compliance Matrix: (Units=1/GPa)
#
#
# Indices 1 2 3 4 5 6 
#
# 1 0.006907 -0.006086 -0.002629 0.000000 0.000000 0.000000
# 2 -0.006086 0.019654 -0.003347 0.000000 0.000000 0.000000
# 3 -0.002629 -0.003347 0.013583 0.000000 0.000000 0.000000
# 4 0.000000 0.000000 0.000000 0.032750 0.000000 0.000000
# 5 0.000000 0.000000 0.000000 0.000000 0.033878 0.000000
# 6 0.000000 0.000000 0.000000 0.000000 0.000000 0.029832
#
#
# Mechanical properties :
#
#
# Convention : Reuss Voigt Hill
#
# Bulk Modulus (GPa) = 62.42203 92.18048 77.30126
# Shear Modulus (GPa) = 30.10777 34.31142 32.20960
#
# Velocity S-wave (km/s) = 4.04348 4.31654 4.18224
# Velocity P-wave (km/s) = 7.46306 8.65454 8.08079
#
# Compressibility (1/GPa) = 0.01601998
#
# Stress axis : x y z
#
# Youngs Moduli (GPa) = 144.77892 50.87925 73.62153
#
# Poissons Ratio (x) = 0.30964 0.19357
# Poissons Ratio (y) = 0.88109 0.24643
# Poissons Ratio (z) = 0.38065 0.17031
#
# Static dielectric constant tensor:
#      x y z
#    x 1.693040 0.000000 0.000000 
#    y 0.000000 1.580580 0.000000 
#    z 0.000000 0.000000 1.623090 
# 
# From -- ./inp_files/7535.got.cif
#   From: 2010.05.17/outbox.cif.g08.bks.cpg/sg57_4_cif.got.tgz:7535.got - 2010.06.03 13:58:18.
