data_PCOD9435588
_publ_section_title
;
Structure prediction by ZEFSAII (Michael W. Deem and Ramdas Pophale) SiO2 
 PCOD9435588
Probable space group: P B C M
;
_chemical_formula_sum "Si O2"
_cell_formula_units_Z 48
_cell_length_a 21.300083
_cell_length_b 14.203567
_cell_length_c 8.607161
_cell_angle_alpha 90.000000
_cell_angle_beta 90.000000
_cell_angle_gamma 90.000000
_cell_volume 2603.986010
_symmetry_space_group_name_H-M "P B C M"
_symmetry_group_IT_number 57
_symmetry_cell_setting 'orthorhombic'
loop_
_space_group_symop_operation_xyz
x,y,z
-x,-y,1/2+z
x,1/2-y,-z
-x,1/2+y,1/2-z
-x,-y,-z
x,y,1/2-z
-x,1/2+y,z
x,1/2-y,1/2+z
loop_
_atom_site_type_symbol
_atom_site_label
_atom_site_fract_x
_atom_site_fract_y
_atom_site_fract_z
Si Si1 0.779899 0.144153 0.437574
Si Si2 0.966974 0.645284 0.064073
Si Si3 0.653493 0.035289 0.436479
Si Si4 0.397647 0.145091 0.064587
Si Si5 0.905832 0.037618 0.062405
Si Si6 0.533757 0.144847 0.564132
O O1 0.781396 0.250000 0.500000
O O2 0.781000 0.148026 0.250000
O O3 0.840994 0.085355 0.488440
O O4 0.716013 0.091101 0.483731
O O5 0.965006 0.648302 0.250000
O O6 0.035555 0.604444 0.016129
O O7 0.957127 0.750000 0.000000
O O8 0.918659 0.566172 0.003930
O O9 0.648371 0.037478 0.250000
O O10 0.651695 0.928408 0.495600
O O11 0.592677 0.084401 0.510224
O O12 0.396405 0.145484 0.250000
O O13 0.388113 0.250000 0.000000
O O14 0.467184 0.114093 0.007669
O O15 0.905964 0.031467 0.250000
O O16 0.544120 0.250000 0.500000
O O17 0.528496 0.145386 0.750000
#
# Coordination Sequence:
#
# PCOD9435588 Si02
#       6
#     8   8   8   8   8   8
#     4  10  22  38  58  81 110 145 179 219 265 318
#     4  10  19  32  55  84 113 145 181 225 271 316
#     4  11  22  37  55  79 109 142 180 221 267 319
#     4  11  22  38  58  80 105 137 177 224 275 325
#     4   9  19  36  55  80 112 146 184 223 267 317
#     4  11  21  35  55  81 110 141 177 221 272 323
#
# _framework density 18.433278000000001
#
# number of rings (size 3 to 8) (size 9 to 14) (size 15 to 20)
#    0.000    1.667    0.000    6.500    0.000    4.000 
#    0.000    0.833    0.000    0.000    0.000    0.000 
#    0.000    0.000    0.000    0.000    0.000    0.000 
#
# Total GULP energy -268216.018082 kJ/mol
# GULP energy per Si atom -5587.833710 kJ/mol
# Density = 1.839132 g / cm^3
# Si number density = 18.433278 Si / 1000 Ang^3
#
#
#
# Elastic Constant Matrix: (Units=GPa)
#
#
# Indices 1 2 3 4 5 6 
#
# 1 91.4386 93.5415 26.6389 0.0000 0.0000 0.0000
# 2 93.5415 162.8137 32.8785 0.0000 0.0000 0.0000
# 3 26.6389 32.8785 69.7972 0.0000 0.0000 0.0000
# 4 0.0000 0.0000 0.0000 34.7061 0.0000 0.0000
# 5 0.0000 0.0000 0.0000 0.0000 18.0615 0.0000
# 6 0.0000 0.0000 0.0000 0.0000 0.0000 29.9919
#
#
#
# Elastic Compliance Matrix: (Units=1/GPa)
#
#
# Indices 1 2 3 4 5 6 
#
# 1 0.027214 -0.014961 -0.003339 0.000000 0.000000 0.000000
# 2 -0.014961 0.015013 -0.001362 0.000000 0.000000 0.000000
# 3 -0.003339 -0.001362 0.016243 0.000000 0.000000 0.000000
# 4 0.000000 0.000000 0.000000 0.028813 0.000000 0.000000
# 5 0.000000 0.000000 0.000000 0.000000 0.055367 0.000000
# 6 0.000000 0.000000 0.000000 0.000000 0.000000 0.033342
#
#
# Mechanical properties :
#
#
# Convention : Reuss Voigt Hill
#
# Bulk Modulus (GPa) = 52.23002 70.01861 61.12431
# Shear Modulus (GPa) = 22.55317 27.95126 25.25221
#
# Velocity S-wave (km/s) = 3.50166 3.89826 3.70527
# Velocity P-wave (km/s) = 6.68917 7.63736 7.17893
#
# Compressibility (1/GPa) = 0.01914608
#
# Stress axis : x y z
#
# Youngs Moduli (GPa) = 36.74530 66.61046 61.56474
#
# Poissons Ratio (x) = 0.99657 0.20557
# Poissons Ratio (y) = 0.54975 0.08383
# Poissons Ratio (z) = 0.12270 0.09070
#
# Static dielectric constant tensor:
#      x y z
#    x 1.626800 0.000000 0.000000 
#    y 0.000000 1.618140 0.000000 
#    z 0.000000 0.000000 1.615210 
# 
# From -- ./inp_files/6554.got.cif
#   From: 2010.05.17/outbox.cif.g08.bks.cpg/sg57_4_cif.got.tgz:6554.got - 2010.06.03 13:58:18.
