data_PCOD9435636
_publ_section_title
;
Structure prediction by ZEFSAII (Michael W. Deem and Ramdas Pophale) SiO2 
 PCOD9435636
Probable space group: P B C M
;
_chemical_formula_sum "Si O2"
_cell_formula_units_Z 64
_cell_length_a 18.055004
_cell_length_b 23.108122
_cell_length_c 8.609595
_cell_angle_alpha 90.000000
_cell_angle_beta 90.000000
_cell_angle_gamma 90.000000
_cell_volume 3592.071422
_symmetry_space_group_name_H-M "P B C M"
_symmetry_group_IT_number 57
_symmetry_cell_setting 'orthorhombic'
loop_
_space_group_symop_operation_xyz
x,y,z
-x,-y,1/2+z
x,1/2-y,-z
-x,1/2+y,1/2-z
-x,-y,-z
x,y,1/2-z
-x,1/2+y,z
x,1/2-y,1/2+z
loop_
_atom_site_type_symbol
_atom_site_label
_atom_site_fract_x
_atom_site_fract_y
_atom_site_fract_z
Si Si1 0.350673 0.584445 0.063764
Si Si2 0.748490 0.188749 0.936479
Si Si3 0.088539 0.846391 0.437513
Si Si4 0.078595 0.520709 0.562883
Si Si5 0.821547 0.584474 0.062663
Si Si6 0.331841 0.449783 0.063309
Si Si7 0.929012 0.688565 0.435970
Si Si8 0.505469 0.934712 0.063470
O O1 0.347405 0.585291 0.250000
O O2 0.332271 0.517931 0.011888
O O3 0.296190 0.632893 0.996354
O O4 0.434945 0.597020 0.009194
O O5 0.746091 0.188762 0.750000
O O6 0.834657 0.182787 0.986419
O O7 0.719395 0.250000 0.000000
O O8 0.083428 0.842884 0.250000
O O9 0.093512 0.913728 0.484228
O O10 0.012861 0.821771 0.506583
O O11 0.076358 0.519136 0.750000
O O12 0.140391 0.475443 0.510174
O O13 0.000000 0.500000 0.500000
O O14 0.820326 0.585215 0.250000
O O15 0.874796 0.636828 0.011436
O O16 0.738459 0.583622 0.001953
O O17 0.328212 0.451168 0.250000
O O18 0.409924 0.419455 0.021129
O O19 0.903015 0.750000 0.500000
O O20 0.929619 0.689198 0.250000
O O21 0.498821 0.934199 0.250000
O O22 0.500000 0.000000 0.000000
#
# Coordination Sequence:
#
# PCOD9435636 Si02
#       8
#     8   8   8   8   8   8   8   8
#     4  10  20  35  55  82 112 144 180 217 267 325
#     4  11  23  38  55  77 107 145 186 230 273 320
#     4  10  21  36  56  79 105 138 178 221 270 322
#     4  10  19  33  51  76 106 135 170 215 266 320
#     4  10  21  35  52  77 107 138 175 218 267 319
#     4   9  19  33  53  83 113 140 174 216 266 322
#     4  11  23  38  55  74  99 135 180 225 267 313
#     4   9  17  31  52  81 113 142 173 210 257 315
#
# _framework density 17.817018000000001
#
# number of rings (size 3 to 8) (size 9 to 14) (size 15 to 20)
#    0.000    2.000    1.250    3.375    0.000    7.500 
#    0.000    0.000    0.000    0.750    0.000    1.750 
#    0.000    0.000    0.000    0.000    0.000    0.000 
#
# Total GULP energy -357085.603836 kJ/mol
# GULP energy per Si atom -5579.462560 kJ/mol
# Density = 1.777647 g / cm^3
# Si number density = 17.817018 Si / 1000 Ang^3
#
#
#
# Elastic Constant Matrix: (Units=GPa)
#
#
# Indices 1 2 3 4 5 6 
#
# 1 130.2152 35.5657 22.6913 0.0000 0.0000 0.0000
# 2 35.5657 85.2167 19.1432 0.0000 0.0000 0.0000
# 3 22.6913 19.1432 24.5028 0.0000 0.0000 0.0000
# 4 0.0000 0.0000 0.0000 24.5093 0.0000 0.0000
# 5 0.0000 0.0000 0.0000 0.0000 31.9091 0.0000
# 6 0.0000 0.0000 0.0000 0.0000 0.0000 12.4001
#
#
#
# Elastic Compliance Matrix: (Units=1/GPa)
#
#
# Indices 1 2 3 4 5 6 
#
# 1 0.009554 -0.002425 -0.006952 0.000000 0.000000 0.000000
# 2 -0.002425 0.014848 -0.009354 0.000000 0.000000 0.000000
# 3 -0.006952 -0.009354 0.054558 0.000000 0.000000 0.000000
# 4 0.000000 0.000000 0.000000 0.040801 0.000000 0.000000
# 5 0.000000 0.000000 0.000000 0.000000 0.031339 0.000000
# 6 0.000000 0.000000 0.000000 0.000000 0.000000 0.080644
#
#
# Mechanical properties :
#
#
# Convention : Reuss Voigt Hill
#
# Bulk Modulus (GPa) = 24.09879 43.85945 33.97912
# Shear Modulus (GPa) = 17.66529 24.59935 21.13232
#
# Velocity S-wave (km/s) = 3.15220 3.71976 3.44768
# Velocity P-wave (km/s) = 5.17722 6.56650 5.91280
#
# Compressibility (1/GPa) = 0.04149585
#
# Stress axis : x y z
#
# Youngs Moduli (GPa) = 104.67288 67.34704 18.32901
#
# Poissons Ratio (x) = 0.16335 0.12743
# Poissons Ratio (y) = 0.25388 0.17146
# Poissons Ratio (z) = 0.72772 0.63000
#
# Static dielectric constant tensor:
#      x y z
#    x 1.620850 0.000000 0.000000 
#    y 0.000000 1.590930 0.000000 
#    z 0.000000 0.000000 1.598170 
# 
# From -- ./inp_files/5537.got.cif
#   From: 2010.05.17/outbox.cif.g08.bks.cpg/sg57_3_cif.got.tgz:5537.got - 2010.06.03 13:58:18.
