data_PCOD9435181
_publ_section_title
;
Structure prediction by ZEFSAII (Michael W. Deem and Ramdas Pophale) SiO2 
 PCOD9435181
Probable space group: P B C M
;
_chemical_formula_sum "Si O2"
_cell_formula_units_Z 48
_cell_length_a 18.964027
_cell_length_b 14.117886
_cell_length_c 7.547884
_cell_angle_alpha 90.000000
_cell_angle_beta 90.000000
_cell_angle_gamma 90.000000
_cell_volume 2020.809862
_symmetry_space_group_name_H-M "P B C M"
_symmetry_group_IT_number 57
_symmetry_cell_setting 'orthorhombic'
loop_
_space_group_symop_operation_xyz
x,y,z
-x,-y,1/2+z
x,1/2-y,-z
-x,1/2+y,1/2-z
-x,-y,-z
x,y,1/2-z
-x,1/2+y,z
x,1/2-y,1/2+z
loop_
_atom_site_type_symbol
_atom_site_label
_atom_site_fract_x
_atom_site_fract_y
_atom_site_fract_z
Si Si1 0.169770 0.934552 0.541253
Si Si2 0.020093 0.891624 0.961974
Si Si3 0.463021 0.860871 0.962047
Si Si4 0.130205 0.350691 0.961419
Si Si5 0.620183 0.639891 0.039107
Si Si6 0.679263 0.450280 0.956386
O O1 0.171549 0.912422 0.750000
O O2 0.099914 0.882456 0.467469
O O3 0.159200 0.048728 0.527891
O O4 0.247116 0.914274 0.464832
O O5 0.022810 0.875319 0.750000
O O6 0.950112 0.842592 0.035659
O O7 0.000000 0.000000 0.000000
O O8 0.465841 0.875692 0.750000
O O9 0.541244 0.885629 0.030705
O O10 0.394204 0.913055 0.035302
O O11 0.454193 0.750000 0.000000
O O12 0.127815 0.360962 0.750000
O O13 0.166869 0.250000 0.000000
O O14 0.620683 0.629626 0.250000
O O15 0.633418 0.750000 0.000000
O O16 0.674592 0.564021 0.965331
O O17 0.678944 0.422133 0.750000
#
# Coordination Sequence:
#
# PCOD9435181 Si02
#       6
#     8   8   8   8   8   8
#     4   9  18  33  51  70  96 128 159 196 244 294
#     4   8  15  29  48  67  87 116 153 189 226 271
#     4   9  19  35  54  76 101 132 171 214 257 301
#     4  10  19  31  49  72  97 125 160 200 240 287
#     4  10  20  34  53  76 103 135 172 213 254 301
#     4  10  20  34  53  77 105 136 169 208 257 308
#
# _framework density 23.752853999999999
#
# number of rings (size 3 to 8) (size 9 to 14) (size 15 to 20)
#    0.000    2.667    0.000    1.500    0.000    3.333 
#    0.000    0.833    0.000    0.000    0.000    0.000 
#    0.000    0.000    0.000    0.000    0.000    0.000 
#
# Total GULP energy -267676.307380 kJ/mol
# GULP energy per Si atom -5576.589737 kJ/mol
# Density = 2.369879 g / cm^3
# Si number density = 23.752854 Si / 1000 Ang^3
#
#
#
# Elastic Constant Matrix: (Units=GPa)
#
#
# Indices 1 2 3 4 5 6 
#
# 1 111.3919 -1.8556 4.6491 0.0000 0.0000 0.0000
# 2 -1.8556 18.9830 -17.5356 0.0000 0.0000 0.0000
# 3 4.6491 -17.5356 75.7432 0.0000 0.0000 0.0000
# 4 0.0000 0.0000 0.0000 11.7176 0.0000 0.0000
# 5 0.0000 0.0000 0.0000 0.0000 2.3211 0.0000
# 6 0.0000 0.0000 0.0000 0.0000 0.0000 75.9324
#
#
#
# Elastic Compliance Matrix: (Units=1/GPa)
#
#
# Indices 1 2 3 4 5 6 
#
# 1 0.009004 0.000470 -0.000444 0.000000 0.000000 0.000000
# 2 0.000470 0.067034 0.015490 0.000000 0.000000 0.000000
# 3 -0.000444 0.015490 0.016816 0.000000 0.000000 0.000000
# 4 0.000000 0.000000 0.000000 0.085342 0.000000 0.000000
# 5 0.000000 0.000000 0.000000 0.000000 0.430834 0.000000
# 6 0.000000 0.000000 0.000000 0.000000 0.000000 0.013170
#
#
# Mechanical properties :
#
#
# Convention : Reuss Voigt Hill
#
# Bulk Modulus (GPa) = 8.07188 19.62601 13.84894
# Shear Modulus (GPa) = 7.90562 32.71823 20.31192
#
# Velocity S-wave (km/s) = 1.82634 3.71542 2.92744
# Velocity P-wave (km/s) = 2.80232 5.16588 4.15568
#
# Compressibility (1/GPa) = 0.12388681
#
# Stress axis : x y z
#
# Youngs Moduli (GPa) = 111.06586 14.91785 59.46732
#
# Poissons Ratio (x) = -0.00701 0.02639
# Poissons Ratio (y) = -0.05222 -0.92117
# Poissons Ratio (z) = 0.04929 -0.23108
#
# Static dielectric constant tensor:
#      x y z
#    x 1.991450 0.000000 0.000000 
#    y 0.000000 1.884490 0.000000 
#    z 0.000000 0.000000 1.858830 
# 
# From -- ./inp_files/6543.got.cif
#   From: 2010.05.17/outbox.cif.g08.bks.cpg/sg57_4_cif.got.tgz:6543.got - 2010.06.03 13:58:18.
