data_PCOD9435357
_publ_section_title
;
Structure prediction by ZEFSAII (Michael W. Deem and Ramdas Pophale) SiO2 
 PCOD9435357
Probable space group: P B C M
;
_chemical_formula_sum "Si O2"
_cell_formula_units_Z 56
_cell_length_a 26.504005
_cell_length_b 14.447540
_cell_length_c 8.596321
_cell_angle_alpha 90.000000
_cell_angle_beta 90.000000
_cell_angle_gamma 90.000000
_cell_volume 3291.683229
_symmetry_space_group_name_H-M "P B C M"
_symmetry_group_IT_number 57
_symmetry_cell_setting 'orthorhombic'
loop_
_space_group_symop_operation_xyz
x,y,z
-x,-y,1/2+z
x,1/2-y,-z
-x,1/2+y,1/2-z
-x,-y,-z
x,y,1/2-z
-x,1/2+y,z
x,1/2-y,1/2+z
loop_
_atom_site_type_symbol
_atom_site_label
_atom_site_fract_x
_atom_site_fract_y
_atom_site_fract_z
Si Si1 0.422936 0.468487 0.063427
Si Si2 0.523489 0.145760 0.936543
Si Si3 0.909972 0.155312 0.436987
Si Si4 0.982282 0.598437 0.063143
Si Si5 0.875461 0.956880 0.562742
Si Si6 0.779693 0.852599 0.435505
Si Si7 0.330562 0.353351 0.935696
O O1 0.420164 0.471443 0.250000
O O2 0.469207 0.399397 0.019785
O O3 0.436610 0.570630 0.000969
O O4 0.372324 0.424871 0.994788
O O5 0.526621 0.148157 0.750000
O O6 0.528637 0.250000 0.000000
O O7 0.886289 0.250000 0.500000
O O8 0.906978 0.151346 0.250000
O O9 0.969307 0.157101 0.485544
O O10 0.886848 0.061422 0.507033
O O11 0.981268 0.599247 0.250000
O O12 0.924022 0.606513 0.012519
O O13 0.000000 0.500000 0.000000
O O14 0.872458 0.955010 0.750000
O O15 0.824381 0.918891 0.490242
O O16 0.790698 0.750000 0.500000
O O17 0.776715 0.849442 0.250000
O O18 0.725066 0.879187 0.503290
O O19 0.330320 0.349327 0.750000
O O20 0.341759 0.250000 0.000000
#
# Coordination Sequence:
#
# PCOD9435357 Si02
#       7
#     8   8   8   8   8   8   8
#     4  10  20  34  53  78 108 143 181 219 261 308
#     4  10  20  33  51  77 110 146 182 220 261 306
#     4  10  19  32  49  73 101 134 171 208 250 300
#     4   8  16  29  46  67  94 125 160 199 244 295
#     4  10  19  34  53  75 102 133 167 209 256 304
#     4  11  22  37  55  77 103 133 169 211 258 308
#     4  11  21  35  55  79 106 136 172 214 259 308
#
# _framework density 17.012573
#
# number of rings (size 3 to 8) (size 9 to 14) (size 15 to 20)
#    0.000    2.000    0.000    5.571    0.000    4.571 
#    0.000    1.429    0.000    0.857    0.000    6.000 
#    0.000    0.000    0.000    0.000    0.000    0.000 
#
# Total GULP energy -312237.861398 kJ/mol
# GULP energy per Si atom -5575.676096 kJ/mol
# Density = 1.697385 g / cm^3
# Si number density = 17.012573 Si / 1000 Ang^3
#
#
#
# Elastic Constant Matrix: (Units=GPa)
#
#
# Indices 1 2 3 4 5 6 
#
# 1 123.2031 84.2412 49.0191 0.0000 0.0000 0.0000
# 2 84.2412 126.5282 49.7401 0.0000 0.0000 0.0000
# 3 49.0191 49.7401 77.8090 0.0000 0.0000 0.0000
# 4 0.0000 0.0000 0.0000 27.2725 0.0000 0.0000
# 5 0.0000 0.0000 0.0000 0.0000 24.0481 0.0000
# 6 0.0000 0.0000 0.0000 0.0000 0.0000 22.9073
#
#
#
# Elastic Compliance Matrix: (Units=1/GPa)
#
#
# Indices 1 2 3 4 5 6 
#
# 1 0.015930 -0.008896 -0.004349 0.000000 0.000000 0.000000
# 2 -0.008896 0.015525 -0.004320 0.000000 0.000000 0.000000
# 3 -0.004349 -0.004320 0.018353 0.000000 0.000000 0.000000
# 4 0.000000 0.000000 0.000000 0.036667 0.000000 0.000000
# 5 0.000000 0.000000 0.000000 0.000000 0.041583 0.000000
# 6 0.000000 0.000000 0.000000 0.000000 0.000000 0.043654
#
#
# Mechanical properties :
#
#
# Convention : Reuss Voigt Hill
#
# Bulk Modulus (GPa) = 68.12819 77.06013 72.59416
# Shear Modulus (GPa) = 23.61456 24.48157 24.04806
#
# Velocity S-wave (km/s) = 3.72972 3.79757 3.76380
# Velocity P-wave (km/s) = 7.66032 8.03884 7.85186
#
# Compressibility (1/GPa) = 0.01467821
#
# Stress axis : x y z
#
# Youngs Moduli (GPa) = 62.77500 64.41379 54.48738
#
# Poissons Ratio (x) = 0.57306 0.23694
# Poissons Ratio (y) = 0.55848 0.23536
# Poissons Ratio (z) = 0.27298 0.27824
#
# Static dielectric constant tensor:
#      x y z
#    x 1.579980 0.000000 0.000000 
#    y 0.000000 1.575470 0.000000 
#    z 0.000000 0.000000 1.567870 
# 
# From -- ./inp_files/8129.got.cif
#   From: 2010.05.17/outbox.cif.g08.bks.cpg/sg57_5_cif.got.tgz:8129.got - 2010.06.03 13:58:18.
