data_PCOD9435921
_publ_section_title
;
Structure prediction by ZEFSAII (Michael W. Deem and Ramdas Pophale) SiO2 
 PCOD9435921
Probable space group: P B C M
;
_chemical_formula_sum "Si O2"
_cell_formula_units_Z 56
_cell_length_a 20.445888
_cell_length_b 5.184474
_cell_length_c 31.781458
_cell_angle_alpha 90.000000
_cell_angle_beta 90.000000
_cell_angle_gamma 90.000000
_cell_volume 3368.871883
_symmetry_space_group_name_H-M "P B C M"
_symmetry_group_IT_number 57
_symmetry_cell_setting 'orthorhombic'
loop_
_space_group_symop_operation_xyz
x,y,z
-x,-y,1/2+z
x,1/2-y,-z
-x,1/2+y,1/2-z
-x,-y,-z
x,y,1/2-z
-x,1/2+y,z
x,1/2-y,1/2+z
loop_
_atom_site_type_symbol
_atom_site_label
_atom_site_fract_x
_atom_site_fract_y
_atom_site_fract_z
Si Si1 0.752529 0.207036 0.656461
Si Si2 0.455544 0.142779 0.831001
Si Si3 0.325233 0.203290 0.626194
Si Si4 0.974317 0.050387 0.951868
Si Si5 0.246448 0.155811 0.954137
Si Si6 0.362846 0.136110 0.750000
Si Si7 0.170988 0.657925 0.572868
Si Si8 0.271346 0.864127 0.250000
O O1 0.713543 0.475353 0.650600
O O2 0.812016 0.204000 0.622473
O O3 0.767167 0.166106 0.705842
O O4 0.703815 0.975272 0.642357
O O5 0.508572 0.369218 0.831647
O O6 0.402057 0.179015 0.867271
O O7 0.410163 0.162301 0.789808
O O8 0.306030 0.164364 0.577961
O O9 0.978025 0.765483 0.932741
O O10 0.902725 0.165045 0.944350
O O11 0.000000 0.000000 0.000000
O O12 0.195946 0.371563 0.937432
O O13 0.212577 0.877114 0.951190
O O14 0.264936 0.250000 0.000000
O O15 0.309217 0.363209 0.750000
O O16 0.326175 0.861799 0.750000
#
# Coordination Sequence:
#
# PCOD9435921 Si02
#       8
#     8   8   8   8   8   4   8   4
#     4  10  19  34  53  73 100 137 169 218 256 302
#     4  12  22  34  50  72 103 140 169 206 259 323
#     4  10  20  37  49  73 102 132 172 214 266 303
#     4  10  21  32  48  73 108 146 165 198 240 306
#     4  10  21  33  57  75  99 134 171 224 258 300
#     4  12  22  33  50  74 110 129 176 204 254 334
#     4  10  21  34  51  78 107 134 179 205 250 308
#     4  12  18  33  56  74 102 139 162 218 268 300
#
# _framework density 16.622776000000002
#
# number of rings (size 3 to 8) (size 9 to 14) (size 15 to 20)
#    0.000    1.429    2.857    3.429    6.000    0.000 
#    0.000    0.000    0.000    0.857    0.000    1.000 
#    0.000    0.000    0.000    0.000    0.000    0.000 
#
# Total GULP energy -312186.406824 kJ/mol
# GULP energy per Si atom -5574.757265 kJ/mol
# Density = 1.658494 g / cm^3
# Si number density = 16.622776 Si / 1000 Ang^3
#
#
#
# Elastic Constant Matrix: (Units=GPa)
#
#
# Indices 1 2 3 4 5 6 
#
# 1 54.2723 0.3475 34.4995 0.0000 0.0000 0.0000
# 2 0.3475 73.9366 -12.3483 0.0000 0.0000 0.0000
# 3 34.4995 -12.3483 98.2225 0.0000 0.0000 0.0000
# 4 0.0000 0.0000 0.0000 15.2312 0.0000 0.0000
# 5 0.0000 0.0000 0.0000 0.0000 22.1158 0.0000
# 6 0.0000 0.0000 0.0000 0.0000 0.0000 20.9344
#
#
#
# Elastic Compliance Matrix: (Units=1/GPa)
#
#
# Indices 1 2 3 4 5 6 
#
# 1 0.023894 -0.001546 -0.008587 0.000000 0.000000 0.000000
# 2 -0.001546 0.013915 0.002293 0.000000 0.000000 0.000000
# 3 -0.008587 0.002293 0.013485 0.000000 0.000000 0.000000
# 4 0.000000 0.000000 0.000000 0.065655 0.000000 0.000000
# 5 0.000000 0.000000 0.000000 0.000000 0.045216 0.000000
# 6 0.000000 0.000000 0.000000 0.000000 0.000000 0.047768
#
#
# Mechanical properties :
#
#
# Convention : Reuss Voigt Hill
#
# Bulk Modulus (GPa) = 28.07970 30.15879 29.11925
# Shear Modulus (GPa) = 21.05384 25.25180 23.15282
#
# Velocity S-wave (km/s) = 3.56275 3.90180 3.73612
# Velocity P-wave (km/s) = 5.81835 6.20332 6.01392
#
# Compressibility (1/GPa) = 0.03561291
#
# Stress axis : x y z
#
# Youngs Moduli (GPa) = 41.85152 71.86364 74.15520
#
# Poissons Ratio (x) = 0.11113 0.63676
# Poissons Ratio (y) = 0.06472 -0.17000
# Poissons Ratio (z) = 0.35938 -0.16475
#
# Static dielectric constant tensor:
#      x y z
#    x 1.547570 0.000000 0.000000 
#    y 0.000000 1.618450 0.000000 
#    z 0.000000 0.000000 1.644090 
# 
# From -- ./inp_files/28913.got.cif
#   From: 2010.05.17/outbox.cif.g08.bks.cpg/sg57_15_cif.got.tgz:28913.got - 2010.06.03 13:58:18.
