data_PCOD9435086
_publ_section_title
;
Structure prediction by ZEFSAII (Michael W. Deem and Ramdas Pophale) SiO2 
 PCOD9435086
Probable space group: P B C M
;
_chemical_formula_sum "Si O2"
_cell_formula_units_Z 64
_cell_length_a 22.303425
_cell_length_b 20.061799
_cell_length_c 9.303131
_cell_angle_alpha 90.000000
_cell_angle_beta 90.000000
_cell_angle_gamma 90.000000
_cell_volume 4162.656469
_symmetry_space_group_name_H-M "P B C M"
_symmetry_group_IT_number 57
_symmetry_cell_setting 'orthorhombic'
loop_
_space_group_symop_operation_xyz
x,y,z
-x,-y,1/2+z
x,1/2-y,-z
-x,1/2+y,1/2-z
-x,-y,-z
x,y,1/2-z
-x,1/2+y,z
x,1/2-y,1/2+z
loop_
_atom_site_type_symbol
_atom_site_label
_atom_site_fract_x
_atom_site_fract_y
_atom_site_fract_z
Si Si1 0.554823 0.037262 0.577256
Si Si2 0.022992 0.405511 0.579052
Si Si3 0.091596 0.524698 0.420397
Si Si4 0.476347 0.683322 0.580248
Si Si5 0.667793 0.945481 0.578860
Si Si6 0.805863 0.959293 0.921534
Si Si7 0.132345 0.318512 0.920632
Si Si8 0.619727 0.817360 0.419930
O O1 0.544779 0.035025 0.750000
O O2 0.554341 0.114672 0.533338
O O3 0.500000 0.000000 0.500000
O O4 0.617252 0.000489 0.546465
O O5 0.031296 0.421700 0.750000
O O6 0.053826 0.461999 0.481784
O O7 0.062642 0.339811 0.553520
O O8 0.951859 0.411784 0.551525
O O9 0.099870 0.519053 0.250000
O O10 0.154330 0.515033 0.500260
O O11 0.456964 0.750000 0.500000
O O12 0.467030 0.692068 0.750000
O O13 0.547977 0.674612 0.557041
O O14 0.664042 0.930682 0.750000
O O15 0.735717 0.966566 0.548003
O O16 0.651995 0.880054 0.489471
O O17 0.815525 0.964277 0.750000
O O18 0.829087 0.884483 0.962842
O O19 0.140650 0.309342 0.750000
O O20 0.147439 0.250000 0.000000
O O21 0.638413 0.750000 0.500000
O O22 0.630322 0.812673 0.250000
#
# Coordination Sequence:
#
# PCOD9435086 Si02
#       8
#     8   8   8   8   8   8   8   8
#     4  10  19  32  50  72  95 119 153 198 248 293
#     4   8  15  27  42  62  88 114 140 180 227 262
#     4   9  15  25  44  66  84 108 144 182 222 263
#     4   9  18  31  47  69  93 117 146 185 235 290
#     4  10  20  33  49  67  91 126 163 198 242 293
#     4   9  19  33  44  60  90 124 154 187 229 273
#     4   9  17  29  43  60  88 121 152 184 216 254
#     4  10  19  31  46  65  92 122 156 195 235 283
#
# _framework density 15.374796999999999
#
# number of rings (size 3 to 8) (size 9 to 14) (size 15 to 20)
#    0.000    2.750    1.250    1.500    0.000    4.500 
#    0.000    1.250    0.000    0.000    0.000    0.875 
#    0.000    6.000    0.000    0.000    0.000    0.000 
#
# Total GULP energy -356293.326053 kJ/mol
# GULP energy per Si atom -5567.083220 kJ/mol
# Density = 1.533980 g / cm^3
# Si number density = 15.374797 Si / 1000 Ang^3
#
#
#
# Elastic Constant Matrix: (Units=GPa)
#
#
# Indices 1 2 3 4 5 6 
#
# 1 104.0368 49.3438 42.9751 0.0000 0.0000 0.0000
# 2 49.3438 59.0497 24.4918 0.0000 0.0000 0.0000
# 3 42.9751 24.4918 27.3450 0.0000 0.0000 0.0000
# 4 0.0000 0.0000 0.0000 22.5972 0.0000 0.0000
# 5 0.0000 0.0000 0.0000 0.0000 18.3212 0.0000
# 6 0.0000 0.0000 0.0000 0.0000 0.0000 14.3567
#
#
#
# Elastic Compliance Matrix: (Units=1/GPa)
#
#
# Indices 1 2 3 4 5 6 
#
# 1 0.030008 -0.008775 -0.039301 0.000000 0.000000 0.000000
# 2 -0.008775 0.029511 -0.012640 0.000000 0.000000 0.000000
# 3 -0.039301 -0.012640 0.109657 0.000000 0.000000 0.000000
# 4 0.000000 0.000000 0.000000 0.044253 0.000000 0.000000
# 5 0.000000 0.000000 0.000000 0.000000 0.054581 0.000000
# 6 0.000000 0.000000 0.000000 0.000000 0.000000 0.069654
#
#
# Mechanical properties :
#
#
# Convention : Reuss Voigt Hill
#
# Bulk Modulus (GPa) = 20.94590 47.11698 34.03144
# Shear Modulus (GPa) = 10.52603 15.96308 13.24455
#
# Velocity S-wave (km/s) = 2.61938 3.22570 2.93822
# Velocity P-wave (km/s) = 4.77507 6.67725 5.80461
#
# Compressibility (1/GPa) = 0.04774203
#
# Stress axis : x y z
#
# Youngs Moduli (GPa) = 33.32392 33.88622 9.11934
#
# Poissons Ratio (x) = 0.29736 0.35840
# Poissons Ratio (y) = 0.29242 0.11527
# Poissons Ratio (z) = 1.30968 0.42833
#
# Static dielectric constant tensor:
#      x y z
#    x 1.537560 0.000000 0.000000 
#    y 0.000000 1.499240 0.000000 
#    z 0.000000 0.000000 1.512440 
# 
# From -- ./inp_files/9558.got.cif
#   From: 2010.05.17/outbox.cif.g08.bks.cpg/sg57_5_cif.got.tgz:9558.got - 2010.06.03 13:58:18.
