data_PCOD9435015
_publ_section_title
;
Structure prediction by ZEFSAII (Michael W. Deem and Ramdas Pophale) SiO2 
 PCOD9435015
Probable space group: P B C M
;
_chemical_formula_sum "Si O2"
_cell_formula_units_Z 64
_cell_length_a 16.398979
_cell_length_b 24.952745
_cell_length_c 9.101462
_cell_angle_alpha 90.000000
_cell_angle_beta 90.000000
_cell_angle_gamma 90.000000
_cell_volume 3724.314075
_symmetry_space_group_name_H-M "P B C M"
_symmetry_group_IT_number 57
_symmetry_cell_setting 'orthorhombic'
loop_
_space_group_symop_operation_xyz
x,y,z
-x,-y,1/2+z
x,1/2-y,-z
-x,1/2+y,1/2-z
-x,-y,-z
x,y,1/2-z
-x,1/2+y,z
x,1/2-y,1/2+z
loop_
_atom_site_type_symbol
_atom_site_label
_atom_site_fract_x
_atom_site_fract_y
_atom_site_fract_z
Si Si1 0.102790 0.384962 0.419428
Si Si2 0.358601 0.108353 0.425104
Si Si3 0.257273 0.304985 0.419483
Si Si4 0.771175 0.529248 0.928013
Si Si5 0.791929 0.305419 0.925828
Si Si6 0.985178 0.305876 0.924030
Si Si7 0.708495 0.414720 0.928554
Si Si8 0.473439 0.944774 0.574241
O O1 0.075773 0.390089 0.250000
O O2 0.178707 0.343573 0.423206
O O3 0.144350 0.440910 0.468317
O O4 0.033492 0.356982 0.514734
O O5 0.344989 0.108505 0.250000
O O6 0.328026 0.163180 0.496565
O O7 0.302943 0.061837 0.497856
O O8 0.453226 0.096459 0.453924
O O9 0.238612 0.250000 0.500000
O O10 0.278719 0.295816 0.250000
O O11 0.763265 0.534526 0.750000
O O12 0.761864 0.467032 0.968090
O O13 0.781582 0.300939 0.750000
O O14 0.888729 0.312040 0.953733
O O15 0.744968 0.358324 0.979364
O O16 0.765217 0.250000 0.000000
O O17 0.997862 0.300991 0.750000
O O18 0.012015 0.250000 0.000000
O O19 0.708394 0.412760 0.750000
O O20 0.615440 0.425322 0.976132
O O21 0.468721 0.953250 0.750000
O O22 0.500000 0.000000 0.500000
#
# Coordination Sequence:
#
# PCOD9435015 Si02
#       8
#     8   8   8   8   8   8   8   8
#     4   9  18  30  47  73 100 128 165 204 245 294
#     4  10  19  30  46  73 104 131 163 207 250 292
#     4  10  20  33  49  69  97 136 173 205 246 300
#     4   9  17  31  51  72  98 135 170 200 243 301
#     4   9  19  36  56  76  98 129 169 209 252 300
#     4  10  19  31  50  73  97 128 167 211 253 295
#     4   9  17  33  56  76  99 133 169 205 249 304
#     4  10  19  31  52  78 102 129 165 208 248 294
#
# _framework density 17.184373000000001
#
# number of rings (size 3 to 8) (size 9 to 14) (size 15 to 20)
#    0.000    2.500    1.250    2.250    0.000    4.500 
#    0.000    2.500    0.000    1.500    0.000    0.000 
#    0.000    0.000    0.000    0.000    0.000    0.000 
#
# Total GULP energy -356786.277093 kJ/mol
# GULP energy per Si atom -5574.785580 kJ/mol
# Density = 1.714526 g / cm^3
# Si number density = 17.184373 Si / 1000 Ang^3
#
#
#
# Elastic Constant Matrix: (Units=GPa)
#
#
# Indices 1 2 3 4 5 6 
#
# 1 67.6212 50.1153 29.4811 0.0000 0.0000 0.0000
# 2 50.1153 114.7055 28.7363 0.0000 0.0000 0.0000
# 3 29.4811 28.7363 33.1300 0.0000 0.0000 0.0000
# 4 0.0000 0.0000 0.0000 26.0171 0.0000 0.0000
# 5 0.0000 0.0000 0.0000 0.0000 18.4056 0.0000
# 6 0.0000 0.0000 0.0000 0.0000 0.0000 27.4189
#
#
#
# Elastic Compliance Matrix: (Units=1/GPa)
#
#
# Indices 1 2 3 4 5 6 
#
# 1 0.028837 -0.007883 -0.018823 0.000000 0.000000 0.000000
# 2 -0.007883 0.013293 -0.004515 0.000000 0.000000 0.000000
# 3 -0.018823 -0.004515 0.050851 0.000000 0.000000 0.000000
# 4 0.000000 0.000000 0.000000 0.038436 0.000000 0.000000
# 5 0.000000 0.000000 0.000000 0.000000 0.054331 0.000000
# 6 0.000000 0.000000 0.000000 0.000000 0.000000 0.036471
#
#
# Mechanical properties :
#
#
# Convention : Reuss Voigt Hill
#
# Bulk Modulus (GPa) = 32.74668 48.01355 40.38012
# Shear Modulus (GPa) = 16.95817 21.50991 19.23404
#
# Velocity S-wave (km/s) = 3.14480 3.54179 3.34919
# Velocity P-wave (km/s) = 5.68189 6.68780 6.20526
#
# Compressibility (1/GPa) = 0.03053745
#
# Stress axis : x y z
#
# Youngs Moduli (GPa) = 34.67737 75.22479 19.66546
#
# Poissons Ratio (x) = 0.59303 0.37017
# Poissons Ratio (y) = 0.27338 0.08880
# Poissons Ratio (z) = 0.65274 0.33966
#
# Static dielectric constant tensor:
#      x y z
#    x 1.582980 0.000000 0.000000 
#    y 0.000000 1.581280 0.000000 
#    z 0.000000 0.000000 1.580390 
# 
# From -- ./inp_files/5589.got.cif
#   From: 2010.05.17/outbox.cif.g08.bks.cpg/sg57_3_cif.got.tgz:5589.got - 2010.06.03 13:58:18.
