data_PCOD9435814
_publ_section_title
;
Structure prediction by ZEFSAII (Michael W. Deem and Ramdas Pophale) SiO2 
 PCOD9435814
Probable space group: P B C M
;
_chemical_formula_sum "Si O2"
_cell_formula_units_Z 56
_cell_length_a 21.834937
_cell_length_b 14.922627
_cell_length_c 8.587010
_cell_angle_alpha 90.000000
_cell_angle_beta 90.000000
_cell_angle_gamma 90.000000
_cell_volume 2797.945144
_symmetry_space_group_name_H-M "P B C M"
_symmetry_group_IT_number 57
_symmetry_cell_setting 'orthorhombic'
loop_
_space_group_symop_operation_xyz
x,y,z
-x,-y,1/2+z
x,1/2-y,-z
-x,1/2+y,1/2-z
-x,-y,-z
x,y,1/2-z
-x,1/2+y,z
x,1/2-y,1/2+z
loop_
_atom_site_type_symbol
_atom_site_label
_atom_site_fract_x
_atom_site_fract_y
_atom_site_fract_z
Si Si1 0.364067 0.469164 0.564650
Si Si2 0.530743 0.653859 0.936432
Si Si3 0.032748 0.152739 0.937515
Si Si4 0.889514 0.154970 0.936659
Si Si5 0.140896 0.460564 0.936878
Si Si6 0.607544 0.154818 0.064271
Si Si7 0.253937 0.350379 0.435115
O O1 0.368250 0.473882 0.750000
O O2 0.425765 0.424462 0.497261
O O3 0.356494 0.568427 0.495782
O O4 0.308826 0.405789 0.512694
O O5 0.529864 0.655183 0.750000
O O6 0.554063 0.750000 0.000000
O O7 0.461867 0.644281 0.999943
O O8 0.037917 0.149270 0.750000
O O9 0.961218 0.144389 0.981775
O O10 0.053601 0.250000 0.000000
O O11 0.074717 0.077751 0.015238
O O12 0.888022 0.158781 0.750000
O O13 0.855069 0.064705 0.985209
O O14 0.866967 0.250000 0.000000
O O15 0.148047 0.454590 0.750000
O O16 0.191333 0.400214 0.019917
O O17 0.605763 0.157189 0.250000
O O18 0.630699 0.250000 0.000000
O O19 0.252984 0.250000 0.500000
O O20 0.262247 0.348585 0.250000
#
# Coordination Sequence:
#
# PCOD9435814 Si02
#       7
#     8   8   8   8   8   8   8
#     4  12  24  41  62  87 118 156 197 243 293 348
#     4  11  21  36  58  89 124 160 198 242 293 350
#     4  10  19  33  54  84 117 153 190 234 286 343
#     4   9  20  36  57  84 117 151 190 235 286 340
#     4  11  22  38  58  84 115 152 193 239 288 342
#     4  11  22  39  61  90 123 158 197 242 292 346
#     4  12  26  45  65  88 115 150 192 239 289 345
#
# _framework density 20.014689000000001
#
# number of rings (size 3 to 8) (size 9 to 14) (size 15 to 20)
#    0.000    1.143    0.000    8.571    0.000    1.714 
#    0.000    0.714    0.000    1.714    0.000    0.000 
#    0.000    0.000    0.000    0.000    0.000    0.000 
#
# Total GULP energy -313316.174274 kJ/mol
# GULP energy per Si atom -5594.931683 kJ/mol
# Density = 1.996913 g / cm^3
# Si number density = 20.014689 Si / 1000 Ang^3
#
#
#
# Elastic Constant Matrix: (Units=GPa)
#
#
# Indices 1 2 3 4 5 6 
#
# 1 29.9760 37.8901 15.0261 0.0000 0.0000 0.0000
# 2 37.8901 187.5831 51.9377 0.0000 0.0000 0.0000
# 3 15.0261 51.9377 146.6328 0.0000 0.0000 0.0000
# 4 0.0000 0.0000 0.0000 35.0595 0.0000 0.0000
# 5 0.0000 0.0000 0.0000 0.0000 28.1806 0.0000
# 6 0.0000 0.0000 0.0000 0.0000 0.0000 43.8101
#
#
#
# Elastic Compliance Matrix: (Units=1/GPa)
#
#
# Indices 1 2 3 4 5 6 
#
# 1 0.045112 -0.008684 -0.001547 0.000000 0.000000 0.000000
# 2 -0.008684 0.007582 -0.001796 0.000000 0.000000 0.000000
# 3 -0.001547 -0.001796 0.007614 0.000000 0.000000 0.000000
# 4 0.000000 0.000000 0.000000 0.028523 0.000000 0.000000
# 5 0.000000 0.000000 0.000000 0.000000 0.035485 0.000000
# 6 0.000000 0.000000 0.000000 0.000000 0.000000 0.022826
#
#
# Mechanical properties :
#
#
# Convention : Reuss Voigt Hill
#
# Bulk Modulus (GPa) = 27.58213 63.76664 45.67439
# Shear Modulus (GPa) = 27.28048 38.69925 32.98986
#
# Velocity S-wave (km/s) = 3.69592 4.40198 4.06431
# Velocity P-wave (km/s) = 5.65897 7.60037 6.70036
#
# Compressibility (1/GPa) = 0.03625535
#
# Stress axis : x y z
#
# Youngs Moduli (GPa) = 22.16702 131.88691 131.33105
#
# Poissons Ratio (x) = 1.14529 0.20317
# Poissons Ratio (y) = 0.19250 0.23584
# Poissons Ratio (z) = 0.03429 0.23684
#
# Static dielectric constant tensor:
#      x y z
#    x 1.706790 0.000000 0.000000 
#    y 0.000000 1.715780 0.000000 
#    z 0.000000 0.000000 1.667070 
# 
# From -- ./inp_files/8098.got.cif
#   From: 2010.05.17/outbox.cif.g08.bks.cpg/sg57_5_cif.got.tgz:8098.got - 2010.06.03 13:58:18.
