data_PCOD9435527
_publ_section_title
;
Structure prediction by ZEFSAII (Michael W. Deem and Ramdas Pophale) SiO2 
 PCOD9435527
Probable space group: P B C M
;
_chemical_formula_sum "Si O2"
_cell_formula_units_Z 40
_cell_length_a 5.103836
_cell_length_b 33.976792
_cell_length_c 11.254196
_cell_angle_alpha 90.000000
_cell_angle_beta 90.000000
_cell_angle_gamma 90.000000
_cell_volume 1951.612346
_symmetry_space_group_name_H-M "P B C M"
_symmetry_group_IT_number 57
_symmetry_cell_setting 'orthorhombic'
loop_
_space_group_symop_operation_xyz
x,y,z
-x,-y,1/2+z
x,1/2-y,-z
-x,1/2+y,1/2-z
-x,-y,-z
x,y,1/2-z
-x,1/2+y,z
x,1/2-y,1/2+z
loop_
_atom_site_type_symbol
_atom_site_label
_atom_site_fract_x
_atom_site_fract_y
_atom_site_fract_z
Si Si1 0.359180 0.221434 0.387025
Si Si2 0.540866 0.557333 0.121029
Si Si3 0.044219 0.912328 0.997341
Si Si4 0.866426 0.014676 0.621586
Si Si5 0.858853 0.167556 0.114477
O O1 0.397783 0.250000 0.500000
O O2 0.384797 0.237709 0.250000
O O3 0.574221 0.186838 0.396120
O O4 0.073839 0.201782 0.396757
O O5 0.622013 0.572378 0.250000
O O6 0.244392 0.568946 0.098946
O O7 0.598170 0.510552 0.120362
O O8 0.742612 0.577312 0.029661
O O9 0.089744 0.866252 0.982001
O O10 0.137568 0.938226 0.109405
O O11 0.988938 0.004982 0.750000
O O12 0.000000 0.000000 0.500000
O O13 0.886071 0.151517 0.250000
#
# Coordination Sequence:
#
# PCOD9435527 Si02
#       5
#     8   8   8   8   8
#     4  10  21  39  61  86 113 144 181 223 271 335
#     4  10  19  32  53  78 108 147 190 231 275 322
#     4  11  20  34  53  81 112 145 185 235 280 324
#     4   9  20  37  56  81 112 152 197 240 283 331
#     4  10  20  34  57  86 114 144 183 227 275 330
#
# _framework density 20.495875000000002
#
# number of rings (size 3 to 8) (size 9 to 14) (size 15 to 20)
#    0.000    2.000    0.000    4.200    0.000    3.200 
#    0.000   10.000    0.000    0.000    0.000    0.000 
#    0.000    0.000    0.000    0.000    0.000    0.000 
#
# Total GULP energy -222744.592577 kJ/mol
# GULP energy per Si atom -5568.614814 kJ/mol
# Density = 2.044923 g / cm^3
# Si number density = 20.495875 Si / 1000 Ang^3
#
#
#
# Elastic Constant Matrix: (Units=GPa)
#
#
# Indices 1 2 3 4 5 6 
#
# 1 45.6780 -9.6899 1.5456 0.0000 0.0000 0.0000
# 2 -9.6899 61.0153 38.1563 0.0000 0.0000 0.0000
# 3 1.5456 38.1563 113.3418 0.0000 0.0000 0.0000
# 4 0.0000 0.0000 0.0000 33.0056 0.0000 0.0000
# 5 0.0000 0.0000 0.0000 0.0000 21.4816 0.0000
# 6 0.0000 0.0000 0.0000 0.0000 0.0000 25.7078
#
#
#
# Elastic Compliance Matrix: (Units=1/GPa)
#
#
# Indices 1 2 3 4 5 6 
#
# 1 0.022992 0.004874 -0.001954 0.000000 0.000000 0.000000
# 2 0.004874 0.021793 -0.007403 0.000000 0.000000 0.000000
# 3 -0.001954 -0.007403 0.011342 0.000000 0.000000 0.000000
# 4 0.000000 0.000000 0.000000 0.030298 0.000000 0.000000
# 5 0.000000 0.000000 0.000000 0.000000 0.046551 0.000000
# 6 0.000000 0.000000 0.000000 0.000000 0.000000 0.038899
#
#
# Mechanical properties :
#
#
# Convention : Reuss Voigt Hill
#
# Bulk Modulus (GPa) = 21.20461 31.11767 26.16114
# Shear Modulus (GPa) = 25.43728 28.70723 27.07225
#
# Velocity S-wave (km/s) = 3.52674 3.74657 3.63831
# Velocity P-wave (km/s) = 5.19154 5.82503 5.51739
#
# Compressibility (1/GPa) = 0.04715956
#
# Stress axis : x y z
#
# Youngs Moduli (GPa) = 43.49274 45.88677 88.17012
#
# Poissons Ratio (x) = -0.22363 0.17230
# Poissons Ratio (y) = -0.21196 0.65272
# Poissons Ratio (z) = 0.08499 0.33970
#
# Static dielectric constant tensor:
#      x y z
#    x 1.721500 0.000000 0.000000 
#    y 0.000000 1.793730 0.000000 
#    z 0.000000 0.000000 1.787120 
# 
# From -- ./inp_files/10947.got.cif
#   From: 2010.05.17/outbox.cif.g08.bks.cpg/sg57_6_cif.got.tgz:10947.got - 2010.06.03 13:58:18.
