data_PCOD9435982
_publ_section_title
;
Structure prediction by ZEFSAII (Michael W. Deem and Ramdas Pophale) SiO2 
 PCOD9435982
Probable space group: P B C M
;
_chemical_formula_sum "Si O2"
_cell_formula_units_Z 40
_cell_length_a 27.374392
_cell_length_b 9.185971
_cell_length_c 8.586849
_cell_angle_alpha 90.000000
_cell_angle_beta 90.000000
_cell_angle_gamma 90.000000
_cell_volume 2159.252236
_symmetry_space_group_name_H-M "P B C M"
_symmetry_group_IT_number 57
_symmetry_cell_setting 'orthorhombic'
loop_
_space_group_symop_operation_xyz
x,y,z
-x,-y,1/2+z
x,1/2-y,-z
-x,1/2+y,1/2-z
-x,-y,-z
x,y,1/2-z
-x,1/2+y,z
x,1/2-y,1/2+z
loop_
_atom_site_type_symbol
_atom_site_label
_atom_site_fract_x
_atom_site_fract_y
_atom_site_fract_z
Si Si1 0.753361 0.915128 0.562565
Si Si2 0.953423 0.413086 0.935846
Si Si3 0.860420 0.915593 0.562231
Si Si4 0.453584 0.414604 0.435657
Si Si5 0.352179 0.416469 0.937384
O O1 0.753434 0.750000 0.500000
O O2 0.752983 0.909553 0.750000
O O3 0.806403 0.975861 0.516442
O O4 0.700821 0.981710 0.516084
O O5 0.955021 0.411915 0.750000
O O6 0.954906 0.250000 0.000000
O O7 0.904162 0.491238 0.992989
O O8 0.000000 0.500000 0.000000
O O9 0.864051 0.750000 0.500000
O O10 0.863829 0.913589 0.750000
O O11 0.455928 0.250000 0.500000
O O12 0.500000 0.500000 0.500000
O O13 0.454117 0.411578 0.250000
O O14 0.401853 0.480901 0.493197
O O15 0.355943 0.414443 0.750000
O O16 0.351016 0.250000 0.000000
#
# Coordination Sequence:
#
# PCOD9435982 Si02
#       5
#     8   8   8   8   8
#     4   8  15  26  45  72 104 136 170 210 255 302
#     4  12  25  42  61  83 109 142 179 220 264 312
#     4  10  19  34  55  83 114 145 177 215 259 309
#     4  11  21  34  51  74 102 136 174 218 266 317
#     4   9  15  26  44  70 100 133 170 213 258 306
#
# _framework density 18.524932
#
# number of rings (size 3 to 8) (size 9 to 14) (size 15 to 20)
#    0.000    2.000    0.000    6.600    0.000    1.600 
#    0.000    0.000    0.000    1.200    0.000    5.600 
#    0.000    0.000    0.000    0.000    0.000    0.000 
#
# Total GULP energy -223022.587851 kJ/mol
# GULP energy per Si atom -5575.564696 kJ/mol
# Density = 1.848277 g / cm^3
# Si number density = 18.524932 Si / 1000 Ang^3
#
#
#
# Elastic Constant Matrix: (Units=GPa)
#
#
# Indices 1 2 3 4 5 6 
#
# 1 252.0451 67.7595 79.0323 0.0000 0.0000 0.0000
# 2 67.7595 55.9102 30.7486 0.0000 0.0000 0.0000
# 3 79.0323 30.7486 126.5952 0.0000 0.0000 0.0000
# 4 0.0000 0.0000 0.0000 23.3685 0.0000 0.0000
# 5 0.0000 0.0000 0.0000 0.0000 30.2958 0.0000
# 6 0.0000 0.0000 0.0000 0.0000 0.0000 28.7378
#
#
#
# Elastic Compliance Matrix: (Units=1/GPa)
#
#
# Indices 1 2 3 4 5 6 
#
# 1 0.006493 -0.006509 -0.002472 0.000000 0.000000 0.000000
# 2 -0.006509 0.027169 -0.002536 0.000000 0.000000 0.000000
# 3 -0.002472 -0.002536 0.010059 0.000000 0.000000 0.000000
# 4 0.000000 0.000000 0.000000 0.042793 0.000000 0.000000
# 5 0.000000 0.000000 0.000000 0.000000 0.033008 0.000000
# 6 0.000000 0.000000 0.000000 0.000000 0.000000 0.034797
#
#
# Mechanical properties :
#
#
# Convention : Reuss Voigt Hill
#
# Bulk Modulus (GPa) = 48.34136 87.73681 68.03909
# Shear Modulus (GPa) = 27.13751 33.61441 30.37596
#
# Velocity S-wave (km/s) = 3.83158 4.26437 4.05376
# Velocity P-wave (km/s) = 6.76214 8.46822 7.66281
#
# Compressibility (1/GPa) = 0.02068622
#
# Stress axis : x y z
#
# Youngs Moduli (GPa) = 154.02062 36.80711 99.41835
#
# Poissons Ratio (x) = 0.23958 0.24580
# Poissons Ratio (y) = 1.00251 0.25208
# Poissons Ratio (z) = 0.38079 0.09332
#
# Static dielectric constant tensor:
#      x y z
#    x 1.713750 0.000000 0.000000 
#    y 0.000000 1.600300 0.000000 
#    z 0.000000 0.000000 1.621710 
# 
# From -- ./inp_files/9642.got.cif
#   From: 2010.05.17/outbox.cif.g08.bks.cpg/sg57_5_cif.got.tgz:9642.got - 2010.06.03 13:58:18.
