data_PCOD9435321
_publ_section_title
;
Structure prediction by ZEFSAII (Michael W. Deem and Ramdas Pophale) SiO2 
 PCOD9435321
Probable space group: P B C M
;
_chemical_formula_sum "Si O2"
_cell_formula_units_Z 64
_cell_length_a 16.189438
_cell_length_b 29.320961
_cell_length_c 8.564661
_cell_angle_alpha 90.000000
_cell_angle_beta 90.000000
_cell_angle_gamma 90.000000
_cell_volume 4065.557904
_symmetry_space_group_name_H-M "P B C M"
_symmetry_group_IT_number 57
_symmetry_cell_setting 'orthorhombic'
loop_
_space_group_symop_operation_xyz
x,y,z
-x,-y,1/2+z
x,1/2-y,-z
-x,1/2+y,1/2-z
-x,-y,-z
x,y,1/2-z
-x,1/2+y,z
x,1/2-y,1/2+z
loop_
_atom_site_type_symbol
_atom_site_label
_atom_site_fract_x
_atom_site_fract_y
_atom_site_fract_z
Si Si1 0.597113 0.551229 0.435969
Si Si2 0.596761 0.047424 0.438306
Si Si3 0.342579 0.355871 0.064904
Si Si4 0.663682 0.143625 0.440367
Si Si5 0.499649 0.801260 0.562556
Si Si6 0.813689 0.698117 0.437787
Si Si7 0.005014 0.198374 0.438031
Si Si8 0.175648 0.801807 0.560763
O O1 0.603200 0.555992 0.250000
O O2 0.622213 0.500535 0.487749
O O3 0.499752 0.556032 0.478938
O O4 0.647572 0.591590 0.515505
O O5 0.600695 0.043476 0.250000
O O6 0.648836 0.091427 0.488838
O O7 0.344372 0.351623 0.250000
O O8 0.421111 0.329077 0.995123
O O9 0.259614 0.332878 0.000820
O O10 0.664031 0.143546 0.250000
O O11 0.584423 0.173474 0.488857
O O12 0.748377 0.167063 0.493073
O O13 0.501924 0.750000 0.500000
O O14 0.500709 0.800639 0.750000
O O15 0.804807 0.750000 0.500000
O O16 0.809770 0.699606 0.250000
O O17 0.905103 0.679958 0.486270
O O18 0.004626 0.250000 0.500000
O O19 0.005107 0.198788 0.250000
O O20 0.915293 0.179667 0.487126
O O21 0.184845 0.750000 0.500000
O O22 0.177885 0.800099 0.750000
#
# Coordination Sequence:
#
# PCOD9435321 Si02
#       8
#     8   8   8   8   8   8   8   8
#     4  10  19  33  51  70  92 119 153 197 240 278
#     4   9  17  32  50  69  92 122 156 192 234 278
#     4  12  23  34  48  68  91 123 160 195 234 281
#     4   9  17  30  48  68  95 127 158 190 227 272
#     4  11  21  34  46  64  94 131 164 193 226 268
#     4  10  19  32  48  68  95 125 157 195 234 277
#     4   8  15  27  45  67  91 120 154 191 232 272
#     4   9  16  28  46  69  96 126 158 191 227 270
#
# _framework density 15.741997
#
# number of rings (size 3 to 8) (size 9 to 14) (size 15 to 20)
#    0.000    2.250    1.250    3.000    0.000    1.000 
#    0.000    1.250    0.000    0.000    0.000    0.875 
#    0.000    0.000    0.000    0.000    0.000    0.000 
#
# Total GULP energy -356787.725581 kJ/mol
# GULP energy per Si atom -5574.808212 kJ/mol
# Density = 1.570617 g / cm^3
# Si number density = 15.741997 Si / 1000 Ang^3
#
#
#
# Elastic Constant Matrix: (Units=GPa)
#
#
# Indices 1 2 3 4 5 6 
#
# 1 152.3118 70.6742 30.3043 0.0000 0.0000 0.0000
# 2 70.6742 103.6300 25.1455 0.0000 0.0000 0.0000
# 3 30.3043 25.1455 36.3202 0.0000 0.0000 0.0000
# 4 0.0000 0.0000 0.0000 14.6536 0.0000 0.0000
# 5 0.0000 0.0000 0.0000 0.0000 8.3861 0.0000
# 6 0.0000 0.0000 0.0000 0.0000 0.0000 9.4747
#
#
#
# Elastic Compliance Matrix: (Units=1/GPa)
#
#
# Indices 1 2 3 4 5 6 
#
# 1 0.010164 -0.005858 -0.004425 0.000000 0.000000 0.000000
# 2 -0.005858 0.014974 -0.005479 0.000000 0.000000 0.000000
# 3 -0.004425 -0.005479 0.035018 0.000000 0.000000 0.000000
# 4 0.000000 0.000000 0.000000 0.068243 0.000000 0.000000
# 5 0.000000 0.000000 0.000000 0.000000 0.119245 0.000000
# 6 0.000000 0.000000 0.000000 0.000000 0.000000 0.105545
#
#
# Mechanical properties :
#
#
# Convention : Reuss Voigt Hill
#
# Bulk Modulus (GPa) = 34.92578 60.50110 47.71344
# Shear Modulus (GPa) = 12.68208 17.57875 15.13042
#
# Velocity S-wave (km/s) = 2.84143 3.34530 3.10360
# Velocity P-wave (km/s) = 5.74452 7.31011 6.57409
#
# Compressibility (1/GPa) = 0.02863215
#
# Stress axis : x y z
#
# Youngs Moduli (GPa) = 98.38594 66.78056 28.55650
#
# Poissons Ratio (x) = 0.39121 0.12636
# Poissons Ratio (y) = 0.57635 0.15647
# Poissons Ratio (z) = 0.43534 0.36592
#
# Static dielectric constant tensor:
#      x y z
#    x 1.549080 0.000000 0.000000 
#    y 0.000000 1.496890 0.000000 
#    z 0.000000 0.000000 1.540830 
# 
# From -- ./inp_files/6082.got.cif
#   From: 2010.05.17/outbox.cif.g08.bks.cpg/sg57_4_cif.got.tgz:6082.got - 2010.06.03 13:58:18.
