data_PCOD9435574
_publ_section_title
;
Structure prediction by ZEFSAII (Michael W. Deem and Ramdas Pophale) SiO2 
 PCOD9435574
Probable space group: P B C M
;
_chemical_formula_sum "Si O2"
_cell_formula_units_Z 60
_cell_length_a 12.777162
_cell_length_b 28.990383
_cell_length_c 7.547259
_cell_angle_alpha 90.000000
_cell_angle_beta 90.000000
_cell_angle_gamma 90.000000
_cell_volume 2795.616584
_symmetry_space_group_name_H-M "P B C M"
_symmetry_group_IT_number 57
_symmetry_cell_setting 'orthorhombic'
loop_
_space_group_symop_operation_xyz
x,y,z
-x,-y,1/2+z
x,1/2-y,-z
-x,1/2+y,1/2-z
-x,-y,-z
x,y,1/2-z
-x,1/2+y,z
x,1/2-y,1/2+z
loop_
_atom_site_type_symbol
_atom_site_label
_atom_site_fract_x
_atom_site_fract_y
_atom_site_fract_z
Si Si1 0.693840 0.197062 0.461195
Si Si2 0.838708 0.932184 0.458551
Si Si3 0.569277 0.455119 0.461572
Si Si4 0.114148 0.634426 0.952625
Si Si5 0.029879 0.125932 0.250000
Si Si6 0.615346 0.897111 0.455637
Si Si7 0.455467 0.197989 0.459924
Si Si8 0.193436 0.534906 0.535374
O O1 0.724386 0.250000 0.500000
O O2 0.692599 0.190351 0.250000
O O3 0.775438 0.161156 0.540398
O O4 0.574440 0.191859 0.529768
O O5 0.848424 0.918779 0.250000
O O6 0.910728 0.904134 0.592233
O O7 0.719246 0.921771 0.523009
O O8 0.854886 0.987166 0.469997
O O9 0.500000 0.500000 0.500000
O O10 0.582529 0.449596 0.250000
O O11 0.495488 0.414175 0.532990
O O12 0.686592 0.460532 0.530696
O O13 0.078066 0.633886 0.750000
O O14 0.134879 0.581691 0.016956
O O15 0.034506 0.654359 0.093843
O O16 0.611858 0.910258 0.250000
O O17 0.618433 0.842241 0.470348
O O18 0.421859 0.250000 0.500000
O O19 0.459054 0.192913 0.250000
O O20 0.192673 0.533506 0.750000
#
# Coordination Sequence:
#
# PCOD9435574 Si02
#       8
#     8   8   8   8   4   8   8   8
#     4  10  20  38  64 100 135 166 201 248 316 386
#     4  11  24  41  63  89 121 168 220 265 320 372
#     4  10  19  32  54  84 123 161 199 244 295 363
#     4  11  24  43  65  94 123 164 209 268 326 376
#     4  12  26  46  64  86 122 158 218 276 318 376
#     4  10  21  37  58  89 123 168 211 254 306 369
#     4  10  21  35  60  96 132 167 202 243 302 379
#     4  10  21  38  58  88 129 165 209 260 313 376
#
# _framework density 21.462171999999999
#
# number of rings (size 3 to 8) (size 9 to 14) (size 15 to 20)
#    0.000    1.600    2.667    2.000    1.867    3.733 
#    0.000    0.000    0.000    0.800    3.467    0.000 
#    0.000    0.000    0.000    0.000    0.000    0.000 
#
# Total GULP energy -334204.048161 kJ/mol
# GULP energy per Si atom -5570.067469 kJ/mol
# Density = 2.141332 g / cm^3
# Si number density = 21.462172 Si / 1000 Ang^3
#
#
#
# Elastic Constant Matrix: (Units=GPa)
#
#
# Indices 1 2 3 4 5 6 
#
# 1 26.6748 -10.8849 10.2078 0.0000 0.0000 0.0000
# 2 -10.8849 52.9742 -14.3427 0.0000 0.0000 0.0000
# 3 10.2078 -14.3427 102.4990 0.0000 0.0000 0.0000
# 4 0.0000 0.0000 0.0000 27.0227 0.0000 0.0000
# 5 0.0000 0.0000 0.0000 0.0000 19.3196 0.0000
# 6 0.0000 0.0000 0.0000 0.0000 0.0000 25.2481
#
#
#
# Elastic Compliance Matrix: (Units=1/GPa)
#
#
# Indices 1 2 3 4 5 6 
#
# 1 0.041835 0.007762 -0.003080 0.000000 0.000000 0.000000
# 2 0.007762 0.021061 0.002174 0.000000 0.000000 0.000000
# 3 -0.003080 0.002174 0.010367 0.000000 0.000000 0.000000
# 4 0.000000 0.000000 0.000000 0.037006 0.000000 0.000000
# 5 0.000000 0.000000 0.000000 0.000000 0.051761 0.000000
# 6 0.000000 0.000000 0.000000 0.000000 0.000000 0.039607
#
#
# Mechanical properties :
#
#
# Convention : Reuss Voigt Hill
#
# Bulk Modulus (GPa) = 11.49767 16.90093 14.19930
# Shear Modulus (GPa) = 23.05044 27.46262 25.25653
#
# Velocity S-wave (km/s) = 3.28075 3.58101 3.43416
# Velocity P-wave (km/s) = 4.44071 4.99900 4.72810
#
# Compressibility (1/GPa) = 0.08697416
#
# Stress axis : x y z
#
# Youngs Moduli (GPa) = 23.90366 47.48194 96.45852
#
# Poissons Ratio (x) = -0.36856 0.29711
# Poissons Ratio (y) = -0.18554 -0.20970
# Poissons Ratio (z) = 0.07363 -0.10323
#
# Static dielectric constant tensor:
#      x y z
#    x 1.817860 0.000000 0.000000 
#    y 0.000000 1.760100 0.000000 
#    z 0.000000 0.000000 1.627720 
# 
# From -- ./inp_files/3691.got.cif
#   From: 2010.05.17/outbox.cif.g08.bks.cpg/sg57_2_cif.got.tgz:3691.got - 2010.06.03 13:58:18.
