data_PCOD9435992
_publ_section_title
;
Structure prediction by ZEFSAII (Michael W. Deem and Ramdas Pophale) SiO2 
 PCOD9435992
Probable space group: P B C M
;
_chemical_formula_sum "Si O2"
_cell_formula_units_Z 56
_cell_length_a 20.231926
_cell_length_b 16.516463
_cell_length_c 7.744981
_cell_angle_alpha 90.000000
_cell_angle_beta 90.000000
_cell_angle_gamma 90.000000
_cell_volume 2588.061745
_symmetry_space_group_name_H-M "P B C M"
_symmetry_group_IT_number 57
_symmetry_cell_setting 'orthorhombic'
loop_
_space_group_symop_operation_xyz
x,y,z
-x,-y,1/2+z
x,1/2-y,-z
-x,1/2+y,1/2-z
-x,-y,-z
x,y,1/2-z
-x,1/2+y,z
x,1/2-y,1/2+z
loop_
_atom_site_type_symbol
_atom_site_label
_atom_site_fract_x
_atom_site_fract_y
_atom_site_fract_z
Si Si1 0.846787 0.839331 0.457235
Si Si2 0.284858 0.588812 0.044753
Si Si3 0.572987 0.155067 0.955183
Si Si4 0.569967 0.845083 0.457691
Si Si5 0.710722 0.906994 0.038312
Si Si6 0.152173 0.660572 0.457430
Si Si7 0.922977 0.500413 0.957860
O O1 0.872373 0.750000 0.500000
O O2 0.845836 0.845031 0.250000
O O3 0.770760 0.849866 0.518076
O O4 0.888320 0.916755 0.521654
O O5 0.276078 0.586015 0.250000
O O6 0.272964 0.497942 0.981507
O O7 0.227873 0.648415 0.977794
O O8 0.360216 0.613400 0.015334
O O9 0.571533 0.147446 0.750000
O O10 0.501640 0.124440 0.023231
O O11 0.577245 0.250000 0.000000
O O12 0.572694 0.750000 0.500000
O O13 0.569841 0.854357 0.250000
O O14 0.637529 0.884148 0.523543
O O15 0.709058 0.905367 0.250000
O O16 0.127104 0.750000 0.500000
O O17 0.151770 0.656540 0.250000
O O18 0.111196 0.582679 0.521265
O O19 0.915380 0.500559 0.750000
O O20 0.000000 0.500000 0.000000
#
# Coordination Sequence:
#
# PCOD9435992 Si02
#       7
#     8   8   8   8   8   8   8
#     4  10  20  37  61  87 116 150 189 231 276 331
#     4  10  19  34  56  78 105 144 186 229 279 331
#     4  10  20  33  48  72 105 140 181 231 280 330
#     4   9  18  32  50  72 102 140 183 228 277 330
#     4   9  17  33  56  78 105 145 186 226 277 334
#     4  10  21  38  60  85 113 148 190 232 276 329
#     4  10  22  41  62  86 118 151 184 225 275 334
#
# _framework density 21.637815
#
# number of rings (size 3 to 8) (size 9 to 14) (size 15 to 20)
#    0.000    2.286    1.429    1.286    0.000    4.571 
#    0.000    4.286    0.000    0.000    0.000    0.000 
#    0.000    0.000    0.000    0.000    0.000    0.000 
#
# Total GULP energy -312507.932484 kJ/mol
# GULP energy per Si atom -5580.498794 kJ/mol
# Density = 2.158857 g / cm^3
# Si number density = 21.637815 Si / 1000 Ang^3
#
#
#
# Elastic Constant Matrix: (Units=GPa)
#
#
# Indices 1 2 3 4 5 6 
#
# 1 144.0128 77.9683 5.9363 0.0000 0.0000 0.0000
# 2 77.9683 149.3406 5.9227 0.0000 0.0000 0.0000
# 3 5.9363 5.9227 29.5156 0.0000 0.0000 0.0000
# 4 0.0000 0.0000 0.0000 18.8582 0.0000 0.0000
# 5 0.0000 0.0000 0.0000 0.0000 26.4002 0.0000
# 6 0.0000 0.0000 0.0000 0.0000 0.0000 25.4638
#
#
#
# Elastic Compliance Matrix: (Units=1/GPa)
#
#
# Indices 1 2 3 4 5 6 
#
# 1 0.009706 -0.005030 -0.000943 0.000000 0.000000 0.000000
# 2 -0.005030 0.009356 -0.000866 0.000000 0.000000 0.000000
# 3 -0.000943 -0.000866 0.034244 0.000000 0.000000 0.000000
# 4 0.000000 0.000000 0.000000 0.053027 0.000000 0.000000
# 5 0.000000 0.000000 0.000000 0.000000 0.037878 0.000000
# 6 0.000000 0.000000 0.000000 0.000000 0.000000 0.039271
#
#
# Mechanical properties :
#
#
# Convention : Reuss Voigt Hill
#
# Bulk Modulus (GPa) = 25.23400 55.83595 40.53497
# Shear Modulus (GPa) = 23.76763 29.68055 26.72409
#
# Velocity S-wave (km/s) = 3.31785 3.70766 3.51816
# Velocity P-wave (km/s) = 5.13467 6.64754 5.93947
#
# Compressibility (1/GPa) = 0.03962907
#
# Stress axis : x y z
#
# Youngs Moduli (GPa) = 103.03050 106.87798 29.20238
#
# Poissons Ratio (x) = 0.53758 0.02753
# Poissons Ratio (y) = 0.51823 0.02529
# Poissons Ratio (z) = 0.09713 0.09254
#
# Static dielectric constant tensor:
#      x y z
#    x 1.803020 0.000000 0.000000 
#    y 0.000000 1.778060 0.000000 
#    z 0.000000 0.000000 1.744660 
# 
# From -- ./inp_files/7994.got.cif
#   From: 2010.05.17/outbox.cif.g08.bks.cpg/sg57_4_cif.got.tgz:7994.got - 2010.06.03 13:58:18.
