data_PCOD9435025
_publ_section_title
;
Structure prediction by ZEFSAII (Michael W. Deem and Ramdas Pophale) SiO2 
 PCOD9435025
Probable space group: P B C M
;
_chemical_formula_sum "Si O2"
_cell_formula_units_Z 64
_cell_length_a 30.707613
_cell_length_b 13.980909
_cell_length_c 9.017069
_cell_angle_alpha 90.000000
_cell_angle_beta 90.000000
_cell_angle_gamma 90.000000
_cell_volume 3871.211156
_symmetry_space_group_name_H-M "P B C M"
_symmetry_group_IT_number 57
_symmetry_cell_setting 'orthorhombic'
loop_
_space_group_symop_operation_xyz
x,y,z
-x,-y,1/2+z
x,1/2-y,-z
-x,1/2+y,1/2-z
-x,-y,-z
x,y,1/2-z
-x,1/2+y,z
x,1/2-y,1/2+z
loop_
_atom_site_type_symbol
_atom_site_label
_atom_site_fract_x
_atom_site_fract_y
_atom_site_fract_z
Si Si1 0.251934 0.147184 0.927727
Si Si2 0.047172 0.494923 0.073064
Si Si3 0.354264 0.350347 0.427288
Si Si4 0.107417 0.346792 0.581046
Si Si5 0.123815 0.854861 0.928475
Si Si6 0.813412 0.503574 0.420646
Si Si7 0.483170 0.852941 0.073937
Si Si8 0.432207 0.481399 0.072563
O O1 0.245544 0.152537 0.750000
O O2 0.303357 0.133150 0.959788
O O3 0.239407 0.250000 0.000000
O O4 0.225208 0.058810 0.995431
O O5 0.043392 0.491213 0.250000
O O6 0.080142 0.582889 0.036385
O O7 0.070260 0.400404 0.010533
O O8 0.000000 0.500000 0.000000
O O9 0.367305 0.250000 0.500000
O O10 0.358571 0.340880 0.250000
O O11 0.386615 0.434661 0.474487
O O12 0.119847 0.250000 0.500000
O O13 0.093501 0.328729 0.750000
O O14 0.148153 0.417872 0.583677
O O15 0.127375 0.849176 0.750000
O O16 0.121284 0.750000 0.000000
O O17 0.164856 0.913802 0.995047
O O18 0.802032 0.479504 0.250000
O O19 0.478919 0.844752 0.250000
O O20 0.529350 0.904828 0.042004
O O21 0.481895 0.750000 0.000000
O O22 0.446137 0.922420 0.009330
O O23 0.431523 0.497997 0.250000
#
# Coordination Sequence:
#
# PCOD9435025 Si02
#       8
#     8   8   8   8   8   8   8   8
#     4  10  19  31  49  75 105 135 166 200 245 299
#     4  10  21  36  53  74 102 133 166 203 242 286
#     4   9  18  31  48  71 100 133 165 201 244 293
#     4  10  20  33  50  72  98 128 161 196 237 284
#     4  10  21  37  57  79 102 132 169 209 251 294
#     4  10  20  34  53  76 102 131 163 202 245 290
#     4  10  19  30  47  70  95 126 164 206 250 295
#     4   9  18  32  48  68  96 129 165 204 247 295
#
# _framework density 16.532292999999999
#
# number of rings (size 3 to 8) (size 9 to 14) (size 15 to 20)
#    0.000    2.250    0.000    3.000    0.000    6.000 
#    0.000    1.250    0.000    0.750    0.000    3.500 
#    0.000    0.000    0.000    0.000    0.000    0.000 
#
# Total GULP energy -357020.918212 kJ/mol
# GULP energy per Si atom -5578.451847 kJ/mol
# Density = 1.649467 g / cm^3
# Si number density = 16.532293 Si / 1000 Ang^3
#
#
#
# Elastic Constant Matrix: (Units=GPa)
#
#
# Indices 1 2 3 4 5 6 
#
# 1 65.1824 32.7622 41.2193 0.0000 0.0000 0.0000
# 2 32.7622 109.4194 60.0052 0.0000 0.0000 0.0000
# 3 41.2193 60.0052 76.9910 0.0000 0.0000 0.0000
# 4 0.0000 0.0000 0.0000 32.3477 0.0000 0.0000
# 5 0.0000 0.0000 0.0000 0.0000 23.4689 0.0000
# 6 0.0000 0.0000 0.0000 0.0000 0.0000 16.2526
#
#
#
# Elastic Compliance Matrix: (Units=1/GPa)
#
#
# Indices 1 2 3 4 5 6 
#
# 1 0.023198 -0.000236 -0.012236 0.000000 0.000000 0.000000
# 2 -0.000236 0.015963 -0.012315 0.000000 0.000000 0.000000
# 3 -0.012236 -0.012315 0.029138 0.000000 0.000000 0.000000
# 4 0.000000 0.000000 0.000000 0.030914 0.000000 0.000000
# 5 0.000000 0.000000 0.000000 0.000000 0.042610 0.000000
# 6 0.000000 0.000000 0.000000 0.000000 0.000000 0.061529
#
#
# Mechanical properties :
#
#
# Convention : Reuss Voigt Hill
#
# Bulk Modulus (GPa) = 53.40475 57.72956 55.56716
# Shear Modulus (GPa) = 19.29263 22.25422 20.77343
#
# Velocity S-wave (km/s) = 3.41980 3.67291 3.54861
# Velocity P-wave (km/s) = 6.92580 7.27888 7.10454
#
# Compressibility (1/GPa) = 0.01872493
#
# Stress axis : x y z
#
# Youngs Moduli (GPa) = 43.10808 62.64317 34.31995
#
# Poissons Ratio (x) = 0.01477 0.41993
# Poissons Ratio (y) = 0.01016 0.42266
# Poissons Ratio (z) = 0.52746 0.77147
#
# Static dielectric constant tensor:
#      x y z
#    x 1.555280 0.000000 0.000000 
#    y 0.000000 1.527200 0.000000 
#    z 0.000000 0.000000 1.557170 
# 
# From -- ./inp_files/10329.got.cif
#   From: 2010.05.17/outbox.cif.g08.bks.cpg/sg57_6_cif.got.tgz:10329.got - 2010.06.03 13:58:18.
