data_PCOD9435578
_publ_section_title
;
Structure prediction by ZEFSAII (Michael W. Deem and Ramdas Pophale) SiO2 
 PCOD9435578
Probable space group: P B C M
;
_chemical_formula_sum "Si O2"
_cell_formula_units_Z 48
_cell_length_a 29.576214
_cell_length_b 9.087966
_cell_length_c 9.119534
_cell_angle_alpha 90.000000
_cell_angle_beta 90.000000
_cell_angle_gamma 90.000000
_cell_volume 2451.217905
_symmetry_space_group_name_H-M "P B C M"
_symmetry_group_IT_number 57
_symmetry_cell_setting 'orthorhombic'
loop_
_space_group_symop_operation_xyz
x,y,z
-x,-y,1/2+z
x,1/2-y,-z
-x,1/2+y,1/2-z
-x,-y,-z
x,y,1/2-z
-x,1/2+y,z
x,1/2-y,1/2+z
loop_
_atom_site_type_symbol
_atom_site_label
_atom_site_fract_x
_atom_site_fract_y
_atom_site_fract_z
Si Si1 0.609706 0.750000 0.000000
Si Si2 0.328025 0.991561 0.915902
Si Si3 0.960038 0.089973 0.925617
Si Si4 0.547379 0.259285 0.750000
Si Si5 0.228870 0.588779 0.074899
Si Si6 0.140336 0.911578 0.074818
Si Si7 0.551042 0.903376 0.750000
Si Si8 0.386404 0.750000 0.000000
O O1 0.578152 0.656930 0.109383
O O2 0.643333 0.860781 0.082109
O O3 0.330631 0.926132 0.750000
O O4 0.275023 0.001303 0.949097
O O5 0.352537 0.883444 0.031051
O O6 0.966187 0.101795 0.750000
O O7 0.909647 0.023344 0.950912
O O8 0.960309 0.250000 0.000000
O O9 0.000000 0.000000 0.000000
O O10 0.498434 0.330005 0.750000
O O11 0.578340 0.309518 0.616832
O O12 0.546345 0.080554 0.750000
O O13 0.221884 0.605901 0.250000
O O14 0.235586 0.750000 0.000000
O O15 0.184420 0.519022 0.000334
O O16 0.146678 0.898753 0.250000
O O17 0.138760 0.750000 0.000000
#
# Coordination Sequence:
#
# PCOD9435578 Si02
#       8
#     4   8   8   4   8   8   4   4
#     4  12  25  46  64  86 120 154 189 236 286 342
#     4  11  23  40  63  90 117 150 193 238 281 344
#     4  10  20  34  56  84 119 159 207 254 307 361
#     4  12  28  42  64  94 116 156 188 234 285 344
#     4  10  19  32  54  86 117 148 188 240 291 344
#     4   9  17  31  50  81 118 154 195 245 295 351
#     4  12  28  44  66  90 120 152 192 230 289 340
#     4  12  23  42  64  88 122 148 189 232 282 340
#
# _framework density 19.582101000000002
#
# number of rings (size 3 to 8) (size 9 to 14) (size 15 to 20)
#    0.000    1.333    4.167    3.000    2.333    3.333 
#    4.500    0.000    1.833    0.000    0.000    0.000 
#    0.000    0.000    0.000    0.000    0.000    0.000 
#
# Total GULP energy -267606.380346 kJ/mol
# GULP energy per Si atom -5575.132924 kJ/mol
# Density = 1.953753 g / cm^3
# Si number density = 19.582101 Si / 1000 Ang^3
#
#
#
# Elastic Constant Matrix: (Units=GPa)
#
#
# Indices 1 2 3 4 5 6 
#
# 1 215.1933 36.5365 62.0580 0.0000 0.0000 0.0000
# 2 36.5365 43.0989 -6.0899 0.0000 0.0000 0.0000
# 3 62.0580 -6.0899 87.0113 0.0000 0.0000 0.0000
# 4 0.0000 0.0000 0.0000 19.5209 0.0000 0.0000
# 5 0.0000 0.0000 0.0000 0.0000 -42.9670 0.0000
# 6 0.0000 0.0000 0.0000 0.0000 0.0000 27.8711
#
#
#
# Elastic Compliance Matrix: (Units=1/GPa)
#
#
# Indices 1 2 3 4 5 6 
#
# 1 0.007589 -0.007270 -0.005921 0.000000 0.000000 0.000000
# 2 -0.007270 0.030399 0.007313 0.000000 0.000000 0.000000
# 3 -0.005921 0.007313 0.016228 0.000000 0.000000 0.000000
# 4 0.000000 0.000000 0.000000 0.051227 0.000000 0.000000
# 5 0.000000 0.000000 0.000000 0.000000 -0.023274 0.000000
# 6 0.000000 0.000000 0.000000 0.000000 0.000000 0.035879
#
#
# Mechanical properties :
#
#
# Convention : Reuss Voigt Hill
#
# Bulk Modulus (GPa) = 23.55260 58.92364 41.23812
# Shear Modulus (GPa) = 34.73211 17.73826 26.23518
#
# Velocity S-wave (km/s) = 4.21606 3.01298 3.66423
# Velocity P-wave (km/s) = 5.97946 6.50077 6.24556
#
# Compressibility (1/GPa) = 0.04245816
#
# Stress axis : x y z
#
# Youngs Moduli (GPa) = 131.77008 32.89594 61.62252
#
# Poissons Ratio (x) = 0.23916 0.36489
# Poissons Ratio (y) = 0.95799 -0.45063
# Poissons Ratio (z) = 0.78027 -0.24056
#
# Static dielectric constant tensor:
#      x y z
#    x 1.706900 0.000000 0.000000 
#    y 0.000000 1.690640 0.000000 
#    z 0.000000 0.000000 1.672330 
# 
# From -- ./inp_files/10216.got.cif
#   From: 2010.05.17/outbox.cif.g08.bks.cpg/sg57_6_cif.got.tgz:10216.got - 2010.06.03 13:58:18.
