data_PCOD9435371
_publ_section_title
;
Structure prediction by ZEFSAII (Michael W. Deem and Ramdas Pophale) SiO2 
 PCOD9435371
Probable space group: P B C M
;
_chemical_formula_sum "Si O2"
_cell_formula_units_Z 48
_cell_length_a 33.001760
_cell_length_b 9.563292
_cell_length_c 8.512704
_cell_angle_alpha 90.000000
_cell_angle_beta 90.000000
_cell_angle_gamma 90.000000
_cell_volume 2686.655925
_symmetry_space_group_name_H-M "P B C M"
_symmetry_group_IT_number 57
_symmetry_cell_setting 'orthorhombic'
loop_
_space_group_symop_operation_xyz
x,y,z
-x,-y,1/2+z
x,1/2-y,-z
-x,1/2+y,1/2-z
-x,-y,-z
x,y,1/2-z
-x,1/2+y,z
x,1/2-y,1/2+z
loop_
_atom_site_type_symbol
_atom_site_label
_atom_site_fract_x
_atom_site_fract_y
_atom_site_fract_z
Si Si1 0.710686 0.091587 0.560213
Si Si2 0.874625 0.909283 0.560637
Si Si3 0.036977 0.408834 0.938553
Si Si4 0.462991 0.591004 0.436773
Si Si5 0.378190 0.909582 0.061629
Si Si6 0.213625 0.408757 0.940282
O O1 0.714096 0.250000 0.500000
O O2 0.711608 0.095536 0.750000
O O3 0.666099 0.032637 0.515639
O O4 0.748433 0.999816 0.503996
O O5 0.874508 0.750000 0.500000
O O6 0.874668 0.908726 0.750000
O O7 0.918506 0.967154 0.510615
O O8 0.830776 0.967745 0.510481
O O9 0.035886 0.406337 0.750000
O O10 0.033705 0.250000 0.000000
O O11 0.000000 0.500000 0.000000
O O12 0.466068 0.750000 0.500000
O O13 0.500000 0.500000 0.500000
O O14 0.463755 0.595481 0.250000
O O15 0.419538 0.529680 0.492055
O O16 0.381361 0.909480 0.250000
O O17 0.377305 0.750000 0.000000
O O18 0.214514 0.406310 0.750000
O O19 0.216884 0.250000 0.000000
#
# Coordination Sequence:
#
# PCOD9435371 Si02
#       6
#     8   8   8   8   8   8
#     4   9  18  31  49  71  97 126 159 197 237 280
#     4   8  15  28  47  67  91 122 158 194 233 281
#     4  10  19  32  50  72  96 126 161 201 244 291
#     4  11  21  35  54  77 102 131 165 204 246 291
#     4   9  16  29  48  70  95 127 163 198 235 283
#     4   9  17  31  49  71  96 124 157 196 237 282
#
# _framework density 17.866077000000001
#
# number of rings (size 3 to 8) (size 9 to 14) (size 15 to 20)
#    0.000    2.667    0.000    3.500    0.000    2.000 
#    0.000    1.667    0.000    4.000    0.000    0.000 
#    0.000    0.000    0.000    0.000    0.000    0.000 
#
# Total GULP energy -267245.649425 kJ/mol
# GULP energy per Si atom -5567.617696 kJ/mol
# Density = 1.782541 g / cm^3
# Si number density = 17.866077 Si / 1000 Ang^3
#
#
#
# Elastic Constant Matrix: (Units=GPa)
#
#
# Indices 1 2 3 4 5 6 
#
# 1 245.5718 65.9606 47.5600 0.0000 0.0000 0.0000
# 2 65.9606 40.0069 13.9002 0.0000 0.0000 0.0000
# 3 47.5600 13.9002 52.8919 0.0000 0.0000 0.0000
# 4 0.0000 0.0000 0.0000 21.4348 0.0000 0.0000
# 5 0.0000 0.0000 0.0000 0.0000 21.5490 0.0000
# 6 0.0000 0.0000 0.0000 0.0000 0.0000 33.9407
#
#
#
# Elastic Compliance Matrix: (Units=1/GPa)
#
#
# Indices 1 2 3 4 5 6 
#
# 1 0.008052 -0.011842 -0.004129 0.000000 0.000000 0.000000
# 2 -0.011842 0.044922 -0.001158 0.000000 0.000000 0.000000
# 3 -0.004129 -0.001158 0.022923 0.000000 0.000000 0.000000
# 4 0.000000 0.000000 0.000000 0.046653 0.000000 0.000000
# 5 0.000000 0.000000 0.000000 0.000000 0.046406 0.000000
# 6 0.000000 0.000000 0.000000 0.000000 0.000000 0.029463
#
#
# Mechanical properties :
#
#
# Convention : Reuss Voigt Hill
#
# Bulk Modulus (GPa) = 24.01454 65.92359 44.96907
# Shear Modulus (GPa) = 20.27933 29.45486 24.86710
#
# Velocity S-wave (km/s) = 3.37274 4.06476 3.73481
# Velocity P-wave (km/s) = 5.35143 7.68170 6.61991
#
# Compressibility (1/GPa) = 0.04164143
#
# Stress axis : x y z
#
# Youngs Moduli (GPa) = 124.18586 22.26081 43.62410
#
# Poissons Ratio (x) = 0.26361 0.18011
# Poissons Ratio (y) = 1.47059 0.05050
# Poissons Ratio (z) = 0.51271 0.02577
#
# Static dielectric constant tensor:
#      x y z
#    x 1.694930 0.000000 0.000000 
#    y 0.000000 1.549770 0.000000 
#    z 0.000000 0.000000 1.662360 
# 
# From -- ./inp_files/9689.got.cif
#   From: 2010.05.17/outbox.cif.g08.bks.cpg/sg57_5_cif.got.tgz:9689.got - 2010.06.03 13:58:18.
