data_PCOD9435820
_publ_section_title
;
Structure prediction by ZEFSAII (Michael W. Deem and Ramdas Pophale) SiO2 
 PCOD9435820
Probable space group: P B C M
;
_chemical_formula_sum "Si O2"
_cell_formula_units_Z 48
_cell_length_a 14.884336
_cell_length_b 8.448797
_cell_length_c 15.048256
_cell_angle_alpha 90.000000
_cell_angle_beta 90.000000
_cell_angle_gamma 90.000000
_cell_volume 1892.389421
_symmetry_space_group_name_H-M "P B C M"
_symmetry_group_IT_number 57
_symmetry_cell_setting 'orthorhombic'
loop_
_space_group_symop_operation_xyz
x,y,z
-x,-y,1/2+z
x,1/2-y,-z
-x,1/2+y,1/2-z
-x,-y,-z
x,y,1/2-z
-x,1/2+y,z
x,1/2-y,1/2+z
loop_
_atom_site_type_symbol
_atom_site_label
_atom_site_fract_x
_atom_site_fract_y
_atom_site_fract_z
Si Si1 0.024247 0.510995 0.852646
Si Si2 0.693645 0.298978 0.101413
Si Si3 0.529577 0.373330 0.648463
Si Si4 0.367045 0.177895 0.640662
Si Si5 0.792169 0.872811 0.641983
Si Si6 0.126768 0.680493 0.401763
O O1 0.005585 0.475446 0.750000
O O2 0.105418 0.399102 0.886971
O O3 0.064380 0.686508 0.856737
O O4 0.931115 0.477745 0.901714
O O5 0.598890 0.273702 0.148063
O O6 0.736279 0.471569 0.113242
O O7 0.773255 0.183012 0.137770
O O8 0.676873 0.250000 0.000000
O O9 0.510499 0.417465 0.750000
O O10 0.435739 0.315447 0.609950
O O11 0.587380 0.516330 0.608540
O O12 0.366476 0.175242 0.750000
O O13 0.266387 0.222427 0.612751
O O14 0.795477 0.874076 0.750000
O O15 0.138257 0.750000 0.500000
#
# Coordination Sequence:
#
# PCOD9435820 Si02
#       6
#     8   8   8   8   8   8
#     4  10  20  34  55  81 106 136 179 229 271 312
#     4  10  21  36  53  76 106 141 179 216 259 312
#     4  10  19  33  55  79 103 135 174 217 262 312
#     4   9  18  33  55  81 105 134 174 215 263 320
#     4   9  18  35  55  75 104 139 173 215 266 316
#     4  10  21  37  55  76 108 147 180 216 270 330
#
# _framework density 25.364757000000001
#
# number of rings (size 3 to 8) (size 9 to 14) (size 15 to 20)
#    0.000    2.333    0.000    2.500    0.000    6.000 
#    0.000    5.833    0.000    0.000    0.000    0.000 
#    0.000    0.000    0.000    0.000    0.000    0.000 
#
# Total GULP energy -268277.458838 kJ/mol
# GULP energy per Si atom -5589.113726 kJ/mol
# Density = 2.530703 g / cm^3
# Si number density = 25.364757 Si / 1000 Ang^3
#
#
#
# Elastic Constant Matrix: (Units=GPa)
#
#
# Indices 1 2 3 4 5 6 
#
# 1 106.1576 7.6274 5.0295 0.0000 0.0000 0.0000
# 2 7.6274 51.5525 -5.1075 0.0000 0.0000 0.0000
# 3 5.0295 -5.1075 56.1110 0.0000 0.0000 0.0000
# 4 0.0000 0.0000 0.0000 17.9584 0.0000 0.0000
# 5 0.0000 0.0000 0.0000 0.0000 12.6461 0.0000
# 6 0.0000 0.0000 0.0000 0.0000 0.0000 45.6090
#
#
#
# Elastic Compliance Matrix: (Units=1/GPa)
#
#
# Indices 1 2 3 4 5 6 
#
# 1 0.009576 -0.001516 -0.000996 0.000000 0.000000 0.000000
# 2 -0.001516 0.019814 0.001939 0.000000 0.000000 0.000000
# 3 -0.000996 0.001939 0.018088 0.000000 0.000000 0.000000
# 4 0.000000 0.000000 0.000000 0.055684 0.000000 0.000000
# 5 0.000000 0.000000 0.000000 0.000000 0.079076 0.000000
# 6 0.000000 0.000000 0.000000 0.000000 0.000000 0.021925
#
#
# Mechanical properties :
#
#
# Convention : Reuss Voigt Hill
#
# Bulk Modulus (GPa) = 21.58289 25.43555 23.50922
# Shear Modulus (GPa) = 22.64977 28.99414 25.82196
#
# Velocity S-wave (km/s) = 2.99149 3.38463 3.19411
# Velocity P-wave (km/s) = 4.52322 5.03229 4.78453
#
# Compressibility (1/GPa) = 0.04633301
#
# Stress axis : x y z
#
# Youngs Moduli (GPa) = 104.42721 50.46914 55.28626
#
# Poissons Ratio (x) = 0.07649 0.05508
# Poissons Ratio (y) = 0.15826 -0.10722
# Poissons Ratio (z) = 0.10404 -0.09788
#
# Static dielectric constant tensor:
#      x y z
#    x 1.976840 0.000000 0.000000 
#    y 0.000000 2.074200 0.000000 
#    z 0.000000 0.000000 1.978230 
# 
# From -- ./inp_files/22405.got.cif
#   From: 2010.05.17/outbox.cif.g08.bks.cpg/sg57_12_cif.got.tgz:22405.got - 2010.06.03 13:58:18.
