data_PCOD9435447
_publ_section_title
;
Structure prediction by ZEFSAII (Michael W. Deem and Ramdas Pophale) SiO2 
 PCOD9435447
Probable space group: P B C M
;
_chemical_formula_sum "Si O2"
_cell_formula_units_Z 64
_cell_length_a 16.492917
_cell_length_b 24.684319
_cell_length_c 8.766828
_cell_angle_alpha 90.000000
_cell_angle_beta 90.000000
_cell_angle_gamma 90.000000
_cell_volume 3569.119669
_symmetry_space_group_name_H-M "P B C M"
_symmetry_group_IT_number 57
_symmetry_cell_setting 'orthorhombic'
loop_
_space_group_symop_operation_xyz
x,y,z
-x,-y,1/2+z
x,1/2-y,-z
-x,1/2+y,1/2-z
-x,-y,-z
x,y,1/2-z
-x,1/2+y,z
x,1/2-y,1/2+z
loop_
_atom_site_type_symbol
_atom_site_label
_atom_site_fract_x
_atom_site_fract_y
_atom_site_fract_z
Si Si1 0.049158 0.585400 0.433046
Si Si2 0.276811 0.078343 0.432912
Si Si3 0.656556 0.694493 0.071209
Si Si4 0.510076 0.142719 0.071352
Si Si5 0.686142 0.309119 0.568533
Si Si6 0.859341 0.188733 0.567050
Si Si7 0.562641 0.540602 0.926514
Si Si8 0.888098 0.532530 0.567387
O O1 0.048981 0.591823 0.250000
O O2 0.960691 0.566816 0.491146
O O3 0.081368 0.641149 0.507082
O O4 0.102546 0.531567 0.471370
O O5 0.269501 0.078243 0.250000
O O6 0.300672 0.139430 0.485314
O O7 0.353026 0.042275 0.483642
O O8 0.196102 0.056284 0.509097
O O9 0.672417 0.696507 0.250000
O O10 0.559007 0.688444 0.053082
O O11 0.685608 0.750000 0.000000
O O12 0.502063 0.124262 0.250000
O O13 0.602900 0.158397 0.045812
O O14 0.480520 0.097900 0.954338
O O15 0.670678 0.250000 0.500000
O O16 0.701186 0.305880 0.750000
O O17 0.768751 0.328178 0.488262
O O18 0.873859 0.250000 0.500000
O O19 0.862430 0.192021 0.750000
O O20 0.577240 0.529445 0.750000
O O21 0.500000 0.500000 0.000000
O O22 0.895050 0.536878 0.750000
#
# Coordination Sequence:
#
# PCOD9435447 Si02
#       8
#     8   8   8   8   8   8   8   8
#     4  10  21  39  62  87 115 145 180 225 277 331
#     4  10  21  38  57  80 112 146 182 228 279 328
#     4   9  18  32  51  75 104 140 180 224 272 321
#     4   9  19  34  50  72 103 138 178 223 269 318
#     4  10  19  32  51  75 106 141 178 221 266 315
#     4  11  22  37  57  82 115 151 188 229 278 335
#     4  11  22  36  54  75 103 140 180 223 271 324
#     4  10  21  38  62  90 115 143 183 228 274 328
#
# _framework density 17.931591000000001
#
# number of rings (size 3 to 8) (size 9 to 14) (size 15 to 20)
#    0.000    2.000    0.000    5.625    0.000    6.000 
#    0.000    1.875    0.000    1.500    0.000    0.000 
#    0.000    0.000    0.000    0.000    0.000    0.000 
#
# Total GULP energy -356889.113182 kJ/mol
# GULP energy per Si atom -5576.392393 kJ/mol
# Density = 1.789078 g / cm^3
# Si number density = 17.931591 Si / 1000 Ang^3
#
#
#
# Elastic Constant Matrix: (Units=GPa)
#
#
# Indices 1 2 3 4 5 6 
#
# 1 113.0023 68.5660 40.3323 0.0000 0.0000 0.0000
# 2 68.5660 87.2167 46.4741 0.0000 0.0000 0.0000
# 3 40.3323 46.4741 74.9900 0.0000 0.0000 0.0000
# 4 0.0000 0.0000 0.0000 30.9943 0.0000 0.0000
# 5 0.0000 0.0000 0.0000 0.0000 33.9008 0.0000
# 6 0.0000 0.0000 0.0000 0.0000 0.0000 13.7521
#
#
#
# Elastic Compliance Matrix: (Units=1/GPa)
#
#
# Indices 1 2 3 4 5 6 
#
# 1 0.017003 -0.012682 -0.001285 0.000000 0.000000 0.000000
# 2 -0.012682 0.026578 -0.009651 0.000000 0.000000 0.000000
# 3 -0.001285 -0.009651 0.020007 0.000000 0.000000 0.000000
# 4 0.000000 0.000000 0.000000 0.032264 0.000000 0.000000
# 5 0.000000 0.000000 0.000000 0.000000 0.029498 0.000000
# 6 0.000000 0.000000 0.000000 0.000000 0.000000 0.072716
#
#
# Mechanical properties :
#
#
# Convention : Reuss Voigt Hill
#
# Bulk Modulus (GPa) = 61.15283 65.10597 63.12940
# Shear Modulus (GPa) = 19.93982 23.71856 21.82919
#
# Velocity S-wave (km/s) = 3.33827 3.64087 3.49285
# Velocity P-wave (km/s) = 7.00259 7.35265 7.17975
#
# Compressibility (1/GPa) = 0.01635247
#
# Stress axis : x y z
#
# Youngs Moduli (GPa) = 58.81184 37.62441 49.98207
#
# Poissons Ratio (x) = 0.47717 0.06424
# Poissons Ratio (y) = 0.74588 0.48236
# Poissons Ratio (z) = 0.07559 0.36310
#
# Static dielectric constant tensor:
#      x y z
#    x 1.600760 0.000000 0.000000 
#    y 0.000000 1.587430 0.000000 
#    z 0.000000 0.000000 1.603710 
# 
# From -- ./inp_files/5592.got.cif
#   From: 2010.05.17/outbox.cif.g08.bks.cpg/sg57_3_cif.got.tgz:5592.got - 2010.06.03 13:58:18.
