data_PCOD9435097
_publ_section_title
;
Structure prediction by ZEFSAII (Michael W. Deem and Ramdas Pophale) SiO2 
 PCOD9435097
Probable space group: P B C M
;
_chemical_formula_sum "Si O2"
_cell_formula_units_Z 64
_cell_length_a 12.437881
_cell_length_b 33.168142
_cell_length_c 7.931756
_cell_angle_alpha 90.000000
_cell_angle_beta 90.000000
_cell_angle_gamma 90.000000
_cell_volume 3272.177750
_symmetry_space_group_name_H-M "P B C M"
_symmetry_group_IT_number 57
_symmetry_cell_setting 'orthorhombic'
loop_
_space_group_symop_operation_xyz
x,y,z
-x,-y,1/2+z
x,1/2-y,-z
-x,1/2+y,1/2-z
-x,-y,-z
x,y,1/2-z
-x,1/2+y,z
x,1/2-y,1/2+z
loop_
_atom_site_type_symbol
_atom_site_label
_atom_site_fract_x
_atom_site_fract_y
_atom_site_fract_z
Si Si1 0.876399 0.998376 0.452220
Si Si2 0.507706 0.952313 0.453903
Si Si3 0.072142 0.372429 0.947954
Si Si4 0.741177 0.923885 0.451391
Si Si5 0.304157 0.704977 0.953837
Si Si6 0.056218 0.705317 0.951034
Si Si7 0.638344 0.120864 0.553597
Si Si8 0.143856 0.586550 0.455181
O O1 0.869964 0.996858 0.250000
O O2 0.814762 0.960091 0.522076
O O3 0.828531 0.041033 0.505616
O O4 0.000000 0.000000 0.500000
O O5 0.503396 0.952530 0.250000
O O6 0.620955 0.932630 0.511941
O O7 0.419314 0.919449 0.516958
O O8 0.500000 0.000000 0.500000
O O9 0.078536 0.379081 0.750000
O O10 0.976005 0.401629 0.013522
O O11 0.189287 0.383852 0.016360
O O12 0.024307 0.328399 0.981376
O O13 0.734632 0.927726 0.250000
O O14 0.301352 0.702708 0.750000
O O15 0.179693 0.701297 0.015926
O O16 0.373730 0.666527 0.015982
O O17 0.341649 0.750000 0.000000
O O18 0.059678 0.701375 0.750000
O O19 0.020211 0.750000 0.000000
O O20 0.606897 0.122443 0.750000
O O21 0.765733 0.113964 0.535969
O O22 0.147584 0.590134 0.250000
#
# Coordination Sequence:
#
# PCOD9435097 Si02
#       8
#     8   8   8   8   8   8   8   8
#     4  10  19  31  46  68  99 133 170 212 260 310
#     4  10  22  40  60  80 107 145 191 236 281 333
#     4  11  21  33  52  79 110 142 180 223 270 324
#     4  10  21  36  54  75 104 143 183 224 273 327
#     4   9  18  31  50  78 110 140 174 215 267 325
#     4  10  19  33  53  79 114 149 180 216 268 329
#     4  10  20  35  55  79 106 141 181 223 271 328
#     4  10  20  32  48  75 108 139 174 218 267 320
#
# _framework density 19.558838999999999
#
# number of rings (size 3 to 8) (size 9 to 14) (size 15 to 20)
#    0.000    2.000    2.500    1.500    0.000    4.000 
#    0.000    0.000    0.000    0.750    0.000    1.750 
#    0.000    0.000    0.000    0.000    0.000    0.000 
#
# Total GULP energy -356687.928106 kJ/mol
# GULP energy per Si atom -5573.248877 kJ/mol
# Density = 1.951432 g / cm^3
# Si number density = 19.558839 Si / 1000 Ang^3
#
#
#
# Elastic Constant Matrix: (Units=GPa)
#
#
# Indices 1 2 3 4 5 6 
#
# 1 82.8310 43.5662 4.1854 0.0000 0.0000 0.0000
# 2 43.5662 151.2107 4.2538 0.0000 0.0000 0.0000
# 3 4.1854 4.2538 17.7997 0.0000 0.0000 0.0000
# 4 0.0000 0.0000 0.0000 22.9447 0.0000 0.0000
# 5 0.0000 0.0000 0.0000 0.0000 13.8834 0.0000
# 6 0.0000 0.0000 0.0000 0.0000 0.0000 29.9911
#
#
#
# Elastic Compliance Matrix: (Units=1/GPa)
#
#
# Indices 1 2 3 4 5 6 
#
# 1 0.014330 -0.004061 -0.002399 0.000000 0.000000 0.000000
# 2 -0.004061 0.007809 -0.000911 0.000000 0.000000 0.000000
# 3 -0.002399 -0.000911 0.056963 0.000000 0.000000 0.000000
# 4 0.000000 0.000000 0.000000 0.043583 0.000000 0.000000
# 5 0.000000 0.000000 0.000000 0.000000 0.072028 0.000000
# 6 0.000000 0.000000 0.000000 0.000000 0.000000 0.033343
#
#
# Mechanical properties :
#
#
# Convention : Reuss Voigt Hill
#
# Bulk Modulus (GPa) = 15.53788 39.53912 27.53850
# Shear Modulus (GPa) = 18.92131 26.68624 22.80378
#
# Velocity S-wave (km/s) = 3.11369 3.69780 3.41824
# Velocity P-wave (km/s) = 4.57036 6.20411 5.44881
#
# Compressibility (1/GPa) = 0.06435886
#
# Stress axis : x y z
#
# Youngs Moduli (GPa) = 69.78338 128.05685 17.55534
#
# Poissons Ratio (x) = 0.52007 0.04211
# Poissons Ratio (y) = 0.28341 0.01600
# Poissons Ratio (z) = 0.16741 0.11669
#
# Static dielectric constant tensor:
#      x y z
#    x 1.692590 0.000000 0.000000 
#    y 0.000000 1.741560 0.000000 
#    z 0.000000 0.000000 1.700460 
# 
# From -- ./inp_files/3781.got.cif
#   From: 2010.05.17/outbox.cif.g08.bks.cpg/sg57_2_cif.got.tgz:3781.got - 2010.06.03 13:58:18.
