data_PCOD9435561
_publ_section_title
;
Structure prediction by ZEFSAII (Michael W. Deem and Ramdas Pophale) SiO2 
 PCOD9435561
Probable space group: P B C M
;
_chemical_formula_sum "Si O2"
_cell_formula_units_Z 56
_cell_length_a 12.752715
_cell_length_b 14.794923
_cell_length_c 13.932230
_cell_angle_alpha 90.000000
_cell_angle_beta 90.000000
_cell_angle_gamma 90.000000
_cell_volume 2628.669576
_symmetry_space_group_name_H-M "P B C M"
_symmetry_group_IT_number 57
_symmetry_cell_setting 'orthorhombic'
loop_
_space_group_symop_operation_xyz
x,y,z
-x,-y,1/2+z
x,1/2-y,-z
-x,1/2+y,1/2-z
-x,-y,-z
x,y,1/2-z
-x,1/2+y,z
x,1/2-y,1/2+z
loop_
_atom_site_type_symbol
_atom_site_label
_atom_site_fract_x
_atom_site_fract_y
_atom_site_fract_z
Si Si1 0.400980 0.154645 0.903085
Si Si2 0.482898 0.335892 0.881973
Si Si3 0.837640 0.801093 0.366783
Si Si4 0.106564 0.000447 0.866298
Si Si5 0.660984 0.455977 0.573688
Si Si6 0.900856 0.603999 0.365451
Si Si7 0.679323 0.507116 0.357045
O O1 0.463414 0.233700 0.849028
O O2 0.281058 0.188421 0.902784
O O3 0.390512 0.048114 0.881344
O O4 0.451986 0.158441 0.006648
O O5 0.600046 0.373611 0.877418
O O6 0.399653 0.408879 0.844825
O O7 0.831440 0.798936 0.250000
O O8 0.885518 0.706488 0.399722
O O9 0.896525 0.893460 0.393546
O O10 0.110359 0.997400 0.750000
O O11 0.216084 0.960624 0.903942
O O12 0.004821 0.946241 0.899832
O O13 0.647284 0.457324 0.456784
O O14 0.911108 0.609743 0.250000
O O15 0.794322 0.547775 0.380637
O O16 0.682823 0.461969 0.250000
#
# Coordination Sequence:
#
# PCOD9435561 Si02
#       7
#     8   8   8   8   8   8   8
#     4   9  17  31  53  78 102 140 179 225 272 319
#     4  10  19  33  54  79 105 142 178 231 282 321
#     4   9  16  30  54  82 108 140 185 232 272 325
#     4   9  19  35  56  82 113 150 185 225 279 336
#     4  10  21  36  55  81 114 147 186 229 279 334
#     4   9  17  31  54  82 110 141 186 234 276 325
#     4  10  19  32  54  81 109 142 183 231 280 322
#
# _framework density 21.303550999999999
#
# number of rings (size 3 to 8) (size 9 to 14) (size 15 to 20)
#    0.000    2.571    1.429    1.714    0.000    1.143 
#    0.000    3.571    9.429    3.429    0.000    0.000 
#    0.000    0.000    0.000    0.000    0.000    0.000 
#
# Total GULP energy -312277.665821 kJ/mol
# GULP energy per Si atom -5576.386890 kJ/mol
# Density = 2.125506 g / cm^3
# Si number density = 21.303551 Si / 1000 Ang^3
#
#
#
# Elastic Constant Matrix: (Units=GPa)
#
#
# Indices 1 2 3 4 5 6 
#
# 1 116.1788 68.4156 31.6537 0.0000 0.0000 0.0000
# 2 68.4156 98.3646 31.1149 0.0000 0.0000 0.0000
# 3 31.6537 31.1149 89.0283 0.0000 0.0000 0.0000
# 4 0.0000 0.0000 0.0000 15.5907 0.0000 0.0000
# 5 0.0000 0.0000 0.0000 0.0000 37.7655 0.0000
# 6 0.0000 0.0000 0.0000 0.0000 0.0000 32.1852
#
#
#
# Elastic Compliance Matrix: (Units=1/GPa)
#
#
# Indices 1 2 3 4 5 6 
#
# 1 0.014853 -0.009736 -0.001878 0.000000 0.000000 0.000000
# 2 -0.009736 0.017812 -0.002764 0.000000 0.000000 0.000000
# 3 -0.001878 -0.002764 0.012866 0.000000 0.000000 0.000000
# 4 0.000000 0.000000 0.000000 0.064141 0.000000 0.000000
# 5 0.000000 0.000000 0.000000 0.000000 0.026479 0.000000
# 6 0.000000 0.000000 0.000000 0.000000 0.000000 0.031070
#
#
# Mechanical properties :
#
#
# Convention : Reuss Voigt Hill
#
# Bulk Modulus (GPa) = 59.61241 62.88224 61.24732
# Shear Modulus (GPa) = 24.80537 28.60077 26.70307
#
# Velocity S-wave (km/s) = 3.41600 3.66804 3.54426
# Velocity P-wave (km/s) = 6.60317 6.89352 6.74991
#
# Compressibility (1/GPa) = 0.01677503
#
# Stress axis : x y z
#
# Youngs Moduli (GPa) = 67.32763 56.14044 77.72455
#
# Poissons Ratio (x) = 0.54661 0.14597
# Poissons Ratio (y) = 0.65553 0.21480
# Poissons Ratio (z) = 0.12644 0.15515
#
# Static dielectric constant tensor:
#      x y z
#    x 1.719820 0.000000 0.000000 
#    y 0.000000 1.830140 0.000000 
#    z 0.000000 0.000000 1.913170 
# 
# From -- ./inp_files/17706.got.cif
#   From: 2010.05.17/outbox.cif.g08.bks.cpg/sg57_9_cif.got.tgz:17706.got - 2010.06.03 13:58:18.
