data_PCOD9435141
_publ_section_title
;
Structure prediction by ZEFSAII (Michael W. Deem and Ramdas Pophale) SiO2 
 PCOD9435141
Probable space group: P B C M
;
_chemical_formula_sum "Si O2"
_cell_formula_units_Z 64
_cell_length_a 29.651986
_cell_length_b 14.371194
_cell_length_c 8.589982
_cell_angle_alpha 90.000000
_cell_angle_beta 90.000000
_cell_angle_gamma 90.000000
_cell_volume 3660.487197
_symmetry_space_group_name_H-M "P B C M"
_symmetry_group_IT_number 57
_symmetry_cell_setting 'orthorhombic'
loop_
_space_group_symop_operation_xyz
x,y,z
-x,-y,1/2+z
x,1/2-y,-z
-x,1/2+y,1/2-z
-x,-y,-z
x,y,1/2-z
-x,1/2+y,z
x,1/2-y,1/2+z
loop_
_atom_site_type_symbol
_atom_site_label
_atom_site_fract_x
_atom_site_fract_y
_atom_site_fract_z
Si Si1 0.883861 0.353740 0.437804
Si Si2 0.569216 0.971782 0.936457
Si Si3 0.166036 0.469291 0.936454
Si Si4 0.017159 0.644151 0.937899
Si Si5 0.519091 0.145746 0.436459
Si Si6 0.350668 0.352254 0.063335
Si Si7 0.753303 0.851575 0.064047
Si Si8 0.919057 0.855815 0.438008
O O1 0.877871 0.250000 0.500000
O O2 0.884178 0.350272 0.250000
O O3 0.845600 0.425732 0.487296
O O4 0.933580 0.390936 0.488809
O O5 0.569886 0.975915 0.750000
O O6 0.528762 0.901035 0.984120
O O7 0.615471 0.929080 0.998606
O O8 0.556337 0.073034 0.002014
O O9 0.168073 0.465895 0.750000
O O10 0.211587 0.426981 0.003770
O O11 0.123231 0.409384 0.992349
O O12 0.016909 0.644368 0.750000
O O13 0.968544 0.604176 0.987039
O O14 0.016692 0.750000 0.000000
O O15 0.523416 0.250000 0.500000
O O16 0.520641 0.148205 0.250000
O O17 0.352963 0.350577 0.250000
O O18 0.298588 0.369123 0.015849
O O19 0.363493 0.250000 0.000000
O O20 0.754786 0.848366 0.250000
O O21 0.766474 0.750000 0.000000
O O22 0.917282 0.750000 0.500000
O O23 0.916419 0.856024 0.250000
#
# Coordination Sequence:
#
# PCOD9435141 Si02
#       8
#     8   8   8   8   8   8   8   8
#     4   9  19  35  53  72  94 122 158 200 243 287
#     4  10  20  33  52  78 108 144 184 224 264 309
#     4  11  22  34  50  73 100 128 159 199 247 298
#     4   8  15  29  47  67  92 122 156 192 232 280
#     4  10  20  33  50  75 110 149 187 225 265 309
#     4  10  20  34  54  79 106 136 171 213 258 305
#     4  10  21  37  56  78 104 133 165 204 251 303
#     4  10  19  31  48  70  98 130 160 192 233 286
#
# _framework density 17.484012
#
# number of rings (size 3 to 8) (size 9 to 14) (size 15 to 20)
#    0.000    2.250    0.000    3.000    0.000    6.000 
#    0.000    0.000    0.000    0.750    0.000    1.750 
#    0.000    0.000    0.000    0.000    0.000    0.000 
#
# Total GULP energy -357067.934287 kJ/mol
# GULP energy per Si atom -5579.186473 kJ/mol
# Density = 1.744422 g / cm^3
# Si number density = 17.484012 Si / 1000 Ang^3
#
#
#
# Elastic Constant Matrix: (Units=GPa)
#
#
# Indices 1 2 3 4 5 6 
#
# 1 92.2502 68.3046 25.5121 0.0000 0.0000 0.0000
# 2 68.3046 126.7613 26.9982 0.0000 0.0000 0.0000
# 3 25.5121 26.9982 33.3070 0.0000 0.0000 0.0000
# 4 0.0000 0.0000 0.0000 24.4827 0.0000 0.0000
# 5 0.0000 0.0000 0.0000 0.0000 19.2780 0.0000
# 6 0.0000 0.0000 0.0000 0.0000 0.0000 33.6820
#
#
#
# Elastic Compliance Matrix: (Units=1/GPa)
#
#
# Indices 1 2 3 4 5 6 
#
# 1 0.019576 -0.008890 -0.007789 0.000000 0.000000 0.000000
# 2 -0.008890 0.013572 -0.004192 0.000000 0.000000 0.000000
# 3 -0.007789 -0.004192 0.039388 0.000000 0.000000 0.000000
# 4 0.000000 0.000000 0.000000 0.040845 0.000000 0.000000
# 5 0.000000 0.000000 0.000000 0.000000 0.051873 0.000000
# 6 0.000000 0.000000 0.000000 0.000000 0.000000 0.029689
#
#
# Mechanical properties :
#
#
# Convention : Reuss Voigt Hill
#
# Bulk Modulus (GPa) = 32.47307 54.88312 43.67810
# Shear Modulus (GPa) = 20.24708 24.25544 22.25126
#
# Velocity S-wave (km/s) = 3.40668 3.72868 3.57131
# Velocity P-wave (km/s) = 5.83843 7.07078 6.48395
#
# Compressibility (1/GPa) = 0.03079475
#
# Stress axis : x y z
#
# Youngs Moduli (GPa) = 51.08222 73.68224 25.38858
#
# Poissons Ratio (x) = 0.65501 0.19775
# Poissons Ratio (y) = 0.45410 0.10643
# Poissons Ratio (z) = 0.39788 0.30887
#
# Static dielectric constant tensor:
#      x y z
#    x 1.605420 0.000000 0.000000 
#    y 0.000000 1.600130 0.000000 
#    z 0.000000 0.000000 1.590030 
# 
# From -- ./inp_files/10323.got.cif
#   From: 2010.05.17/outbox.cif.g08.bks.cpg/sg57_6_cif.got.tgz:10323.got - 2010.06.03 13:58:18.
