data_PCOD9435388
_publ_section_title
;
Structure prediction by ZEFSAII (Michael W. Deem and Ramdas Pophale) SiO2 
 PCOD9435388
Probable space group: P B C M
;
_chemical_formula_sum "Si O2"
_cell_formula_units_Z 64
_cell_length_a 23.378398
_cell_length_b 18.040430
_cell_length_c 8.769885
_cell_angle_alpha 90.000000
_cell_angle_beta 90.000000
_cell_angle_gamma 90.000000
_cell_volume 3698.754711
_symmetry_space_group_name_H-M "P B C M"
_symmetry_group_IT_number 57
_symmetry_cell_setting 'orthorhombic'
loop_
_space_group_symop_operation_xyz
x,y,z
-x,-y,1/2+z
x,1/2-y,-z
-x,1/2+y,1/2-z
-x,-y,-z
x,y,1/2-z
-x,1/2+y,z
x,1/2-y,1/2+z
loop_
_atom_site_type_symbol
_atom_site_label
_atom_site_fract_x
_atom_site_fract_y
_atom_site_fract_z
Si Si1 0.798932 0.825813 0.432620
Si Si2 0.958565 0.327588 0.433222
Si Si3 0.080227 0.128303 0.067481
Si Si4 0.459869 0.064692 0.067063
Si Si5 0.880113 0.035734 0.567511
Si Si6 0.635146 0.028127 0.065719
Si Si7 0.558167 0.169225 0.433377
Si Si8 0.761360 0.988806 0.433391
O O1 0.774117 0.750000 0.500000
O O2 0.800862 0.821466 0.250000
O O3 0.863180 0.834943 0.497456
O O4 0.766687 0.901823 0.477178
O O5 0.937718 0.250000 0.500000
O O6 0.960237 0.325292 0.250000
O O7 0.917306 0.394435 0.483033
O O8 0.022221 0.341719 0.495744
O O9 0.079808 0.138759 0.250000
O O10 0.086895 0.040791 0.032419
O O11 0.458154 0.059958 0.250000
O O12 0.494374 0.139333 0.025628
O O13 0.500000 0.000000 0.000000
O O14 0.398711 0.043131 0.999045
O O15 0.874152 0.039209 0.750000
O O16 0.817226 0.029439 0.497122
O O17 0.632065 0.025122 0.250000
O O18 0.602692 0.104132 0.018329
O O19 0.701124 0.023537 0.017931
O O20 0.569764 0.250000 0.500000
O O21 0.561111 0.173194 0.250000
O O22 0.763774 0.991592 0.250000
#
# Coordination Sequence:
#
# PCOD9435388 Si02
#       8
#     8   8   8   8   8   8   8   8
#     4  10  19  32  50  73  99 129 162 201 250 302
#     4  11  22  35  50  72 100 129 162 203 250 303
#     4  10  19  33  53  75  97 124 158 202 253 305
#     4   9  17  30  49  74 100 129 161 197 240 288
#     4   9  20  36  53  73  98 127 164 207 249 295
#     4   9  18  34  53  75 101 132 170 209 245 291
#     4   9  18  31  49  74 104 132 164 203 245 288
#     4   9  19  35  55  74  97 132 171 206 246 292
#
# _framework density 17.303121000000001
#
# number of rings (size 3 to 8) (size 9 to 14) (size 15 to 20)
#    0.000    2.500    0.000    3.000    0.000    5.000 
#    0.000    1.250    0.000    6.000    0.000    0.000 
#    0.000    0.000    0.000    0.000    0.000    0.000 
#
# Total GULP energy -356811.916515 kJ/mol
# GULP energy per Si atom -5575.186196 kJ/mol
# Density = 1.726374 g / cm^3
# Si number density = 17.303121 Si / 1000 Ang^3
#
#
#
# Elastic Constant Matrix: (Units=GPa)
#
#
# Indices 1 2 3 4 5 6 
#
# 1 72.1720 45.7384 16.2683 0.0000 0.0000 0.0000
# 2 45.7384 112.6775 28.4265 0.0000 0.0000 0.0000
# 3 16.2683 28.4265 27.4730 0.0000 0.0000 0.0000
# 4 0.0000 0.0000 0.0000 28.2601 0.0000 0.0000
# 5 0.0000 0.0000 0.0000 0.0000 22.9298 0.0000
# 6 0.0000 0.0000 0.0000 0.0000 0.0000 14.8677
#
#
#
# Elastic Compliance Matrix: (Units=1/GPa)
#
#
# Indices 1 2 3 4 5 6 
#
# 1 0.019046 -0.006612 -0.004437 0.000000 0.000000 0.000000
# 2 -0.006612 0.014305 -0.010887 0.000000 0.000000 0.000000
# 3 -0.004437 -0.010887 0.050291 0.000000 0.000000 0.000000
# 4 0.000000 0.000000 0.000000 0.035386 0.000000 0.000000
# 5 0.000000 0.000000 0.000000 0.000000 0.043611 0.000000
# 6 0.000000 0.000000 0.000000 0.000000 0.000000 0.067260
#
#
# Mechanical properties :
#
#
# Convention : Reuss Voigt Hill
#
# Bulk Modulus (GPa) = 25.14340 43.68766 34.41553
# Shear Modulus (GPa) = 17.41996 21.33748 19.37872
#
# Velocity S-wave (km/s) = 3.17638 3.51544 3.35020
# Velocity P-wave (km/s) = 5.29294 6.46383 5.90746
#
# Compressibility (1/GPa) = 0.03977188
#
# Stress axis : x y z
#
# Youngs Moduli (GPa) = 52.50402 69.90417 19.88425
#
# Poissons Ratio (x) = 0.46220 0.08822
# Poissons Ratio (y) = 0.34715 0.21647
# Poissons Ratio (z) = 0.23295 0.76101
#
# Static dielectric constant tensor:
#      x y z
#    x 1.675360 0.000000 0.000000 
#    y 0.000000 1.592380 0.000000 
#    z 0.000000 0.000000 1.587720 
# 
# From -- ./inp_files/8578.got.cif
#   From: 2010.05.17/outbox.cif.g08.bks.cpg/sg57_5_cif.got.tgz:8578.got - 2010.06.03 13:58:18.
