data_PCOD9435953
_publ_section_title
;
Structure prediction by ZEFSAII (Michael W. Deem and Ramdas Pophale) SiO2 
 PCOD9435953
Probable space group: P B C M
;
_chemical_formula_sum "Si O2"
_cell_formula_units_Z 40
_cell_length_a 9.020243
_cell_length_b 7.987931
_cell_length_c 24.241585
_cell_angle_alpha 90.000000
_cell_angle_beta 90.000000
_cell_angle_gamma 90.000000
_cell_volume 1746.680832
_symmetry_space_group_name_H-M "P B C M"
_symmetry_group_IT_number 57
_symmetry_cell_setting 'orthorhombic'
loop_
_space_group_symop_operation_xyz
x,y,z
-x,-y,1/2+z
x,1/2-y,-z
-x,1/2+y,1/2-z
-x,-y,-z
x,y,1/2-z
-x,1/2+y,z
x,1/2-y,1/2+z
loop_
_atom_site_type_symbol
_atom_site_label
_atom_site_fract_x
_atom_site_fract_y
_atom_site_fract_z
Si Si1 0.721790 0.114804 0.421677
Si Si2 0.813934 0.578321 0.027687
Si Si3 0.207103 0.294324 0.686591
Si Si4 0.990701 0.507852 0.631706
Si Si5 0.429384 0.262511 0.099092
O O1 0.860381 0.128037 0.380868
O O2 0.601788 0.258155 0.415207
O O3 0.779629 0.059160 0.481505
O O4 0.625274 0.952133 0.404882
O O5 0.664905 0.652283 0.055555
O O6 0.917098 0.498166 0.074610
O O7 0.879309 0.750000 0.000000
O O8 0.215351 0.245370 0.750000
O O9 0.368080 0.302159 0.658031
O O10 0.110047 0.461114 0.677985
O O11 0.108336 0.165091 0.650064
#
# Coordination Sequence:
#
# PCOD9435953 Si02
#       5
#     8   8   8   8   8
#     4  10  19  34  54  82 117 146 181 229 278 343
#     4   9  18  35  56  84 118 151 183 228 286 344
#     4  10  21  40  59  79 110 148 193 249 292 330
#     4  10  21  36  59  86 111 145 193 237 289 349
#     4   9  20  35  53  79 112 150 188 225 277 342
#
# _framework density 22.900576999999998
#
# number of rings (size 3 to 8) (size 9 to 14) (size 15 to 20)
#    0.000    2.400    0.000    3.000    0.000    3.200 
#    0.000   10.000    0.000    0.000    0.000    0.000 
#    0.000    0.000    0.000    0.000    0.000    0.000 
#
# Total GULP energy -223404.005983 kJ/mol
# GULP energy per Si atom -5585.100150 kJ/mol
# Density = 2.284845 g / cm^3
# Si number density = 22.900577 Si / 1000 Ang^3
#
#
#
# Elastic Constant Matrix: (Units=GPa)
#
#
# Indices 1 2 3 4 5 6 
#
# 1 93.5512 4.1197 46.2566 0.0000 0.0000 0.0000
# 2 4.1197 49.0675 11.3289 0.0000 0.0000 0.0000
# 3 46.2566 11.3289 114.6961 0.0000 0.0000 0.0000
# 4 0.0000 0.0000 0.0000 21.2859 0.0000 0.0000
# 5 0.0000 0.0000 0.0000 0.0000 14.1272 0.0000
# 6 0.0000 0.0000 0.0000 0.0000 0.0000 38.0441
#
#
#
# Elastic Compliance Matrix: (Units=1/GPa)
#
#
# Indices 1 2 3 4 5 6 
#
# 1 0.013353 0.000125 -0.005397 0.000000 0.000000 0.000000
# 2 0.000125 0.020857 -0.002111 0.000000 0.000000 0.000000
# 3 -0.005397 -0.002111 0.011104 0.000000 0.000000 0.000000
# 4 0.000000 0.000000 0.000000 0.046979 0.000000 0.000000
# 5 0.000000 0.000000 0.000000 0.000000 0.070785 0.000000
# 6 0.000000 0.000000 0.000000 0.000000 0.000000 0.026285
#
#
# Mechanical properties :
#
#
# Convention : Reuss Voigt Hill
#
# Bulk Modulus (GPa) = 32.73574 42.30279 37.51927
# Shear Modulus (GPa) = 23.33049 27.73208 25.53128
#
# Velocity S-wave (km/s) = 3.19528 3.48369 3.34260
# Velocity P-wave (km/s) = 5.28572 5.89015 5.59610
#
# Compressibility (1/GPa) = 0.03054765
#
# Stress axis : x y z
#
# Youngs Moduli (GPa) = 74.89178 47.94581 90.05820
#
# Poissons Ratio (x) = -0.00600 0.48608
# Poissons Ratio (y) = -0.00937 0.19007
# Poissons Ratio (z) = 0.40422 0.10119
#
# Static dielectric constant tensor:
#      x y z
#    x 1.889900 0.000000 0.000000 
#    y 0.000000 1.956130 0.000000 
#    z 0.000000 0.000000 1.832950 
# 
# From -- ./inp_files/26491.got.cif
#   From: 2010.05.17/outbox.cif.g08.bks.cpg/sg57_14_cif.got.tgz:26491.got - 2010.06.03 13:58:18.
