data_PCOD9435830
_publ_section_title
;
Structure prediction by ZEFSAII (Michael W. Deem and Ramdas Pophale) SiO2 
 PCOD9435830
Probable space group: P B C M
;
_chemical_formula_sum "Si O2"
_cell_formula_units_Z 64
_cell_length_a 20.354643
_cell_length_b 20.757558
_cell_length_c 8.678891
_cell_angle_alpha 90.000000
_cell_angle_beta 90.000000
_cell_angle_gamma 90.000000
_cell_volume 3666.941519
_symmetry_space_group_name_H-M "P B C M"
_symmetry_group_IT_number 57
_symmetry_cell_setting 'orthorhombic'
loop_
_space_group_symop_operation_xyz
x,y,z
-x,-y,1/2+z
x,1/2-y,-z
-x,1/2+y,1/2-z
-x,-y,-z
x,y,1/2-z
-x,1/2+y,z
x,1/2-y,1/2+z
loop_
_atom_site_type_symbol
_atom_site_label
_atom_site_fract_x
_atom_site_fract_y
_atom_site_fract_z
Si Si1 0.311306 0.902030 0.935023
Si Si2 0.526050 0.932126 0.433206
Si Si3 0.945014 0.179872 0.436127
Si Si4 0.187775 0.062356 0.064073
Si Si5 0.162912 0.922300 0.935444
Si Si6 0.565922 0.179644 0.065847
Si Si7 0.903381 0.679994 0.064004
Si Si8 0.663416 0.541854 0.433841
O O1 0.315486 0.912851 0.750000
O O2 0.234783 0.893382 0.974770
O O3 0.360273 0.844301 0.974116
O O4 0.335573 0.966678 0.018683
O O5 0.520483 0.934027 0.250000
O O6 0.483144 0.873943 0.499713
O O7 0.601816 0.925854 0.483749
O O8 0.500000 0.000000 0.500000
O O9 0.926423 0.250000 0.500000
O O10 0.942671 0.182178 0.250000
O O11 0.895335 0.124311 0.488984
O O12 0.020748 0.167276 0.481782
O O13 0.185655 0.059804 0.250000
O O14 0.144200 0.122629 0.011930
O O15 0.264589 0.067854 0.019847
O O16 0.161367 0.994311 0.001779
O O17 0.159315 0.926716 0.750000
O O18 0.560070 0.180566 0.250000
O O19 0.552932 0.250000 0.000000
O O20 0.901267 0.682430 0.250000
O O21 0.884678 0.750000 0.000000
O O22 0.656111 0.547551 0.250000
#
# Coordination Sequence:
#
# PCOD9435830 Si02
#       8
#     8   8   8   8   8   8   8   8
#     4   9  18  33  52  73 103 140 177 215 260 315
#     4  12  23  37  59  84 108 140 180 222 267 322
#     4   9  18  32  50  72 102 139 179 221 264 315
#     4   9  19  34  52  77 107 137 173 221 269 316
#     4   9  18  32  50  76 107 139 176 218 263 312
#     4  11  23  38  55  79 111 145 181 225 270 317
#     4   9  18  34  53  74 102 137 178 222 268 319
#     4  10  19  33  55  80 105 135 175 219 264 317
#
# _framework density 17.453237000000001
#
# number of rings (size 3 to 8) (size 9 to 14) (size 15 to 20)
#    0.000    2.250    1.250    1.875    0.000    3.000 
#    0.000    0.625    0.000    1.500    0.000    0.000 
#    0.000    0.000    0.000    0.000    0.000    0.000 
#
# Total GULP energy -357089.732439 kJ/mol
# GULP energy per Si atom -5579.527069 kJ/mol
# Density = 1.741351 g / cm^3
# Si number density = 17.453237 Si / 1000 Ang^3
#
#
#
# Elastic Constant Matrix: (Units=GPa)
#
#
# Indices 1 2 3 4 5 6 
#
# 1 123.5105 107.6813 36.8944 0.0000 0.0000 0.0000
# 2 107.6813 153.5485 41.0365 0.0000 0.0000 0.0000
# 3 36.8944 41.0365 36.0436 0.0000 0.0000 0.0000
# 4 0.0000 0.0000 0.0000 30.3681 0.0000 0.0000
# 5 0.0000 0.0000 0.0000 0.0000 19.1854 0.0000
# 6 0.0000 0.0000 0.0000 0.0000 0.0000 30.6327
#
#
#
# Elastic Compliance Matrix: (Units=1/GPa)
#
#
# Indices 1 2 3 4 5 6 
#
# 1 0.022042 -0.013551 -0.007134 0.000000 0.000000 0.000000
# 2 -0.013551 0.017692 -0.006272 0.000000 0.000000 0.000000
# 3 -0.007134 -0.006272 0.042187 0.000000 0.000000 0.000000
# 4 0.000000 0.000000 0.000000 0.032929 0.000000 0.000000
# 5 0.000000 0.000000 0.000000 0.000000 0.052123 0.000000
# 6 0.000000 0.000000 0.000000 0.000000 0.000000 0.032645
#
#
# Mechanical properties :
#
#
# Convention : Reuss Voigt Hill
#
# Bulk Modulus (GPa) = 35.70492 76.03634 55.87063
# Shear Modulus (GPa) = 19.02103 24.53661 21.77882
#
# Velocity S-wave (km/s) = 3.30484 3.75353 3.53631
# Velocity P-wave (km/s) = 5.92153 7.90226 6.98248
#
# Compressibility (1/GPa) = 0.02800735
#
# Stress axis : x y z
#
# Youngs Moduli (GPa) = 45.36838 56.52315 23.70392
#
# Poissons Ratio (x) = 0.76594 0.16910
# Poissons Ratio (y) = 0.61479 0.14866
# Poissons Ratio (z) = 0.32366 0.35450
#
# Static dielectric constant tensor:
#      x y z
#    x 1.613460 0.000000 0.000000 
#    y 0.000000 1.566380 0.000000 
#    z 0.000000 0.000000 1.585890 
# 
# From -- ./inp_files/7252.got.cif
#   From: 2010.05.17/outbox.cif.g08.bks.cpg/sg57_4_cif.got.tgz:7252.got - 2010.06.03 13:58:18.
