data_PCOD9435012
_publ_section_title
;
Structure prediction by ZEFSAII (Michael W. Deem and Ramdas Pophale) SiO2 
 PCOD9435012
Probable space group: P B C M
;
_chemical_formula_sum "Si O2"
_cell_formula_units_Z 64
_cell_length_a 17.513657
_cell_length_b 26.209949
_cell_length_c 8.841575
_cell_angle_alpha 90.000000
_cell_angle_beta 90.000000
_cell_angle_gamma 90.000000
_cell_volume 4058.566357
_symmetry_space_group_name_H-M "P B C M"
_symmetry_group_IT_number 57
_symmetry_cell_setting 'orthorhombic'
loop_
_space_group_symop_operation_xyz
x,y,z
-x,-y,1/2+z
x,1/2-y,-z
-x,1/2+y,1/2-z
-x,-y,-z
x,y,1/2-z
-x,1/2+y,z
x,1/2-y,1/2+z
loop_
_atom_site_type_symbol
_atom_site_label
_atom_site_fract_x
_atom_site_fract_y
_atom_site_fract_z
Si Si1 0.908437 0.305271 0.568622
Si Si2 0.818877 0.100604 0.568940
Si Si3 0.915799 0.000787 0.567901
Si Si4 0.184157 0.097755 0.067020
Si Si5 0.914537 0.695115 0.068125
Si Si6 0.333700 0.559598 0.431200
Si Si7 0.496779 0.056790 0.431174
Si Si8 0.660253 0.938683 0.430863
O O1 0.889714 0.250000 0.500000
O O2 0.903397 0.303554 0.750000
O O3 0.854733 0.349154 0.503986
O O4 0.997177 0.316389 0.526708
O O5 0.820964 0.104488 0.750000
O O6 0.870082 0.051643 0.522659
O O7 0.733354 0.089171 0.514081
O O8 0.921379 0.000303 0.750000
O O9 0.867563 0.950910 0.522506
O O10 0.000000 0.000000 0.500000
O O11 0.190661 0.097307 0.250000
O O12 0.140867 0.149378 0.020608
O O13 0.267162 0.090810 0.995514
O O14 0.911739 0.698469 0.250000
O O15 0.894294 0.750000 0.000000
O O16 0.323233 0.563015 0.250000
O O17 0.419426 0.578982 0.467139
O O18 0.330089 0.499078 0.471308
O O19 0.509627 0.946198 0.750000
O O20 0.420014 0.080161 0.499988
O O21 0.500000 0.000000 0.500000
O O22 0.656979 0.935705 0.250000
#
# Coordination Sequence:
#
# PCOD9435012 Si02
#       8
#     8   8   8   8   8   8   8   8
#     4  10  20  36  55  73  97 127 165 212 253 295
#     4  11  21  32  49  73  99 130 166 203 247 295
#     4  10  21  33  46  67  96 131 167 201 243 297
#     4  10  19  33  49  69  98 132 165 202 249 295
#     4   9  19  34  53  72  94 126 166 210 256 295
#     4   9  18  31  46  68  98 131 165 198 240 290
#     4   9  17  29  46  68  96 130 166 201 241 290
#     4  10  19  30  46  71  99 131 167 202 244 293
#
# _framework density 15.769114999999999
#
# number of rings (size 3 to 8) (size 9 to 14) (size 15 to 20)
#    0.000    2.250    1.250    3.000    0.000    6.000 
#    0.000    0.000    0.000    0.000    0.000    0.875 
#    0.000    4.000    0.000    0.000    0.000    0.000 
#
# Total GULP energy -356959.672020 kJ/mol
# GULP energy per Si atom -5577.494875 kJ/mol
# Density = 1.573322 g / cm^3
# Si number density = 15.769115 Si / 1000 Ang^3
#
#
#
# Elastic Constant Matrix: (Units=GPa)
#
#
# Indices 1 2 3 4 5 6 
#
# 1 161.9459 81.1926 53.4516 0.0000 0.0000 0.0000
# 2 81.1926 101.5582 40.6044 0.0000 0.0000 0.0000
# 3 53.4516 40.6044 38.8121 0.0000 0.0000 0.0000
# 4 0.0000 0.0000 0.0000 22.6070 0.0000 0.0000
# 5 0.0000 0.0000 0.0000 0.0000 30.7764 0.0000
# 6 0.0000 0.0000 0.0000 0.0000 0.0000 17.3686
#
#
#
# Elastic Compliance Matrix: (Units=1/GPa)
#
#
# Indices 1 2 3 4 5 6 
#
# 1 0.012900 -0.005518 -0.011992 0.000000 0.000000 0.000000
# 2 -0.005518 0.019287 -0.012578 0.000000 0.000000 0.000000
# 3 -0.011992 -0.012578 0.055440 0.000000 0.000000 0.000000
# 4 0.000000 0.000000 0.000000 0.044234 0.000000 0.000000
# 5 0.000000 0.000000 0.000000 0.000000 0.032492 0.000000
# 6 0.000000 0.000000 0.000000 0.000000 0.000000 0.057575
#
#
# Mechanical properties :
#
#
# Convention : Reuss Voigt Hill
#
# Bulk Modulus (GPa) = 36.43082 72.53482 54.48282
# Shear Modulus (GPa) = 17.16708 22.62157 19.89433
#
# Velocity S-wave (km/s) = 3.30305 3.79165 3.55576
# Velocity P-wave (km/s) = 6.14001 8.07878 7.17518
#
# Compressibility (1/GPa) = 0.02744929
#
# Stress axis : x y z
#
# Youngs Moduli (GPa) = 77.52189 51.84798 18.03760
#
# Poissons Ratio (x) = 0.28611 0.21631
# Poissons Ratio (y) = 0.42778 0.22688
# Poissons Ratio (z) = 0.92965 0.65216
#
# Static dielectric constant tensor:
#      x y z
#    x 1.537630 0.000000 0.000000 
#    y 0.000000 1.505510 0.000000 
#    z 0.000000 0.000000 1.527350 
# 
# From -- ./inp_files/7131.got.cif
#   From: 2010.05.17/outbox.cif.g08.bks.cpg/sg57_4_cif.got.tgz:7131.got - 2010.06.03 13:58:18.
