data_PCOD9435063
_publ_section_title
;
Structure prediction by ZEFSAII (Michael W. Deem and Ramdas Pophale) SiO2 
 PCOD9435063
Probable space group: P B C M
;
_chemical_formula_sum "Si O2"
_cell_formula_units_Z 64
_cell_length_a 19.920212
_cell_length_b 18.779162
_cell_length_c 9.252027
_cell_angle_alpha 90.000000
_cell_angle_beta 90.000000
_cell_angle_gamma 90.000000
_cell_volume 3461.043486
_symmetry_space_group_name_H-M "P B C M"
_symmetry_group_IT_number 57
_symmetry_cell_setting 'orthorhombic'
loop_
_space_group_symop_operation_xyz
x,y,z
-x,-y,1/2+z
x,1/2-y,-z
-x,1/2+y,1/2-z
-x,-y,-z
x,y,1/2-z
-x,1/2+y,z
x,1/2-y,1/2+z
loop_
_atom_site_type_symbol
_atom_site_label
_atom_site_fract_x
_atom_site_fract_y
_atom_site_fract_z
Si Si1 0.784152 0.545666 0.080560
Si Si2 0.049913 0.901849 0.583263
Si Si3 0.918015 0.572134 0.583110
Si Si4 0.816969 0.123272 0.581112
Si Si5 0.355634 0.071023 0.577754
Si Si6 0.307947 0.814995 0.584291
Si Si7 0.574293 0.072924 0.416865
Si Si8 0.472218 0.174970 0.578892
O O1 0.785037 0.564104 0.250000
O O2 0.795724 0.460164 0.070273
O O3 0.847036 0.580096 0.996836
O O4 0.713643 0.565574 0.007888
O O5 0.048076 0.878808 0.750000
O O6 0.111308 0.868136 0.495323
O O7 0.979064 0.892188 0.503589
O O8 0.065242 0.987154 0.583395
O O9 0.915229 0.594915 0.750000
O O10 0.820229 0.141570 0.750000
O O11 0.760223 0.166651 0.497999
O O12 0.342682 0.061884 0.750000
O O13 0.397584 0.143018 0.556364
O O14 0.404992 0.005866 0.534358
O O15 0.341886 0.750000 0.500000
O O16 0.295310 0.795548 0.750000
O O17 0.356634 0.882420 0.581912
O O18 0.550077 0.069994 0.250000
O O19 0.522954 0.116465 0.514362
O O20 0.480799 0.250000 0.500000
O O21 0.483717 0.182701 0.750000
#
# Coordination Sequence:
#
# PCOD9435063 Si02
#       8
#     8   8   8   8   8   8   8   8
#     4  10  19  30  49  77 107 139 175 221 270 322
#     4   9  16  26  42  65  96 135 176 218 265 315
#     4   9  16  26  42  66 100 138 174 216 264 316
#     4  10  19  31  47  70 101 137 179 222 270 324
#     4  10  21  38  58  83 111 144 181 224 275 329
#     4  11  22  35  52  74 104 142 182 227 275 329
#     4  10  21  38  60  83 109 140 180 226 275 328
#     4  11  24  40  60  83 112 145 181 223 272 327
#
# _framework density 18.491531999999999
#
# number of rings (size 3 to 8) (size 9 to 14) (size 15 to 20)
#    0.000    2.000    1.250    3.000    0.000    7.500 
#    0.000    0.000    0.000    0.000    0.000    0.875 
#    0.000    2.000    0.000    0.000    0.000    0.000 
#
# Total GULP energy -357326.474195 kJ/mol
# GULP energy per Si atom -5583.226159 kJ/mol
# Density = 1.844944 g / cm^3
# Si number density = 18.491532 Si / 1000 Ang^3
#
#
#
# Elastic Constant Matrix: (Units=GPa)
#
#
# Indices 1 2 3 4 5 6 
#
# 1 127.9022 29.6127 83.9388 0.0000 0.0000 0.0000
# 2 29.6127 30.0089 26.2658 0.0000 0.0000 0.0000
# 3 83.9388 26.2658 146.3172 0.0000 0.0000 0.0000
# 4 0.0000 0.0000 0.0000 15.7304 0.0000 0.0000
# 5 0.0000 0.0000 0.0000 0.0000 33.1470 0.0000
# 6 0.0000 0.0000 0.0000 0.0000 0.0000 5.5636
#
#
#
# Elastic Compliance Matrix: (Units=1/GPa)
#
#
# Indices 1 2 3 4 5 6 
#
# 1 0.014009 -0.008055 -0.006590 0.000000 0.000000 0.000000
# 2 -0.008055 0.044167 -0.003307 0.000000 0.000000 0.000000
# 3 -0.006590 -0.003307 0.011209 0.000000 0.000000 0.000000
# 4 0.000000 0.000000 0.000000 0.063571 0.000000 0.000000
# 5 0.000000 0.000000 0.000000 0.000000 0.030169 0.000000
# 6 0.000000 0.000000 0.000000 0.000000 0.000000 0.179738
#
#
# Mechanical properties :
#
#
# Convention : Reuss Voigt Hill
#
# Bulk Modulus (GPa) = 29.86989 64.87363 47.37176
# Shear Modulus (GPa) = 12.82286 21.84894 17.33590
#
# Velocity S-wave (km/s) = 2.63619 3.44112 3.06519
# Velocity P-wave (km/s) = 5.04523 7.13775 6.18069
#
# Compressibility (1/GPa) = 0.03347853
#
# Stress axis : x y z
#
# Youngs Moduli (GPa) = 71.38494 22.64125 89.21454
#
# Poissons Ratio (x) = 0.18238 0.58796
# Poissons Ratio (y) = 0.57502 0.29507
# Poissons Ratio (z) = 0.47045 0.07488
#
# Static dielectric constant tensor:
#      x y z
#    x 1.624030 0.000000 0.000000 
#    y 0.000000 1.636510 0.000000 
#    z 0.000000 0.000000 1.623440 
# 
# From -- ./inp_files/7238.got.cif
#   From: 2010.05.17/outbox.cif.g08.bks.cpg/sg57_4_cif.got.tgz:7238.got - 2010.06.03 13:58:18.
