data_PCOD9435990
_publ_section_title
;
Structure prediction by ZEFSAII (Michael W. Deem and Ramdas Pophale) SiO2 
 PCOD9435990
Probable space group: P B C M
;
_chemical_formula_sum "Si O2"
_cell_formula_units_Z 56
_cell_length_a 10.921951
_cell_length_b 12.864619
_cell_length_c 18.901717
_cell_angle_alpha 90.000000
_cell_angle_beta 90.000000
_cell_angle_gamma 90.000000
_cell_volume 2655.818605
_symmetry_space_group_name_H-M "P B C M"
_symmetry_group_IT_number 57
_symmetry_cell_setting 'orthorhombic'
loop_
_space_group_symop_operation_xyz
x,y,z
-x,-y,1/2+z
x,1/2-y,-z
-x,1/2+y,1/2-z
-x,-y,-z
x,y,1/2-z
-x,1/2+y,z
x,1/2-y,1/2+z
loop_
_atom_site_type_symbol
_atom_site_label
_atom_site_fract_x
_atom_site_fract_y
_atom_site_fract_z
Si Si1 0.865313 0.516219 0.033440
Si Si2 0.907786 0.728045 0.085212
Si Si3 0.396910 0.746495 0.327602
Si Si4 0.125784 0.647593 0.170588
Si Si5 0.540927 0.441471 0.898888
Si Si6 0.352899 0.598560 0.548754
Si Si7 0.773559 0.933458 0.383724
O O1 0.861493 0.608846 0.089487
O O2 0.793519 0.413500 0.056494
O O3 0.783947 0.553293 0.967767
O O4 0.000000 0.500000 0.000000
O O5 0.828371 0.817383 0.124560
O O6 0.041434 0.714261 0.118686
O O7 0.914445 0.750000 0.000000
O O8 0.417832 0.793438 0.250000
O O9 0.261018 0.696255 0.328708
O O10 0.482156 0.647342 0.342019
O O11 0.403410 0.821586 0.394165
O O12 0.075175 0.652097 0.250000
O O13 0.142873 0.526112 0.148721
O O14 0.418873 0.492143 0.928080
O O15 0.634526 0.529803 0.868607
O O16 0.607419 0.386841 0.967192
#
# Coordination Sequence:
#
# PCOD9435990 Si02
#       7
#     8   8   8   8   8   8   8
#     4  10  19  34  55  89 118 144 185 245 302 357
#     4  10  21  32  56  83 110 151 191 236 296 367
#     4  10  22  37  57  86 116 161 205 242 299 364
#     4  10  21  35  52  79 116 151 197 243 287 356
#     4   9  20  39  59  87 117 152 197 255 298 349
#     4  10  21  36  63  88 117 151 199 250 299 354
#     4   9  19  35  54  78 113 151 186 235 299 351
#
# _framework density 21.085775999999999
#
# number of rings (size 3 to 8) (size 9 to 14) (size 15 to 20)
#    0.000    2.286    1.429    0.429    4.000    2.286 
#    0.000    6.429    0.000    1.714    0.000    0.000 
#    0.000    0.000    0.000    0.000    0.000    0.000 
#
# Total GULP energy -311771.811318 kJ/mol
# GULP energy per Si atom -5567.353774 kJ/mol
# Density = 2.103778 g / cm^3
# Si number density = 21.085776 Si / 1000 Ang^3
#
#
#
# Elastic Constant Matrix: (Units=GPa)
#
#
# Indices 1 2 3 4 5 6 
#
# 1 55.9475 22.0949 10.2436 0.0000 0.0000 0.0000
# 2 22.0949 78.5620 28.3175 0.0000 0.0000 0.0000
# 3 10.2436 28.3175 55.8997 0.0000 0.0000 0.0000
# 4 0.0000 0.0000 0.0000 16.1643 0.0000 0.0000
# 5 0.0000 0.0000 0.0000 0.0000 12.6427 0.0000
# 6 0.0000 0.0000 0.0000 0.0000 0.0000 19.8647
#
#
#
# Elastic Compliance Matrix: (Units=1/GPa)
#
#
# Indices 1 2 3 4 5 6 
#
# 1 0.020153 -0.005306 -0.001005 0.000000 0.000000 0.000000
# 2 -0.005306 0.016969 -0.007624 0.000000 0.000000 0.000000
# 3 -0.001005 -0.007624 0.021935 0.000000 0.000000 0.000000
# 4 0.000000 0.000000 0.000000 0.061865 0.000000 0.000000
# 5 0.000000 0.000000 0.000000 0.000000 0.079097 0.000000
# 6 0.000000 0.000000 0.000000 0.000000 0.000000 0.050341
#
#
# Mechanical properties :
#
#
# Convention : Reuss Voigt Hill
#
# Bulk Modulus (GPa) = 32.06349 34.63568 33.34958
# Shear Modulus (GPa) = 17.32349 18.38455 17.85402
#
# Velocity S-wave (km/s) = 2.86942 2.95599 2.91302
# Velocity P-wave (km/s) = 5.12028 5.30210 5.21198
#
# Compressibility (1/GPa) = 0.03118812
#
# Stress axis : x y z
#
# Youngs Moduli (GPa) = 49.61972 58.93123 45.58823
#
# Poissons Ratio (x) = 0.31266 0.04584
# Poissons Ratio (y) = 0.26326 0.34756
# Poissons Ratio (z) = 0.04989 0.44928
#
# Static dielectric constant tensor:
#      x y z
#    x 1.806020 0.000000 0.000000 
#    y 0.000000 1.846750 0.000000 
#    z 0.000000 0.000000 1.775520 
# 
# From -- ./inp_files/24994.got.cif
#   From: 2010.05.17/outbox.cif.g08.bks.cpg/sg57_13_cif.got.tgz:24994.got - 2010.06.03 13:58:18.
