data_PCOD9435637
_publ_section_title
;
Structure prediction by ZEFSAII (Michael W. Deem and Ramdas Pophale) SiO2 
 PCOD9435637
Probable space group: P B C M
;
_chemical_formula_sum "Si O2"
_cell_formula_units_Z 64
_cell_length_a 23.587473
_cell_length_b 8.198947
_cell_length_c 15.801715
_cell_angle_alpha 90.000000
_cell_angle_beta 90.000000
_cell_angle_gamma 90.000000
_cell_volume 3055.932236
_symmetry_space_group_name_H-M "P B C M"
_symmetry_group_IT_number 57
_symmetry_cell_setting 'orthorhombic'
loop_
_space_group_symop_operation_xyz
x,y,z
-x,-y,1/2+z
x,1/2-y,-z
-x,1/2+y,1/2-z
-x,-y,-z
x,y,1/2-z
-x,1/2+y,z
x,1/2-y,1/2+z
loop_
_atom_site_type_symbol
_atom_site_label
_atom_site_fract_x
_atom_site_fract_y
_atom_site_fract_z
Si Si1 0.160550 0.601791 0.154758
Si Si2 0.370259 0.441399 0.488980
Si Si3 0.420667 0.535941 0.844161
Si Si4 0.937333 0.931631 0.654252
Si Si5 0.047934 0.789912 0.905119
Si Si6 0.750757 0.445221 0.514036
Si Si7 0.530325 0.349384 0.587406
Si Si8 0.188596 0.506906 0.653293
O O1 0.172303 0.544611 0.250000
O O2 0.093923 0.586504 0.133603
O O3 0.199967 0.526416 0.082671
O O4 0.173783 0.797994 0.151931
O O5 0.376509 0.250000 0.500000
O O6 0.374200 0.519148 0.582914
O O7 0.309042 0.487565 0.453776
O O8 0.422253 0.517122 0.436284
O O9 0.402723 0.491347 0.750000
O O10 0.473704 0.426678 0.624600
O O11 0.443192 0.720038 0.651306
O O12 0.947789 0.874784 0.750000
O O13 0.983922 0.852140 0.594556
O O14 0.949061 0.124684 0.648170
O O15 0.870761 0.914592 0.635643
O O16 0.067421 0.750000 0.000000
O O17 0.745346 0.250000 0.500000
O O18 0.768432 0.520799 0.423458
O O19 0.519072 0.250000 0.500000
O O20 0.206859 0.469996 0.750000
#
# Coordination Sequence:
#
# PCOD9435637 Si02
#       8
#     8   8   8   8   8   8   8   8
#     4   9  17  32  53  77 102 135 178 230 285 340
#     4  11  23  40  58  80 117 160 193 230 287 348
#     4  11  21  36  61  93 121 151 192 239 283 333
#     4  10  19  33  51  76 106 139 175 220 279 343
#     4  11  20  32  52  78 108 140 180 228 283 345
#     4  10  19  35  57  78 101 138 191 240 280 330
#     4  10  20  37  60  86 120 157 193 230 280 339
#     4   8  16  31  53  76 103 138 180 227 281 340
#
# _framework density 20.942872999999999
#
# number of rings (size 3 to 8) (size 9 to 14) (size 15 to 20)
#    0.000    2.000    0.000    8.250    0.000    0.500 
#    0.000    6.875    0.000    1.500    0.000    0.000 
#    0.000    0.000    0.000    0.000    0.000    0.000 
#
# Total GULP energy -357464.347201 kJ/mol
# GULP energy per Si atom -5585.380425 kJ/mol
# Density = 2.089521 g / cm^3
# Si number density = 20.942873 Si / 1000 Ang^3
#
#
#
# Elastic Constant Matrix: (Units=GPa)
#
#
# Indices 1 2 3 4 5 6 
#
# 1 49.7246 2.6948 5.1154 0.0000 0.0000 0.0000
# 2 2.6948 33.1708 -7.8893 0.0000 0.0000 0.0000
# 3 5.1154 -7.8893 77.7699 0.0000 0.0000 0.0000
# 4 0.0000 0.0000 0.0000 8.4716 0.0000 0.0000
# 5 0.0000 0.0000 0.0000 0.0000 10.2011 0.0000
# 6 0.0000 0.0000 0.0000 0.0000 0.0000 21.4158
#
#
#
# Elastic Compliance Matrix: (Units=1/GPa)
#
#
# Indices 1 2 3 4 5 6 
#
# 1 0.020379 -0.002023 -0.001546 0.000000 0.000000 0.000000
# 2 -0.002023 0.031093 0.003287 0.000000 0.000000 0.000000
# 3 -0.001546 0.003287 0.013294 0.000000 0.000000 0.000000
# 4 0.000000 0.000000 0.000000 0.118041 0.000000 0.000000
# 5 0.000000 0.000000 0.000000 0.000000 0.098029 0.000000
# 6 0.000000 0.000000 0.000000 0.000000 0.000000 0.046694
#
#
# Mechanical properties :
#
#
# Convention : Reuss Voigt Hill
#
# Bulk Modulus (GPa) = 15.57563 17.83412 16.70487
# Shear Modulus (GPa) = 14.30635 18.73400 16.52017
#
# Velocity S-wave (km/s) = 2.61648 2.99411 2.81164
# Velocity P-wave (km/s) = 4.07201 4.52626 4.30513
#
# Compressibility (1/GPa) = 0.06420288
#
# Stress axis : x y z
#
# Youngs Moduli (GPa) = 49.06907 32.16139 75.22417
#
# Poissons Ratio (x) = 0.06507 0.11628
# Poissons Ratio (y) = 0.09928 -0.24729
# Poissons Ratio (z) = 0.07585 -0.10572
#
# Static dielectric constant tensor:
#      x y z
#    x 1.730510 0.000000 0.000000 
#    y 0.000000 1.767310 0.000000 
#    z 0.000000 0.000000 1.757740 
# 
# From -- ./inp_files/19529.got.cif
#   From: 2010.05.17/outbox.cif.g08.bks.cpg/sg57_10_cif.got.tgz:19529.got - 2010.06.03 13:58:18.
