data_PCOD9435412
_publ_section_title
;
Structure prediction by ZEFSAII (Michael W. Deem and Ramdas Pophale) SiO2 
 PCOD9435412
Probable space group: P B C M
;
_chemical_formula_sum "Si O2"
_cell_formula_units_Z 64
_cell_length_a 16.005576
_cell_length_b 29.104398
_cell_length_c 8.723960
_cell_angle_alpha 90.000000
_cell_angle_beta 90.000000
_cell_angle_gamma 90.000000
_cell_volume 4063.905441
_symmetry_space_group_name_H-M "P B C M"
_symmetry_group_IT_number 57
_symmetry_cell_setting 'orthorhombic'
loop_
_space_group_symop_operation_xyz
x,y,z
-x,-y,1/2+z
x,1/2-y,-z
-x,1/2+y,1/2-z
-x,-y,-z
x,y,1/2-z
-x,1/2+y,z
x,1/2-y,1/2+z
loop_
_atom_site_type_symbol
_atom_site_label
_atom_site_fract_x
_atom_site_fract_y
_atom_site_fract_z
Si Si1 0.399359 0.700698 0.933341
Si Si2 0.655932 0.895931 0.565839
Si Si3 0.999064 0.551460 0.567005
Si Si4 0.815695 0.053386 0.934627
Si Si5 0.502460 0.051201 0.932967
Si Si6 0.340557 0.607243 0.432706
Si Si7 0.585611 0.701940 0.433020
Si Si8 0.173672 0.445233 0.565929
O O1 0.398556 0.701602 0.750000
O O2 0.372266 0.750000 0.000000
O O3 0.346675 0.658110 0.996499
O O4 0.494710 0.693725 0.991825
O O5 0.646498 0.902865 0.750000
O O6 0.581967 0.923058 0.482698
O O7 0.643110 0.841973 0.535449
O O8 0.745750 0.915849 0.520418
O O9 0.994900 0.549072 0.750000
O O10 0.913508 0.572352 0.503553
O O11 0.000000 0.500000 0.500000
O O12 0.090614 0.570915 0.526971
O O13 0.804519 0.056276 0.750000
O O14 0.812245 0.999013 0.976103
O O15 0.743486 0.081441 0.016773
O O16 0.509947 0.049837 0.750000
O O17 0.581008 0.078546 0.002045
O O18 0.500000 0.000000 0.000000
O O19 0.347131 0.609791 0.250000
O O20 0.617721 0.750000 0.500000
O O21 0.574140 0.706017 0.250000
O O22 0.166024 0.444159 0.750000
#
# Coordination Sequence:
#
# PCOD9435412 Si02
#       8
#     8   8   8   8   8   8   8   8
#     4  11  21  35  54  74  98 129 166 210 256 298
#     4  10  20  34  51  72 100 133 168 206 248 297
#     4   9  17  30  49  71  97 128 163 205 249 293
#     4   9  18  32  49  71 100 133 167 205 251 298
#     4  12  24  36  50  68  97 136 172 206 244 291
#     4  12  23  35  51  74 101 132 170 208 249 300
#     4  10  19  32  51  72  98 129 167 210 253 295
#     4   9  18  32  50  72 100 132 166 206 250 295
#
# _framework density 15.748398
#
# number of rings (size 3 to 8) (size 9 to 14) (size 15 to 20)
#    0.000    1.750    1.250    6.375    0.000    4.500 
#    0.000    0.000    0.000    0.000    0.000    0.875 
#    0.000    4.000    0.000    0.000    0.000    0.000 
#
# Total GULP energy -357193.797471 kJ/mol
# GULP energy per Si atom -5581.153085 kJ/mol
# Density = 1.571255 g / cm^3
# Si number density = 15.748398 Si / 1000 Ang^3
#
#
#
# Elastic Constant Matrix: (Units=GPa)
#
#
# Indices 1 2 3 4 5 6 
#
# 1 129.7818 57.6503 56.1620 0.0000 0.0000 0.0000
# 2 57.6503 100.7309 51.1336 0.0000 0.0000 0.0000
# 3 56.1620 51.1336 90.1856 0.0000 0.0000 0.0000
# 4 0.0000 0.0000 0.0000 22.2798 0.0000 0.0000
# 5 0.0000 0.0000 0.0000 0.0000 27.3479 0.0000
# 6 0.0000 0.0000 0.0000 0.0000 0.0000 3.7500
#
#
#
# Elastic Compliance Matrix: (Units=1/GPa)
#
#
# Indices 1 2 3 4 5 6 
#
# 1 0.011693 -0.004206 -0.004897 0.000000 0.000000 0.000000
# 2 -0.004206 0.015453 -0.006142 0.000000 0.000000 0.000000
# 3 -0.004897 -0.006142 0.017620 0.000000 0.000000 0.000000
# 4 0.000000 0.000000 0.000000 0.044884 0.000000 0.000000
# 5 0.000000 0.000000 0.000000 0.000000 0.036566 0.000000
# 6 0.000000 0.000000 0.000000 0.000000 0.000000 0.266665
#
#
# Mechanical properties :
#
#
# Convention : Reuss Voigt Hill
#
# Bulk Modulus (GPa) = 70.04981 72.28778 71.16879
# Shear Modulus (GPa) = 11.67875 21.05904 16.36890
#
# Velocity S-wave (km/s) = 2.72616 3.66077 3.22747
# Velocity P-wave (km/s) = 7.38149 7.99185 7.69272
#
# Compressibility (1/GPa) = 0.01427556
#
# Stress axis : x y z
#
# Youngs Moduli (GPa) = 85.52370 64.71402 56.75414
#
# Poissons Ratio (x) = 0.27221 0.27790
# Poissons Ratio (y) = 0.35974 0.34858
# Poissons Ratio (z) = 0.41877 0.39747
#
# Static dielectric constant tensor:
#      x y z
#    x 1.520940 0.000000 0.000000 
#    y 0.000000 1.516290 0.000000 
#    z 0.000000 0.000000 1.528050 
# 
# From -- ./inp_files/6016.got.cif
#   From: 2010.05.17/outbox.cif.g08.bks.cpg/sg57_4_cif.got.tgz:6016.got - 2010.06.03 13:58:18.
