data_PCOD9435795
_publ_section_title
;
Structure prediction by ZEFSAII (Michael W. Deem and Ramdas Pophale) SiO2 
 PCOD9435795
Probable space group: P B C M
;
_chemical_formula_sum "Si O2"
_cell_formula_units_Z 56
_cell_length_a 22.229958
_cell_length_b 14.283654
_cell_length_c 8.940447
_cell_angle_alpha 90.000000
_cell_angle_beta 90.000000
_cell_angle_gamma 90.000000
_cell_volume 2838.815689
_symmetry_space_group_name_H-M "P B C M"
_symmetry_group_IT_number 57
_symmetry_cell_setting 'orthorhombic'
loop_
_space_group_symop_operation_xyz
x,y,z
-x,-y,1/2+z
x,1/2-y,-z
-x,1/2+y,1/2-z
-x,-y,-z
x,y,1/2-z
-x,1/2+y,z
x,1/2-y,1/2+z
loop_
_atom_site_type_symbol
_atom_site_label
_atom_site_fract_x
_atom_site_fract_y
_atom_site_fract_z
Si Si1 0.937473 0.974995 0.078336
Si Si2 0.136977 0.835044 0.920769
Si Si3 0.834839 0.647738 0.070211
Si Si4 0.733635 0.342742 0.072420
Si Si5 0.538019 0.353142 0.428422
Si Si6 0.412394 0.043483 0.572851
Si Si7 0.707813 0.947998 0.929612
O O1 0.947063 0.943966 0.250000
O O2 0.900382 0.071299 0.079995
O O3 0.894218 0.903409 0.991800
O O4 0.000000 0.000000 0.000000
O O5 0.152602 0.810848 0.750000
O O6 0.102507 0.750000 0.000000
O O7 0.197573 0.847308 0.015571
O O8 0.837440 0.650681 0.250000
O O9 0.772581 0.594599 0.027657
O O10 0.831991 0.750000 0.000000
O O11 0.731204 0.334561 0.250000
O O12 0.707549 0.442340 0.028638
O O13 0.705760 0.250000 0.000000
O O14 0.548027 0.250000 0.500000
O O15 0.549825 0.348102 0.250000
O O16 0.469085 0.387741 0.452890
O O17 0.574315 0.442201 0.496275
O O18 0.406779 0.028570 0.750000
O O19 0.351790 0.089669 0.507954
O O20 0.702689 0.939711 0.750000
#
# Coordination Sequence:
#
# PCOD9435795 Si02
#       7
#     8   8   8   8   8   8   8
#     4  11  24  41  63  90 120 158 202 252 306 362
#     4  10  20  34  56  84 112 145 185 231 287 348
#     4  11  24  44  66  90 123 163 207 256 309 365
#     4  10  19  33  54  82 113 149 188 231 289 351
#     4  10  21  39  62  88 121 161 205 253 307 361
#     4  10  22  38  60  90 122 160 205 254 304 359
#     4  10  22  39  60  86 123 164 201 249 305 362
#
# _framework density 19.726535999999999
#
# number of rings (size 3 to 8) (size 9 to 14) (size 15 to 20)
#    0.000    1.714    1.429    3.429    0.000    7.429 
#    0.000    5.714    0.000    0.000    0.000    0.000 
#    0.000    0.000    0.000    0.000    0.000    0.000 
#
# Total GULP energy -312617.414403 kJ/mol
# GULP energy per Si atom -5582.453829 kJ/mol
# Density = 1.968164 g / cm^3
# Si number density = 19.726536 Si / 1000 Ang^3
#
#
#
# Elastic Constant Matrix: (Units=GPa)
#
#
# Indices 1 2 3 4 5 6 
#
# 1 128.2345 32.4763 46.7577 0.0000 0.0000 0.0000
# 2 32.4763 90.1877 41.3565 0.0000 0.0000 0.0000
# 3 46.7577 41.3565 69.2764 0.0000 0.0000 0.0000
# 4 0.0000 0.0000 0.0000 32.0268 0.0000 0.0000
# 5 0.0000 0.0000 0.0000 0.0000 26.8358 0.0000
# 6 0.0000 0.0000 0.0000 0.0000 0.0000 0.9660
#
#
#
# Elastic Compliance Matrix: (Units=1/GPa)
#
#
# Indices 1 2 3 4 5 6 
#
# 1 0.010378 -0.000723 -0.006573 0.000000 0.000000 0.000000
# 2 -0.000723 0.015318 -0.008656 0.000000 0.000000 0.000000
# 3 -0.006573 -0.008656 0.024039 0.000000 0.000000 0.000000
# 4 0.000000 0.000000 0.000000 0.031224 0.000000 0.000000
# 5 0.000000 0.000000 0.000000 0.000000 0.037264 0.000000
# 6 0.000000 0.000000 0.000000 0.000000 0.000000 1.035213
#
#
# Mechanical properties :
#
#
# Convention : Reuss Voigt Hill
#
# Bulk Modulus (GPa) = 56.08503 58.76441 57.42472
# Shear Modulus (GPa) = 4.19715 23.10627 13.65171
#
# Velocity S-wave (km/s) = 1.46024 3.42618 2.63353
# Velocity P-wave (km/s) = 5.59786 6.74580 6.19846
#
# Compressibility (1/GPa) = 0.01783007
#
# Stress axis : x y z
#
# Youngs Moduli (GPa) = 96.35788 65.28339 41.59908
#
# Poissons Ratio (x) = 0.04720 0.27343
# Poissons Ratio (y) = 0.06966 0.36010
# Poissons Ratio (z) = 0.63335 0.56512
#
# Static dielectric constant tensor:
#      x y z
#    x 1.702110 0.000000 0.000000 
#    y 0.000000 1.721170 0.000000 
#    z 0.000000 0.000000 1.680250 
# 
# From -- ./inp_files/8065.got.cif
#   From: 2010.05.17/outbox.cif.g08.bks.cpg/sg57_5_cif.got.tgz:8065.got - 2010.06.03 13:58:18.
