data_PCOD9435187
_publ_section_title
;
Structure prediction by ZEFSAII (Michael W. Deem and Ramdas Pophale) SiO2 
 PCOD9435187
Probable space group: P B C M
;
_chemical_formula_sum "Si O2"
_cell_formula_units_Z 64
_cell_length_a 16.648465
_cell_length_b 24.230938
_cell_length_c 9.096748
_cell_angle_alpha 90.000000
_cell_angle_beta 90.000000
_cell_angle_gamma 90.000000
_cell_volume 3669.700219
_symmetry_space_group_name_H-M "P B C M"
_symmetry_group_IT_number 57
_symmetry_cell_setting 'orthorhombic'
loop_
_space_group_symop_operation_xyz
x,y,z
-x,-y,1/2+z
x,1/2-y,-z
-x,1/2+y,1/2-z
-x,-y,-z
x,y,1/2-z
-x,1/2+y,z
x,1/2-y,1/2+z
loop_
_atom_site_type_symbol
_atom_site_label
_atom_site_fract_x
_atom_site_fract_y
_atom_site_fract_z
Si Si1 0.055029 0.915740 0.925992
Si Si2 0.886535 0.525724 0.074217
Si Si3 0.565343 0.534589 0.915119
Si Si4 0.863269 0.188910 0.928149
Si Si5 0.319519 0.809164 0.425899
Si Si6 0.506708 0.342965 0.083166
Si Si7 0.647093 0.695349 0.424350
Si Si8 0.284004 0.076904 0.073849
O O1 0.065352 0.910519 0.750000
O O2 0.963203 0.935094 0.955777
O O3 0.080429 0.858863 0.004798
O O4 0.104879 0.967914 0.989219
O O5 0.886567 0.514312 0.250000
O O6 0.804786 0.557134 0.035584
O O7 0.576742 0.514024 0.750000
O O8 0.527976 0.595721 0.910056
O O9 0.500000 0.500000 0.000000
O O10 0.649414 0.538855 0.998437
O O11 0.871505 0.192276 0.750000
O O12 0.770522 0.171579 0.964781
O O13 0.875869 0.250000 0.000000
O O14 0.330243 0.750000 0.500000
O O15 0.318759 0.803438 0.250000
O O16 0.400107 0.842799 0.463702
O O17 0.501871 0.319575 0.250000
O O18 0.445040 0.312029 0.977116
O O19 0.680245 0.750000 0.500000
O O20 0.649954 0.700555 0.250000
O O21 0.695212 0.639999 0.468251
O O22 0.293288 0.073377 0.250000
#
# Coordination Sequence:
#
# PCOD9435187 Si02
#       8
#     8   8   8   8   8   8   8   8
#     4  10  20  35  57  84 109 134 170 215 263 318
#     4   9  19  37  59  80 105 137 173 215 263 315
#     4  10  20  33  49  71 101 135 170 209 254 305
#     4  10  20  35  54  77 108 144 178 214 261 314
#     4   9  18  31  47  68  94 126 163 201 241 289
#     4   9  18  32  48  67  93 127 167 208 248 292
#     4  10  19  31  49  72  98 130 168 209 255 306
#     4   9  19  36  55  74 100 136 175 216 262 310
#
# _framework density 17.440117999999998
#
# number of rings (size 3 to 8) (size 9 to 14) (size 15 to 20)
#    0.000    2.500    0.000    1.875    0.000    5.000 
#    0.000    3.125    0.000    1.500    0.000    0.000 
#    0.000    0.000    0.000    0.000    0.000    0.000 
#
# Total GULP energy -356651.325547 kJ/mol
# GULP energy per Si atom -5572.676962 kJ/mol
# Density = 1.740042 g / cm^3
# Si number density = 17.440118 Si / 1000 Ang^3
#
#
#
# Elastic Constant Matrix: (Units=GPa)
#
#
# Indices 1 2 3 4 5 6 
#
# 1 117.7345 67.4535 50.4351 0.0000 0.0000 0.0000
# 2 67.4535 85.7475 52.6679 0.0000 0.0000 0.0000
# 3 50.4351 52.6679 54.5138 0.0000 0.0000 0.0000
# 4 0.0000 0.0000 0.0000 32.0685 0.0000 0.0000
# 5 0.0000 0.0000 0.0000 0.0000 24.0462 0.0000
# 6 0.0000 0.0000 0.0000 0.0000 0.0000 22.0984
#
#
#
# Elastic Compliance Matrix: (Units=1/GPa)
#
#
# Indices 1 2 3 4 5 6 
#
# 1 0.016390 -0.008803 -0.006658 0.000000 0.000000 0.000000
# 2 -0.008803 0.033412 -0.024136 0.000000 0.000000 0.000000
# 3 -0.006658 -0.024136 0.047823 0.000000 0.000000 0.000000
# 4 0.000000 0.000000 0.000000 0.031183 0.000000 0.000000
# 5 0.000000 0.000000 0.000000 0.000000 0.041587 0.000000
# 6 0.000000 0.000000 0.000000 0.000000 0.000000 0.045252
#
#
# Mechanical properties :
#
#
# Convention : Reuss Voigt Hill
#
# Bulk Modulus (GPa) = 54.26102 66.56764 60.41433
# Shear Modulus (GPa) = 16.61211 21.47190 19.04201
#
# Velocity S-wave (km/s) = 3.08965 3.51262 3.30790
# Velocity P-wave (km/s) = 6.62632 7.39618 7.02181
#
# Compressibility (1/GPa) = 0.01842944
#
# Stress axis : x y z
#
# Youngs Moduli (GPa) = 61.01432 29.92902 20.91056
#
# Poissons Ratio (x) = 0.26348 0.13922
# Poissons Ratio (y) = 0.53714 0.50470
# Poissons Ratio (z) = 0.40623 0.72237
#
# Static dielectric constant tensor:
#      x y z
#    x 1.594180 0.000000 0.000000 
#    y 0.000000 1.588820 0.000000 
#    z 0.000000 0.000000 1.601640 
# 
# From -- ./inp_files/5624.got.cif
#   From: 2010.05.17/outbox.cif.g08.bks.cpg/sg57_3_cif.got.tgz:5624.got - 2010.06.03 13:58:18.
