data_PCOD9435639
_publ_section_title
;
Structure prediction by ZEFSAII (Michael W. Deem and Ramdas Pophale) SiO2 
 PCOD9435639
Probable space group: P B C M
;
_chemical_formula_sum "Si O2"
_cell_formula_units_Z 56
_cell_length_a 12.491767
_cell_length_b 9.696310
_cell_length_c 27.972684
_cell_angle_alpha 90.000000
_cell_angle_beta 90.000000
_cell_angle_gamma 90.000000
_cell_volume 3388.164643
_symmetry_space_group_name_H-M "P B C M"
_symmetry_group_IT_number 57
_symmetry_cell_setting 'orthorhombic'
loop_
_space_group_symop_operation_xyz
x,y,z
-x,-y,1/2+z
x,1/2-y,-z
-x,1/2+y,1/2-z
-x,-y,-z
x,y,1/2-z
-x,1/2+y,z
x,1/2-y,1/2+z
loop_
_atom_site_type_symbol
_atom_site_label
_atom_site_fract_x
_atom_site_fract_y
_atom_site_fract_z
Si Si1 0.399039 0.830840 0.802977
Si Si2 0.276004 0.513926 0.901857
Si Si3 0.877723 0.083665 0.449808
Si Si4 0.451693 0.118367 0.033683
Si Si5 0.337543 0.665233 0.093721
Si Si6 0.616693 0.496437 0.197046
Si Si7 0.935874 0.110458 0.561690
O O1 0.352797 0.860137 0.750000
O O2 0.332861 0.870673 0.850078
O O3 0.414980 0.665530 0.805988
O O4 0.511258 0.910179 0.806017
O O5 0.342844 0.424192 0.939624
O O6 0.312978 0.672236 0.911178
O O7 0.309036 0.474731 0.848209
O O8 0.149277 0.521023 0.908747
O O9 0.753195 0.084512 0.435824
O O10 0.896071 0.093232 0.506726
O O11 0.925510 0.226711 0.428370
O O12 0.946618 0.952947 0.433347
O O13 0.544035 0.142227 0.073335
O O14 0.436908 0.250000 0.000000
O O15 0.500000 0.000000 0.000000
O O16 0.664823 0.517722 0.250000
#
# Coordination Sequence:
#
# PCOD9435639 Si02
#       7
#     8   8   8   8   8   8   8
#     4   9  17  30  48  71  96 125 162 197 235 289
#     4  10  19  34  50  71  99 131 161 198 241 292
#     4   9  18  33  51  67  91 126 165 202 238 280
#     4  12  22  32  45  70 103 133 162 189 235 291
#     4  10  19  33  52  69  98 134 159 194 249 289
#     4   9  17  30  49  71  96 126 161 197 238 287
#     4   9  18  34  50  68  93 125 165 202 238 280
#
# _framework density 16.528123000000001
#
# number of rings (size 3 to 8) (size 9 to 14) (size 15 to 20)
#    0.000    2.286    2.857    0.857    2.000    0.000 
#    7.714    0.000    0.000    0.857    0.000    0.000 
#    0.000    0.000    0.000    0.000    0.000    0.000 
#
# Total GULP energy -311987.079870 kJ/mol
# GULP energy per Si atom -5571.197855 kJ/mol
# Density = 1.649050 g / cm^3
# Si number density = 16.528123 Si / 1000 Ang^3
#
#
#
# Elastic Constant Matrix: (Units=GPa)
#
#
# Indices 1 2 3 4 5 6 
#
# 1 33.4268 3.2375 13.4468 0.0000 0.0000 0.0000
# 2 3.2375 26.7999 21.2730 0.0000 0.0000 0.0000
# 3 13.4468 21.2730 79.5757 0.0000 0.0000 0.0000
# 4 0.0000 0.0000 0.0000 18.3535 0.0000 0.0000
# 5 0.0000 0.0000 0.0000 0.0000 18.3505 0.0000
# 6 0.0000 0.0000 0.0000 0.0000 0.0000 23.7740
#
#
#
# Elastic Compliance Matrix: (Units=1/GPa)
#
#
# Indices 1 2 3 4 5 6 
#
# 1 0.032104 0.000543 -0.005570 0.000000 0.000000 0.000000
# 2 0.000543 0.047374 -0.012756 0.000000 0.000000 0.000000
# 3 -0.005570 -0.012756 0.016918 0.000000 0.000000 0.000000
# 4 0.000000 0.000000 0.000000 0.054485 0.000000 0.000000
# 5 0.000000 0.000000 0.000000 0.000000 0.054494 0.000000
# 6 0.000000 0.000000 0.000000 0.000000 0.000000 0.042063
#
#
# Mechanical properties :
#
#
# Convention : Reuss Voigt Hill
#
# Bulk Modulus (GPa) = 16.43938 23.96855 20.20397
# Shear Modulus (GPa) = 16.48635 18.88529 17.68582
#
# Velocity S-wave (km/s) = 3.16171 3.38393 3.27470
# Velocity P-wave (km/s) = 4.82664 5.45904 5.15255
#
# Compressibility (1/GPa) = 0.06082954
#
# Stress axis : x y z
#
# Youngs Moduli (GPa) = 31.14846 21.10881 59.10843
#
# Poissons Ratio (x) = -0.01147 0.32925
# Poissons Ratio (y) = -0.01692 0.75400
# Poissons Ratio (z) = 0.17351 0.26927
#
# Static dielectric constant tensor:
#      x y z
#    x 1.544030 0.000000 0.000000 
#    y 0.000000 1.562380 0.000000 
#    z 0.000000 0.000000 1.581540 
# 
# From -- ./inp_files/27234.got.cif
#   From: 2010.05.17/outbox.cif.g08.bks.cpg/sg57_14_cif.got.tgz:27234.got - 2010.06.03 13:58:18.
