data_PCOD9435712
_publ_section_title
;
Structure prediction by ZEFSAII (Michael W. Deem and Ramdas Pophale) SiO2 
 PCOD9435712
Probable space group: P B C M
;
_chemical_formula_sum "Si O2"
_cell_formula_units_Z 48
_cell_length_a 9.702506
_cell_length_b 15.725189
_cell_length_c 14.688957
_cell_angle_alpha 90.000000
_cell_angle_beta 90.000000
_cell_angle_gamma 90.000000
_cell_volume 2241.149115
_symmetry_space_group_name_H-M "P B C M"
_symmetry_group_IT_number 57
_symmetry_cell_setting 'orthorhombic'
loop_
_space_group_symop_operation_xyz
x,y,z
-x,-y,1/2+z
x,1/2-y,-z
-x,1/2+y,1/2-z
-x,-y,-z
x,y,1/2-z
-x,1/2+y,z
x,1/2-y,1/2+z
loop_
_atom_site_type_symbol
_atom_site_label
_atom_site_fract_x
_atom_site_fract_y
_atom_site_fract_z
Si Si1 0.345157 0.368465 0.144618
Si Si2 0.169083 0.794493 0.855058
Si Si3 0.852712 0.016191 0.138253
Si Si4 0.655187 0.135650 0.637871
Si Si5 0.832803 0.524670 0.360254
Si Si6 0.853177 0.718178 0.398165
O O1 0.366745 0.392359 0.250000
O O2 0.249924 0.443369 0.105084
O O3 0.497747 0.359051 0.105144
O O4 0.259146 0.281521 0.142975
O O5 0.213433 0.801750 0.750000
O O6 0.186145 0.889157 0.894438
O O7 0.254471 0.716015 0.894105
O O8 0.005487 0.775841 0.855444
O O9 0.851768 0.016553 0.250000
O O10 0.011344 0.999096 0.112628
O O11 0.658034 0.137308 0.750000
O O12 0.726310 0.047281 0.610775
O O13 0.830710 0.528543 0.250000
O O14 0.807213 0.620478 0.392711
O O15 0.870436 0.750000 0.500000
#
# Coordination Sequence:
#
# PCOD9435712 Si02
#       6
#     8   8   8   8   8   8
#     4  10  19  33  53  79 106 134 166 210 261 311
#     4   9  17  34  56  78 102 132 170 216 260 305
#     4   8  15  28  51  76  98 125 162 204 251 300
#     4   9  18  31  54  82 104 129 168 212 261 312
#     4   9  17  33  54  76 100 131 169 213 256 301
#     4  11  22  35  51  75 103 139 180 215 252 301
#
# _framework density 21.417584999999999
#
# number of rings (size 3 to 8) (size 9 to 14) (size 15 to 20)
#    0.000    2.667    0.000    3.500    0.000    4.000 
#    0.000   14.167    0.000    0.000    0.000    0.000 
#    0.000    0.000    0.000    0.000    0.000    0.000 
#
# Total GULP energy -267995.261909 kJ/mol
# GULP energy per Si atom -5583.234623 kJ/mol
# Density = 2.136884 g / cm^3
# Si number density = 21.417585 Si / 1000 Ang^3
#
#
#
# Elastic Constant Matrix: (Units=GPa)
#
#
# Indices 1 2 3 4 5 6 
#
# 1 154.6524 143.4765 -8.6696 0.0000 0.0000 0.0000
# 2 143.4765 160.6345 1.5874 0.0000 0.0000 0.0000
# 3 -8.6696 1.5874 42.4969 0.0000 0.0000 0.0000
# 4 0.0000 0.0000 0.0000 32.4952 0.0000 0.0000
# 5 0.0000 0.0000 0.0000 0.0000 -18.1041 0.0000
# 6 0.0000 0.0000 0.0000 0.0000 0.0000 -4.5387
#
#
#
# Elastic Compliance Matrix: (Units=1/GPa)
#
#
# Indices 1 2 3 4 5 6 
#
# 1 0.041484 -0.037150 0.009851 0.000000 0.000000 0.000000
# 2 -0.037150 0.039497 -0.009054 0.000000 0.000000 0.000000
# 3 0.009851 -0.009054 0.025879 0.000000 0.000000 0.000000
# 4 0.000000 0.000000 0.000000 0.030774 0.000000 0.000000
# 5 0.000000 0.000000 0.000000 0.000000 -0.055236 0.000000
# 6 0.000000 0.000000 0.000000 0.000000 0.000000 -0.220328
#
#
# Mechanical properties :
#
#
# Convention : Reuss Voigt Hill
#
# Bulk Modulus (GPa) = 29.28077 70.06359 49.67218
# Shear Modulus (GPa) = -92.86825 16.72979 -38.06923
#
# Velocity S-wave (km/s) = -6.59203 2.79789 -4.22059
# Velocity P-wave (km/s) = 6.65122 6.57432 0.71311
#
# Compressibility (1/GPa) = 0.03415211
#
# Stress axis : x y z
#
# Youngs Moduli (GPa) = 24.10586 25.31860 38.64154
#
# Poissons Ratio (x) = 0.94059 -0.38064
# Poissons Ratio (y) = 0.89553 0.34986
# Poissons Ratio (z) = -0.23746 0.22924
#
# Static dielectric constant tensor:
#      x y z
#    x 1.748660 0.000000 0.000000 
#    y 0.000000 1.752240 0.000000 
#    z 0.000000 0.000000 1.867180 
# 
# From -- ./inp_files/20892.got.cif
#   From: 2010.05.17/outbox.cif.g08.bks.cpg/sg57_11_cif.got.tgz:20892.got - 2010.06.03 13:58:18.
