data_PCOD9435934
_publ_section_title
;
Structure prediction by ZEFSAII (Michael W. Deem and Ramdas Pophale) SiO2 
 PCOD9435934
Probable space group: P B C M
;
_chemical_formula_sum "Si O2"
_cell_formula_units_Z 60
_cell_length_a 11.850002
_cell_length_b 27.714219
_cell_length_c 9.161783
_cell_angle_alpha 90.000000
_cell_angle_beta 90.000000
_cell_angle_gamma 90.000000
_cell_volume 3008.853685
_symmetry_space_group_name_H-M "P B C M"
_symmetry_group_IT_number 57
_symmetry_cell_setting 'orthorhombic'
loop_
_space_group_symop_operation_xyz
x,y,z
-x,-y,1/2+z
x,1/2-y,-z
-x,1/2+y,1/2-z
-x,-y,-z
x,y,1/2-z
-x,1/2+y,z
x,1/2-y,1/2+z
loop_
_atom_site_type_symbol
_atom_site_label
_atom_site_fract_x
_atom_site_fract_y
_atom_site_fract_z
Si Si1 0.782761 0.825432 0.077278
Si Si2 0.537207 0.702334 0.573466
Si Si3 0.960927 0.435692 0.921371
Si Si4 0.140468 0.667173 0.090953
Si Si5 0.734289 0.026244 0.926040
Si Si6 0.978695 0.750000 0.000000
Si Si7 0.648719 0.372321 0.424427
Si Si8 0.804696 0.563694 0.573727
O O1 0.768265 0.829708 0.250000
O O2 0.665860 0.803639 0.019693
O O3 0.790089 0.880694 0.025707
O O4 0.890361 0.790541 0.057487
O O5 0.487752 0.750000 0.500000
O O6 0.535385 0.707028 0.750000
O O7 0.463146 0.656085 0.531593
O O8 0.963646 0.450532 0.750000
O O9 0.945277 0.377710 0.923821
O O10 0.072517 0.449059 0.008909
O O11 0.852584 0.455050 0.007049
O O12 0.194805 0.663209 0.250000
O O13 0.241206 0.657097 0.978826
O O14 0.067661 0.715801 0.084201
O O15 0.738909 0.021427 0.750000
O O16 0.653528 0.071225 0.967347
O O17 0.718221 0.974440 0.002362
O O18 0.653754 0.372264 0.250000
O O19 0.802603 0.560298 0.750000
#
# Coordination Sequence:
#
# PCOD9435934 Si02
#       8
#     8   8   8   8   8   4   8   8
#     4  10  22  38  59  84 117 155 193 234 289 347
#     4  10  21  41  64  88 113 150 195 241 285 340
#     4  10  19  34  53  80 112 149 189 234 280 337
#     4  10  22  35  55  85 118 151 189 234 281 336
#     4  10  20  36  56  81 111 151 190 236 287 342
#     4  12  20  38  56  84 120 158 190 228 290 342
#     4   9  21  40  62  84 115 152 193 237 290 345
#     4  11  21  35  54  81 113 152 190 233 284 345
#
# _framework density 19.941151000000001
#
# number of rings (size 3 to 8) (size 9 to 14) (size 15 to 20)
#    0.000    1.867    2.000    2.000    0.933    2.667 
#    0.000    2.000    0.000    0.000    0.000    0.000 
#    0.000    0.000    0.000    0.000    0.000    0.000 
#
# Total GULP energy -334182.610508 kJ/mol
# GULP energy per Si atom -5569.710175 kJ/mol
# Density = 1.989576 g / cm^3
# Si number density = 19.941151 Si / 1000 Ang^3
#
#
#
# Elastic Constant Matrix: (Units=GPa)
#
#
# Indices 1 2 3 4 5 6 
#
# 1 28.1895 6.1828 -2.2903 0.0000 0.0000 0.0000
# 2 6.1828 132.5215 18.7837 0.0000 0.0000 0.0000
# 3 -2.2903 18.7837 37.4428 0.0000 0.0000 0.0000
# 4 0.0000 0.0000 0.0000 26.6859 0.0000 0.0000
# 5 0.0000 0.0000 0.0000 0.0000 13.7173 0.0000
# 6 0.0000 0.0000 0.0000 0.0000 0.0000 19.9419
#
#
#
# Elastic Compliance Matrix: (Units=1/GPa)
#
#
# Indices 1 2 3 4 5 6 
#
# 1 0.036215 -0.002157 0.003297 0.000000 0.000000 0.000000
# 2 -0.002157 0.008252 -0.004272 0.000000 0.000000 0.000000
# 3 0.003297 -0.004272 0.029052 0.000000 0.000000 0.000000
# 4 0.000000 0.000000 0.000000 0.037473 0.000000 0.000000
# 5 0.000000 0.000000 0.000000 0.000000 0.072901 0.000000
# 6 0.000000 0.000000 0.000000 0.000000 0.000000 0.050146
#
#
# Mechanical properties :
#
#
# Convention : Reuss Voigt Hill
#
# Bulk Modulus (GPa) = 14.86843 27.05624 20.96234
# Shear Modulus (GPa) = 19.03165 23.76752 21.39959
#
# Velocity S-wave (km/s) = 3.09267 3.45611 3.27943
# Velocity P-wave (km/s) = 4.49724 5.43358 4.98743
#
# Compressibility (1/GPa) = 0.06725658
#
# Stress axis : x y z
#
# Youngs Moduli (GPa) = 27.61275 121.18198 34.42093
#
# Poissons Ratio (x) = 0.26139 -0.11350
# Poissons Ratio (y) = 0.05956 0.14704
# Poissons Ratio (z) = -0.09105 0.51765
#
# Static dielectric constant tensor:
#      x y z
#    x 1.708630 0.000000 0.000000 
#    y 0.000000 1.796930 0.000000 
#    z 0.000000 0.000000 1.688210 
# 
# From -- ./inp_files/3499.got.cif
#   From: 2010.05.17/outbox.cif.g08.bks.cpg/sg57_2_cif.got.tgz:3499.got - 2010.06.03 13:58:18.
