data_PCOD9435656
_publ_section_title
;
Structure prediction by ZEFSAII (Michael W. Deem and Ramdas Pophale) SiO2 
 PCOD9435656
Probable space group: P B C M
;
_chemical_formula_sum "Si O2"
_cell_formula_units_Z 40
_cell_length_a 26.970692
_cell_length_b 9.687261
_cell_length_c 8.575203
_cell_angle_alpha 90.000000
_cell_angle_beta 90.000000
_cell_angle_gamma 90.000000
_cell_volume 2240.461577
_symmetry_space_group_name_H-M "P B C M"
_symmetry_group_IT_number 57
_symmetry_cell_setting 'orthorhombic'
loop_
_space_group_symop_operation_xyz
x,y,z
-x,-y,1/2+z
x,1/2-y,-z
-x,1/2+y,1/2-z
-x,-y,-z
x,y,1/2-z
-x,1/2+y,z
x,1/2-y,1/2+z
loop_
_atom_site_type_symbol
_atom_site_label
_atom_site_fract_x
_atom_site_fract_y
_atom_site_fract_z
Si Si1 0.238759 0.093009 0.938068
Si Si2 0.544175 0.906562 0.062604
Si Si3 0.652601 0.593795 0.937615
Si Si4 0.150681 0.904977 0.063769
Si Si5 0.956112 0.405337 0.563551
O O1 0.235496 0.094097 0.750000
O O2 0.293641 0.035868 0.984702
O O3 0.235155 0.250000 0.000000
O O4 0.195047 0.001835 0.007703
O O5 0.542296 0.902923 0.250000
O O6 0.598883 0.963770 0.013896
O O7 0.539836 0.750000 0.000000
O O8 0.500000 0.000000 0.000000
O O9 0.652627 0.596694 0.750000
O O10 0.652601 0.750000 0.000000
O O11 0.148077 0.901098 0.250000
O O12 0.158396 0.750000 0.000000
O O13 0.097695 0.953935 0.996886
O O14 0.962561 0.250000 0.500000
O O15 0.956211 0.403590 0.750000
O O16 0.000000 0.500000 0.500000
#
# Coordination Sequence:
#
# PCOD9435656 Si02
#       5
#     8   8   8   8   8
#     4  10  19  34  55  81 107 136 174 219 262 310
#     4  10  19  33  52  76 103 136 173 215 262 314
#     4   8  16  30  50  73 101 133 170 212 260 310
#     4  11  22  38  57  80 109 144 178 215 263 316
#     4  11  22  39  60  84 111 143 179 219 263 312
#
# _framework density 17.853463999999999
#
# number of rings (size 3 to 8) (size 9 to 14) (size 15 to 20)
#    0.000    2.000    0.000    6.000    0.000    2.400 
#    0.000    5.000    0.000    0.000    0.000    0.000 
#    0.000    0.000    0.000    0.000    0.000    0.000 
#
# Total GULP energy -223086.553260 kJ/mol
# GULP energy per Si atom -5577.163831 kJ/mol
# Density = 1.781283 g / cm^3
# Si number density = 17.853464 Si / 1000 Ang^3
#
#
#
# Elastic Constant Matrix: (Units=GPa)
#
#
# Indices 1 2 3 4 5 6 
#
# 1 233.5427 84.5851 73.7788 0.0000 0.0000 0.0000
# 2 84.5851 51.5523 32.6493 0.0000 0.0000 0.0000
# 3 73.7788 32.6493 121.8075 0.0000 0.0000 0.0000
# 4 0.0000 0.0000 0.0000 29.8546 0.0000 0.0000
# 5 0.0000 0.0000 0.0000 0.0000 27.4570 0.0000
# 6 0.0000 0.0000 0.0000 0.0000 0.0000 36.4692
#
#
#
# Elastic Compliance Matrix: (Units=1/GPa)
#
#
# Indices 1 2 3 4 5 6 
#
# 1 0.011023 -0.016691 -0.002203 0.000000 0.000000 0.000000
# 2 -0.016691 0.048637 -0.002927 0.000000 0.000000 0.000000
# 3 -0.002203 -0.002927 0.010328 0.000000 0.000000 0.000000
# 4 0.000000 0.000000 0.000000 0.033496 0.000000 0.000000
# 5 0.000000 0.000000 0.000000 0.000000 0.036421 0.000000
# 6 0.000000 0.000000 0.000000 0.000000 0.000000 0.027420
#
#
# Mechanical properties :
#
#
# Convention : Reuss Voigt Hill
#
# Bulk Modulus (GPa) = 37.95458 87.65877 62.80668
# Shear Modulus (GPa) = 22.75317 33.14876 27.95097
#
# Velocity S-wave (km/s) = 3.57380 4.31363 3.96103
# Velocity P-wave (km/s) = 6.19149 8.60323 7.49500
#
# Compressibility (1/GPa) = 0.02634728
#
# Stress axis : x y z
#
# Youngs Moduli (GPa) = 90.72007 20.56027 96.81993
#
# Poissons Ratio (x) = 0.34317 0.21327
# Poissons Ratio (y) = 1.51420 0.28340
# Poissons Ratio (z) = 0.19983 0.06018
#
# Static dielectric constant tensor:
#      x y z
#    x 1.651980 0.000000 0.000000 
#    y 0.000000 1.560620 0.000000 
#    z 0.000000 0.000000 1.599390 
# 
# From -- ./inp_files/9632.got.cif
#   From: 2010.05.17/outbox.cif.g08.bks.cpg/sg57_5_cif.got.tgz:9632.got - 2010.06.03 13:58:18.
