data_PCOD9435625
_publ_section_title
;
Structure prediction by ZEFSAII (Michael W. Deem and Ramdas Pophale) SiO2 
 PCOD9435625
Probable space group: P B C M
;
_chemical_formula_sum "Si O2"
_cell_formula_units_Z 48
_cell_length_a 9.677165
_cell_length_b 32.699702
_cell_length_c 8.538469
_cell_angle_alpha 90.000000
_cell_angle_beta 90.000000
_cell_angle_gamma 90.000000
_cell_volume 2701.916646
_symmetry_space_group_name_H-M "P B C M"
_symmetry_group_IT_number 57
_symmetry_cell_setting 'orthorhombic'
loop_
_space_group_symop_operation_xyz
x,y,z
-x,-y,1/2+z
x,1/2-y,-z
-x,1/2+y,1/2-z
-x,-y,-z
x,y,1/2-z
-x,1/2+y,z
x,1/2-y,1/2+z
loop_
_atom_site_type_symbol
_atom_site_label
_atom_site_fract_x
_atom_site_fract_y
_atom_site_fract_z
Si Si1 0.835591 0.706515 0.564250
Si Si2 0.854036 0.294054 0.938088
Si Si3 0.345986 0.366932 0.936665
Si Si4 0.338487 0.453155 0.435657
Si Si5 0.651245 0.041616 0.439904
Si Si6 0.668120 0.369141 0.560107
O O1 0.781804 0.750000 0.500000
O O2 0.847435 0.709218 0.750000
O O3 0.739475 0.669080 0.515281
O O4 0.988346 0.700659 0.493033
O O5 0.851427 0.293268 0.750000
O O6 0.760902 0.331722 0.996276
O O7 0.805054 0.250000 0.000000
O O8 0.341274 0.362141 0.750000
O O9 0.507387 0.365167 0.987118
O O10 0.289516 0.411987 0.980493
O O11 0.322816 0.447879 0.250000
O O12 0.500873 0.456677 0.479863
O O13 0.280394 0.498066 0.481077
O O14 0.630768 0.041216 0.250000
O O15 0.719239 0.085075 0.482113
O O16 0.669359 0.367489 0.750000
#
# Coordination Sequence:
#
# PCOD9435625 Si02
#       6
#     8   8   8   8   8   8
#     4  11  22  37  54  73  96 126 164 201 241 290
#     4  10  19  34  53  72  95 126 162 197 239 290
#     4  10  19  33  51  74 103 132 162 200 245 289
#     4   9  15  24  42  69  98 128 162 200 241 287
#     4   8  14  26  43  65  96 131 164 199 241 289
#     4   8  16  30  50  74  99 128 162 200 243 288
#
# _framework density 17.765167000000002
#
# number of rings (size 3 to 8) (size 9 to 14) (size 15 to 20)
#    0.000    2.667    0.000    5.000    0.000    1.333 
#    0.000   10.000    0.000    1.000    0.000    0.000 
#    0.000    0.000    0.000    0.000    0.000    0.000 
#
# Total GULP energy -267327.824893 kJ/mol
# GULP energy per Si atom -5569.329685 kJ/mol
# Density = 1.772473 g / cm^3
# Si number density = 17.765167 Si / 1000 Ang^3
#
#
#
# Elastic Constant Matrix: (Units=GPa)
#
#
# Indices 1 2 3 4 5 6 
#
# 1 28.0941 54.3873 10.8136 0.0000 0.0000 0.0000
# 2 54.3873 184.7353 30.1459 0.0000 0.0000 0.0000
# 3 10.8136 30.1459 54.2951 0.0000 0.0000 0.0000
# 4 0.0000 0.0000 0.0000 31.2088 0.0000 0.0000
# 5 0.0000 0.0000 0.0000 0.0000 15.0216 0.0000
# 6 0.0000 0.0000 0.0000 0.0000 0.0000 32.6550
#
#
#
# Elastic Compliance Matrix: (Units=1/GPa)
#
#
# Indices 1 2 3 4 5 6 
#
# 1 0.083291 -0.023988 -0.003270 0.000000 0.000000 0.000000
# 2 -0.023988 0.012861 -0.002363 0.000000 0.000000 0.000000
# 3 -0.003270 -0.002363 0.020381 0.000000 0.000000 0.000000
# 4 0.000000 0.000000 0.000000 0.032042 0.000000 0.000000
# 5 0.000000 0.000000 0.000000 0.000000 0.066571 0.000000
# 6 0.000000 0.000000 0.000000 0.000000 0.000000 0.030623
#
#
# Mechanical properties :
#
#
# Convention : Reuss Voigt Hill
#
# Bulk Modulus (GPa) = 17.45462 50.86869 34.16166
# Shear Modulus (GPa) = 15.42690 27.22893 21.32792
#
# Velocity S-wave (km/s) = 2.95002 3.91924 3.46865
# Velocity P-wave (km/s) = 4.63142 7.01261 5.94250
#
# Compressibility (1/GPa) = 0.05729141
#
# Stress axis : x y z
#
# Youngs Moduli (GPa) = 12.00604 77.75447 49.06475
#
# Poissons Ratio (x) = 1.86517 0.16044
# Poissons Ratio (y) = 0.28800 0.11595
# Poissons Ratio (z) = 0.03926 0.18375
#
# Static dielectric constant tensor:
#      x y z
#    x 1.575380 0.000000 0.000000 
#    y 0.000000 1.641200 0.000000 
#    z 0.000000 0.000000 1.602580 
# 
# From -- ./inp_files/3520.got.cif
#   From: 2010.05.17/outbox.cif.g08.bks.cpg/sg57_2_cif.got.tgz:3520.got - 2010.06.03 13:58:18.
