data_PCOD9435318
_publ_section_title
;
Structure prediction by ZEFSAII (Michael W. Deem and Ramdas Pophale) SiO2 
 PCOD9435318
Probable space group: P B C M
;
_chemical_formula_sum "Si O2"
_cell_formula_units_Z 56
_cell_length_a 14.727175
_cell_length_b 26.852359
_cell_length_c 8.947186
_cell_angle_alpha 90.000000
_cell_angle_beta 90.000000
_cell_angle_gamma 90.000000
_cell_volume 3538.248719
_symmetry_space_group_name_H-M "P B C M"
_symmetry_group_IT_number 57
_symmetry_cell_setting 'orthorhombic'
loop_
_space_group_symop_operation_xyz
x,y,z
-x,-y,1/2+z
x,1/2-y,-z
-x,1/2+y,1/2-z
-x,-y,-z
x,y,1/2-z
-x,1/2+y,z
x,1/2-y,1/2+z
loop_
_atom_site_type_symbol
_atom_site_label
_atom_site_fract_x
_atom_site_fract_y
_atom_site_fract_z
Si Si1 0.123372 0.304052 0.070628
Si Si2 0.580982 0.566894 0.572695
Si Si3 0.026551 0.613166 0.927072
Si Si4 0.195136 0.569814 0.425808
Si Si5 0.734849 0.623654 0.072932
Si Si6 0.623201 0.460454 0.072717
Si Si7 0.862819 0.543570 0.926026
O O1 0.129937 0.301582 0.250000
O O2 0.037991 0.340165 0.033846
O O3 0.111790 0.250000 0.000000
O O4 0.212920 0.330710 0.004734
O O5 0.597699 0.568602 0.750000
O O6 0.636277 0.610499 0.492330
O O7 0.472895 0.566857 0.546036
O O8 0.616005 0.513649 0.510501
O O9 0.045012 0.614980 0.750000
O O10 0.963159 0.564687 0.955589
O O11 0.120061 0.607964 0.014500
O O12 0.210678 0.576255 0.250000
O O13 0.290405 0.569216 0.511976
O O14 0.153097 0.514472 0.449457
O O15 0.732547 0.630046 0.250000
O O16 0.795507 0.575674 0.027456
O O17 0.631781 0.469417 0.250000
O O18 0.843445 0.554820 0.750000
#
# Coordination Sequence:
#
# PCOD9435318 Si02
#       7
#     8   8   8   8   8   8   8
#     4  10  21  38  57  77 101 127 159 205 253 300
#     4  10  19  32  47  67  97 131 169 209 246 287
#     4   9  19  33  48  67  96 129 163 201 245 294
#     4  11  20  29  45  68  98 134 170 207 243 286
#     4  11  20  30  50  75  99 132 168 202 247 302
#     4  10  20  31  46  67  95 134 173 207 244 286
#     4   9  18  31  44  64  96 133 167 205 243 280
#
# _framework density 15.827038
#
# number of rings (size 3 to 8) (size 9 to 14) (size 15 to 20)
#    0.000    2.000    1.429    4.286    0.000    5.143 
#    0.000    0.000    0.000    0.000    0.000    1.000 
#    0.000    4.571    0.000    0.000    0.000    0.000 
#
# Total GULP energy -312468.619949 kJ/mol
# GULP energy per Si atom -5579.796785 kJ/mol
# Density = 1.579102 g / cm^3
# Si number density = 15.827038 Si / 1000 Ang^3
#
#
#
# Elastic Constant Matrix: (Units=GPa)
#
#
# Indices 1 2 3 4 5 6 
#
# 1 117.3486 41.2751 61.8927 0.0000 0.0000 0.0000
# 2 41.2751 60.0125 41.4940 0.0000 0.0000 0.0000
# 3 61.8927 41.4940 81.3118 0.0000 0.0000 0.0000
# 4 0.0000 0.0000 0.0000 22.7035 0.0000 0.0000
# 5 0.0000 0.0000 0.0000 0.0000 27.6406 0.0000
# 6 0.0000 0.0000 0.0000 0.0000 0.0000 12.4069
#
#
#
# Elastic Compliance Matrix: (Units=1/GPa)
#
#
# Indices 1 2 3 4 5 6 
#
# 1 0.014745 -0.003679 -0.009346 0.000000 0.000000 0.000000
# 2 -0.003679 0.026666 -0.010807 0.000000 0.000000 0.000000
# 3 -0.009346 -0.010807 0.024928 0.000000 0.000000 0.000000
# 4 0.000000 0.000000 0.000000 0.044046 0.000000 0.000000
# 5 0.000000 0.000000 0.000000 0.000000 0.036179 0.000000
# 6 0.000000 0.000000 0.000000 0.000000 0.000000 0.080600
#
#
# Mechanical properties :
#
#
# Convention : Reuss Voigt Hill
#
# Bulk Modulus (GPa) = 53.55240 60.88849 57.22044
# Shear Modulus (GPa) = 17.79018 20.15093 18.97056
#
# Velocity S-wave (km/s) = 3.35630 3.57206 3.46586
# Velocity P-wave (km/s) = 6.99494 7.45436 7.22830
#
# Compressibility (1/GPa) = 0.01867330
#
# Stress axis : x y z
#
# Youngs Moduli (GPa) = 67.81916 37.50075 40.11633
#
# Poissons Ratio (x) = 0.13797 0.37493
# Poissons Ratio (y) = 0.24952 0.43355
# Poissons Ratio (z) = 0.63385 0.40529
#
# Static dielectric constant tensor:
#      x y z
#    x 1.548510 0.000000 0.000000 
#    y 0.000000 1.505760 0.000000 
#    z 0.000000 0.000000 1.526990 
# 
# From -- ./inp_files/5900.got.cif
#   From: 2010.05.17/outbox.cif.g08.bks.cpg/sg57_3_cif.got.tgz:5900.got - 2010.06.03 13:58:18.
