data_PCOD9435451
_publ_section_title
;
Structure prediction by ZEFSAII (Michael W. Deem and Ramdas Pophale) SiO2 
 PCOD9435451
Probable space group: P B C M
;
_chemical_formula_sum "Si O2"
_cell_formula_units_Z 32
_cell_length_a 10.583054
_cell_length_b 20.219965
_cell_length_c 7.502698
_cell_angle_alpha 90.000000
_cell_angle_beta 90.000000
_cell_angle_gamma 90.000000
_cell_volume 1605.494703
_symmetry_space_group_name_H-M "P B C M"
_symmetry_group_IT_number 57
_symmetry_cell_setting 'orthorhombic'
loop_
_space_group_symop_operation_xyz
x,y,z
-x,-y,1/2+z
x,1/2-y,-z
-x,1/2+y,1/2-z
-x,-y,-z
x,y,1/2-z
-x,1/2+y,z
x,1/2-y,1/2+z
loop_
_atom_site_type_symbol
_atom_site_label
_atom_site_fract_x
_atom_site_fract_y
_atom_site_fract_z
Si Si1 0.950164 0.926230 0.036465
Si Si2 0.403427 0.903283 0.040292
Si Si3 0.164323 0.673190 0.535978
Si Si4 0.670459 0.946147 0.466542
O O1 0.944403 0.918520 0.250000
O O2 0.806227 0.920751 0.970366
O O3 0.050386 0.872780 0.967431
O O4 0.000000 0.000000 0.000000
O O5 0.416193 0.888808 0.250000
O O6 0.299141 0.853373 0.965612
O O7 0.546208 0.907171 0.968037
O O8 0.347743 0.977351 0.020479
O O9 0.145240 0.750000 0.500000
O O10 0.167375 0.664089 0.750000
O O11 0.669283 0.945169 0.250000
#
# Coordination Sequence:
#
# PCOD9435451 Si02
#       4
#     8   8   8   8
#     4  10  19  32  51  76 102 130 166 208 252 297
#     4   9  17  31  49  72 100 127 159 202 247 293
#     4  10  21  35  50  70 101 137 170 206 250 300
#     4   9  17  29  50  76  99 124 158 203 250 293
#
# _framework density 19.931552
#
# number of rings (size 3 to 8) (size 9 to 14) (size 15 to 20)
#    0.000    2.500    2.500    0.000    0.000    2.000 
#    0.000    1.250    0.000    0.000    0.000    0.000 
#    0.000    0.000    0.000    0.000    0.000    0.000 
#
# Total GULP energy -178503.114400 kJ/mol
# GULP energy per Si atom -5578.222325 kJ/mol
# Density = 1.988619 g / cm^3
# Si number density = 19.931552 Si / 1000 Ang^3
#
#
#
# Elastic Constant Matrix: (Units=GPa)
#
#
# Indices 1 2 3 4 5 6 
#
# 1 216.9536 99.6307 1.0640 0.0000 0.0000 0.0000
# 2 99.6307 124.0647 -12.3841 0.0000 0.0000 0.0000
# 3 1.0640 -12.3841 49.3648 0.0000 0.0000 0.0000
# 4 0.0000 0.0000 0.0000 21.6529 0.0000 0.0000
# 5 0.0000 0.0000 0.0000 0.0000 4.6548 0.0000
# 6 0.0000 0.0000 0.0000 0.0000 0.0000 30.8387
#
#
#
# Elastic Compliance Matrix: (Units=1/GPa)
#
#
# Indices 1 2 3 4 5 6 
#
# 1 0.007439 -0.006144 -0.001702 0.000000 0.000000 0.000000
# 2 -0.006144 0.013341 0.003479 0.000000 0.000000 0.000000
# 3 -0.001702 0.003479 0.021167 0.000000 0.000000 0.000000
# 4 0.000000 0.000000 0.000000 0.046183 0.000000 0.000000
# 5 0.000000 0.000000 0.000000 0.000000 0.214830 0.000000
# 6 0.000000 0.000000 0.000000 0.000000 0.000000 0.032427
#
#
# Mechanical properties :
#
#
# Convention : Reuss Voigt Hill
#
# Bulk Modulus (GPa) = 30.10669 63.00047 46.55358
# Shear Modulus (GPa) = 14.07694 31.56745 22.82219
#
# Velocity S-wave (km/s) = 2.66045 3.98401 3.38750
# Velocity P-wave (km/s) = 4.95733 7.26912 6.22154
#
# Compressibility (1/GPa) = 0.03321520
#
# Stress axis : x y z
#
# Youngs Moduli (GPa) = 134.42657 74.95461 47.24364
#
# Poissons Ratio (x) = 0.46050 0.08039
# Poissons Ratio (y) = 0.82589 -0.16438
# Poissons Ratio (z) = 0.22874 -0.26079
#
# Static dielectric constant tensor:
#      x y z
#    x 1.754990 0.000000 0.000000 
#    y 0.000000 1.640680 0.000000 
#    z 0.000000 0.000000 1.729120 
# 
# From -- ./inp_files/2508.got.cif
#   From: 2010.05.17/outbox.cif.g08.bks.cpg/sg57_2_cif.got.tgz:2508.got - 2010.06.03 13:58:18.
