data_PCOD9435277
_publ_section_title
;
Structure prediction by ZEFSAII (Michael W. Deem and Ramdas Pophale) SiO2 
 PCOD9435277
Probable space group: P B C M
;
_chemical_formula_sum "Si O2"
_cell_formula_units_Z 64
_cell_length_a 16.016656
_cell_length_b 25.337840
_cell_length_c 9.169438
_cell_angle_alpha 90.000000
_cell_angle_beta 90.000000
_cell_angle_gamma 90.000000
_cell_volume 3721.209798
_symmetry_space_group_name_H-M "P B C M"
_symmetry_group_IT_number 57
_symmetry_cell_setting 'orthorhombic'
loop_
_space_group_symop_operation_xyz
x,y,z
-x,-y,1/2+z
x,1/2-y,-z
-x,1/2+y,1/2-z
-x,-y,-z
x,y,1/2-z
-x,1/2+y,z
x,1/2-y,1/2+z
loop_
_atom_site_type_symbol
_atom_site_label
_atom_site_fract_x
_atom_site_fract_y
_atom_site_fract_z
Si Si1 0.671244 0.405076 0.084694
Si Si2 0.612155 0.305405 0.575991
Si Si3 0.796148 0.479947 0.925157
Si Si4 0.426176 0.349015 0.923321
Si Si5 0.516668 0.947099 0.412642
Si Si6 0.026078 0.946025 0.576538
Si Si7 0.149368 0.089884 0.074101
Si Si8 0.751294 0.803992 0.574809
O O1 0.703660 0.398741 0.250000
O O2 0.574243 0.420564 0.096248
O O3 0.669424 0.351113 0.993116
O O4 0.718480 0.451646 0.000661
O O5 0.629568 0.250000 0.500000
O O6 0.622861 0.302995 0.750000
O O7 0.514429 0.320353 0.547554
O O8 0.786741 0.484111 0.750000
O O9 0.876100 0.441579 0.958401
O O10 0.815115 0.537708 0.993434
O O11 0.422053 0.358888 0.750000
O O12 0.345394 0.315391 0.965270
O O13 0.426015 0.405025 0.004809
O O14 0.548166 0.958078 0.250000
O O15 0.500000 0.000000 0.500000
O O16 0.022692 0.953243 0.750000
O O17 0.950283 0.906556 0.540513
O O18 0.000000 0.000000 0.500000
O O19 0.159121 0.082438 0.250000
O O20 0.196648 0.143632 0.034039
O O21 0.779554 0.750000 0.500000
O O22 0.756166 0.798396 0.750000
#
# Coordination Sequence:
#
# PCOD9435277 Si02
#       8
#     8   8   8   8   8   8   8   8
#     4  10  21  35  50  72 101 134 168 204 252 305
#     4  10  19  33  53  73  97 129 168 213 254 296
#     4  10  19  31  51  79 106 131 167 213 259 307
#     4   9  19  34  50  71  98 131 171 211 250 296
#     4  10  21  34  49  69  98 135 170 207 252 304
#     4   8  15  29  49  73 100 129 160 197 243 298
#     4   9  18  33  52  74 102 137 170 204 256 311
#     4  10  21  35  52  74 102 135 173 214 253 300
#
# _framework density 17.198708
#
# number of rings (size 3 to 8) (size 9 to 14) (size 15 to 20)
#    0.000    2.500    0.000    1.875    1.750    3.500 
#    0.000    0.000    0.000    0.750    0.000    1.750 
#    0.000    0.000    0.000    0.000    0.000    0.000 
#
# Total GULP energy -356554.418652 kJ/mol
# GULP energy per Si atom -5571.162791 kJ/mol
# Density = 1.715956 g / cm^3
# Si number density = 17.198708 Si / 1000 Ang^3
#
#
#
# Elastic Constant Matrix: (Units=GPa)
#
#
# Indices 1 2 3 4 5 6 
#
# 1 51.4315 25.4711 19.8478 0.0000 0.0000 0.0000
# 2 25.4711 119.9775 51.1459 0.0000 0.0000 0.0000
# 3 19.8478 51.1459 52.9547 0.0000 0.0000 0.0000
# 4 0.0000 0.0000 0.0000 30.7988 0.0000 0.0000
# 5 0.0000 0.0000 0.0000 0.0000 14.8352 0.0000
# 6 0.0000 0.0000 0.0000 0.0000 0.0000 17.2377
#
#
#
# Elastic Compliance Matrix: (Units=1/GPa)
#
#
# Indices 1 2 3 4 5 6 
#
# 1 0.023026 -0.002056 -0.006645 0.000000 0.000000 0.000000
# 2 -0.002056 0.014352 -0.013091 0.000000 0.000000 0.000000
# 3 -0.006645 -0.013091 0.034019 0.000000 0.000000 0.000000
# 4 0.000000 0.000000 0.000000 0.032469 0.000000 0.000000
# 5 0.000000 0.000000 0.000000 0.000000 0.067407 0.000000
# 6 0.000000 0.000000 0.000000 0.000000 0.000000 0.058012
#
#
# Mechanical properties :
#
#
# Convention : Reuss Voigt Hill
#
# Bulk Modulus (GPa) = 35.95447 46.36593 41.16020
# Shear Modulus (GPa) = 17.72172 21.10094 19.41133
#
# Velocity S-wave (km/s) = 3.21348 3.50650 3.36318
# Velocity P-wave (km/s) = 5.89231 6.58874 6.25024
#
# Compressibility (1/GPa) = 0.02781295
#
# Stress axis : x y z
#
# Youngs Moduli (GPa) = 43.42977 69.67609 29.39551
#
# Poissons Ratio (x) = 0.14323 0.19532
# Poissons Ratio (y) = 0.08928 0.38483
# Poissons Ratio (z) = 0.28858 0.91216
#
# Static dielectric constant tensor:
#      x y z
#    x 1.615920 0.000000 0.000000 
#    y 0.000000 1.556260 0.000000 
#    z 0.000000 0.000000 1.586010 
# 
# From -- ./inp_files/5536.got.cif
#   From: 2010.05.17/outbox.cif.g08.bks.cpg/sg57_3_cif.got.tgz:5536.got - 2010.06.03 13:58:18.
