data_PCOD9435799
_publ_section_title
;
Structure prediction by ZEFSAII (Michael W. Deem and Ramdas Pophale) SiO2 
 PCOD9435799
Probable space group: P B C M
;
_chemical_formula_sum "Si O2"
_cell_formula_units_Z 56
_cell_length_a 15.159859
_cell_length_b 23.089961
_cell_length_c 8.562063
_cell_angle_alpha 90.000000
_cell_angle_beta 90.000000
_cell_angle_gamma 90.000000
_cell_volume 2997.069268
_symmetry_space_group_name_H-M "P B C M"
_symmetry_group_IT_number 57
_symmetry_cell_setting 'orthorhombic'
loop_
_space_group_symop_operation_xyz
x,y,z
-x,-y,1/2+z
x,1/2-y,-z
-x,1/2+y,1/2-z
-x,-y,-z
x,y,1/2-z
-x,1/2+y,z
x,1/2-y,1/2+z
loop_
_atom_site_type_symbol
_atom_site_label
_atom_site_fract_x
_atom_site_fract_y
_atom_site_fract_z
Si Si1 0.427619 0.188525 0.937651
Si Si2 0.913479 0.421374 0.936241
Si Si3 0.293778 0.088271 0.559929
Si Si4 0.405549 0.979852 0.561734
Si Si5 0.617971 0.152560 0.062283
Si Si6 0.194124 0.688508 0.935476
Si Si7 0.894700 0.945152 0.060938
O O1 0.431324 0.188132 0.750000
O O2 0.360442 0.138391 0.991116
O O3 0.395845 0.250000 0.000000
O O4 0.525916 0.178109 0.002086
O O5 0.904575 0.416914 0.750000
O O6 0.882378 0.486654 0.981005
O O7 0.860125 0.368011 0.009049
O O8 0.015919 0.421498 0.986067
O O9 0.294039 0.089132 0.750000
O O10 0.192093 0.090085 0.512049
O O11 0.334413 0.026944 0.510142
O O12 0.408490 0.980345 0.750000
O O13 0.382666 0.914963 0.513425
O O14 0.500000 0.000000 0.500000
O O15 0.620283 0.156376 0.250000
O O16 0.705456 0.181429 0.995121
O O17 0.193417 0.690642 0.750000
O O18 0.159169 0.750000 0.000000
O O19 0.903439 0.943034 0.250000
#
# Coordination Sequence:
#
# PCOD9435799 Si02
#       7
#     8   8   8   8   8   8   8
#     4  11  22  37  55  75 107 148 194 235 276 330
#     4  10  20  37  61  90 121 148 185 236 290 349
#     4   9  18  34  56  80 110 148 187 231 280 330
#     4  10  19  33  54  82 114 147 185 231 283 334
#     4  11  22  37  58  84 115 149 188 235 287 340
#     4  12  25  41  61  85 116 154 197 241 290 350
#     4   9  18  36  62  88 116 152 191 233 288 347
#
# _framework density 18.684920999999999
#
# number of rings (size 3 to 8) (size 9 to 14) (size 15 to 20)
#    0.000    1.714    1.429    3.857    0.000    3.429 
#    0.000    2.857    0.000    1.714    0.000    0.000 
#    0.000    0.000    0.000    0.000    0.000    0.000 
#
# Total GULP energy -312772.207034 kJ/mol
# GULP energy per Si atom -5585.217983 kJ/mol
# Density = 1.864239 g / cm^3
# Si number density = 18.684921 Si / 1000 Ang^3
#
#
#
# Elastic Constant Matrix: (Units=GPa)
#
#
# Indices 1 2 3 4 5 6 
#
# 1 115.1254 47.9193 26.1532 0.0000 0.0000 0.0000
# 2 47.9193 109.3103 32.5406 0.0000 0.0000 0.0000
# 3 26.1532 32.5406 55.9114 0.0000 0.0000 0.0000
# 4 0.0000 0.0000 0.0000 25.6068 0.0000 0.0000
# 5 0.0000 0.0000 0.0000 0.0000 26.1882 0.0000
# 6 0.0000 0.0000 0.0000 0.0000 0.0000 16.9832
#
#
#
# Elastic Compliance Matrix: (Units=1/GPa)
#
#
# Indices 1 2 3 4 5 6 
#
# 1 0.010982 -0.003973 -0.002824 0.000000 0.000000 0.000000
# 2 -0.003973 0.012503 -0.005418 0.000000 0.000000 0.000000
# 3 -0.002824 -0.005418 0.022360 0.000000 0.000000 0.000000
# 4 0.000000 0.000000 0.000000 0.039052 0.000000 0.000000
# 5 0.000000 0.000000 0.000000 0.000000 0.038185 0.000000
# 6 0.000000 0.000000 0.000000 0.000000 0.000000 0.058882
#
#
# Mechanical properties :
#
#
# Convention : Reuss Voigt Hill
#
# Bulk Modulus (GPa) = 46.70080 54.84148 50.77114
# Shear Modulus (GPa) = 23.41557 25.33790 24.37674
#
# Velocity S-wave (km/s) = 3.54387 3.68647 3.61587
# Velocity P-wave (km/s) = 6.46479 6.89452 6.68311
#
# Compressibility (1/GPa) = 0.02141291
#
# Stress axis : x y z
#
# Youngs Moduli (GPa) = 91.06123 79.98045 44.72281
#
# Poissons Ratio (x) = 0.31779 0.12631
# Poissons Ratio (y) = 0.36182 0.24232
# Poissons Ratio (z) = 0.25718 0.43335
#
# Static dielectric constant tensor:
#      x y z
#    x 1.629650 0.000000 0.000000 
#    y 0.000000 1.646220 0.000000 
#    z 0.000000 0.000000 1.634360 
# 
# From -- ./inp_files/5243.got.cif
#   From: 2010.05.17/outbox.cif.g08.bks.cpg/sg57_3_cif.got.tgz:5243.got - 2010.06.03 13:58:18.
