data_PCOD9435778
_publ_section_title
;
Structure prediction by ZEFSAII (Michael W. Deem and Ramdas Pophale) SiO2 
 PCOD9435778
Probable space group: P B C M
;
_chemical_formula_sum "Si O2"
_cell_formula_units_Z 56
_cell_length_a 19.412938
_cell_length_b 18.549785
_cell_length_c 9.203562
_cell_angle_alpha 90.000000
_cell_angle_beta 90.000000
_cell_angle_gamma 90.000000
_cell_volume 3314.256297
_symmetry_space_group_name_H-M "P B C M"
_symmetry_group_IT_number 57
_symmetry_cell_setting 'orthorhombic'
loop_
_space_group_symop_operation_xyz
x,y,z
-x,-y,1/2+z
x,1/2-y,-z
-x,1/2+y,1/2-z
-x,-y,-z
x,y,1/2-z
-x,1/2+y,z
x,1/2-y,1/2+z
loop_
_atom_site_type_symbol
_atom_site_label
_atom_site_fract_x
_atom_site_fract_y
_atom_site_fract_z
Si Si1 0.609130 0.321122 0.579550
Si Si2 0.892716 0.393432 0.076797
Si Si3 0.567264 0.030504 0.922938
Si Si4 0.040837 0.172415 0.575148
Si Si5 0.283742 0.007642 0.420044
Si Si6 0.237822 0.634993 0.083037
Si Si7 0.139678 0.439359 0.922162
O O1 0.582068 0.250000 0.500000
O O2 0.590235 0.324746 0.750000
O O3 0.585251 0.392495 0.494808
O O4 0.692679 0.319092 0.573108
O O5 0.886531 0.389876 0.250000
O O6 0.883274 0.478420 0.038216
O O7 0.966782 0.362524 0.035083
O O8 0.829928 0.348282 0.008844
O O9 0.556956 0.038073 0.750000
O O10 0.635268 0.979894 0.944185
O O11 0.500000 0.000000 0.000000
O O12 0.047375 0.250000 0.500000
O O13 0.044235 0.178739 0.750000
O O14 0.098839 0.118291 0.515770
O O15 0.277166 0.984329 0.250000
O O16 0.222763 0.064959 0.441594
O O17 0.263064 0.942111 0.523267
O O18 0.217209 0.630529 0.250000
O O19 0.125040 0.429782 0.750000
#
# Coordination Sequence:
#
# PCOD9435778 Si02
#       7
#     8   8   8   8   8   8   8
#     4  10  20  33  49  73 104 139 175 209 249 301
#     4   9  19  34  51  71  98 131 167 205 251 304
#     4  10  19  33  54  80 109 139 169 206 250 299
#     4  11  23  36  49  69  97 131 168 210 259 306
#     4   8  16  31  51  74 100 128 158 195 242 291
#     4   9  17  28  46  72  99 126 161 202 242 289
#     4   9  17  33  55  75  95 124 164 209 251 296
#
# _framework density 16.896702000000001
#
# number of rings (size 3 to 8) (size 9 to 14) (size 15 to 20)
#    0.000    2.571    0.000    3.000    0.000    6.286 
#    0.000    2.857    0.000    0.857    0.000    4.000 
#    0.000    0.000    0.000    0.000    0.000    0.000 
#
# Total GULP energy -311909.619069 kJ/mol
# GULP energy per Si atom -5569.814626 kJ/mol
# Density = 1.685824 g / cm^3
# Si number density = 16.896702 Si / 1000 Ang^3
#
#
#
# Elastic Constant Matrix: (Units=GPa)
#
#
# Indices 1 2 3 4 5 6 
#
# 1 100.5166 37.4580 56.0288 0.0000 0.0000 0.0000
# 2 37.4580 58.3498 43.8601 0.0000 0.0000 0.0000
# 3 56.0288 43.8601 73.7925 0.0000 0.0000 0.0000
# 4 0.0000 0.0000 0.0000 17.3916 0.0000 0.0000
# 5 0.0000 0.0000 0.0000 0.0000 31.2366 0.0000
# 6 0.0000 0.0000 0.0000 0.0000 0.0000 7.6681
#
#
#
# Elastic Compliance Matrix: (Units=1/GPa)
#
#
# Indices 1 2 3 4 5 6 
#
# 1 0.017409 -0.002241 -0.011886 0.000000 0.000000 0.000000
# 2 -0.002241 0.031267 -0.016882 0.000000 0.000000 0.000000
# 3 -0.011886 -0.016882 0.032611 0.000000 0.000000 0.000000
# 4 0.000000 0.000000 0.000000 0.057499 0.000000 0.000000
# 5 0.000000 0.000000 0.000000 0.000000 0.032014 0.000000
# 6 0.000000 0.000000 0.000000 0.000000 0.000000 0.130410
#
#
# Mechanical properties :
#
#
# Convention : Reuss Voigt Hill
#
# Bulk Modulus (GPa) = 51.90185 56.37251 54.13718
# Shear Modulus (GPa) = 13.52622 17.61339 15.56981
#
# Velocity S-wave (km/s) = 2.83242 3.23215 3.03887
# Velocity P-wave (km/s) = 6.44055 6.88219 6.66503
#
# Compressibility (1/GPa) = 0.01926714
#
# Stress axis : x y z
#
# Youngs Moduli (GPa) = 57.44024 31.98274 30.66476
#
# Poissons Ratio (x) = 0.07169 0.36449
# Poissons Ratio (y) = 0.12875 0.51769
# Poissons Ratio (z) = 0.68275 0.53994
#
# Static dielectric constant tensor:
#      x y z
#    x 1.594550 0.000000 0.000000 
#    y 0.000000 1.556040 0.000000 
#    z 0.000000 0.000000 1.563330 
# 
# From -- ./inp_files/8194.got.cif
#   From: 2010.05.17/outbox.cif.g08.bks.cpg/sg57_5_cif.got.tgz:8194.got - 2010.06.03 13:58:18.
