data_PCOD9435123
_publ_section_title
;
Structure prediction by ZEFSAII (Michael W. Deem and Ramdas Pophale) SiO2 
 PCOD9435123
Probable space group: P B C M
;
_chemical_formula_sum "Si O2"
_cell_formula_units_Z 40
_cell_length_a 15.614769
_cell_length_b 13.324937
_cell_length_c 7.645330
_cell_angle_alpha 90.000000
_cell_angle_beta 90.000000
_cell_angle_gamma 90.000000
_cell_volume 1590.731804
_symmetry_space_group_name_H-M "P B C M"
_symmetry_group_IT_number 57
_symmetry_cell_setting 'orthorhombic'
loop_
_space_group_symop_operation_xyz
x,y,z
-x,-y,1/2+z
x,1/2-y,-z
-x,1/2+y,1/2-z
-x,-y,-z
x,y,1/2-z
-x,1/2+y,z
x,1/2-y,1/2+z
loop_
_atom_site_type_symbol
_atom_site_label
_atom_site_fract_x
_atom_site_fract_y
_atom_site_fract_z
Si Si1 0.064304 0.137190 0.041062
Si Si2 0.324109 0.356919 0.442923
Si Si3 0.877946 0.080289 0.045202
Si Si4 0.306200 0.918409 0.965717
Si Si5 0.509881 0.116963 0.458599
O O1 0.064096 0.125404 0.250000
O O2 0.966687 0.122857 0.970645
O O3 0.092495 0.250000 0.000000
O O4 0.116331 0.041187 0.971483
O O5 0.288117 0.250000 0.500000
O O6 0.290654 0.371860 0.250000
O O7 0.310959 0.465080 0.531363
O O8 0.427044 0.342542 0.443596
O O9 0.878632 0.105018 0.250000
O O10 0.786880 0.118352 0.975341
O O11 0.309440 0.918920 0.750000
O O12 0.393035 0.861865 0.019498
O O13 0.501995 0.134721 0.250000
O O14 0.500000 0.000000 0.500000
#
# Coordination Sequence:
#
# PCOD9435123 Si02
#       5
#     8   8   8   8   8
#     4  10  20  34  54  77 103 135 168 206 253 307
#     4  10  19  31  47  69  97 129 165 203 247 293
#     4   9  18  35  56  77 102 132 169 211 256 304
#     4   8  16  31  51  72  95 125 160 202 248 293
#     4   9  16  29  48  68  92 123 158 192 233 283
#
# _framework density 25.145659999999999
#
# number of rings (size 3 to 8) (size 9 to 14) (size 15 to 20)
#    0.000    2.800    0.000    3.000    0.000    1.600 
#    0.000    9.000    0.000    2.400    0.000    0.000 
#    0.000    0.000    0.000    0.000    0.000    0.000 
#
# Total GULP energy -223082.799044 kJ/mol
# GULP energy per Si atom -5577.069976 kJ/mol
# Density = 2.508843 g / cm^3
# Si number density = 25.145660 Si / 1000 Ang^3
#
#
#
# Elastic Constant Matrix: (Units=GPa)
#
#
# Indices 1 2 3 4 5 6 
#
# 1 183.5094 -4.2592 -0.4656 0.0000 0.0000 0.0000
# 2 -4.2592 97.2047 -14.4012 0.0000 0.0000 0.0000
# 3 -0.4656 -14.4012 65.1699 0.0000 0.0000 0.0000
# 4 0.0000 0.0000 0.0000 15.4777 0.0000 0.0000
# 5 0.0000 0.0000 0.0000 0.0000 9.0013 0.0000
# 6 0.0000 0.0000 0.0000 0.0000 0.0000 -15.5552
#
#
#
# Elastic Compliance Matrix: (Units=1/GPa)
#
#
# Indices 1 2 3 4 5 6 
#
# 1 0.005455 0.000253 0.000095 0.000000 0.000000 0.000000
# 2 0.000253 0.010648 0.002355 0.000000 0.000000 0.000000
# 3 0.000095 0.002355 0.015866 0.000000 0.000000 0.000000
# 4 0.000000 0.000000 0.000000 0.064609 0.000000 0.000000
# 5 0.000000 0.000000 0.000000 0.000000 0.111096 0.000000
# 6 0.000000 0.000000 0.000000 0.000000 0.000000 -0.064287
#
#
# Mechanical properties :
#
#
# Convention : Reuss Voigt Hill
#
# Bulk Modulus (GPa) = 26.75666 34.18133 30.46899
# Shear Modulus (GPa) = 33.23616 26.11875 29.67745
#
# Velocity S-wave (km/s) = 3.63953 3.22638 3.43916
# Velocity P-wave (km/s) = 5.32215 5.24426 5.28335
#
# Compressibility (1/GPa) = 0.03737387
#
# Stress axis : x y z
#
# Youngs Moduli (GPa) = 183.30370 93.91859 63.02973
#
# Poissons Ratio (x) = -0.02377 -0.00598
# Poissons Ratio (y) = -0.04639 -0.14842
# Poissons Ratio (z) = -0.01740 -0.22115
#
# Static dielectric constant tensor:
#      x y z
#    x 2.049160 0.000000 0.000000 
#    y 0.000000 1.799150 0.000000 
#    z 0.000000 0.000000 1.948210 
# 
# From -- ./inp_files/6369.got.cif
#   From: 2010.05.17/outbox.cif.g08.bks.cpg/sg57_4_cif.got.tgz:6369.got - 2010.06.03 13:58:18.
