data_PCOD9435345
_publ_section_title
;
Structure prediction by ZEFSAII (Michael W. Deem and Ramdas Pophale) SiO2 
 PCOD9435345
Probable space group: P B C M
;
_chemical_formula_sum "Si O2"
_cell_formula_units_Z 40
_cell_length_a 27.413362
_cell_length_b 9.177202
_cell_length_c 8.566930
_cell_angle_alpha 90.000000
_cell_angle_beta 90.000000
_cell_angle_gamma 90.000000
_cell_volume 2155.250778
_symmetry_space_group_name_H-M "P B C M"
_symmetry_group_IT_number 57
_symmetry_cell_setting 'orthorhombic'
loop_
_space_group_symop_operation_xyz
x,y,z
-x,-y,1/2+z
x,1/2-y,-z
-x,1/2+y,1/2-z
-x,-y,-z
x,y,1/2-z
-x,1/2+y,z
x,1/2-y,1/2+z
loop_
_atom_site_type_symbol
_atom_site_label
_atom_site_fract_x
_atom_site_fract_y
_atom_site_fract_z
Si Si1 0.359808 0.584275 0.436337
Si Si2 0.046363 0.585364 0.937264
Si Si3 0.453181 0.086239 0.063388
Si Si4 0.847671 0.084113 0.938141
Si Si5 0.742215 0.083310 0.937960
O O1 0.363347 0.750000 0.500000
O O2 0.361803 0.588070 0.250000
O O3 0.404383 0.492658 0.503847
O O4 0.307411 0.521081 0.490729
O O5 0.044696 0.587225 0.750000
O O6 0.099640 0.521324 0.986212
O O7 0.044239 0.750000 0.000000
O O8 0.000000 0.500000 0.000000
O O9 0.454073 0.086561 0.250000
O O10 0.454623 0.250000 0.000000
O O11 0.500000 0.000000 0.000000
O O12 0.847312 0.089090 0.750000
O O13 0.795129 0.018016 0.984561
O O14 0.847853 0.250000 0.000000
O O15 0.738240 0.084293 0.750000
O O16 0.743513 0.250000 0.000000
#
# Coordination Sequence:
#
# PCOD9435345 Si02
#       5
#     8   8   8   8   8
#     4  11  21  35  55  83 114 146 179 217 261 311
#     4  10  19  32  49  72 100 134 172 216 264 316
#     4  12  25  43  63  86 113 145 181 221 264 311
#     4   8  15  26  43  67  97 129 167 211 259 308
#     4   9  15  26  45  72 102 134 169 213 260 308
#
# _framework density 18.559324
#
# number of rings (size 3 to 8) (size 9 to 14) (size 15 to 20)
#    0.000    2.000    0.000    6.600    0.000    1.600 
#    0.000    0.000    0.000    1.200    0.000    5.600 
#    0.000    0.000    0.000    0.000    0.000    0.000 
#
# Total GULP energy -223008.732582 kJ/mol
# GULP energy per Si atom -5575.218315 kJ/mol
# Density = 1.851708 g / cm^3
# Si number density = 18.559324 Si / 1000 Ang^3
#
#
#
# Elastic Constant Matrix: (Units=GPa)
#
#
# Indices 1 2 3 4 5 6 
#
# 1 252.9121 68.0228 74.8775 0.0000 0.0000 0.0000
# 2 68.0228 54.7150 30.1291 0.0000 0.0000 0.0000
# 3 74.8775 30.1291 126.1625 0.0000 0.0000 0.0000
# 4 0.0000 0.0000 0.0000 23.5327 0.0000 0.0000
# 5 0.0000 0.0000 0.0000 0.0000 31.8938 0.0000
# 6 0.0000 0.0000 0.0000 0.0000 0.0000 18.7390
#
#
#
# Elastic Compliance Matrix: (Units=1/GPa)
#
#
# Indices 1 2 3 4 5 6 
#
# 1 0.006428 -0.006783 -0.002195 0.000000 0.000000 0.000000
# 2 -0.006783 0.028201 -0.002709 0.000000 0.000000 0.000000
# 3 -0.002195 -0.002709 0.009876 0.000000 0.000000 0.000000
# 4 0.000000 0.000000 0.000000 0.042494 0.000000 0.000000
# 5 0.000000 0.000000 0.000000 0.000000 0.031354 0.000000
# 6 0.000000 0.000000 0.000000 0.000000 0.000000 0.053365
#
#
# Mechanical properties :
#
#
# Convention : Reuss Voigt Hill
#
# Bulk Modulus (GPa) = 47.32443 86.64986 66.98715
# Shear Modulus (GPa) = 24.73584 32.21711 28.47647
#
# Velocity S-wave (km/s) = 3.65471 4.17093 3.92133
# Velocity P-wave (km/s) = 6.58510 8.36570 7.52823
#
# Compressibility (1/GPa) = 0.02113073
#
# Stress axis : x y z
#
# Youngs Moduli (GPa) = 155.56512 35.46001 101.25379
#
# Poissons Ratio (x) = 0.24052 0.22228
# Poissons Ratio (y) = 1.05516 0.27431
# Poissons Ratio (z) = 0.34151 0.09606
#
# Static dielectric constant tensor:
#      x y z
#    x 1.716230 0.000000 0.000000 
#    y 0.000000 1.613400 0.000000 
#    z 0.000000 0.000000 1.624720 
# 
# From -- ./inp_files/9641.got.cif
#   From: 2010.05.17/outbox.cif.g08.bks.cpg/sg57_5_cif.got.tgz:9641.got - 2010.06.03 13:58:18.
