data_PCOD9435825
_publ_section_title
;
Structure prediction by ZEFSAII (Michael W. Deem and Ramdas Pophale) SiO2 
 PCOD9435825
Probable space group: P B C M
;
_chemical_formula_sum "Si O2"
_cell_formula_units_Z 40
_cell_length_a 18.805516
_cell_length_b 13.825312
_cell_length_c 8.883517
_cell_angle_alpha 90.000000
_cell_angle_beta 90.000000
_cell_angle_gamma 90.000000
_cell_volume 2309.644471
_symmetry_space_group_name_H-M "P B C M"
_symmetry_group_IT_number 57
_symmetry_cell_setting 'orthorhombic'
loop_
_space_group_symop_operation_xyz
x,y,z
-x,-y,1/2+z
x,1/2-y,-z
-x,1/2+y,1/2-z
-x,-y,-z
x,y,1/2-z
-x,1/2+y,z
x,1/2-y,1/2+z
loop_
_atom_site_type_symbol
_atom_site_label
_atom_site_fract_x
_atom_site_fract_y
_atom_site_fract_z
Si Si1 0.394013 0.959664 0.430685
Si Si2 0.961265 0.644926 0.070413
Si Si3 0.889824 0.460674 0.570391
Si Si4 0.540500 0.645620 0.570162
Si Si5 0.246099 0.643150 0.569176
O O1 0.395888 0.972908 0.250000
O O2 0.460804 0.890936 0.471373
O O3 0.319798 0.910168 0.471339
O O4 0.407556 0.062408 0.508621
O O5 0.951271 0.647277 0.250000
O O6 0.041831 0.608000 0.040277
O O7 0.950747 0.750000 0.000000
O O8 0.910150 0.564802 0.997225
O O9 0.880825 0.467102 0.750000
O O10 0.820572 0.416016 0.494298
O O11 0.554301 0.750000 0.500000
O O12 0.544908 0.650779 0.750000
O O13 0.245457 0.750000 0.500000
O O14 0.241755 0.649263 0.750000
#
# Coordination Sequence:
#
# PCOD9435825 Si02
#       5
#     8   8   8   8   8
#     4   9  20  36  53  77 107 139 176 216 259 310
#     4  10  20  35  56  80 107 140 177 218 263 311
#     4  10  21  36  55  80 109 140 177 218 261 312
#     4  10  19  33  55  79 105 138 175 217 262 309
#     4  11  22  36  55  79 109 141 174 215 263 314
#
# _framework density 17.318681000000002
#
# number of rings (size 3 to 8) (size 9 to 14) (size 15 to 20)
#    0.000    2.000    0.000    3.600    0.000    6.400 
#    0.000    1.000    0.000    4.800    0.000    0.000 
#    0.000    0.000    0.000    0.000    0.000    0.000 
#
# Total GULP energy -223426.020351 kJ/mol
# GULP energy per Si atom -5585.650509 kJ/mol
# Density = 1.727926 g / cm^3
# Si number density = 17.318681 Si / 1000 Ang^3
#
#
#
# Elastic Constant Matrix: (Units=GPa)
#
#
# Indices 1 2 3 4 5 6 
#
# 1 132.4151 92.0592 63.5522 0.0000 0.0000 0.0000
# 2 92.0592 189.7171 74.1430 0.0000 0.0000 0.0000
# 3 63.5522 74.1430 63.1496 0.0000 0.0000 0.0000
# 4 0.0000 0.0000 0.0000 34.6414 0.0000 0.0000
# 5 0.0000 0.0000 0.0000 0.0000 27.6062 0.0000
# 6 0.0000 0.0000 0.0000 0.0000 0.0000 15.6799
#
#
#
# Elastic Compliance Matrix: (Units=1/GPa)
#
#
# Indices 1 2 3 4 5 6 
#
# 1 0.015269 -0.002594 -0.012320 0.000000 0.000000 0.000000
# 2 -0.002594 0.010181 -0.009343 0.000000 0.000000 0.000000
# 3 -0.012320 -0.009343 0.039203 0.000000 0.000000 0.000000
# 4 0.000000 0.000000 0.000000 0.028867 0.000000 0.000000
# 5 0.000000 0.000000 0.000000 0.000000 0.036224 0.000000
# 6 0.000000 0.000000 0.000000 0.000000 0.000000 0.063776
#
#
# Mechanical properties :
#
#
# Convention : Reuss Voigt Hill
#
# Bulk Modulus (GPa) = 61.96237 93.86562 77.91400
# Shear Modulus (GPa) = 20.20911 25.95400 23.08156
#
# Velocity S-wave (km/s) = 3.41969 3.87539 3.65465
# Velocity P-wave (km/s) = 7.17271 8.62216 7.93062
#
# Compressibility (1/GPa) = 0.01613883
#
# Stress axis : x y z
#
# Youngs Moduli (GPa) = 65.49392 98.22221 25.50812
#
# Poissons Ratio (x) = 0.25481 0.31426
# Poissons Ratio (y) = 0.16990 0.23831
# Poissons Ratio (z) = 0.80690 0.91765
#
# Static dielectric constant tensor:
#      x y z
#    x 1.570690 0.000000 0.000000 
#    y 0.000000 1.552110 0.000000 
#    z 0.000000 0.000000 1.575490 
# 
# From -- ./inp_files/4278.got.cif
#   From: 2010.05.17/outbox.cif.g08.bks.cpg/sg57_3_cif.got.tgz:4278.got - 2010.06.03 13:58:18.
