data_PCOD9435003
_publ_section_title
;
Structure prediction by ZEFSAII (Michael W. Deem and Ramdas Pophale) SiO2 
 PCOD9435003
Probable space group: P B C M
;
_chemical_formula_sum "Si O2"
_cell_formula_units_Z 64
_cell_length_a 23.808539
_cell_length_b 17.972353
_cell_length_c 8.078184
_cell_angle_alpha 90.000000
_cell_angle_beta 90.000000
_cell_angle_gamma 90.000000
_cell_volume 3456.618318
_symmetry_space_group_name_H-M "P B C M"
_symmetry_group_IT_number 57
_symmetry_cell_setting 'orthorhombic'
loop_
_space_group_symop_operation_xyz
x,y,z
-x,-y,1/2+z
x,1/2-y,-z
-x,1/2+y,1/2-z
-x,-y,-z
x,y,1/2-z
-x,1/2+y,z
x,1/2-y,1/2+z
loop_
_atom_site_type_symbol
_atom_site_label
_atom_site_fract_x
_atom_site_fract_y
_atom_site_fract_z
Si Si1 0.620111 0.035541 0.451487
Si Si2 0.931077 0.834238 0.552039
Si Si3 0.542129 0.168841 0.051810
Si Si4 0.700222 0.829532 0.560593
Si Si5 0.966234 0.426133 0.550827
Si Si6 0.738634 0.514543 0.557078
Si Si7 0.136249 0.017401 0.549124
Si Si8 0.417602 0.128520 0.945742
O O1 0.622774 0.039064 0.250000
O O2 0.584220 0.105152 0.510367
O O3 0.684167 0.027888 0.514099
O O4 0.588311 0.958626 0.490583
O O5 0.916782 0.750000 0.500000
O O6 0.931314 0.835595 0.750000
O O7 0.889888 0.901834 0.497554
O O8 0.994039 0.858648 0.491253
O O9 0.539035 0.164081 0.250000
O O10 0.562128 0.250000 0.000000
O O11 0.479437 0.156661 0.984176
O O12 0.721115 0.750000 0.500000
O O13 0.715910 0.841924 0.750000
O O14 0.722722 0.898419 0.455450
O O15 0.632620 0.831544 0.542341
O O16 0.963928 0.420330 0.750000
O O17 0.903978 0.449194 0.493184
O O18 0.000000 0.500000 0.500000
O O19 0.742113 0.493456 0.750000
O O20 0.800636 0.506399 0.484606
O O21 0.137320 0.016901 0.750000
O O22 0.406168 0.136810 0.750000
#
# Coordination Sequence:
#
# PCOD9435003 Si02
#       8
#     8   8   8   8   8   8   8   8
#     4   8  17  33  52  71  94 123 157 195 237 282
#     4  10  19  30  46  70 103 133 160 192 233 280
#     4  11  21  33  49  72  98 124 154 192 239 290
#     4  11  21  33  48  68  96 129 160 193 233 282
#     4   8  15  28  46  69  93 122 156 192 230 272
#     4   9  18  34  53  72  92 121 160 201 239 280
#     4   9  17  31  52  73  94 121 159 200 240 281
#     4  10  19  34  53  73  95 121 156 197 240 289
#
# _framework density 18.515205000000002
#
# number of rings (size 3 to 8) (size 9 to 14) (size 15 to 20)
#    0.000    2.500    0.000    3.750    0.000    1.500 
#    0.000    5.625    0.000    0.750    0.000    0.000 
#    0.000    0.000    0.000    0.000    0.000    0.250 
#
# Total GULP energy -356648.515769 kJ/mol
# GULP energy per Si atom -5572.633059 kJ/mol
# Density = 1.847306 g / cm^3
# Si number density = 18.515205 Si / 1000 Ang^3
#
#
#
# Elastic Constant Matrix: (Units=GPa)
#
#
# Indices 1 2 3 4 5 6 
#
# 1 70.4318 2.6995 -6.7267 0.0000 0.0000 0.0000
# 2 2.6995 39.0401 -2.4839 0.0000 0.0000 0.0000
# 3 -6.7267 -2.4839 27.3944 0.0000 0.0000 0.0000
# 4 0.0000 0.0000 0.0000 9.6745 0.0000 0.0000
# 5 0.0000 0.0000 0.0000 0.0000 12.2618 0.0000
# 6 0.0000 0.0000 0.0000 0.0000 0.0000 11.5195
#
#
#
# Elastic Compliance Matrix: (Units=1/GPa)
#
#
# Indices 1 2 3 4 5 6 
#
# 1 0.014563 -0.000784 0.003505 0.000000 0.000000 0.000000
# 2 -0.000784 0.025806 0.002147 0.000000 0.000000 0.000000
# 3 0.003505 0.002147 0.037559 0.000000 0.000000 0.000000
# 4 0.000000 0.000000 0.000000 0.103365 0.000000 0.000000
# 5 0.000000 0.000000 0.000000 0.000000 0.081554 0.000000
# 6 0.000000 0.000000 0.000000 0.000000 0.000000 0.086809
#
#
# Mechanical properties :
#
#
# Convention : Reuss Voigt Hill
#
# Bulk Modulus (GPa) = 11.40720 13.76046 12.58383
# Shear Modulus (GPa) = 13.54497 16.24965 14.89731
#
# Velocity S-wave (km/s) = 2.70767 2.96571 2.83962
# Velocity P-wave (km/s) = 3.99370 4.37897 4.19076
#
# Compressibility (1/GPa) = 0.08766395
#
# Stress axis : x y z
#
# Youngs Moduli (GPa) = 68.66756 38.75139 26.62466
#
# Poissons Ratio (x) = 0.03038 -0.09332
# Poissons Ratio (y) = 0.05384 -0.05717
# Poissons Ratio (z) = -0.24067 -0.08321
#
# Static dielectric constant tensor:
#      x y z
#    x 1.683840 0.000000 0.000000 
#    y 0.000000 1.643690 0.000000 
#    z 0.000000 0.000000 1.661500 
# 
# From -- ./inp_files/9549.got.cif
#   From: 2010.05.17/outbox.cif.g08.bks.cpg/sg57_5_cif.got.tgz:9549.got - 2010.06.03 13:58:18.
