data_PCOD9435529
_publ_section_title
;
Structure prediction by ZEFSAII (Michael W. Deem and Ramdas Pophale) SiO2 
 PCOD9435529
Probable space group: P B C M
;
_chemical_formula_sum "Si O2"
_cell_formula_units_Z 56
_cell_length_a 17.168826
_cell_length_b 21.802063
_cell_length_c 8.856340
_cell_angle_alpha 90.000000
_cell_angle_beta 90.000000
_cell_angle_gamma 90.000000
_cell_volume 3315.068223
_symmetry_space_group_name_H-M "P B C M"
_symmetry_group_IT_number 57
_symmetry_cell_setting 'orthorhombic'
loop_
_space_group_symop_operation_xyz
x,y,z
-x,-y,1/2+z
x,1/2-y,-z
-x,1/2+y,1/2-z
-x,-y,-z
x,y,1/2-z
-x,1/2+y,z
x,1/2-y,1/2+z
loop_
_atom_site_type_symbol
_atom_site_label
_atom_site_fract_x
_atom_site_fract_y
_atom_site_fract_z
Si Si1 0.542988 0.440165 0.432471
Si Si2 0.708566 0.484290 0.430524
Si Si3 0.147235 0.183194 0.569516
Si Si4 0.300461 0.126932 0.069515
Si Si5 0.981296 0.589132 0.569771
Si Si6 0.547458 0.684394 0.931438
Si Si7 0.122612 0.971355 0.570096
O O1 0.500000 0.500000 0.500000
O O2 0.538392 0.445062 0.250000
O O3 0.633961 0.444242 0.476496
O O4 0.504457 0.375128 0.475734
O O5 0.717878 0.479785 0.250000
O O6 0.687099 0.555105 0.465014
O O7 0.790983 0.468538 0.504332
O O8 0.150142 0.250000 0.500000
O O9 0.158226 0.184036 0.750000
O O10 0.216746 0.144912 0.495013
O O11 0.064903 0.151034 0.537161
O O12 0.303086 0.135402 0.250000
O O13 0.366515 0.167911 0.992022
O O14 0.993005 0.583567 0.750000
O O15 0.063280 0.580253 0.488567
O O16 0.921696 0.534434 0.523664
O O17 0.547920 0.688685 0.750000
O O18 0.522901 0.750000 0.000000
O O19 0.127077 0.970776 0.750000
#
# Coordination Sequence:
#
# PCOD9435529 Si02
#       7
#     8   8   8   8   8   8   8
#     4  10  21  37  57  82 109 143 183 228 277 328
#     4  10  20  34  54  80 111 141 175 221 275 325
#     4  11  22  36  52  75 109 145 182 218 261 317
#     4  11  21  34  54  79 110 146 182 220 268 326
#     4   9  19  34  51  73 104 138 172 213 260 309
#     4  11  23  38  57  79 110 147 186 229 274 329
#     4  10  19  32  53  79 104 133 173 216 260 313
#
# _framework density 16.892565000000001
#
# number of rings (size 3 to 8) (size 9 to 14) (size 15 to 20)
#    0.000    1.714    2.857    2.143    0.000    3.429 
#    0.000    0.000    0.000    0.857    0.000    2.000 
#    0.000    0.000    0.000    0.000    0.000    0.000 
#
# Total GULP energy -312550.084620 kJ/mol
# GULP energy per Si atom -5581.251511 kJ/mol
# Density = 1.685412 g / cm^3
# Si number density = 16.892565 Si / 1000 Ang^3
#
#
#
# Elastic Constant Matrix: (Units=GPa)
#
#
# Indices 1 2 3 4 5 6 
#
# 1 112.5343 43.8868 32.7439 0.0000 0.0000 0.0000
# 2 43.8868 86.2970 36.7145 0.0000 0.0000 0.0000
# 3 32.7439 36.7145 34.7859 0.0000 0.0000 0.0000
# 4 0.0000 0.0000 0.0000 21.5772 0.0000 0.0000
# 5 0.0000 0.0000 0.0000 0.0000 24.8500 0.0000
# 6 0.0000 0.0000 0.0000 0.0000 0.0000 21.8635
#
#
#
# Elastic Compliance Matrix: (Units=1/GPa)
#
#
# Indices 1 2 3 4 5 6 
#
# 1 0.012518 -0.002456 -0.009192 0.000000 0.000000 0.000000
# 2 -0.002456 0.021514 -0.020395 0.000000 0.000000 0.000000
# 3 -0.009192 -0.020395 0.058925 0.000000 0.000000 0.000000
# 4 0.000000 0.000000 0.000000 0.046345 0.000000 0.000000
# 5 0.000000 0.000000 0.000000 0.000000 0.040241 0.000000
# 6 0.000000 0.000000 0.000000 0.000000 0.000000 0.045738
#
#
# Mechanical properties :
#
#
# Convention : Reuss Voigt Hill
#
# Bulk Modulus (GPa) = 34.63497 51.14528 42.89012
# Shear Modulus (GPa) = 16.72296 21.67629 19.19963
#
# Velocity S-wave (km/s) = 3.14978 3.58604 3.37497
# Velocity P-wave (km/s) = 5.81169 6.89121 6.37434
#
# Compressibility (1/GPa) = 0.02887255
#
# Stress axis : x y z
#
# Youngs Moduli (GPa) = 79.88280 46.48218 16.97078
#
# Poissons Ratio (x) = 0.11415 0.15599
# Poissons Ratio (y) = 0.19617 0.34612
# Poissons Ratio (z) = 0.73425 0.94799
#
# Static dielectric constant tensor:
#      x y z
#    x 1.560340 0.000000 0.000000 
#    y 0.000000 1.559910 0.000000 
#    z 0.000000 0.000000 1.565470 
# 
# From -- ./inp_files/5160.got.cif
#   From: 2010.05.17/outbox.cif.g08.bks.cpg/sg57_3_cif.got.tgz:5160.got - 2010.06.03 13:58:18.
