data_PCOD9435350
_publ_section_title
;
Structure prediction by ZEFSAII (Michael W. Deem and Ramdas Pophale) SiO2 
 PCOD9435350
Probable space group: P B C M
;
_chemical_formula_sum "Si O2"
_cell_formula_units_Z 64
_cell_length_a 14.840678
_cell_length_b 29.066117
_cell_length_c 8.637229
_cell_angle_alpha 90.000000
_cell_angle_beta 90.000000
_cell_angle_gamma 90.000000
_cell_volume 3725.762729
_symmetry_space_group_name_H-M "P B C M"
_symmetry_group_IT_number 57
_symmetry_cell_setting 'orthorhombic'
loop_
_space_group_symop_operation_xyz
x,y,z
-x,-y,1/2+z
x,1/2-y,-z
-x,1/2+y,1/2-z
-x,-y,-z
x,y,1/2-z
-x,1/2+y,z
x,1/2-y,1/2+z
loop_
_atom_site_type_symbol
_atom_site_label
_atom_site_fract_x
_atom_site_fract_y
_atom_site_fract_z
Si Si1 0.357748 0.300761 0.935863
Si Si2 0.470362 0.114683 0.934180
Si Si3 0.358930 0.471016 0.565872
Si Si4 0.146281 0.473272 0.934404
Si Si5 0.848610 0.073164 0.435921
Si Si6 0.643485 0.072136 0.435977
Si Si7 0.029961 0.385421 0.939241
Si Si8 0.850290 0.800371 0.936758
O O1 0.362620 0.300418 0.750000
O O2 0.253477 0.311191 0.980686
O O3 0.378818 0.250000 0.000000
O O4 0.422800 0.339788 0.001022
O O5 0.470472 0.115621 0.750000
O O6 0.414528 0.070385 0.992969
O O7 0.571175 0.107268 0.996840
O O8 0.375391 0.472602 0.750000
O O9 0.252121 0.463059 0.540185
O O10 0.380600 0.520633 0.493051
O O11 0.133466 0.479143 0.750000
O O12 0.086184 0.430557 0.986909
O O13 0.125188 0.521414 0.015628
O O14 0.846477 0.074935 0.250000
O O15 0.746252 0.081479 0.489924
O O16 0.926859 0.107541 0.489830
O O17 0.640610 0.072909 0.250000
O O18 0.031189 0.384762 0.750000
O O19 0.081476 0.339755 0.991500
O O20 0.852939 0.799054 0.750000
O O21 0.872448 0.750000 0.000000
#
# Coordination Sequence:
#
# PCOD9435350 Si02
#       8
#     8   8   8   8   8   8   8   8
#     4  10  20  36  56  79 105 132 159 195 243 296
#     4  12  23  34  51  74  98 130 169 209 249 295
#     4  10  19  32  49  72 102 135 167 203 247 298
#     4   9  17  29  47  70  99 131 161 195 241 292
#     4   9  18  31  48  69  96 130 167 203 240 281
#     4  10  20  34  49  69  98 133 171 212 252 293
#     4   9  16  29  49  72  97 129 164 196 236 289
#     4   9  18  33  53  75 102 130 157 191 236 288
#
# _framework density 17.177692
#
# number of rings (size 3 to 8) (size 9 to 14) (size 15 to 20)
#    0.000    2.250    0.000    3.750    0.000    3.500 
#    0.000    1.250    0.000    0.750    0.000    1.750 
#    0.000    0.000    0.000    0.000    0.000    0.000 
#
# Total GULP energy -357228.278385 kJ/mol
# GULP energy per Si atom -5581.691850 kJ/mol
# Density = 1.713859 g / cm^3
# Si number density = 17.177692 Si / 1000 Ang^3
#
#
#
# Elastic Constant Matrix: (Units=GPa)
#
#
# Indices 1 2 3 4 5 6 
#
# 1 118.8943 104.7979 37.3972 0.0000 0.0000 0.0000
# 2 104.7979 124.5197 33.0287 0.0000 0.0000 0.0000
# 3 37.3972 33.0287 44.3913 0.0000 0.0000 0.0000
# 4 0.0000 0.0000 0.0000 28.4575 0.0000 0.0000
# 5 0.0000 0.0000 0.0000 0.0000 15.5587 0.0000
# 6 0.0000 0.0000 0.0000 0.0000 0.0000 32.5579
#
#
#
# Elastic Compliance Matrix: (Units=1/GPa)
#
#
# Indices 1 2 3 4 5 6 
#
# 1 0.035577 -0.027400 -0.009585 0.000000 0.000000 0.000000
# 2 -0.027400 0.031107 -0.000062 0.000000 0.000000 0.000000
# 3 -0.009585 -0.000062 0.030648 0.000000 0.000000 0.000000
# 4 0.000000 0.000000 0.000000 0.035140 0.000000 0.000000
# 5 0.000000 0.000000 0.000000 0.000000 0.064273 0.000000
# 6 0.000000 0.000000 0.000000 0.000000 0.000000 0.030714
#
#
# Mechanical properties :
#
#
# Convention : Reuss Voigt Hill
#
# Bulk Modulus (GPa) = 43.03259 70.91701 56.97480
# Shear Modulus (GPa) = 16.16554 22.82027 19.49290
#
# Velocity S-wave (km/s) = 3.07103 3.64879 3.37230
# Velocity P-wave (km/s) = 6.13847 7.68931 6.95724
#
# Compressibility (1/GPa) = 0.02323820
#
# Stress axis : x y z
#
# Youngs Moduli (GPa) = 28.10821 32.14675 32.62817
#
# Poissons Ratio (x) = 0.88081 0.31275
# Poissons Ratio (y) = 0.77015 0.00203
# Poissons Ratio (z) = 0.26942 0.00200
#
# Static dielectric constant tensor:
#      x y z
#    x 1.609270 0.000000 0.000000 
#    y 0.000000 1.545530 0.000000 
#    z 0.000000 0.000000 1.576980 
# 
# From -- ./inp_files/5732.got.cif
#   From: 2010.05.17/outbox.cif.g08.bks.cpg/sg57_3_cif.got.tgz:5732.got - 2010.06.03 13:58:18.
