data_PCOD9435913
_publ_section_title
;
Structure prediction by ZEFSAII (Michael W. Deem and Ramdas Pophale) SiO2 
 PCOD9435913
Probable space group: P B C M
;
_chemical_formula_sum "Si O2"
_cell_formula_units_Z 64
_cell_length_a 15.569299
_cell_length_b 12.807936
_cell_length_c 18.023755
_cell_angle_alpha 90.000000
_cell_angle_beta 90.000000
_cell_angle_gamma 90.000000
_cell_volume 3594.127531
_symmetry_space_group_name_H-M "P B C M"
_symmetry_group_IT_number 57
_symmetry_cell_setting 'orthorhombic'
loop_
_space_group_symop_operation_xyz
x,y,z
-x,-y,1/2+z
x,1/2-y,-z
-x,1/2+y,1/2-z
-x,-y,-z
x,y,1/2-z
-x,1/2+y,z
x,1/2-y,1/2+z
loop_
_atom_site_type_symbol
_atom_site_label
_atom_site_fract_x
_atom_site_fract_y
_atom_site_fract_z
Si Si1 0.353132 0.377934 0.164981
Si Si2 0.598169 0.513578 0.978399
Si Si3 0.235898 0.870879 0.977113
Si Si4 0.036677 0.347266 0.164702
Si Si5 0.862683 0.870198 0.663210
Si Si6 0.817473 0.016261 0.333158
Si Si7 0.700135 0.685936 0.429916
Si Si8 0.930360 0.457090 0.058804
O O1 0.382997 0.373079 0.250000
O O2 0.402987 0.451103 0.107686
O O3 0.258149 0.429313 0.165385
O O4 0.347063 0.266255 0.125098
O O5 0.668773 0.421000 0.986245
O O6 0.500000 0.500000 0.000000
O O7 0.637627 0.604893 0.029984
O O8 0.206118 0.896719 0.892989
O O9 0.236042 0.750000 0.000000
O O10 0.162107 0.931876 0.023319
O O11 0.004832 0.351021 0.250000
O O12 0.092608 0.242862 0.157376
O O13 0.097719 0.448154 0.152314
O O14 0.965821 0.355098 0.101145
O O15 0.850400 0.892895 0.750000
O O16 0.773793 0.865629 0.618787
O O17 0.919063 0.956311 0.622403
O O18 0.822738 0.059610 0.250000
O O19 0.739492 0.750000 0.500000
O O20 0.000000 0.500000 0.000000
#
# Coordination Sequence:
#
# PCOD9435913 Si02
#       8
#     8   8   8   8   8   8   8   8
#     4   9  17  33  61  93 119 142 188 250 307 359
#     4  10  22  41  64  88 120 158 201 249 307 375
#     4  11  24  41  59  87 118 161 205 247 303 360
#     4  10  21  36  58  86 119 161 204 247 295 352
#     4  11  23  39  60  89 125 159 201 256 307 356
#     4   9  17  35  59  85 114 154 200 246 293 350
#     4  10  19  33  62  94 118 146 192 250 312 353
#     4  12  25  37  56  85 125 164 208 246 294 353
#
# _framework density 17.806825
#
# number of rings (size 3 to 8) (size 9 to 14) (size 15 to 20)
#    0.000    1.750    3.750    0.750    3.500    1.500 
#    0.000    2.500    0.000    3.000    0.000    0.000 
#    0.000    0.000    0.000    0.000    0.000    0.000 
#
# Total GULP energy -356874.158603 kJ/mol
# GULP energy per Si atom -5576.158728 kJ/mol
# Density = 1.776630 g / cm^3
# Si number density = 17.806825 Si / 1000 Ang^3
#
#
#
# Elastic Constant Matrix: (Units=GPa)
#
#
# Indices 1 2 3 4 5 6 
#
# 1 91.3448 22.3186 56.6172 0.0000 0.0000 0.0000
# 2 22.3186 82.7040 54.8054 0.0000 0.0000 0.0000
# 3 56.6172 54.8054 149.6883 0.0000 0.0000 0.0000
# 4 0.0000 0.0000 0.0000 23.5958 0.0000 0.0000
# 5 0.0000 0.0000 0.0000 0.0000 16.9814 0.0000
# 6 0.0000 0.0000 0.0000 0.0000 0.0000 10.0346
#
#
#
# Elastic Compliance Matrix: (Units=1/GPa)
#
#
# Indices 1 2 3 4 5 6 
#
# 1 0.014308 -0.000363 -0.005279 0.000000 0.000000 0.000000
# 2 -0.000363 0.015974 -0.005711 0.000000 0.000000 0.000000
# 3 -0.005279 -0.005711 0.010768 0.000000 0.000000 0.000000
# 4 0.000000 0.000000 0.000000 0.042380 0.000000 0.000000
# 5 0.000000 0.000000 0.000000 0.000000 0.058888 0.000000
# 6 0.000000 0.000000 0.000000 0.000000 0.000000 0.099655
#
#
# Mechanical properties :
#
#
# Convention : Reuss Voigt Hill
#
# Bulk Modulus (GPa) = 54.51369 65.69104 60.10237
# Shear Modulus (GPa) = 18.46414 22.78875 20.62645
#
# Velocity S-wave (km/s) = 3.22361 3.58128 3.40714
# Velocity P-wave (km/s) = 6.67352 7.35335 7.02167
#
# Compressibility (1/GPa) = 0.01834402
#
# Stress axis : x y z
#
# Youngs Moduli (GPa) = 69.88997 62.60198 92.86549
#
# Poissons Ratio (x) = 0.02273 0.49023
# Poissons Ratio (y) = 0.02537 0.53037
# Poissons Ratio (z) = 0.36894 0.35753
#
# Static dielectric constant tensor:
#      x y z
#    x 1.604520 0.000000 0.000000 
#    y 0.000000 1.632630 0.000000 
#    z 0.000000 0.000000 1.620510 
# 
# From -- ./inp_files/22679.got.cif
#   From: 2010.05.17/outbox.cif.g08.bks.cpg/sg57_12_cif.got.tgz:22679.got - 2010.06.03 13:58:18.
