data_PCOD9435125
_publ_section_title
;
Structure prediction by ZEFSAII (Michael W. Deem and Ramdas Pophale) SiO2 
 PCOD9435125
Probable space group: P B C M
;
_chemical_formula_sum "Si O2"
_cell_formula_units_Z 48
_cell_length_a 19.553053
_cell_length_b 8.336869
_cell_length_c 15.946254
_cell_angle_alpha 90.000000
_cell_angle_beta 90.000000
_cell_angle_gamma 90.000000
_cell_volume 2599.418660
_symmetry_space_group_name_H-M "P B C M"
_symmetry_group_IT_number 57
_symmetry_cell_setting 'orthorhombic'
loop_
_space_group_symop_operation_xyz
x,y,z
-x,-y,1/2+z
x,1/2-y,-z
-x,1/2+y,1/2-z
-x,-y,-z
x,y,1/2-z
-x,1/2+y,z
x,1/2-y,1/2+z
loop_
_atom_site_type_symbol
_atom_site_label
_atom_site_fract_x
_atom_site_fract_y
_atom_site_fract_z
Si Si1 0.688543 0.361036 0.082897
Si Si2 0.422880 0.439087 0.006724
Si Si3 0.922213 0.055721 0.502396
Si Si4 0.172228 0.569319 0.653745
Si Si5 0.169927 0.539571 0.345801
Si Si6 0.672782 0.465307 0.656967
O O1 0.624532 0.470836 0.061073
O O2 0.753993 0.461192 0.111816
O O3 0.672496 0.228314 0.152460
O O4 0.704657 0.250000 0.000000
O O5 0.422525 0.250000 0.000000
O O6 0.500000 0.500000 0.000000
O O7 0.384358 0.479664 0.093023
O O8 0.920056 0.250000 0.500000
O O9 0.884881 0.008247 0.589212
O O10 0.880483 0.992787 0.421066
O O11 0.000000 0.000000 0.500000
O O12 0.166803 0.513327 0.750000
O O13 0.168691 0.764955 0.655630
O O14 0.152960 0.487557 0.250000
O O15 0.248445 0.489792 0.364787
O O16 0.659158 0.523311 0.750000
#
# Coordination Sequence:
#
# PCOD9435125 Si02
#       6
#     8   8   8   8   8   8
#     4   9  16  31  57  80  99 127 169 215 262 310
#     4  11  22  37  54  75 108 146 176 206 253 312
#     4  10  19  31  47  70 100 133 168 204 247 300
#     4   9  16  29  50  75  98 127 167 210 252 304
#     4   8  15  30  54  75  94 125 168 211 254 305
#     4   9  17  34  59  83 101 126 172 226 267 307
#
# _framework density 18.465668000000001
#
# number of rings (size 3 to 8) (size 9 to 14) (size 15 to 20)
#    0.000    2.667    0.000    6.500    0.000    0.667 
#    0.000    9.167    0.000    2.000    0.000    0.000 
#    0.000    0.000    0.000    0.000    0.000    0.000 
#
# Total GULP energy -267479.948473 kJ/mol
# GULP energy per Si atom -5572.498927 kJ/mol
# Density = 1.842364 g / cm^3
# Si number density = 18.465668 Si / 1000 Ang^3
#
#
#
# Elastic Constant Matrix: (Units=GPa)
#
#
# Indices 1 2 3 4 5 6 
#
# 1 187.5706 34.4716 107.0251 0.0000 0.0000 0.0000
# 2 34.4716 26.5556 17.8776 0.0000 0.0000 0.0000
# 3 107.0251 17.8776 137.3539 0.0000 0.0000 0.0000
# 4 0.0000 0.0000 0.0000 8.5751 0.0000 0.0000
# 5 0.0000 0.0000 0.0000 0.0000 6.6905 0.0000
# 6 0.0000 0.0000 0.0000 0.0000 0.0000 29.3417
#
#
#
# Elastic Compliance Matrix: (Units=1/GPa)
#
#
# Indices 1 2 3 4 5 6 
#
# 1 0.011526 -0.009772 -0.007709 0.000000 0.000000 0.000000
# 2 -0.009772 0.049558 0.001164 0.000000 0.000000 0.000000
# 3 -0.007709 0.001164 0.013136 0.000000 0.000000 0.000000
# 4 0.000000 0.000000 0.000000 0.116617 0.000000 0.000000
# 5 0.000000 0.000000 0.000000 0.000000 0.149467 0.000000
# 6 0.000000 0.000000 0.000000 0.000000 0.000000 0.034081
#
#
# Mechanical properties :
#
#
# Convention : Reuss Voigt Hill
#
# Bulk Modulus (GPa) = 24.04677 74.46985 49.25831
# Shear Modulus (GPa) = 11.87987 21.72850 16.80419
#
# Velocity S-wave (km/s) = 2.53918 3.43402 3.01993
# Velocity P-wave (km/s) = 4.65267 7.49264 6.23647
#
# Compressibility (1/GPa) = 0.04158563
#
# Stress axis : x y z
#
# Youngs Moduli (GPa) = 86.76205 20.17839 76.12823
#
# Poissons Ratio (x) = 0.19718 0.58687
# Poissons Ratio (y) = 0.84782 -0.08860
# Poissons Ratio (z) = 0.66884 -0.02348
#
# Static dielectric constant tensor:
#      x y z
#    x 1.638540 0.000000 0.000000 
#    y 0.000000 1.650060 0.000000 
#    z 0.000000 0.000000 1.532500 
# 
# From -- ./inp_files/18978.got.cif
#   From: 2010.05.17/outbox.cif.g08.bks.cpg/sg57_10_cif.got.tgz:18978.got - 2010.06.03 13:58:18.
