data_PCOD9435616
_publ_section_title
;
Structure prediction by ZEFSAII (Michael W. Deem and Ramdas Pophale) SiO2 
 PCOD9435616
Probable space group: P B C M
;
_chemical_formula_sum "Si O2"
_cell_formula_units_Z 64
_cell_length_a 23.771707
_cell_length_b 17.813175
_cell_length_c 8.613732
_cell_angle_alpha 90.000000
_cell_angle_beta 90.000000
_cell_angle_gamma 90.000000
_cell_volume 3647.481170
_symmetry_space_group_name_H-M "P B C M"
_symmetry_group_IT_number 57
_symmetry_cell_setting 'orthorhombic'
loop_
_space_group_symop_operation_xyz
x,y,z
-x,-y,1/2+z
x,1/2-y,-z
-x,1/2+y,1/2-z
-x,-y,-z
x,y,1/2-z
-x,1/2+y,z
x,1/2-y,1/2+z
loop_
_atom_site_type_symbol
_atom_site_label
_atom_site_fract_x
_atom_site_fract_y
_atom_site_fract_z
Si Si1 0.546672 0.333386 0.063301
Si Si2 0.431501 0.406167 0.062235
Si Si3 0.682487 0.830183 0.436111
Si Si4 0.933895 0.667504 0.563139
Si Si5 0.035718 0.929849 0.436341
Si Si6 0.134767 0.482709 0.063766
Si Si7 0.740416 0.521576 0.434986
Si Si8 0.632840 0.055705 0.063470
O O1 0.547040 0.333203 0.250000
O O2 0.492714 0.381913 0.006817
O O3 0.539800 0.250000 0.000000
O O4 0.603517 0.370302 0.000150
O O5 0.433792 0.408417 0.250000
O O6 0.382609 0.347047 0.020267
O O7 0.407647 0.486555 0.010740
O O8 0.700010 0.750000 0.500000
O O9 0.686841 0.832766 0.250000
O O10 0.718647 0.897442 0.506548
O O11 0.919868 0.750000 0.500000
O O12 0.931171 0.670344 0.750000
O O13 0.893441 0.597708 0.513917
O O14 0.997723 0.642032 0.519085
O O15 0.038031 0.932417 0.250000
O O16 0.096723 0.947931 0.504462
O O17 0.000000 0.000000 0.500000
O O18 0.134490 0.482742 0.250000
O O19 0.197359 0.489745 0.000052
O O20 0.740482 0.519231 0.250000
O O21 0.694559 0.462847 0.500008
O O22 0.634552 0.055860 0.250000
#
# Coordination Sequence:
#
# PCOD9435616 Si02
#       8
#     8   8   8   8   8   8   8   8
#     4  11  21  34  52  78 106 134 169 212 263 320
#     4   8  17  32  52  76 103 133 169 211 259 314
#     4  10  19  33  50  72 103 139 175 214 258 309
#     4   9  19  32  50  77 110 140 169 204 248 296
#     4   9  17  31  50  75 103 135 172 210 249 295
#     4  10  20  35  53  76 103 136 176 218 256 301
#     4  11  22  36  54  76 100 135 177 218 261 310
#     4  10  20  37  56  76 103 136 172 217 265 313
#
# _framework density 17.546354999999998
#
# number of rings (size 3 to 8) (size 9 to 14) (size 15 to 20)
#    0.000    2.250    0.000    5.250    0.000    3.500 
#    0.000    7.500    0.000    0.750    0.000    3.500 
#    0.000    0.000    0.000    0.000    0.000    0.000 
#
# Total GULP energy -356938.008431 kJ/mol
# GULP energy per Si atom -5577.156382 kJ/mol
# Density = 1.750642 g / cm^3
# Si number density = 17.546355 Si / 1000 Ang^3
#
#
#
# Elastic Constant Matrix: (Units=GPa)
#
#
# Indices 1 2 3 4 5 6 
#
# 1 136.7495 31.9764 36.4842 0.0000 0.0000 0.0000
# 2 31.9764 32.8964 13.4135 0.0000 0.0000 0.0000
# 3 36.4842 13.4135 70.2601 0.0000 0.0000 0.0000
# 4 0.0000 0.0000 0.0000 25.2728 0.0000 0.0000
# 5 0.0000 0.0000 0.0000 0.0000 25.8641 0.0000
# 6 0.0000 0.0000 0.0000 0.0000 0.0000 20.4517
#
#
#
# Elastic Compliance Matrix: (Units=1/GPa)
#
#
# Indices 1 2 3 4 5 6 
#
# 1 0.010290 -0.008484 -0.003724 0.000000 0.000000 0.000000
# 2 -0.008484 0.039959 -0.003223 0.000000 0.000000 0.000000
# 3 -0.003724 -0.003223 0.016782 0.000000 0.000000 0.000000
# 4 0.000000 0.000000 0.000000 0.039568 0.000000 0.000000
# 5 0.000000 0.000000 0.000000 0.000000 0.038664 0.000000
# 6 0.000000 0.000000 0.000000 0.000000 0.000000 0.048896
#
#
# Mechanical properties :
#
#
# Convention : Reuss Voigt Hill
#
# Bulk Modulus (GPa) = 27.64756 44.85045 36.24901
# Shear Modulus (GPa) = 21.09025 24.85319 22.97172
#
# Velocity S-wave (km/s) = 3.47071 3.76763 3.62221
# Velocity P-wave (km/s) = 5.64377 6.67408 6.18043
#
# Compressibility (1/GPa) = 0.03616955
#
# Stress axis : x y z
#
# Youngs Moduli (GPa) = 97.18309 25.02545 59.58848
#
# Poissons Ratio (x) = 0.21231 0.22188
# Poissons Ratio (y) = 0.82448 0.19207
# Poissons Ratio (z) = 0.36187 0.08067
#
# Static dielectric constant tensor:
#      x y z
#    x 1.605260 0.000000 0.000000 
#    y 0.000000 1.631810 0.000000 
#    z 0.000000 0.000000 1.569200 
# 
# From -- ./inp_files/8612.got.cif
#   From: 2010.05.17/outbox.cif.g08.bks.cpg/sg57_5_cif.got.tgz:8612.got - 2010.06.03 13:58:18.
