data_PCOD9435604
_publ_section_title
;
Structure prediction by ZEFSAII (Michael W. Deem and Ramdas Pophale) SiO2 
 PCOD9435604
Probable space group: P B C M
;
_chemical_formula_sum "Si O2"
_cell_formula_units_Z 40
_cell_length_a 8.327344
_cell_length_b 25.273560
_cell_length_c 9.978895
_cell_angle_alpha 90.000000
_cell_angle_beta 90.000000
_cell_angle_gamma 90.000000
_cell_volume 2100.174490
_symmetry_space_group_name_H-M "P B C M"
_symmetry_group_IT_number 57
_symmetry_cell_setting 'orthorhombic'
loop_
_space_group_symop_operation_xyz
x,y,z
-x,-y,1/2+z
x,1/2-y,-z
-x,1/2+y,1/2-z
-x,-y,-z
x,y,1/2-z
-x,1/2+y,z
x,1/2-y,1/2+z
loop_
_atom_site_type_symbol
_atom_site_label
_atom_site_fract_x
_atom_site_fract_y
_atom_site_fract_z
Si Si1 0.586057 0.493442 0.250000
Si Si2 0.642851 0.887234 0.250000
Si Si3 0.704882 0.437765 0.750000
Si Si4 0.660701 0.174897 0.250000
Si Si5 0.023278 0.887637 0.250000
Si Si6 0.157096 0.533324 0.532585
Si Si7 0.234046 0.710549 0.750000
Si Si8 0.496258 0.190802 0.971283
O O1 0.469118 0.440557 0.250000
O O2 0.481226 0.546246 0.250000
O O3 0.704126 0.492178 0.123280
O O4 0.833021 0.898022 0.250000
O O5 0.603485 0.850852 0.381533
O O6 0.760308 0.377674 0.750000
O O7 0.769053 0.459167 0.611941
O O8 0.773292 0.226228 0.250000
O O9 0.551051 0.172569 0.382519
O O10 0.102158 0.915792 0.380127
O O11 0.078590 0.826408 0.250000
O O12 0.000000 0.500000 0.500000
O O13 0.344244 0.698020 0.620314
O O14 0.425850 0.250000 0.000000
#
# Coordination Sequence:
#
# PCOD9435604 Si02
#       8
#     4   4   4   4   4   8   4   8
#     4  11  23  40  62  85 122 169 208 241 302 381
#     4  11  21  39  61  86 120 167 209 242 297 376
#     4  12  22  36  61  90 114 148 203 259 300 344
#     4  10  19  32  58  88 110 136 189 254 294 338
#     4  11  23  40  61  83 120 169 202 241 305 377
#     4  11  23  40  59  87 122 158 200 249 301 361
#     4   9  18  37  59  80 110 153 195 233 296 372
#     4   9  18  35  59  83 111 148 195 247 299 360
#
# _framework density 19.046036000000001
#
# number of rings (size 3 to 8) (size 9 to 14) (size 15 to 20)
#    0.000    1.600    0.000    8.400    0.000    1.600 
#    0.000    6.000    0.000    2.400    0.000    0.000 
#    0.000    0.000    0.000    0.000    0.000    0.000 
#
# Total GULP energy -222935.472411 kJ/mol
# GULP energy per Si atom -5573.386810 kJ/mol
# Density = 1.900269 g / cm^3
# Si number density = 19.046036 Si / 1000 Ang^3
#
#
#
# Elastic Constant Matrix: (Units=GPa)
#
#
# Indices 1 2 3 4 5 6 
#
# 1 89.7684 28.6410 28.4155 0.0000 0.0000 0.0000
# 2 28.6410 65.2026 20.4836 0.0000 0.0000 0.0000
# 3 28.4155 20.4836 167.5330 0.0000 0.0000 0.0000
# 4 0.0000 0.0000 0.0000 70.2386 0.0000 0.0000
# 5 0.0000 0.0000 0.0000 0.0000 18.1074 0.0000
# 6 0.0000 0.0000 0.0000 0.0000 0.0000 25.6959
#
#
#
# Elastic Compliance Matrix: (Units=1/GPa)
#
#
# Indices 1 2 3 4 5 6 
#
# 1 0.013361 -0.005363 -0.001610 0.000000 0.000000 0.000000
# 2 -0.005363 0.018102 -0.001304 0.000000 0.000000 0.000000
# 3 -0.001610 -0.001304 0.006402 0.000000 0.000000 0.000000
# 4 0.000000 0.000000 0.000000 0.014237 0.000000 0.000000
# 5 0.000000 0.000000 0.000000 0.000000 0.055226 0.000000
# 6 0.000000 0.000000 0.000000 0.000000 0.000000 0.038917
#
#
# Mechanical properties :
#
#
# Convention : Reuss Voigt Hill
#
# Bulk Modulus (GPa) = 46.92575 53.06492 49.99534
# Shear Modulus (GPa) = 29.42883 39.13930 34.28407
#
# Velocity S-wave (km/s) = 3.93509 4.53811 4.24732
# Velocity P-wave (km/s) = 6.73336 7.44185 7.09645
#
# Compressibility (1/GPa) = 0.02131026
#
# Stress axis : x y z
#
# Youngs Moduli (GPa) = 74.84706 55.24234 156.21306
#
# Poissons Ratio (x) = 0.29626 0.25157
# Poissons Ratio (y) = 0.40139 0.20365
# Poissons Ratio (z) = 0.12053 0.07202
#
# Static dielectric constant tensor:
#      x y z
#    x 1.398080 0.000000 0.000000 
#    y 0.000000 1.760050 0.000000 
#    z 0.000000 0.000000 1.622620 
# 
# From -- ./inp_files/1778.got.cif
#   From: 2010.05.17/outbox.cif.g08.bks.cpg/sg57_1_cif.got.tgz:1778.got - 2010.06.03 13:58:18.
