data_PCOD9435460
_publ_section_title
;
Structure prediction by ZEFSAII (Michael W. Deem and Ramdas Pophale) SiO2 
 PCOD9435460
Probable space group: P B C M
;
_chemical_formula_sum "Si O2"
_cell_formula_units_Z 48
_cell_length_a 16.647106
_cell_length_b 18.824747
_cell_length_c 8.705316
_cell_angle_alpha 90.000000
_cell_angle_beta 90.000000
_cell_angle_gamma 90.000000
_cell_volume 2728.050676
_symmetry_space_group_name_H-M "P B C M"
_symmetry_group_IT_number 57
_symmetry_cell_setting 'orthorhombic'
loop_
_space_group_symop_operation_xyz
x,y,z
-x,-y,1/2+z
x,1/2-y,-z
-x,1/2+y,1/2-z
-x,-y,-z
x,y,1/2-z
-x,1/2+y,z
x,1/2-y,1/2+z
loop_
_atom_site_type_symbol
_atom_site_label
_atom_site_fract_x
_atom_site_fract_y
_atom_site_fract_z
Si Si1 0.174712 0.090471 0.065110
Si Si2 0.664694 0.827158 0.566031
Si Si3 0.987783 0.671169 0.434497
Si Si4 0.840485 0.171032 0.566556
Si Si5 0.741909 0.455269 0.932815
Si Si6 0.583912 0.972829 0.565123
O O1 0.179647 0.079358 0.250000
O O2 0.245358 0.146359 0.023691
O O3 0.087728 0.121591 0.027893
O O4 0.196448 0.017554 0.981863
O O5 0.646740 0.750000 0.500000
O O6 0.661965 0.822584 0.750000
O O7 0.605635 0.891505 0.518856
O O8 0.972434 0.750000 0.500000
O O9 0.995688 0.675179 0.250000
O O10 0.071890 0.646524 0.506293
O O11 0.828734 0.250000 0.500000
O O12 0.840682 0.173189 0.750000
O O13 0.773947 0.117455 0.504298
O O14 0.737039 0.450173 0.750000
O O15 0.656654 0.479366 0.001770
O O16 0.583901 0.975668 0.750000
O O17 0.500000 0.000000 0.500000
#
# Coordination Sequence:
#
# PCOD9435460 Si02
#       6
#     8   8   8   8   8   8
#     4   9  19  34  51  76 110 145 180 222 267 315
#     4   9  18  32  52  79 111 142 175 215 261 314
#     4  10  19  32  51  76 108 145 186 228 271 318
#     4  11  22  38  57  77 106 142 182 228 273 319
#     4  11  22  37  58  82 106 138 179 220 270 327
#     4  10  21  39  60  84 112 142 177 220 269 323
#
# _framework density 17.594981000000001
#
# number of rings (size 3 to 8) (size 9 to 14) (size 15 to 20)
#    0.000    2.000    0.000    6.500    0.000    5.333 
#    0.000    0.833    0.000    2.000    0.000    0.000 
#    0.000    0.000    0.000    0.000    0.000    0.000 
#
# Total GULP energy -268027.272838 kJ/mol
# GULP energy per Si atom -5583.901517 kJ/mol
# Density = 1.755493 g / cm^3
# Si number density = 17.594981 Si / 1000 Ang^3
#
#
#
# Elastic Constant Matrix: (Units=GPa)
#
#
# Indices 1 2 3 4 5 6 
#
# 1 120.4568 94.0016 59.3145 0.0000 0.0000 0.0000
# 2 94.0016 119.9731 55.7290 0.0000 0.0000 0.0000
# 3 59.3145 55.7290 95.9036 0.0000 0.0000 0.0000
# 4 0.0000 0.0000 0.0000 34.0200 0.0000 0.0000
# 5 0.0000 0.0000 0.0000 0.0000 31.6202 0.0000
# 6 0.0000 0.0000 0.0000 0.0000 0.0000 21.2291
#
#
#
# Elastic Compliance Matrix: (Units=1/GPa)
#
#
# Indices 1 2 3 4 5 6 
#
# 1 0.023091 -0.015695 -0.005161 0.000000 0.000000 0.000000
# 2 -0.015695 0.022085 -0.003126 0.000000 0.000000 0.000000
# 3 -0.005161 -0.003126 0.015436 0.000000 0.000000 0.000000
# 4 0.000000 0.000000 0.000000 0.029394 0.000000 0.000000
# 5 0.000000 0.000000 0.000000 0.000000 0.031625 0.000000
# 6 0.000000 0.000000 0.000000 0.000000 0.000000 0.047105
#
#
# Mechanical properties :
#
#
# Convention : Reuss Voigt Hill
#
# Bulk Modulus (GPa) = 79.07060 83.82488 81.44774
# Shear Modulus (GPa) = 22.63288 25.85974 24.24631
#
# Velocity S-wave (km/s) = 3.59043 3.83786 3.71620
# Velocity P-wave (km/s) = 7.88829 8.20875 8.05012
#
# Compressibility (1/GPa) = 0.01264693
#
# Stress axis : x y z
#
# Youngs Moduli (GPa) = 43.30649 45.27990 64.78412
#
# Poissons Ratio (x) = 0.71067 0.33436
# Poissons Ratio (y) = 0.67970 0.20253
# Poissons Ratio (z) = 0.22351 0.14156
#
# Static dielectric constant tensor:
#      x y z
#    x 1.584750 0.000000 0.000000 
#    y 0.000000 1.589020 0.000000 
#    z 0.000000 0.000000 1.587280 
# 
# From -- ./inp_files/6696.got.cif
#   From: 2010.05.17/outbox.cif.g08.bks.cpg/sg57_4_cif.got.tgz:6696.got - 2010.06.03 13:58:18.
