data_PCOD9435224
_publ_section_title
;
Structure prediction by ZEFSAII (Michael W. Deem and Ramdas Pophale) SiO2 
 PCOD9435224
Probable space group: P B C M
;
_chemical_formula_sum "Si O2"
_cell_formula_units_Z 64
_cell_length_a 23.278397
_cell_length_b 17.841261
_cell_length_c 9.036180
_cell_angle_alpha 90.000000
_cell_angle_beta 90.000000
_cell_angle_gamma 90.000000
_cell_volume 3752.869740
_symmetry_space_group_name_H-M "P B C M"
_symmetry_group_IT_number 57
_symmetry_cell_setting 'orthorhombic'
loop_
_space_group_symop_operation_xyz
x,y,z
-x,-y,1/2+z
x,1/2-y,-z
-x,1/2+y,1/2-z
-x,-y,-z
x,y,1/2-z
-x,1/2+y,z
x,1/2-y,1/2+z
loop_
_atom_site_type_symbol
_atom_site_label
_atom_site_fract_x
_atom_site_fract_y
_atom_site_fract_z
Si Si1 0.134033 0.974738 0.427824
Si Si2 0.736016 0.508606 0.427345
Si Si3 0.058749 0.829681 0.427216
Si Si4 0.299752 0.175062 0.425624
Si Si5 0.545950 0.328467 0.427284
Si Si6 0.960037 0.936244 0.072649
Si Si7 0.583803 0.627508 0.575499
Si Si8 0.379689 0.957398 0.924457
O O1 0.127208 0.982159 0.250000
O O2 0.101620 0.044278 0.505055
O O3 0.201325 0.976630 0.462673
O O4 0.102709 0.896693 0.471331
O O5 0.726713 0.502081 0.250000
O O6 0.732152 0.597317 0.464177
O O7 0.684250 0.468210 0.511637
O O8 0.070541 0.750000 0.500000
O O9 0.062797 0.822602 0.250000
O O10 0.994354 0.859946 0.462685
O O11 0.275881 0.250000 0.500000
O O12 0.299280 0.183579 0.250000
O O13 0.365013 0.163682 0.482276
O O14 0.562727 0.250000 0.500000
O O15 0.549854 0.325115 0.250000
O O16 0.479395 0.345349 0.466764
O O17 0.585567 0.394294 0.489440
O O18 0.959122 0.944169 0.250000
O O19 0.000000 0.000000 0.000000
O O20 0.593209 0.643840 0.750000
O O21 0.589334 0.537962 0.556074
O O22 0.378014 0.940782 0.750000
#
# Coordination Sequence:
#
# PCOD9435224 Si02
#       8
#     8   8   8   8   8   8   8   8
#     4   9  18  34  54  75 100 133 174 213 249 293
#     4   9  19  36  55  73  98 136 175 209 250 299
#     4   9  18  31  49  75 104 132 163 203 248 292
#     4  10  19  31  50  74 100 131 165 205 256 308
#     4  11  22  35  51  73 101 132 166 207 258 311
#     4   9  17  30  49  74 101 129 161 197 242 293
#     4   9  19  34  53  76 100 127 162 206 255 311
#     4  10  20  35  54  76 101 130 167 210 255 305
#
# _framework density 17.053615000000001
#
# number of rings (size 3 to 8) (size 9 to 14) (size 15 to 20)
#    0.000    2.500    0.000    3.000    0.000    6.000 
#    0.000    1.250    0.000    4.500    0.000    0.000 
#    0.000    0.000    0.000    0.000    0.000    0.000 
#
# Total GULP energy -356863.415384 kJ/mol
# GULP energy per Si atom -5575.990865 kJ/mol
# Density = 1.701480 g / cm^3
# Si number density = 17.053615 Si / 1000 Ang^3
#
#
#
# Elastic Constant Matrix: (Units=GPa)
#
#
# Indices 1 2 3 4 5 6 
#
# 1 65.6224 40.5831 25.9143 0.0000 0.0000 0.0000
# 2 40.5831 90.7875 35.4590 0.0000 0.0000 0.0000
# 3 25.9143 35.4590 36.2294 0.0000 0.0000 0.0000
# 4 0.0000 0.0000 0.0000 30.6522 0.0000 0.0000
# 5 0.0000 0.0000 0.0000 0.0000 24.7005 0.0000
# 6 0.0000 0.0000 0.0000 0.0000 0.0000 13.7925
#
#
#
# Elastic Compliance Matrix: (Units=1/GPa)
#
#
# Indices 1 2 3 4 5 6 
#
# 1 0.023280 -0.006318 -0.010468 0.000000 0.000000 0.000000
# 2 -0.006318 0.019545 -0.014611 0.000000 0.000000 0.000000
# 3 -0.010468 -0.014611 0.049390 0.000000 0.000000 0.000000
# 4 0.000000 0.000000 0.000000 0.032624 0.000000 0.000000
# 5 0.000000 0.000000 0.000000 0.000000 0.040485 0.000000
# 6 0.000000 0.000000 0.000000 0.000000 0.000000 0.072503
#
#
# Mechanical properties :
#
#
# Convention : Reuss Voigt Hill
#
# Bulk Modulus (GPa) = 33.98894 44.06135 39.02514
# Shear Modulus (GPa) = 16.10682 19.87456 17.99069
#
# Velocity S-wave (km/s) = 3.07658 3.41752 3.25152
# Velocity P-wave (km/s) = 5.70914 6.43938 6.08523
#
# Compressibility (1/GPa) = 0.02942134
#
# Stress axis : x y z
#
# Youngs Moduli (GPa) = 42.95588 51.16301 20.24717
#
# Poissons Ratio (x) = 0.32323 0.21195
# Poissons Ratio (y) = 0.27138 0.29583
# Poissons Ratio (z) = 0.44967 0.74753
#
# Static dielectric constant tensor:
#      x y z
#    x 1.574730 0.000000 0.000000 
#    y 0.000000 1.574630 0.000000 
#    z 0.000000 0.000000 1.571130 
# 
# From -- ./inp_files/8577.got.cif
#   From: 2010.05.17/outbox.cif.g08.bks.cpg/sg57_5_cif.got.tgz:8577.got - 2010.06.03 13:58:18.
