data_PCOD9435497
_publ_section_title
;
Structure prediction by ZEFSAII (Michael W. Deem and Ramdas Pophale) SiO2 
 PCOD9435497
Probable space group: P B C M
;
_chemical_formula_sum "Si O2"
_cell_formula_units_Z 64
_cell_length_a 11.684162
_cell_length_b 33.997669
_cell_length_c 8.945065
_cell_angle_alpha 90.000000
_cell_angle_beta 90.000000
_cell_angle_gamma 90.000000
_cell_volume 3553.286385
_symmetry_space_group_name_H-M "P B C M"
_symmetry_group_IT_number 57
_symmetry_cell_setting 'orthorhombic'
loop_
_space_group_symop_operation_xyz
x,y,z
-x,-y,1/2+z
x,1/2-y,-z
-x,1/2+y,1/2-z
-x,-y,-z
x,y,1/2-z
-x,1/2+y,z
x,1/2-y,1/2+z
loop_
_atom_site_type_symbol
_atom_site_label
_atom_site_fract_x
_atom_site_fract_y
_atom_site_fract_z
Si Si1 0.491728 0.084413 0.922119
Si Si2 0.115553 0.518151 0.071082
Si Si3 0.141342 0.119954 0.423929
Si Si4 0.662338 0.664166 0.578447
Si Si5 0.903469 0.396875 0.073021
Si Si6 0.534894 0.209952 0.073840
Si Si7 0.292235 0.460074 0.925293
Si Si8 0.686918 0.132028 0.426313
O O1 0.517353 0.074093 0.750000
O O2 0.413726 0.124051 0.921027
O O3 0.413344 0.051807 0.001921
O O4 0.604701 0.097427 0.010908
O O5 0.108593 0.516224 0.250000
O O6 0.120344 0.562541 0.013667
O O7 0.224531 0.493997 0.011536
O O8 0.000000 0.500000 0.000000
O O9 0.112416 0.125421 0.250000
O O10 0.226303 0.153429 0.483421
O O11 0.210756 0.078684 0.436007
O O12 0.028093 0.117336 0.522340
O O13 0.690095 0.673448 0.750000
O O14 0.583324 0.697072 0.504350
O O15 0.899665 0.403157 0.250000
O O16 0.803614 0.368150 0.018355
O O17 0.517322 0.215381 0.250000
O O18 0.620368 0.173174 0.053796
O O19 0.577751 0.250000 0.000000
O O20 0.305304 0.469448 0.750000
O O21 0.707171 0.126085 0.250000
#
# Coordination Sequence:
#
# PCOD9435497 Si02
#       8
#     8   8   8   8   8   8   8   8
#     4   9  17  31  52  77 105 139 179 224 273 324
#     4  12  23  36  53  76 107 142 185 237 286 333
#     4  10  19  32  52  77 108 142 179 222 271 324
#     4   9  17  30  51  80 112 140 174 217 263 317
#     4  12  24  37  55  78 108 147 190 232 279 331
#     4  10  20  35  59  88 116 145 178 219 267 319
#     4  10  19  32  52  77 105 139 180 228 282 332
#     4  10  21  38  57  80 111 146 186 227 272 329
#
# _framework density 18.011496000000001
#
# number of rings (size 3 to 8) (size 9 to 14) (size 15 to 20)
#    0.000    1.750    1.250    4.500    0.000    5.500 
#    0.000    0.625    0.000    0.750    0.000    3.500 
#    0.000    0.000    0.000    0.000    0.000    0.000 
#
# Total GULP energy -357504.618811 kJ/mol
# GULP energy per Si atom -5586.009669 kJ/mol
# Density = 1.797050 g / cm^3
# Si number density = 18.011496 Si / 1000 Ang^3
#
#
#
# Elastic Constant Matrix: (Units=GPa)
#
#
# Indices 1 2 3 4 5 6 
#
# 1 36.8299 5.8337 21.5745 0.0000 0.0000 0.0000
# 2 5.8337 32.0590 28.3234 0.0000 0.0000 0.0000
# 3 21.5745 28.3234 131.9011 0.0000 0.0000 0.0000
# 4 0.0000 0.0000 0.0000 26.0016 0.0000 0.0000
# 5 0.0000 0.0000 0.0000 0.0000 31.1491 0.0000
# 6 0.0000 0.0000 0.0000 0.0000 0.0000 9.9952
#
#
#
# Elastic Compliance Matrix: (Units=1/GPa)
#
#
# Indices 1 2 3 4 5 6 
#
# 1 0.030079 -0.001391 -0.004621 0.000000 0.000000 0.000000
# 2 -0.001391 0.038560 -0.008053 0.000000 0.000000 0.000000
# 3 -0.004621 -0.008053 0.010066 0.000000 0.000000 0.000000
# 4 0.000000 0.000000 0.000000 0.038459 0.000000 0.000000
# 5 0.000000 0.000000 0.000000 0.000000 0.032104 0.000000
# 6 0.000000 0.000000 0.000000 0.000000 0.000000 0.100048
#
#
# Mechanical properties :
#
#
# Convention : Reuss Voigt Hill
#
# Bulk Modulus (GPa) = 19.77202 34.69479 27.23341
# Shear Modulus (GPa) = 16.98924 23.09975 20.04449
#
# Velocity S-wave (km/s) = 3.07456 3.58509 3.33959
# Velocity P-wave (km/s) = 4.85852 6.03668 5.47936
#
# Compressibility (1/GPa) = 0.05057652
#
# Stress axis : x y z
#
# Youngs Moduli (GPa) = 33.24554 25.93372 99.33968
#
# Poissons Ratio (x) = 0.03606 0.45908
# Poissons Ratio (y) = 0.04623 0.79994
# Poissons Ratio (z) = 0.15364 0.20883
#
# Static dielectric constant tensor:
#      x y z
#    x 1.620030 0.000000 0.000000 
#    y 0.000000 1.614480 0.000000 
#    z 0.000000 0.000000 1.599330 
# 
# From -- ./inp_files/3859.got.cif
#   From: 2010.05.17/outbox.cif.g08.bks.cpg/sg57_2_cif.got.tgz:3859.got - 2010.06.03 13:58:18.
