data_PCOD9435829
_publ_section_title
;
Structure prediction by ZEFSAII (Michael W. Deem and Ramdas Pophale) SiO2 
 PCOD9435829
Probable space group: P B C M
;
_chemical_formula_sum "Si O2"
_cell_formula_units_Z 24
_cell_length_a 8.373768
_cell_length_b 20.865920
_cell_length_c 5.531783
_cell_angle_alpha 90.000000
_cell_angle_beta 90.000000
_cell_angle_gamma 90.000000
_cell_volume 966.548381
_symmetry_space_group_name_H-M "P B C M"
_symmetry_group_IT_number 57
_symmetry_cell_setting 'orthorhombic'
loop_
_space_group_symop_operation_xyz
x,y,z
-x,-y,1/2+z
x,1/2-y,-z
-x,1/2+y,1/2-z
-x,-y,-z
x,y,1/2-z
-x,1/2+y,z
x,1/2-y,1/2+z
loop_
_atom_site_type_symbol
_atom_site_label
_atom_site_fract_x
_atom_site_fract_y
_atom_site_fract_z
Si Si1 0.809464 0.829131 0.750000
Si Si2 0.659017 0.501354 0.750000
Si Si3 0.723298 0.171141 0.750000
Si Si4 0.562997 0.351397 0.750000
Si Si5 0.069494 0.187301 0.750000
Si Si6 0.287825 0.524873 0.750000
O O1 0.626761 0.849252 0.750000
O O2 0.893882 0.848354 0.499934
O O3 0.822392 0.751263 0.750000
O O4 0.621992 0.425010 0.750000
O O5 0.483871 0.533904 0.750000
O O6 0.746016 0.512207 0.497269
O O7 0.626742 0.178437 0.500657
O O8 0.780069 0.096159 0.750000
O O9 0.886592 0.210078 0.750000
#
# Coordination Sequence:
#
# PCOD9435829 Si02
#       6
#     4   4   4   4   4   4
#     4  10  21  38  53  71 102 138 166 202 263 307
#     4   8  14  25  44  72 101 124 153 201 251 286
#     4  10  19  33  55  79  99 128 174 213 240 291
#     4  10  19  33  55  79  99 128 174 213 240 291
#     4  10  21  38  53  71 102 138 166 202 263 307
#     4   8  14  25  44  72 101 124 153 201 251 286
#
# _framework density 24.830622999999999
#
# number of rings (size 3 to 8) (size 9 to 14) (size 15 to 20)
#    0.000    2.667    0.000    2.000    0.000    0.000 
#    0.000   20.000    0.000    2.000    0.000    0.000 
#    0.000    0.000    0.000    0.000    0.000    0.000 
#
# Total GULP energy -134167.236534 kJ/mol
# GULP energy per Si atom -5590.301522 kJ/mol
# Density = 2.477411 g / cm^3
# Si number density = 24.830623 Si / 1000 Ang^3
#
#
#
# Elastic Constant Matrix: (Units=GPa)
#
#
# Indices 1 2 3 4 5 6 
#
# 1 70.5718 -5.1757 58.2201 0.0000 0.0000 0.0000
# 2 -5.1757 83.0885 -1.5918 0.0000 0.0000 0.0000
# 3 58.2201 -1.5918 316.1816 0.0000 0.0000 0.0000
# 4 0.0000 0.0000 0.0000 -41.7860 0.0000 0.0000
# 5 0.0000 0.0000 0.0000 0.0000 35.2724 0.0000
# 6 0.0000 0.0000 0.0000 0.0000 0.0000 14.8331
#
#
#
# Elastic Compliance Matrix: (Units=1/GPa)
#
#
# Indices 1 2 3 4 5 6 
#
# 1 0.016789 0.000987 -0.003086 0.000000 0.000000 0.000000
# 2 0.000987 0.012095 -0.000121 0.000000 0.000000 0.000000
# 3 -0.003086 -0.000121 0.003730 0.000000 0.000000 0.000000
# 4 0.000000 0.000000 0.000000 -0.023931 0.000000 0.000000
# 5 0.000000 0.000000 0.000000 0.000000 0.028351 0.000000
# 6 0.000000 0.000000 0.000000 0.000000 0.000000 0.067417
#
#
# Mechanical properties :
#
#
# Convention : Reuss Voigt Hill
#
# Bulk Modulus (GPa) = 35.49567 63.63854 49.56711
# Shear Modulus (GPa) = 42.27213 29.55653 35.91433
#
# Velocity S-wave (km/s) = 4.13051 3.45385 3.80725
# Velocity P-wave (km/s) = 6.08887 6.44904 6.27154
#
# Compressibility (1/GPa) = 0.02817245
#
# Stress axis : x y z
#
# Youngs Moduli (GPa) = 59.56450 82.68213 268.06467
#
# Poissons Ratio (x) = -0.08158 0.82735
# Poissons Ratio (y) = -0.05877 0.03238
# Poissons Ratio (z) = 0.18384 0.00999
#
# Static dielectric constant tensor:
#      x y z
#    x 1.865060 0.000000 0.000000 
#    y 0.000000 2.005420 0.000000 
#    z 0.000000 0.000000 2.066990 
# 
# From -- ./inp_files/65.got.cif
#   From: 2010.05.17/outbox.cif.g08.bks.cpg/sg57_1_cif.got.tgz:65.got - 2010.06.03 13:58:18.
