data_PCOD9435094
_publ_section_title
;
Structure prediction by ZEFSAII (Michael W. Deem and Ramdas Pophale) SiO2 
 PCOD9435094
Probable space group: P B C M
;
_chemical_formula_sum "Si O2"
_cell_formula_units_Z 40
_cell_length_a 24.142150
_cell_length_b 7.425599
_cell_length_c 10.217030
_cell_angle_alpha 90.000000
_cell_angle_beta 90.000000
_cell_angle_gamma 90.000000
_cell_volume 1831.606201
_symmetry_space_group_name_H-M "P B C M"
_symmetry_group_IT_number 57
_symmetry_cell_setting 'orthorhombic'
loop_
_space_group_symop_operation_xyz
x,y,z
-x,-y,1/2+z
x,1/2-y,-z
-x,1/2+y,1/2-z
-x,-y,-z
x,y,1/2-z
-x,1/2+y,z
x,1/2-y,1/2+z
loop_
_atom_site_type_symbol
_atom_site_label
_atom_site_fract_x
_atom_site_fract_y
_atom_site_fract_z
Si Si1 0.864357 0.522506 0.250000
Si Si2 0.671532 0.529585 0.990198
Si Si3 0.254740 0.460096 0.250000
Si Si4 0.552052 0.929694 0.085957
Si Si5 0.934820 0.965249 0.997192
Si Si6 0.265021 0.479246 0.750000
Si Si7 0.870970 0.535866 0.750000
O O1 0.900070 0.465286 0.125205
O O2 0.799824 0.465147 0.250000
O O3 0.866608 0.743739 0.250000
O O4 0.698026 0.467065 0.125601
O O5 0.672091 0.750000 0.000000
O O6 0.713649 0.477008 0.877475
O O7 0.610072 0.469892 0.944554
O O8 0.259546 0.240719 0.250000
O O9 0.192117 0.521522 0.250000
O O10 0.544748 0.915243 0.250000
O O11 0.561164 0.750000 0.000000
O O12 0.500000 0.000000 0.000000
O O13 0.928988 0.750000 0.000000
O O14 0.904558 0.030115 0.126154
O O15 0.000000 0.000000 0.000000
#
# Coordination Sequence:
#
# PCOD9435094 Si02
#       7
#     4   8   4   8   8   4   4
#     4   9  17  29  44  69  99 125 162 203 260 308
#     4   9  17  27  46  72 105 133 168 210 271 315
#     4   9  14  27  42  69  97 127 160 205 262 316
#     4  11  23  38  58  84 117 152 191 233 278 333
#     4  10  19  31  46  68  95 127 162 202 246 301
#     4   9  16  25  44  69  99 131 158 211 264 320
#     4   9  17  27  46  67  97 127 156 201 256 304
#
# _framework density 21.838754000000002
#
# number of rings (size 3 to 8) (size 9 to 14) (size 15 to 20)
#    0.000    2.400    1.000    2.400    5.600    4.800 
#    0.000    0.000    0.000    0.000    0.000    8.400 
#    0.000    0.000    0.000    0.000    0.000    0.000 
#
# Total GULP energy -222784.332797 kJ/mol
# GULP energy per Si atom -5569.608320 kJ/mol
# Density = 2.178905 g / cm^3
# Si number density = 21.838754 Si / 1000 Ang^3
#
#
#
# Elastic Constant Matrix: (Units=GPa)
#
#
# Indices 1 2 3 4 5 6 
#
# 1 254.6149 4.0588 148.4888 0.0000 0.0000 0.0000
# 2 4.0588 52.8672 11.1818 0.0000 0.0000 0.0000
# 3 148.4888 11.1818 276.0938 0.0000 0.0000 0.0000
# 4 0.0000 0.0000 0.0000 -32.1926 0.0000 0.0000
# 5 0.0000 0.0000 0.0000 0.0000 45.6371 0.0000
# 6 0.0000 0.0000 0.0000 0.0000 0.0000 18.5791
#
#
#
# Elastic Compliance Matrix: (Units=1/GPa)
#
#
# Indices 1 2 3 4 5 6 
#
# 1 0.005725 0.000214 -0.003088 0.000000 0.000000 0.000000
# 2 0.000214 0.019087 -0.000888 0.000000 0.000000 0.000000
# 3 -0.003088 -0.000888 0.005318 0.000000 0.000000 0.000000
# 4 0.000000 0.000000 0.000000 -0.031063 0.000000 0.000000
# 5 0.000000 0.000000 0.000000 0.000000 0.021912 0.000000
# 6 0.000000 0.000000 0.000000 0.000000 0.000000 0.053824
#
#
# Mechanical properties :
#
#
# Convention : Reuss Voigt Hill
#
# Bulk Modulus (GPa) = 44.23570 101.22608 72.73089
# Shear Modulus (GPa) = 55.64093 34.39448 45.01771
#
# Velocity S-wave (km/s) = 5.05306 3.97284 4.54515
# Velocity P-wave (km/s) = 7.37184 8.21565 7.80516
#
# Compressibility (1/GPa) = 0.02260618
#
# Stress axis : x y z
#
# Youngs Moduli (GPa) = 174.68177 52.39250 188.02519
#
# Poissons Ratio (x) = -0.01119 0.58053
# Poissons Ratio (y) = -0.03730 0.16694
# Poissons Ratio (z) = 0.53933 0.04652
#
# Static dielectric constant tensor:
#      x y z
#    x 1.810030 0.000000 0.000000 
#    y 0.000000 1.839350 0.000000 
#    z 0.000000 0.000000 1.738820 
# 
# From -- ./inp_files/7829.got.cif
#   From: 2010.05.17/outbox.cif.g08.bks.cpg/sg57_4_cif.got.tgz:7829.got - 2010.06.03 13:58:18.
