data_PCOD9435416
_publ_section_title
;
Structure prediction by ZEFSAII (Michael W. Deem and Ramdas Pophale) SiO2 
 PCOD9435416
Probable space group: P B C M
;
_chemical_formula_sum "Si O2"
_cell_formula_units_Z 64
_cell_length_a 21.124769
_cell_length_b 21.149771
_cell_length_c 8.849312
_cell_angle_alpha 90.000000
_cell_angle_beta 90.000000
_cell_angle_gamma 90.000000
_cell_volume 3953.731250
_symmetry_space_group_name_H-M "P B C M"
_symmetry_group_IT_number 57
_symmetry_cell_setting 'orthorhombic'
loop_
_space_group_symop_operation_xyz
x,y,z
-x,-y,1/2+z
x,1/2-y,-z
-x,1/2+y,1/2-z
-x,-y,-z
x,y,1/2-z
-x,1/2+y,z
x,1/2-y,1/2+z
loop_
_atom_site_type_symbol
_atom_site_label
_atom_site_fract_x
_atom_site_fract_y
_atom_site_fract_z
Si Si1 0.444087 0.458358 0.069006
Si Si2 0.687332 0.514302 0.422321
Si Si3 0.708526 0.834884 0.578313
Si Si4 0.175822 0.000862 0.066398
Si Si5 0.044606 0.554568 0.567251
Si Si6 0.577617 0.814612 0.071723
Si Si7 0.020415 0.185423 0.569512
Si Si8 0.847505 0.853120 0.932495
O O1 0.447560 0.458545 0.250000
O O2 0.446398 0.384063 0.018188
O O3 0.500000 0.500000 0.000000
O O4 0.376827 0.487617 0.016973
O O5 0.675454 0.492117 0.250000
O O6 0.704121 0.588883 0.412861
O O7 0.752754 0.484909 0.485225
O O8 0.697983 0.811109 0.750000
O O9 0.652258 0.815375 0.469275
O O10 0.780034 0.822080 0.527911
O O11 0.179701 0.000272 0.250000
O O12 0.157129 0.072699 0.024132
O O13 0.117287 0.957268 0.020106
O O14 0.042031 0.549775 0.750000
O O15 0.000000 0.500000 0.500000
O O16 0.018244 0.623002 0.523060
O O17 0.568742 0.811668 0.250000
O O18 0.550832 0.750000 0.000000
O O19 0.994492 0.250000 0.500000
O O20 0.020555 0.189444 0.750000
O O21 0.091921 0.176334 0.510590
O O22 0.853728 0.849735 0.750000
#
# Coordination Sequence:
#
# PCOD9435416 Si02
#       8
#     8   8   8   8   8   8   8   8
#     4  10  20  33  50  74 102 132 163 198 238 282
#     4   8  14  27  47  70  95 124 155 190 236 287
#     4   8  15  27  44  65  89 122 160 193 231 276
#     4   8  14  27  49  72  94 119 151 197 247 290
#     4  10  19  32  51  73  93 119 159 203 248 294
#     4  10  20  32  47  68  95 128 164 200 236 275
#     4  11  23  34  45  64  91 125 161 199 246 296
#     4   9  16  29  48  66  89 123 158 196 240 283
#
# _framework density 16.187241
#
# number of rings (size 3 to 8) (size 9 to 14) (size 15 to 20)
#    0.000    2.750    1.250    2.625    0.000    3.000 
#    0.000    2.500    0.000    0.000    0.000    0.875 
#    0.000    2.000    0.000    0.000    0.000    0.000 
#
# Total GULP energy -356510.558544 kJ/mol
# GULP energy per Si atom -5570.477477 kJ/mol
# Density = 1.615040 g / cm^3
# Si number density = 16.187241 Si / 1000 Ang^3
#
#
#
# Elastic Constant Matrix: (Units=GPa)
#
#
# Indices 1 2 3 4 5 6 
#
# 1 111.4375 61.1360 28.1611 0.0000 0.0000 0.0000
# 2 61.1360 102.2308 31.2398 0.0000 0.0000 0.0000
# 3 28.1611 31.2398 26.1294 0.0000 0.0000 0.0000
# 4 0.0000 0.0000 0.0000 20.1249 0.0000 0.0000
# 5 0.0000 0.0000 0.0000 0.0000 19.2605 0.0000
# 6 0.0000 0.0000 0.0000 0.0000 0.0000 11.2024
#
#
#
# Elastic Compliance Matrix: (Units=1/GPa)
#
#
# Indices 1 2 3 4 5 6 
#
# 1 0.014397 -0.006095 -0.008230 0.000000 0.000000 0.000000
# 2 -0.006095 0.017993 -0.014943 0.000000 0.000000 0.000000
# 3 -0.008230 -0.014943 0.065006 0.000000 0.000000 0.000000
# 4 0.000000 0.000000 0.000000 0.049690 0.000000 0.000000
# 5 0.000000 0.000000 0.000000 0.000000 0.051920 0.000000
# 6 0.000000 0.000000 0.000000 0.000000 0.000000 0.089267
#
#
# Mechanical properties :
#
#
# Convention : Reuss Voigt Hill
#
# Bulk Modulus (GPa) = 25.73274 53.43016 39.58145
# Shear Modulus (GPa) = 13.89808 18.06828 15.98318
#
# Velocity S-wave (km/s) = 2.93334 3.34459 3.14569
# Velocity P-wave (km/s) = 5.23489 6.92779 6.13996
#
# Compressibility (1/GPa) = 0.03886100
#
# Stress axis : x y z
#
# Youngs Moduli (GPa) = 69.45869 55.57696 15.38308
#
# Poissons Ratio (x) = 0.33874 0.12660
# Poissons Ratio (y) = 0.42334 0.22987
# Poissons Ratio (z) = 0.57161 0.83051
#
# Static dielectric constant tensor:
#      x y z
#    x 1.552810 0.000000 0.000000 
#    y 0.000000 1.568570 0.000000 
#    z 0.000000 0.000000 1.553500 
# 
# From -- ./inp_files/8672.got.cif
#   From: 2010.05.17/outbox.cif.g08.bks.cpg/sg57_5_cif.got.tgz:8672.got - 2010.06.03 13:58:18.
