data_PCOD9435730
_publ_section_title
;
Structure prediction by ZEFSAII (Michael W. Deem and Ramdas Pophale) SiO2 
 PCOD9435730
Probable space group: P B C M
;
_chemical_formula_sum "Si O2"
_cell_formula_units_Z 48
_cell_length_a 4.988649
_cell_length_b 20.806781
_cell_length_c 22.230690
_cell_angle_alpha 90.000000
_cell_angle_beta 90.000000
_cell_angle_gamma 90.000000
_cell_volume 2307.495097
_symmetry_space_group_name_H-M "P B C M"
_symmetry_group_IT_number 57
_symmetry_cell_setting 'orthorhombic'
loop_
_space_group_symop_operation_xyz
x,y,z
-x,-y,1/2+z
x,1/2-y,-z
-x,1/2+y,1/2-z
-x,-y,-z
x,y,1/2-z
-x,1/2+y,z
x,1/2-y,1/2+z
loop_
_atom_site_type_symbol
_atom_site_label
_atom_site_fract_x
_atom_site_fract_y
_atom_site_fract_z
Si Si1 0.748193 0.686939 0.523224
Si Si2 0.369490 0.233719 0.853268
Si Si3 0.844170 0.347136 0.183173
Si Si4 0.702736 0.630004 0.097706
Si Si5 0.108533 0.572169 0.930415
Si Si6 0.767250 0.445953 0.935264
O O1 0.903621 0.750000 0.500000
O O2 0.571306 0.710860 0.578150
O O3 0.599019 0.659673 0.465648
O O4 0.939508 0.632604 0.546725
O O5 0.618754 0.207878 0.816953
O O6 0.317180 0.310397 0.856269
O O7 0.113590 0.192212 0.833003
O O8 0.867962 0.375438 0.250000
O O9 0.775183 0.401126 0.132493
O O10 0.004284 0.605901 0.085063
O O11 0.500727 0.570032 0.102202
O O12 0.903864 0.513763 0.919862
O O13 0.272440 0.553553 0.991367
#
# Coordination Sequence:
#
# PCOD9435730 Si02
#       6
#     8   8   8   8   8   8
#     4   8  16  30  51  79 111 140 172 217 271 323
#     4  10  20  35  55  79 105 135 175 223 270 317
#     4  11  22  37  57  78 104 140 183 231 275 319
#     4  10  19  33  53  81 109 139 172 211 268 334
#     4   9  20  34  53  81 114 147 183 223 269 329
#     4  10  20  33  54  81 115 148 176 216 274 331
#
# _framework density 20.801777000000001
#
# number of rings (size 3 to 8) (size 9 to 14) (size 15 to 20)
#    0.000    2.333    0.000    2.500    0.000   10.000 
#    0.000    5.000    0.000    6.000    0.000    0.000 
#    0.000    0.000    0.000    0.000    0.000    0.000 
#
# Total GULP energy -267357.684975 kJ/mol
# GULP energy per Si atom -5569.951770 kJ/mol
# Density = 2.075443 g / cm^3
# Si number density = 20.801777 Si / 1000 Ang^3
#
#
#
# Elastic Constant Matrix: (Units=GPa)
#
#
# Indices 1 2 3 4 5 6 
#
# 1 69.2797 -4.6445 11.3551 0.0000 0.0000 0.0000
# 2 -4.6445 82.5009 30.6921 0.0000 0.0000 0.0000
# 3 11.3551 30.6921 80.9421 0.0000 0.0000 0.0000
# 4 0.0000 0.0000 0.0000 17.6989 0.0000 0.0000
# 5 0.0000 0.0000 0.0000 0.0000 19.4252 0.0000
# 6 0.0000 0.0000 0.0000 0.0000 0.0000 27.6994
#
#
#
# Elastic Compliance Matrix: (Units=1/GPa)
#
#
# Indices 1 2 3 4 5 6 
#
# 1 0.015025 0.001898 -0.002827 0.000000 0.000000 0.000000
# 2 0.001898 0.014351 -0.005708 0.000000 0.000000 0.000000
# 3 -0.002827 -0.005708 0.014916 0.000000 0.000000 0.000000
# 4 0.000000 0.000000 0.000000 0.056501 0.000000 0.000000
# 5 0.000000 0.000000 0.000000 0.000000 0.051480 0.000000
# 6 0.000000 0.000000 0.000000 0.000000 0.000000 0.036102
#
#
# Mechanical properties :
#
#
# Convention : Reuss Voigt Hill
#
# Bulk Modulus (GPa) = 32.24105 34.16979 33.20542
# Shear Modulus (GPa) = 23.58619 25.98602 24.78611
#
# Velocity S-wave (km/s) = 3.37093 3.53827 3.45561
# Velocity P-wave (km/s) = 5.53929 5.75799 5.64970
#
# Compressibility (1/GPa) = 0.03101636
#
# Stress axis : x y z
#
# Youngs Moduli (GPa) = 66.55628 69.67939 67.04394
#
# Poissons Ratio (x) = -0.13223 0.18956
# Poissons Ratio (y) = -0.12630 0.38269
# Poissons Ratio (z) = 0.18818 0.39774
#
# Static dielectric constant tensor:
#      x y z
#    x 1.764110 0.000000 0.000000 
#    y 0.000000 1.802040 0.000000 
#    z 0.000000 0.000000 1.799600 
# 
# From -- ./inp_files/23678.got.cif
#   From: 2010.05.17/outbox.cif.g08.bks.cpg/sg57_12_cif.got.tgz:23678.got - 2010.06.03 13:58:18.
