data_PCOD9435544
_publ_section_title
;
Structure prediction by ZEFSAII (Michael W. Deem and Ramdas Pophale) SiO2 
 PCOD9435544
Probable space group: P B C M
;
_chemical_formula_sum "Si O2"
_cell_formula_units_Z 56
_cell_length_a 20.483127
_cell_length_b 15.554788
_cell_length_c 8.996538
_cell_angle_alpha 90.000000
_cell_angle_beta 90.000000
_cell_angle_gamma 90.000000
_cell_volume 2866.393252
_symmetry_space_group_name_H-M "P B C M"
_symmetry_group_IT_number 57
_symmetry_cell_setting 'orthorhombic'
loop_
_space_group_symop_operation_xyz
x,y,z
-x,-y,1/2+z
x,1/2-y,-z
-x,1/2+y,1/2-z
-x,-y,-z
x,y,1/2-z
-x,1/2+y,z
x,1/2-y,1/2+z
loop_
_atom_site_type_symbol
_atom_site_label
_atom_site_fract_x
_atom_site_fract_y
_atom_site_fract_z
Si Si1 0.289697 0.396777 0.922097
Si Si2 0.840672 0.661277 0.926746
Si Si3 0.071051 0.499936 0.429142
Si Si4 0.432348 0.087866 0.071570
Si Si5 0.160412 0.661721 0.427553
Si Si6 0.425737 0.900196 0.925766
Si Si7 0.706349 0.105541 0.577096
O O1 0.275383 0.375569 0.750000
O O2 0.363363 0.366705 0.957984
O O3 0.290814 0.501087 0.934671
O O4 0.233039 0.359762 0.023196
O O5 0.843175 0.667807 0.750000
O O6 0.887155 0.583239 0.974989
O O7 0.861592 0.750000 0.000000
O O8 0.065423 0.499029 0.250000
O O9 0.113103 0.583579 0.470994
O O10 0.000000 0.500000 0.500000
O O11 0.431916 0.065805 0.250000
O O12 0.501194 0.134286 0.042039
O O13 0.430743 0.000394 0.975715
O O14 0.137396 0.750000 0.500000
O O15 0.161523 0.668200 0.250000
O O16 0.233097 0.642238 0.486220
O O17 0.413517 0.894168 0.750000
O O18 0.363702 0.865039 0.014308
O O19 0.712461 0.128321 0.750000
#
# Coordination Sequence:
#
# PCOD9435544 Si02
#       7
#     8   8   8   8   8   8   8
#     4   9  17  31  53  80 112 153 198 245 295 349
#     4  11  23  40  61  90 122 157 199 243 290 347
#     4  10  24  44  67  93 125 157 194 237 287 349
#     4   8  15  26  41  69 107 147 196 245 298 355
#     4  11  23  41  63  92 124 158 200 245 293 351
#     4   9  15  24  42  70 107 149 193 248 300 351
#     4  10  19  32  53  81 114 155 200 246 297 356
#
# _framework density 19.536747999999999
#
# number of rings (size 3 to 8) (size 9 to 14) (size 15 to 20)
#    0.000    2.286    1.429    2.571    0.000    5.714 
#    0.000    2.857    0.000    0.857    0.000    4.000 
#    0.000    0.000    0.000    0.000    0.000    0.000 
#
# Total GULP energy -312572.730405 kJ/mol
# GULP energy per Si atom -5581.655900 kJ/mol
# Density = 1.949228 g / cm^3
# Si number density = 19.536748 Si / 1000 Ang^3
#
#
#
# Elastic Constant Matrix: (Units=GPa)
#
#
# Indices 1 2 3 4 5 6 
#
# 1 160.3571 67.2156 54.2685 0.0000 0.0000 0.0000
# 2 67.2156 98.9415 44.0392 0.0000 0.0000 0.0000
# 3 54.2685 44.0392 60.3164 0.0000 0.0000 0.0000
# 4 0.0000 0.0000 0.0000 23.6516 0.0000 0.0000
# 5 0.0000 0.0000 0.0000 0.0000 37.7124 0.0000
# 6 0.0000 0.0000 0.0000 0.0000 0.0000 -10.0598
#
#
#
# Elastic Compliance Matrix: (Units=1/GPa)
#
#
# Indices 1 2 3 4 5 6 
#
# 1 0.009987 -0.004126 -0.005973 0.000000 0.000000 0.000000
# 2 -0.004126 0.016678 -0.008465 0.000000 0.000000 0.000000
# 3 -0.005973 -0.008465 0.028134 0.000000 0.000000 0.000000
# 4 0.000000 0.000000 0.000000 0.042281 0.000000 0.000000
# 5 0.000000 0.000000 0.000000 0.000000 0.026516 0.000000
# 6 0.000000 0.000000 0.000000 0.000000 0.000000 -0.099405
#
#
# Mechanical properties :
#
#
# Convention : Reuss Voigt Hill
#
# Bulk Modulus (GPa) = 56.59014 72.29572 64.44293
# Shear Modulus (GPa) = 74.39643 20.53362 47.46502
#
# Velocity S-wave (km/s) = 6.17761 3.24547 4.93437
# Velocity P-wave (km/s) = 8.93939 7.15048 8.09451
#
# Compressibility (1/GPa) = 0.01767092
#
# Stress axis : x y z
#
# Youngs Moduli (GPa) = 100.13078 59.96068 35.54461
#
# Poissons Ratio (x) = 0.24740 0.21231
# Poissons Ratio (y) = 0.41314 0.30087
# Poissons Ratio (z) = 0.59808 0.50755
#
# Static dielectric constant tensor:
#      x y z
#    x 1.688050 0.000000 0.000000 
#    y 0.000000 1.708430 0.000000 
#    z 0.000000 0.000000 1.654310 
# 
# From -- ./inp_files/8151.got.cif
#   From: 2010.05.17/outbox.cif.g08.bks.cpg/sg57_5_cif.got.tgz:8151.got - 2010.06.03 13:58:18.
