data_PCOD9435337
_publ_section_title
;
Structure prediction by ZEFSAII (Michael W. Deem and Ramdas Pophale) SiO2 
 PCOD9435337
Probable space group: P B C M
;
_chemical_formula_sum "Si O2"
_cell_formula_units_Z 64
_cell_length_a 12.645451
_cell_length_b 32.004338
_cell_length_c 7.432987
_cell_angle_alpha 90.000000
_cell_angle_beta 90.000000
_cell_angle_gamma 90.000000
_cell_volume 3008.198876
_symmetry_space_group_name_H-M "P B C M"
_symmetry_group_IT_number 57
_symmetry_cell_setting 'orthorhombic'
loop_
_space_group_symop_operation_xyz
x,y,z
-x,-y,1/2+z
x,1/2-y,-z
-x,1/2+y,1/2-z
-x,-y,-z
x,y,1/2-z
-x,1/2+y,z
x,1/2-y,1/2+z
loop_
_atom_site_type_symbol
_atom_site_label
_atom_site_fract_x
_atom_site_fract_y
_atom_site_fract_z
Si Si1 0.757990 0.297296 0.964651
Si Si2 0.016382 0.549174 0.034998
Si Si3 0.864771 0.623277 0.028851
Si Si4 0.601758 0.369092 0.529109
Si Si5 0.371165 0.382401 0.546345
Si Si6 0.746543 0.446233 0.969430
Si Si7 0.611154 0.977384 0.036333
Si Si8 0.997830 0.297676 0.534894
O O1 0.764204 0.303299 0.750000
O O2 0.674466 0.330877 0.030841
O O3 0.877643 0.302173 0.035570
O O4 0.724255 0.250000 0.000000
O O5 0.018000 0.554044 0.250000
O O6 0.133868 0.561524 0.969623
O O7 0.926352 0.581189 0.969580
O O8 0.000000 0.500000 0.000000
O O9 0.862075 0.622126 0.250000
O O10 0.743861 0.625465 0.964991
O O11 0.928665 0.664574 0.971974
O O12 0.597820 0.369850 0.750000
O O13 0.481222 0.366718 0.464391
O O14 0.662318 0.411339 0.474118
O O15 0.367169 0.365566 0.750000
O O16 0.384075 0.432445 0.551920
O O17 0.747020 0.445769 0.750000
O O18 0.703777 0.491500 0.024988
O O19 0.621303 0.971250 0.250000
O O20 0.500000 0.000000 0.000000
O O21 0.033386 0.250000 0.500000
O O22 0.992830 0.301982 0.750000
#
# Coordination Sequence:
#
# PCOD9435337 Si02
#       8
#     8   8   8   8   8   8   8   8
#     4   9  17  30  51  73  95 122 155 197 243 292
#     4  10  19  32  49  70  98 130 164 203 245 292
#     4   9  18  32  52  75 100 133 169 207 250 300
#     4   9  16  29  49  70  90 121 161 193 230 285
#     4  10  19  33  51  71  98 130 167 204 239 289
#     4   9  17  29  48  70  91 121 162 199 231 280
#     4  11  20  32  49  71  98 130 167 206 246 287
#     4   9  17  32  53  77  99 125 164 206 251 301
#
# _framework density 21.275188
#
# number of rings (size 3 to 8) (size 9 to 14) (size 15 to 20)
#    0.000    2.500    1.250    1.875    0.000    3.000 
#    0.000    3.125    0.000    1.500    0.000    0.000 
#    0.000    0.000    0.000    0.000    0.000    0.000 
#
# Total GULP energy -357378.855606 kJ/mol
# GULP energy per Si atom -5584.044619 kJ/mol
# Density = 2.122676 g / cm^3
# Si number density = 21.275188 Si / 1000 Ang^3
#
#
#
# Elastic Constant Matrix: (Units=GPa)
#
#
# Indices 1 2 3 4 5 6 
#
# 1 156.6821 75.9196 3.1238 0.0000 0.0000 0.0000
# 2 75.9196 124.4982 -6.2016 0.0000 0.0000 0.0000
# 3 3.1238 -6.2016 71.0488 0.0000 0.0000 0.0000
# 4 0.0000 0.0000 0.0000 19.0958 0.0000 0.0000
# 5 0.0000 0.0000 0.0000 0.0000 0.6618 0.0000
# 6 0.0000 0.0000 0.0000 0.0000 0.0000 -13.4854
#
#
#
# Elastic Compliance Matrix: (Units=1/GPa)
#
#
# Indices 1 2 3 4 5 6 
#
# 1 0.009115 -0.005603 -0.000890 0.000000 0.000000 0.000000
# 2 -0.005603 0.011511 0.001251 0.000000 0.000000 0.000000
# 3 -0.000890 0.001251 0.014223 0.000000 0.000000 0.000000
# 4 0.000000 0.000000 0.000000 0.052367 0.000000 0.000000
# 5 0.000000 0.000000 0.000000 0.000000 1.511017 0.000000
# 6 0.000000 0.000000 0.000000 0.000000 0.000000 -0.074154
#
#
# Mechanical properties :
#
#
# Convention : Reuss Voigt Hill
#
# Bulk Modulus (GPa) = 41.04002 55.32363 48.18183
# Shear Modulus (GPa) = 3.24111 19.88027 11.56069
#
# Velocity S-wave (km/s) = 1.23561 3.06017 2.33360
# Velocity P-wave (km/s) = 4.62251 6.20858 5.47330
#
# Compressibility (1/GPa) = 0.02436646
#
# Stress axis : x y z
#
# Youngs Moduli (GPa) = 109.71194 86.87326 70.30790
#
# Poissons Ratio (x) = 0.48671 0.06256
# Poissons Ratio (y) = 0.61467 -0.08796
# Poissons Ratio (z) = 0.09762 -0.10869
#
# Static dielectric constant tensor:
#      x y z
#    x 1.773250 0.000000 0.000000 
#    y 0.000000 1.714340 0.000000 
#    z 0.000000 0.000000 1.852580 
# 
# From -- ./inp_files/3849.got.cif
#   From: 2010.05.17/outbox.cif.g08.bks.cpg/sg57_2_cif.got.tgz:3849.got - 2010.06.03 13:58:18.
