data_PCOD9435021
_publ_section_title
;
Structure prediction by ZEFSAII (Michael W. Deem and Ramdas Pophale) SiO2 
 PCOD9435021
Probable space group: P B C M
;
_chemical_formula_sum "Si O2"
_cell_formula_units_Z 64
_cell_length_a 30.774188
_cell_length_b 13.852015
_cell_length_c 9.396140
_cell_angle_alpha 90.000000
_cell_angle_beta 90.000000
_cell_angle_gamma 90.000000
_cell_volume 4005.428971
_symmetry_space_group_name_H-M "P B C M"
_symmetry_group_IT_number 57
_symmetry_cell_setting 'orthorhombic'
loop_
_space_group_symop_operation_xyz
x,y,z
-x,-y,1/2+z
x,1/2-y,-z
-x,1/2+y,1/2-z
-x,-y,-z
x,y,1/2-z
-x,1/2+y,z
x,1/2-y,1/2+z
loop_
_atom_site_type_symbol
_atom_site_label
_atom_site_fract_x
_atom_site_fract_y
_atom_site_fract_z
Si Si1 0.105290 0.339679 0.589216
Si Si2 0.358016 0.152060 0.918232
Si Si3 0.255150 0.350869 0.080435
Si Si4 0.517052 0.149280 0.582324
Si Si5 0.185852 0.467613 0.578269
Si Si6 0.957128 0.476317 0.412723
Si Si7 0.875476 0.350835 0.077978
Si Si8 0.566625 0.511776 0.917752
O O1 0.090112 0.250000 0.500000
O O2 0.112086 0.306894 0.750000
O O3 0.150473 0.385625 0.538842
O O4 0.071279 0.426360 0.588979
O O5 0.365315 0.167530 0.750000
O O6 0.306835 0.133551 0.939369
O O7 0.388642 0.063361 0.961114
O O8 0.369703 0.250000 0.000000
O O9 0.246447 0.342975 0.250000
O O10 0.244361 0.250000 0.000000
O O11 0.228291 0.437549 0.008367
O O12 0.515185 0.250000 0.500000
O O13 0.524940 0.163685 0.750000
O O14 0.471475 0.091766 0.567124
O O15 0.552822 0.079262 0.511600
O O16 0.192628 0.464106 0.750000
O O17 0.161891 0.569319 0.546504
O O18 0.968984 0.451763 0.250000
O O19 0.922642 0.395555 0.464595
O O20 0.000000 0.500000 0.500000
O O21 0.876264 0.340083 0.250000
O O22 0.868021 0.250000 0.000000
O O23 0.568532 0.485303 0.750000
#
# Coordination Sequence:
#
# PCOD9435021 Si02
#       8
#     8   8   8   8   8   8   8   8
#     4   9  18  31  46  65  90 118 147 179 218 262
#     4   9  18  31  47  69  98 129 158 191 232 280
#     4  10  19  30  47  73 101 128 157 189 231 283
#     4  10  19  30  47  70  94 123 160 201 243 285
#     4   9  18  33  50  69  95 123 152 191 232 272
#     4   9  19  34  48  66  93 122 151 185 224 267
#     4   9  19  35  53  72  95 123 157 197 238 278
#     4   9  18  32  48  67  94 127 161 198 239 283
#
# _framework density 15.978313
#
# number of rings (size 3 to 8) (size 9 to 14) (size 15 to 20)
#    0.000    2.750    0.000    3.000    0.000    5.000 
#    0.000    5.000    0.000    0.750    0.000    1.750 
#    0.000    0.000    0.000    0.000    0.000    0.000 
#
# Total GULP energy -356576.352966 kJ/mol
# GULP energy per Si atom -5571.505515 kJ/mol
# Density = 1.594195 g / cm^3
# Si number density = 15.978313 Si / 1000 Ang^3
#
#
#
# Elastic Constant Matrix: (Units=GPa)
#
#
# Indices 1 2 3 4 5 6 
#
# 1 60.1190 29.4030 36.8374 0.0000 0.0000 0.0000
# 2 29.4030 85.2754 48.6981 0.0000 0.0000 0.0000
# 3 36.8374 48.6981 58.2664 0.0000 0.0000 0.0000
# 4 0.0000 0.0000 0.0000 32.8491 0.0000 0.0000
# 5 0.0000 0.0000 0.0000 0.0000 20.1068 0.0000
# 6 0.0000 0.0000 0.0000 0.0000 0.0000 14.7050
#
#
#
# Elastic Compliance Matrix: (Units=1/GPa)
#
#
# Indices 1 2 3 4 5 6 
#
# 1 0.027184 0.000845 -0.017892 0.000000 0.000000 0.000000
# 2 0.000845 0.022461 -0.019306 0.000000 0.000000 0.000000
# 3 -0.017892 -0.019306 0.044610 0.000000 0.000000 0.000000
# 4 0.000000 0.000000 0.000000 0.030442 0.000000 0.000000
# 5 0.000000 0.000000 0.000000 0.000000 0.049734 0.000000
# 6 0.000000 0.000000 0.000000 0.000000 0.000000 0.068004
#
#
# Mechanical properties :
#
#
# Convention : Reuss Voigt Hill
#
# Bulk Modulus (GPa) = 46.40983 48.17086 47.29034
# Shear Modulus (GPa) = 15.51226 19.44701 17.47964
#
# Velocity S-wave (km/s) = 3.11920 3.49246 3.31110
# Velocity P-wave (km/s) = 6.48699 6.81734 6.65422
#
# Compressibility (1/GPa) = 0.02154716
#
# Stress axis : x y z
#
# Youngs Moduli (GPa) = 36.78653 44.52224 22.41632
#
# Poissons Ratio (x) = -0.03761 0.40108
# Poissons Ratio (y) = -0.03107 0.43278
# Poissons Ratio (z) = 0.65819 0.85956
#
# Static dielectric constant tensor:
#      x y z
#    x 1.544880 0.000000 0.000000 
#    y 0.000000 1.519030 0.000000 
#    z 0.000000 0.000000 1.537010 
# 
# From -- ./inp_files/10336.got.cif
#   From: 2010.05.17/outbox.cif.g08.bks.cpg/sg57_6_cif.got.tgz:10336.got - 2010.06.03 13:58:18.
