data_PCOD9435020
_publ_section_title
;
Structure prediction by ZEFSAII (Michael W. Deem and Ramdas Pophale) SiO2 
 PCOD9435020
Probable space group: P B C M
;
_chemical_formula_sum "Si O2"
_cell_formula_units_Z 48
_cell_length_a 13.920344
_cell_length_b 24.595866
_cell_length_c 9.012682
_cell_angle_alpha 90.000000
_cell_angle_beta 90.000000
_cell_angle_gamma 90.000000
_cell_volume 3085.788341
_symmetry_space_group_name_H-M "P B C M"
_symmetry_group_IT_number 57
_symmetry_cell_setting 'orthorhombic'
loop_
_space_group_symop_operation_xyz
x,y,z
-x,-y,1/2+z
x,1/2-y,-z
-x,1/2+y,1/2-z
-x,-y,-z
x,y,1/2-z
-x,1/2+y,z
x,1/2-y,1/2+z
loop_
_atom_site_type_symbol
_atom_site_label
_atom_site_fract_x
_atom_site_fract_y
_atom_site_fract_z
Si Si1 0.640585 0.307011 0.071469
Si Si2 0.954625 0.419859 0.071831
Si Si3 0.150391 0.479155 0.073054
Si Si4 0.645705 0.527670 0.073002
Si Si5 0.134913 0.693414 0.571958
Si Si6 0.534001 0.082990 0.571708
O O1 0.635577 0.302725 0.250000
O O2 0.752884 0.315794 0.031866
O O3 0.578781 0.359365 0.026176
O O4 0.609723 0.250000 0.000000
O O5 0.940012 0.424788 0.250000
O O6 0.926392 0.359039 0.027267
O O7 0.064260 0.436795 0.039918
O O8 0.886741 0.463589 0.992168
O O9 0.160819 0.482862 0.250000
O O10 0.250892 0.464042 0.999428
O O11 0.651218 0.533052 0.250000
O O12 0.607663 0.466450 0.039069
O O13 0.565213 0.567746 0.007384
O O14 0.103732 0.750000 0.500000
O O15 0.130145 0.698324 0.750000
O O16 0.519959 0.083445 0.750000
#
# Coordination Sequence:
#
# PCOD9435020 Si02
#       6
#     8   8   8   8   8   8
#     4   9  17  29  46  67  92 120 148 182 224 270
#     4   9  18  32  48  67  94 125 154 188 230 272
#     4  10  19  30  47  70  94 122 156 191 229 275
#     4  10  19  31  48  69  94 122 152 189 232 276
#     4   9  17  30  47  68  94 122 151 184 226 272
#     4   9  18  32  48  67  92 122 153 186 227 273
#
# _framework density 15.555183
#
# number of rings (size 3 to 8) (size 9 to 14) (size 15 to 20)
#    0.000    2.667    0.000    2.000    0.000    5.333 
#    0.000    3.333    0.000    1.000    0.000    2.333 
#    0.000    0.000    0.000    0.000    0.000    0.000 
#
# Total GULP energy -267629.289222 kJ/mol
# GULP energy per Si atom -5575.610192 kJ/mol
# Density = 1.551978 g / cm^3
# Si number density = 15.555183 Si / 1000 Ang^3
#
#
#
# Elastic Constant Matrix: (Units=GPa)
#
#
# Indices 1 2 3 4 5 6 
#
# 1 103.6747 75.6414 43.2977 0.0000 0.0000 0.0000
# 2 75.6414 155.1796 43.3786 0.0000 0.0000 0.0000
# 3 43.2977 43.3786 27.6180 0.0000 0.0000 0.0000
# 4 0.0000 0.0000 0.0000 27.2967 0.0000 0.0000
# 5 0.0000 0.0000 0.0000 0.0000 25.3950 0.0000
# 6 0.0000 0.0000 0.0000 0.0000 0.0000 21.1062
#
#
#
# Elastic Compliance Matrix: (Units=1/GPa)
#
#
# Indices 1 2 3 4 5 6 
#
# 1 0.028469 -0.002497 -0.040710 0.000000 0.000000 0.000000
# 2 -0.002497 0.011707 -0.014473 0.000000 0.000000 0.000000
# 3 -0.040710 -0.014473 0.122762 0.000000 0.000000 0.000000
# 4 0.000000 0.000000 0.000000 0.036634 0.000000 0.000000
# 5 0.000000 0.000000 0.000000 0.000000 0.039378 0.000000
# 6 0.000000 0.000000 0.000000 0.000000 0.000000 0.047380
#
#
# Mechanical properties :
#
#
# Convention : Reuss Voigt Hill
#
# Bulk Modulus (GPa) = 21.01780 67.90087 44.45934
# Shear Modulus (GPa) = 11.97463 23.03656 17.50560
#
# Velocity S-wave (km/s) = 2.77757 3.85250 3.35832
# Velocity P-wave (km/s) = 4.88135 7.97091 6.60920
#
# Compressibility (1/GPa) = 0.04757872
#
# Stress axis : x y z
#
# Youngs Moduli (GPa) = 35.12585 85.41775 8.14583
#
# Poissons Ratio (x) = 0.21331 0.33161
# Poissons Ratio (y) = 0.08772 0.11790
# Poissons Ratio (z) = 1.42996 1.23626
#
# Static dielectric constant tensor:
#      x y z
#    x 1.501670 0.000000 0.000000 
#    y 0.000000 1.502350 0.000000 
#    z 0.000000 0.000000 1.520280 
# 
# From -- ./inp_files/3117.got.cif
#   From: 2010.05.17/outbox.cif.g08.bks.cpg/sg57_2_cif.got.tgz:3117.got - 2010.06.03 13:58:18.
