data_PCOD9435469
_publ_section_title
;
Structure prediction by ZEFSAII (Michael W. Deem and Ramdas Pophale) SiO2 
 PCOD9435469
Probable space group: P B C M
;
_chemical_formula_sum "Si O2"
_cell_formula_units_Z 40
_cell_length_a 14.677841
_cell_length_b 8.410712
_cell_length_c 14.986209
_cell_angle_alpha 90.000000
_cell_angle_beta 90.000000
_cell_angle_gamma 90.000000
_cell_volume 1850.063887
_symmetry_space_group_name_H-M "P B C M"
_symmetry_group_IT_number 57
_symmetry_cell_setting 'orthorhombic'
loop_
_space_group_symop_operation_xyz
x,y,z
-x,-y,1/2+z
x,1/2-y,-z
-x,1/2+y,1/2-z
-x,-y,-z
x,y,1/2-z
-x,1/2+y,z
x,1/2-y,1/2+z
loop_
_atom_site_type_symbol
_atom_site_label
_atom_site_fract_x
_atom_site_fract_y
_atom_site_fract_z
Si Si1 0.983748 0.357622 0.568853
Si Si2 0.634682 0.028059 0.851652
Si Si3 0.290594 0.065761 0.525648
Si Si4 0.556351 0.667686 0.648280
Si Si5 0.876443 0.894404 0.150309
O O1 0.925523 0.250000 0.500000
O O2 0.940723 0.450340 0.650629
O O3 0.000000 0.500000 0.500000
O O4 0.068956 0.251822 0.603150
O O5 0.670047 0.047081 0.750000
O O6 0.590104 0.850182 0.857202
O O7 0.551085 0.148413 0.866237
O O8 0.703987 0.033002 0.934255
O O9 0.278229 0.250000 0.500000
O O10 0.386155 0.063589 0.578753
O O11 0.208543 0.042787 0.593442
O O12 0.574032 0.612962 0.750000
O O13 0.849526 0.846401 0.250000
#
# Coordination Sequence:
#
# PCOD9435469 Si02
#       5
#     8   8   8   8   8
#     4   9  19  37  58  81 111 147 185 232 291 351
#     4   9  18  32  52  76 105 143 185 226 274 331
#     4  10  19  32  51  78 109 144 184 230 277 334
#     4   9  17  31  50  74 103 138 179 222 271 330
#     4  11  21  36  60  87 113 148 193 240 288 344
#
# _framework density 21.620875000000002
#
# number of rings (size 3 to 8) (size 9 to 14) (size 15 to 20)
#    0.000    2.400    0.000    3.600    0.000    0.800 
#    0.000    2.000    0.000    4.800    0.000    0.000 
#    0.000    0.000    0.000    0.000    0.000    0.000 
#
# Total GULP energy -222676.301216 kJ/mol
# GULP energy per Si atom -5566.907530 kJ/mol
# Density = 2.157167 g / cm^3
# Si number density = 21.620875 Si / 1000 Ang^3
#
#
#
# Elastic Constant Matrix: (Units=GPa)
#
#
# Indices 1 2 3 4 5 6 
#
# 1 53.0632 6.9780 50.5482 0.0000 0.0000 0.0000
# 2 6.9780 39.2546 18.8086 0.0000 0.0000 0.0000
# 3 50.5482 18.8086 153.3388 0.0000 0.0000 0.0000
# 4 0.0000 0.0000 0.0000 19.2006 0.0000 0.0000
# 5 0.0000 0.0000 0.0000 0.0000 21.7899 0.0000
# 6 0.0000 0.0000 0.0000 0.0000 0.0000 13.4469
#
#
#
# Elastic Compliance Matrix: (Units=1/GPa)
#
#
# Indices 1 2 3 4 5 6 
#
# 1 0.027485 -0.000579 -0.008989 0.000000 0.000000 0.000000
# 2 -0.000579 0.027078 -0.003131 0.000000 0.000000 0.000000
# 3 -0.008989 -0.003131 0.009869 0.000000 0.000000 0.000000
# 4 0.000000 0.000000 0.000000 0.052082 0.000000 0.000000
# 5 0.000000 0.000000 0.000000 0.000000 0.045893 0.000000
# 6 0.000000 0.000000 0.000000 0.000000 0.000000 0.074367
#
#
# Mechanical properties :
#
#
# Convention : Reuss Voigt Hill
#
# Bulk Modulus (GPa) = 25.61861 44.25848 34.93854
# Shear Modulus (GPa) = 18.16983 22.17559 20.17271
#
# Velocity S-wave (km/s) = 2.90208 3.20606 3.05785
# Velocity P-wave (km/s) = 4.80668 5.84977 5.35369
#
# Compressibility (1/GPa) = 0.03903413
#
# Stress axis : x y z
#
# Youngs Moduli (GPa) = 36.38360 36.93093 101.32856
#
# Poissons Ratio (x) = 0.02137 0.91089
# Poissons Ratio (y) = 0.02105 0.31722
# Poissons Ratio (z) = 0.32707 0.11562
#
# Static dielectric constant tensor:
#      x y z
#    x 1.848260 0.000000 0.000000 
#    y 0.000000 1.659960 0.000000 
#    z 0.000000 0.000000 2.009540 
# 
# From -- ./inp_files/18193.got.cif
#   From: 2010.05.17/outbox.cif.g08.bks.cpg/sg57_10_cif.got.tgz:18193.got - 2010.06.03 13:58:18.
