data_PCOD9435528
_publ_section_title
;
Structure prediction by ZEFSAII (Michael W. Deem and Ramdas Pophale) SiO2 
 PCOD9435528
Probable space group: P B C M
;
_chemical_formula_sum "Si O2"
_cell_formula_units_Z 64
_cell_length_a 21.200062
_cell_length_b 19.862217
_cell_length_c 7.770224
_cell_angle_alpha 90.000000
_cell_angle_beta 90.000000
_cell_angle_gamma 90.000000
_cell_volume 3271.887724
_symmetry_space_group_name_H-M "P B C M"
_symmetry_group_IT_number 57
_symmetry_cell_setting 'orthorhombic'
loop_
_space_group_symop_operation_xyz
x,y,z
-x,-y,1/2+z
x,1/2-y,-z
-x,1/2+y,1/2-z
-x,-y,-z
x,y,1/2-z
-x,1/2+y,z
x,1/2-y,1/2+z
loop_
_atom_site_type_symbol
_atom_site_label
_atom_site_fract_x
_atom_site_fract_y
_atom_site_fract_z
Si Si1 0.771882 0.916029 0.460945
Si Si2 0.592340 0.058499 0.050758
Si Si3 0.971305 0.329247 0.456682
Si Si4 0.268001 0.937853 0.954735
Si Si5 0.543789 0.584447 0.047788
Si Si6 0.890734 0.670787 0.542320
Si Si7 0.346095 0.326461 0.454627
Si Si8 0.834058 0.328808 0.044570
O O1 0.773482 0.915225 0.250000
O O2 0.834079 0.876305 0.520199
O O3 0.710002 0.874826 0.516388
O O4 0.763857 0.992999 0.519313
O O5 0.595120 0.080198 0.250000
O O6 0.661170 0.071747 0.972951
O O7 0.527601 0.090064 0.978172
O O8 0.578911 0.978373 0.040991
O O9 0.970993 0.250000 0.500000
O O10 0.971343 0.337517 0.250000
O O11 0.903086 0.353708 0.521659
O O12 0.039839 0.352671 0.521042
O O13 0.276025 0.947983 0.750000
O O14 0.222504 0.874968 0.981057
O O15 0.539413 0.567045 0.250000
O O16 0.587239 0.649096 0.027514
O O17 0.881359 0.750000 0.500000
O O18 0.891514 0.667042 0.750000
O O19 0.331737 0.250000 0.500000
O O20 0.349573 0.333215 0.250000
O O21 0.835189 0.333537 0.250000
O O22 0.826521 0.250000 0.000000
#
# Coordination Sequence:
#
# PCOD9435528 Si02
#       8
#     8   8   8   8   8   8   8   8
#     4   9  18  32  51  73 103 140 176 208 253 306
#     4   9  18  34  55  76 102 133 169 210 253 302
#     4   8  15  28  48  71  98 128 166 210 254 301
#     4  10  19  35  55  76 103 138 171 207 253 308
#     4  10  19  32  53  79 101 130 172 214 256 303
#     4   9  16  29  49  73  99 135 175 213 252 299
#     4  11  21  35  52  75 108 144 179 219 261 306
#     4  10  20  35  54  78 102 129 165 212 263 313
#
# _framework density 19.560572000000001
#
# number of rings (size 3 to 8) (size 9 to 14) (size 15 to 20)
#    0.000    2.500    1.250    1.500    0.000    1.500 
#    0.000    2.500    0.000    0.000    0.000    0.000 
#    0.000    0.000    0.000    0.000    0.000    0.000 
#
# Total GULP energy -356716.766481 kJ/mol
# GULP energy per Si atom -5573.699476 kJ/mol
# Density = 1.951605 g / cm^3
# Si number density = 19.560572 Si / 1000 Ang^3
#
#
#
# Elastic Constant Matrix: (Units=GPa)
#
#
# Indices 1 2 3 4 5 6 
#
# 1 200.4033 67.9079 6.3959 0.0000 0.0000 0.0000
# 2 67.9079 76.7768 -6.0841 0.0000 0.0000 0.0000
# 3 6.3959 -6.0841 27.7971 0.0000 0.0000 0.0000
# 4 0.0000 0.0000 0.0000 20.3921 0.0000 0.0000
# 5 0.0000 0.0000 0.0000 0.0000 4.5189 0.0000
# 6 0.0000 0.0000 0.0000 0.0000 0.0000 31.9360
#
#
#
# Elastic Compliance Matrix: (Units=1/GPa)
#
#
# Indices 1 2 3 4 5 6 
#
# 1 0.007393 -0.006792 -0.003188 0.000000 0.000000 0.000000
# 2 -0.006792 0.019494 0.005829 0.000000 0.000000 0.000000
# 3 -0.003188 0.005829 0.037984 0.000000 0.000000 0.000000
# 4 0.000000 0.000000 0.000000 0.049039 0.000000 0.000000
# 5 0.000000 0.000000 0.000000 0.000000 0.221291 0.000000
# 6 0.000000 0.000000 0.000000 0.000000 0.000000 0.031313
#
#
# Mechanical properties :
#
#
# Convention : Reuss Voigt Hill
#
# Bulk Modulus (GPa) = 17.67672 49.04630 33.36151
# Shear Modulus (GPa) = 12.70099 27.15323 19.92711
#
# Velocity S-wave (km/s) = 2.55093 3.72985 3.19523
# Velocity P-wave (km/s) = 4.21104 6.60890 5.54123
#
# Compressibility (1/GPa) = 0.05657158
#
# Stress axis : x y z
#
# Youngs Moduli (GPa) = 135.26187 51.29825 26.32662
#
# Poissons Ratio (x) = 0.34840 0.08392
# Poissons Ratio (y) = 0.91865 -0.15347
# Poissons Ratio (z) = 0.43116 -0.29904
#
# Static dielectric constant tensor:
#      x y z
#    x 1.747200 0.000000 0.000000 
#    y 0.000000 1.663640 0.000000 
#    z 0.000000 0.000000 1.730570 
# 
# From -- ./inp_files/8569.got.cif
#   From: 2010.05.17/outbox.cif.g08.bks.cpg/sg57_5_cif.got.tgz:8569.got - 2010.06.03 13:58:18.
