data_PCOD9435983
_publ_section_title
;
Structure prediction by ZEFSAII (Michael W. Deem and Ramdas Pophale) SiO2 
 PCOD9435983
Probable space group: P B C M
;
_chemical_formula_sum "Si O2"
_cell_formula_units_Z 64
_cell_length_a 20.672639
_cell_length_b 19.655481
_cell_length_c 8.672907
_cell_angle_alpha 90.000000
_cell_angle_beta 90.000000
_cell_angle_gamma 90.000000
_cell_volume 3524.068052
_symmetry_space_group_name_H-M "P B C M"
_symmetry_group_IT_number 57
_symmetry_cell_setting 'orthorhombic'
loop_
_space_group_symop_operation_xyz
x,y,z
-x,-y,1/2+z
x,1/2-y,-z
-x,1/2+y,1/2-z
-x,-y,-z
x,y,1/2-z
-x,1/2+y,z
x,1/2-y,1/2+z
loop_
_atom_site_type_symbol
_atom_site_label
_atom_site_fract_x
_atom_site_fract_y
_atom_site_fract_z
Si Si1 0.383959 0.672790 0.936072
Si Si2 0.268214 0.582066 0.065874
Si Si3 0.668362 0.673169 0.564159
Si Si4 0.156414 0.823925 0.066932
Si Si5 0.960367 0.101117 0.067107
Si Si6 0.908915 0.552168 0.566327
Si Si7 0.473513 0.173707 0.935096
Si Si8 0.234272 0.436747 0.933970
O O1 0.378583 0.674967 0.750000
O O2 0.456029 0.645678 0.979993
O O3 0.377302 0.750000 0.000000
O O4 0.329062 0.624886 0.004935
O O5 0.268738 0.578679 0.250000
O O6 0.204440 0.621865 0.009761
O O7 0.265008 0.506608 0.997290
O O8 0.673198 0.750000 0.500000
O O9 0.672635 0.674684 0.750000
O O10 0.596524 0.644667 0.519484
O O11 0.723620 0.625840 0.495656
O O12 0.164718 0.824795 0.250000
O O13 0.171939 0.750000 0.000000
O O14 0.083847 0.844915 0.020666
O O15 0.958483 0.113590 0.250000
O O16 0.928581 0.026685 0.037582
O O17 0.033570 0.096246 0.007580
O O18 0.907296 0.562026 0.750000
O O19 0.839144 0.566492 0.495373
O O20 0.473603 0.176556 0.750000
O O21 0.473381 0.250000 0.000000
O O22 0.233904 0.437783 0.750000
#
# Coordination Sequence:
#
# PCOD9435983 Si02
#       8
#     8   8   8   8   8   8   8   8
#     4  10  19  34  55  83 115 152 195 240 287 340
#     4  12  24  39  56  81 115 154 197 242 290 343
#     4  10  20  38  62  89 117 148 187 235 290 349
#     4  12  24  39  59  84 118 158 198 242 291 343
#     4  10  20  36  59  86 115 147 190 235 280 334
#     4  10  20  36  60  86 115 149 187 232 282 337
#     4   8  16  31  55  82 111 146 188 234 283 341
#     4  12  24  39  60  87 117 153 193 238 290 346
#
# _framework density 18.160830000000001
#
# number of rings (size 3 to 8) (size 9 to 14) (size 15 to 20)
#    0.000    1.500    1.250    5.250    0.000    2.000 
#    0.000    1.250    0.000    0.000    0.000    0.000 
#    0.000    0.000    0.000    0.000    0.000    0.000 
#
# Total GULP energy -357401.629777 kJ/mol
# GULP energy per Si atom -5584.400465 kJ/mol
# Density = 1.811949 g / cm^3
# Si number density = 18.160830 Si / 1000 Ang^3
#
#
#
# Elastic Constant Matrix: (Units=GPa)
#
#
# Indices 1 2 3 4 5 6 
#
# 1 157.4856 49.1485 47.9290 0.0000 0.0000 0.0000
# 2 49.1485 70.6542 27.5560 0.0000 0.0000 0.0000
# 3 47.9290 27.5560 81.9207 0.0000 0.0000 0.0000
# 4 0.0000 0.0000 0.0000 27.7160 0.0000 0.0000
# 5 0.0000 0.0000 0.0000 0.0000 11.4230 0.0000
# 6 0.0000 0.0000 0.0000 0.0000 0.0000 26.7462
#
#
#
# Elastic Compliance Matrix: (Units=1/GPa)
#
#
# Indices 1 2 3 4 5 6 
#
# 1 0.008955 -0.004818 -0.003618 0.000000 0.000000 0.000000
# 2 -0.004818 0.018883 -0.003533 0.000000 0.000000 0.000000
# 3 -0.003618 -0.003533 0.015512 0.000000 0.000000 0.000000
# 4 0.000000 0.000000 0.000000 0.036080 0.000000 0.000000
# 5 0.000000 0.000000 0.000000 0.000000 0.087543 0.000000
# 6 0.000000 0.000000 0.000000 0.000000 0.000000 0.037389
#
#
# Mechanical properties :
#
#
# Convention : Reuss Voigt Hill
#
# Bulk Modulus (GPa) = 51.51636 62.14750 56.83193
# Shear Modulus (GPa) = 21.29747 25.53883 23.41815
#
# Velocity S-wave (km/s) = 3.42821 3.75408 3.59484
# Velocity P-wave (km/s) = 6.64067 7.28600 6.97080
#
# Compressibility (1/GPa) = 0.01941131
#
# Stress axis : x y z
#
# Youngs Moduli (GPa) = 111.67502 52.95866 64.46473
#
# Poissons Ratio (x) = 0.25514 0.23326
# Poissons Ratio (y) = 0.53802 0.22775
# Poissons Ratio (z) = 0.40409 0.18710
#
# Static dielectric constant tensor:
#      x y z
#    x 1.645120 0.000000 0.000000 
#    y 0.000000 1.582030 0.000000 
#    z 0.000000 0.000000 1.601730 
# 
# From -- ./inp_files/7144.got.cif
#   From: 2010.05.17/outbox.cif.g08.bks.cpg/sg57_4_cif.got.tgz:7144.got - 2010.06.03 13:58:18.
