data_PCOD9435200
_publ_section_title
;
Structure prediction by ZEFSAII (Michael W. Deem and Ramdas Pophale) SiO2 
 PCOD9435200
Probable space group: P B C M
;
_chemical_formula_sum "Si O2"
_cell_formula_units_Z 64
_cell_length_a 16.103630
_cell_length_b 25.907034
_cell_length_c 8.415500
_cell_angle_alpha 90.000000
_cell_angle_beta 90.000000
_cell_angle_gamma 90.000000
_cell_volume 3510.923793
_symmetry_space_group_name_H-M "P B C M"
_symmetry_group_IT_number 57
_symmetry_cell_setting 'orthorhombic'
loop_
_space_group_symop_operation_xyz
x,y,z
-x,-y,1/2+z
x,1/2-y,-z
-x,1/2+y,1/2-z
-x,-y,-z
x,y,1/2-z
-x,1/2+y,z
x,1/2-y,1/2+z
loop_
_atom_site_type_symbol
_atom_site_label
_atom_site_fract_x
_atom_site_fract_y
_atom_site_fract_z
Si Si1 0.862140 0.945586 0.061803
Si Si2 0.788582 0.453441 0.435229
Si Si3 0.020248 0.303902 0.936483
Si Si4 0.203399 0.339723 0.939141
Si Si5 0.959241 0.090144 0.562145
Si Si6 0.387773 0.527763 0.438557
Si Si7 0.385363 0.306390 0.560355
Si Si8 0.448822 0.417131 0.438582
O O1 0.860513 0.958520 0.250000
O O2 0.957987 0.939626 0.005208
O O3 0.815416 0.891745 0.034946
O O4 0.816870 0.987739 0.957385
O O5 0.776503 0.440482 0.250000
O O6 0.869078 0.423844 0.503843
O O7 0.701745 0.448789 0.524031
O O8 0.004605 0.310524 0.750000
O O9 0.119752 0.306943 0.960330
O O10 0.988614 0.250000 0.000000
O O11 0.979917 0.350752 0.030231
O O12 0.209982 0.351540 0.750000
O O13 0.288788 0.313415 0.990724
O O14 0.955265 0.079784 0.750000
O O15 0.403463 0.527785 0.250000
O O16 0.393353 0.467149 0.492074
O O17 0.459312 0.561681 0.520520
O O18 0.415640 0.250000 0.500000
O O19 0.388547 0.304304 0.750000
O O20 0.428854 0.360578 0.509283
O O21 0.438453 0.412153 0.250000
#
# Coordination Sequence:
#
# PCOD9435200 Si02
#       8
#     8   8   8   8   8   8   8   8
#     4  10  19  31  49  73 104 141 177 214 253 297
#     4  11  21  33  51  75 105 138 171 210 257 307
#     4  10  19  32  51  72  97 132 173 217 260 302
#     4   9  19  33  49  73 104 139 177 213 252 301
#     4   9  20  35  49  70 101 137 175 213 254 301
#     4  10  21  37  59  84 107 135 173 218 265 313
#     4  11  22  35  53  78 110 145 179 216 259 312
#     4  10  21  38  58  81 109 139 173 213 261 316
#
# _framework density 18.228821
#
# number of rings (size 3 to 8) (size 9 to 14) (size 15 to 20)
#    0.000    2.000    0.000    3.750    0.000    6.500 
#    0.000    0.000    0.000    0.750    0.000    1.750 
#    0.000    0.000    0.000    0.000    0.000    0.000 
#
# Total GULP energy -356914.621116 kJ/mol
# GULP energy per Si atom -5576.790955 kJ/mol
# Density = 1.818733 g / cm^3
# Si number density = 18.228821 Si / 1000 Ang^3
#
#
#
# Elastic Constant Matrix: (Units=GPa)
#
#
# Indices 1 2 3 4 5 6 
#
# 1 79.5607 28.7087 8.0581 0.0000 0.0000 0.0000
# 2 28.7087 74.1046 19.4410 0.0000 0.0000 0.0000
# 3 8.0581 19.4410 13.0481 0.0000 0.0000 0.0000
# 4 0.0000 0.0000 0.0000 24.9489 0.0000 0.0000
# 5 0.0000 0.0000 0.0000 0.0000 18.5631 0.0000
# 6 0.0000 0.0000 0.0000 0.0000 0.0000 12.8155
#
#
#
# Elastic Compliance Matrix: (Units=1/GPa)
#
#
# Indices 1 2 3 4 5 6 
#
# 1 0.014619 -0.005409 -0.000968 0.000000 0.000000 0.000000
# 2 -0.005409 0.024156 -0.032650 0.000000 0.000000 0.000000
# 3 -0.000968 -0.032650 0.125884 0.000000 0.000000 0.000000
# 4 0.000000 0.000000 0.000000 0.040082 0.000000 0.000000
# 5 0.000000 0.000000 0.000000 0.000000 0.053870 0.000000
# 6 0.000000 0.000000 0.000000 0.000000 0.000000 0.078031
#
#
# Mechanical properties :
#
#
# Convention : Reuss Voigt Hill
#
# Bulk Modulus (GPa) = 11.54688 31.01431 21.28060
# Shear Modulus (GPa) = 11.27230 18.63255 14.95242
#
# Velocity S-wave (km/s) = 2.48942 3.20057 2.86713
# Velocity P-wave (km/s) = 3.82245 5.54157 4.76026
#
# Compressibility (1/GPa) = 0.08660345
#
# Stress axis : x y z
#
# Youngs Moduli (GPa) = 68.40385 41.39815 7.94379
#
# Poissons Ratio (x) = 0.22394 0.00769
# Poissons Ratio (y) = 0.37003 0.25936
# Poissons Ratio (z) = 0.06624 1.35165
#
# Static dielectric constant tensor:
#      x y z
#    x 1.639670 0.000000 0.000000 
#    y 0.000000 1.622590 0.000000 
#    z 0.000000 0.000000 1.647700 
# 
# From -- ./inp_files/5588.got.cif
#   From: 2010.05.17/outbox.cif.g08.bks.cpg/sg57_3_cif.got.tgz:5588.got - 2010.06.03 13:58:18.
