data_PCOD9435014
_publ_section_title
;
Structure prediction by ZEFSAII (Michael W. Deem and Ramdas Pophale) SiO2 
 PCOD9435014
Probable space group: P B C M
;
_chemical_formula_sum "Si O2"
_cell_formula_units_Z 64
_cell_length_a 19.491203
_cell_length_b 18.793056
_cell_length_c 9.720459
_cell_angle_alpha 90.000000
_cell_angle_beta 90.000000
_cell_angle_gamma 90.000000
_cell_volume 3560.597031
_symmetry_space_group_name_H-M "P B C M"
_symmetry_group_IT_number 57
_symmetry_cell_setting 'orthorhombic'
loop_
_space_group_symop_operation_xyz
x,y,z
-x,-y,1/2+z
x,1/2-y,-z
-x,1/2+y,1/2-z
-x,-y,-z
x,y,1/2-z
-x,1/2+y,z
x,1/2-y,1/2+z
loop_
_atom_site_type_symbol
_atom_site_label
_atom_site_fract_x
_atom_site_fract_y
_atom_site_fract_z
Si Si1 0.558691 0.821971 0.411031
Si Si2 0.631944 0.311518 0.901778
Si Si3 0.640915 0.924981 0.907839
Si Si4 0.091326 0.689852 0.909688
Si Si5 0.938338 0.023912 0.905710
Si Si6 0.219910 0.989020 0.411746
Si Si7 0.424600 0.922598 0.404821
Si Si8 0.217585 0.646202 0.093897
O O1 0.545899 0.750000 0.500000
O O2 0.570206 0.804589 0.250000
O O3 0.620487 0.864588 0.484594
O O4 0.497248 0.881354 0.412559
O O5 0.602292 0.305125 0.750000
O O6 0.713915 0.307722 0.894856
O O7 0.606036 0.250000 0.000000
O O8 0.615279 0.385654 0.971961
O O9 0.633528 0.899463 0.750000
O O10 0.719093 0.953604 0.924490
O O11 0.588560 0.993064 0.920268
O O12 0.100383 0.711191 0.750000
O O13 0.062334 0.610023 0.910334
O O14 0.053274 0.750000 0.000000
O O15 0.162001 0.678634 0.992218
O O16 0.952152 0.001202 0.750000
O O17 0.861070 0.995699 0.939125
O O18 0.000000 0.000000 0.000000
O O19 0.221674 0.964679 0.250000
O O20 0.236534 0.927540 0.520108
O O21 0.397023 0.905979 0.250000
O O22 0.191438 0.635382 0.250000
#
# Coordination Sequence:
#
# PCOD9435014 Si02
#       8
#     8   8   8   8   8   8   8   8
#     4  11  24  40  58  82 111 145 188 235 284 338
#     4  11  22  31  44  68 102 142 181 221 262 313
#     4  10  20  37  62  86 110 144 183 230 284 333
#     4  10  20  33  50  74 105 142 183 223 267 321
#     4   9  19  34  54  82 113 147 183 223 270 326
#     4   9  18  34  56  81 111 144 180 225 273 325
#     4  10  21  37  57  80 106 141 181 224 278 332
#     4  10  19  30  46  72 104 141 181 219 262 311
#
# _framework density 17.974513999999999
#
# number of rings (size 3 to 8) (size 9 to 14) (size 15 to 20)
#    0.000    2.000    1.250    3.375    0.000    8.000 
#    0.000    0.000    0.000    0.750    0.000    1.750 
#    0.000    0.000    0.000    0.000    0.000    0.000 
#
# Total GULP energy -356336.698332 kJ/mol
# GULP energy per Si atom -5567.760911 kJ/mol
# Density = 1.793360 g / cm^3
# Si number density = 17.974514 Si / 1000 Ang^3
#
#
#
# Elastic Constant Matrix: (Units=GPa)
#
#
# Indices 1 2 3 4 5 6 
#
# 1 82.8506 34.9930 53.1147 0.0000 0.0000 0.0000
# 2 34.9930 54.7019 55.9907 0.0000 0.0000 0.0000
# 3 53.1147 55.9907 152.1700 0.0000 0.0000 0.0000
# 4 0.0000 0.0000 0.0000 26.9014 0.0000 0.0000
# 5 0.0000 0.0000 0.0000 0.0000 -16.1775 0.0000
# 6 0.0000 0.0000 0.0000 0.0000 0.0000 14.5732
#
#
#
# Elastic Compliance Matrix: (Units=1/GPa)
#
#
# Indices 1 2 3 4 5 6 
#
# 1 0.017449 -0.007905 -0.003182 0.000000 0.000000 0.000000
# 2 -0.007905 0.032907 -0.009349 0.000000 0.000000 0.000000
# 3 -0.003182 -0.009349 0.011122 0.000000 0.000000 0.000000
# 4 0.000000 0.000000 0.000000 0.037173 0.000000 0.000000
# 5 0.000000 0.000000 0.000000 0.000000 -0.061814 0.000000
# 6 0.000000 0.000000 0.000000 0.000000 0.000000 0.068619
#
#
# Mechanical properties :
#
#
# Convention : Reuss Voigt Hill
#
# Bulk Modulus (GPa) = 48.52920 64.21326 56.37123
# Shear Modulus (GPa) = 32.63805 14.76768 23.70287
#
# Velocity S-wave (km/s) = 4.26584 2.86945 3.63532
# Velocity P-wave (km/s) = 7.16385 6.83963 7.00361
#
# Compressibility (1/GPa) = 0.02060615
#
# Stress axis : x y z
#
# Youngs Moduli (GPa) = 57.31131 30.38868 89.91186
#
# Poissons Ratio (x) = 0.24023 0.28607
# Poissons Ratio (y) = 0.45306 0.84056
# Poissons Ratio (z) = 0.18234 0.28410
#
# Static dielectric constant tensor:
#      x y z
#    x 1.649880 0.000000 0.000000 
#    y 0.000000 1.664010 0.000000 
#    z 0.000000 0.000000 1.639430 
# 
# From -- ./inp_files/8394.got.cif
#   From: 2010.05.17/outbox.cif.g08.bks.cpg/sg57_5_cif.got.tgz:8394.got - 2010.06.03 13:58:18.
