data_PCOD9435006
_publ_section_title
;
Structure prediction by ZEFSAII (Michael W. Deem and Ramdas Pophale) SiO2 
 PCOD9435006
Probable space group: P B C M
;
_chemical_formula_sum "Si O2"
_cell_formula_units_Z 64
_cell_length_a 21.815008
_cell_length_b 19.497967
_cell_length_c 9.224488
_cell_angle_alpha 90.000000
_cell_angle_beta 90.000000
_cell_angle_gamma 90.000000
_cell_volume 3923.620345
_symmetry_space_group_name_H-M "P B C M"
_symmetry_group_IT_number 57
_symmetry_cell_setting 'orthorhombic'
loop_
_space_group_symop_operation_xyz
x,y,z
-x,-y,1/2+z
x,1/2-y,-z
-x,1/2+y,1/2-z
-x,-y,-z
x,y,1/2-z
-x,1/2+y,z
x,1/2-y,1/2+z
loop_
_atom_site_type_symbol
_atom_site_label
_atom_site_fract_x
_atom_site_fract_y
_atom_site_fract_z
Si Si1 0.809249 0.020529 0.915117
Si Si2 0.541484 0.676936 0.423278
Si Si3 0.601181 0.177868 0.423459
Si Si4 0.352984 0.097067 0.922657
Si Si5 0.763454 0.637556 0.084642
Si Si6 0.308318 0.557160 0.423303
Si Si7 0.897387 0.682297 0.075841
Si Si8 0.940004 0.970146 0.574318
O O1 0.810125 0.046210 0.750000
O O2 0.784804 0.942020 0.910843
O O3 0.878958 0.012888 0.968918
O O4 0.759089 0.060448 0.007648
O O5 0.553246 0.750000 0.500000
O O6 0.550504 0.682014 0.250000
O O7 0.470068 0.659532 0.451099
O O8 0.587308 0.622564 0.493532
O O9 0.614032 0.250000 0.500000
O O10 0.607393 0.186073 0.250000
O O11 0.646844 0.117880 0.471979
O O12 0.359738 0.104663 0.750000
O O13 0.337809 0.017386 0.955860
O O14 0.294800 0.140626 0.980746
O O15 0.747352 0.657627 0.250000
O O16 0.825204 0.675482 0.037078
O O17 0.302515 0.560627 0.250000
O O18 0.900548 0.688396 0.250000
O O19 0.928699 0.609915 0.035864
O O20 0.922961 0.750000 0.000000
O O21 0.943750 0.973455 0.750000
O O22 0.000000 0.000000 0.500000
#
# Coordination Sequence:
#
# PCOD9435006 Si02
#       8
#     8   8   8   8   8   8   8   8
#     4   8  15  29  48  70  95 121 152 189 228 273
#     4  10  20  34  49  64  88 123 160 198 241 289
#     4   9  19  35  52  70  92 120 157 201 247 294
#     4  10  19  30  46  70  98 126 157 193 235 284
#     4   8  15  29  45  62  90 125 156 188 227 272
#     4   9  18  32  50  73  99 123 152 196 243 284
#     4   9  18  31  47  69  97 127 161 200 236 274
#     4   9  18  32  50  74 102 131 163 197 234 279
#
# _framework density 16.311464999999998
#
# number of rings (size 3 to 8) (size 9 to 14) (size 15 to 20)
#    0.000    3.000    0.000    2.250    0.000    4.000 
#    0.000    3.750    0.000    0.750    0.000    0.000 
#    0.000    0.000    0.000    0.000    0.000    0.000 
#
# Total GULP energy -356489.886046 kJ/mol
# GULP energy per Si atom -5570.154469 kJ/mol
# Density = 1.627434 g / cm^3
# Si number density = 16.311465 Si / 1000 Ang^3
#
#
#
# Elastic Constant Matrix: (Units=GPa)
#
#
# Indices 1 2 3 4 5 6 
#
# 1 132.0768 74.3493 58.0798 0.0000 0.0000 0.0000
# 2 74.3493 79.9773 43.3174 0.0000 0.0000 0.0000
# 3 58.0798 43.3174 41.3375 0.0000 0.0000 0.0000
# 4 0.0000 0.0000 0.0000 23.4857 0.0000 0.0000
# 5 0.0000 0.0000 0.0000 0.0000 29.8049 0.0000
# 6 0.0000 0.0000 0.0000 0.0000 0.0000 17.2595
#
#
#
# Elastic Compliance Matrix: (Units=1/GPa)
#
#
# Indices 1 2 3 4 5 6 
#
# 1 0.022117 -0.008625 -0.022036 0.000000 0.000000 0.000000
# 2 -0.008625 0.032278 -0.021705 0.000000 0.000000 0.000000
# 3 -0.022036 -0.021705 0.077897 0.000000 0.000000 0.000000
# 4 0.000000 0.000000 0.000000 0.042579 0.000000 0.000000
# 5 0.000000 0.000000 0.000000 0.000000 0.033551 0.000000
# 6 0.000000 0.000000 0.000000 0.000000 0.000000 0.057939
#
#
# Mechanical properties :
#
#
# Convention : Reuss Voigt Hill
#
# Bulk Modulus (GPa) = 36.28638 67.20939 51.74788
# Shear Modulus (GPa) = 13.14816 19.28639 16.21727
#
# Velocity S-wave (km/s) = 2.84221 3.44231 3.15655
# Velocity P-wave (km/s) = 5.75023 7.55596 6.71408
#
# Compressibility (1/GPa) = 0.02755855
#
# Stress axis : x y z
#
# Youngs Moduli (GPa) = 45.21376 30.98108 12.83744
#
# Poissons Ratio (x) = 0.26722 0.28289
# Poissons Ratio (y) = 0.38999 0.27864
# Poissons Ratio (z) = 0.99635 0.67244
#
# Static dielectric constant tensor:
#      x y z
#    x 1.544370 0.000000 0.000000 
#    y 0.000000 1.547470 0.000000 
#    z 0.000000 0.000000 1.547960 
# 
# From -- ./inp_files/9541.got.cif
#   From: 2010.05.17/outbox.cif.g08.bks.cpg/sg57_5_cif.got.tgz:9541.got - 2010.06.03 13:58:18.
