data_PCOD9435434
_publ_section_title
;
Structure prediction by ZEFSAII (Michael W. Deem and Ramdas Pophale) SiO2 
 PCOD9435434
Probable space group: P B C M
;
_chemical_formula_sum "Si O2"
_cell_formula_units_Z 64
_cell_length_a 16.606729
_cell_length_b 22.508206
_cell_length_c 9.474608
_cell_angle_alpha 90.000000
_cell_angle_beta 90.000000
_cell_angle_gamma 90.000000
_cell_volume 3541.491718
_symmetry_space_group_name_H-M "P B C M"
_symmetry_group_IT_number 57
_symmetry_cell_setting 'orthorhombic'
loop_
_space_group_symop_operation_xyz
x,y,z
-x,-y,1/2+z
x,1/2-y,-z
-x,1/2+y,1/2-z
-x,-y,-z
x,y,1/2-z
-x,1/2+y,z
x,1/2-y,1/2+z
loop_
_atom_site_type_symbol
_atom_site_label
_atom_site_fract_x
_atom_site_fract_y
_atom_site_fract_z
Si Si1 0.693529 0.123414 0.415212
Si Si2 0.184369 0.807907 0.088360
Si Si3 0.998461 0.585953 0.093277
Si Si4 0.536351 0.942383 0.582812
Si Si5 0.876177 0.476274 0.092909
Si Si6 0.470883 0.811564 0.582235
Si Si7 0.310358 0.989259 0.413010
Si Si8 0.010153 0.193041 0.589213
O O1 0.713012 0.119428 0.250000
O O2 0.770222 0.139294 0.510224
O O3 0.623823 0.172276 0.434263
O O4 0.662831 0.061071 0.476877
O O5 0.210818 0.803628 0.250000
O O6 0.087671 0.810644 0.086357
O O7 0.207144 0.750000 0.000000
O O8 0.012128 0.610782 0.250000
O O9 0.936166 0.532080 0.101296
O O10 0.081946 0.562950 0.026919
O O11 0.962108 0.634317 0.989175
O O12 0.513800 0.946797 0.750000
O O13 0.513012 0.874832 0.538166
O O14 0.632555 0.953869 0.571340
O O15 0.500000 0.000000 0.500000
O O16 0.878044 0.446570 0.250000
O O17 0.785265 0.497138 0.066421
O O18 0.489690 0.750000 0.500000
O O19 0.486800 0.803454 0.750000
O O20 0.321526 0.968309 0.250000
O O21 0.034227 0.250000 0.500000
O O22 0.036091 0.196788 0.750000
#
# Coordination Sequence:
#
# PCOD9435434 Si02
#       8
#     8   8   8   8   8   8   8   8
#     4  11  21  32  48  73 106 137 171 216 260 313
#     4  10  20  32  45  65  96 134 174 214 258 312
#     4  10  19  32  51  74 104 137 171 214 265 314
#     4  10  20  37  58  81 108 140 179 224 271 319
#     4   9  19  34  51  76 105 136 174 214 260 317
#     4  10  22  37  53  77 107 139 178 219 265 319
#     4  10  20  34  55  78 103 138 176 216 266 319
#     4  10  20  33  49  69  96 131 173 216 258 313
#
# _framework density 18.071480000000001
#
# number of rings (size 3 to 8) (size 9 to 14) (size 15 to 20)
#    0.000    2.000    1.250    2.625    0.000    8.000 
#    0.000    0.000    0.000    0.750    0.000    1.750 
#    0.000    0.000    0.000    0.000    0.000    0.000 
#
# Total GULP energy -356785.339887 kJ/mol
# GULP energy per Si atom -5574.770936 kJ/mol
# Density = 1.803035 g / cm^3
# Si number density = 18.071480 Si / 1000 Ang^3
#
#
#
# Elastic Constant Matrix: (Units=GPa)
#
#
# Indices 1 2 3 4 5 6 
#
# 1 54.1521 20.7007 17.1885 0.0000 0.0000 0.0000
# 2 20.7007 93.5669 50.1538 0.0000 0.0000 0.0000
# 3 17.1885 50.1538 111.1498 0.0000 0.0000 0.0000
# 4 0.0000 0.0000 0.0000 33.4021 0.0000 0.0000
# 5 0.0000 0.0000 0.0000 0.0000 8.8618 0.0000
# 6 0.0000 0.0000 0.0000 0.0000 0.0000 17.8395
#
#
#
# Elastic Compliance Matrix: (Units=1/GPa)
#
#
# Indices 1 2 3 4 5 6 
#
# 1 0.020353 -0.003714 -0.001472 0.000000 0.000000 0.000000
# 2 -0.003714 0.014775 -0.006093 0.000000 0.000000 0.000000
# 3 -0.001472 -0.006093 0.011974 0.000000 0.000000 0.000000
# 4 0.000000 0.000000 0.000000 0.029938 0.000000 0.000000
# 5 0.000000 0.000000 0.000000 0.000000 0.112843 0.000000
# 6 0.000000 0.000000 0.000000 0.000000 0.000000 0.056055
#
#
# Mechanical properties :
#
#
# Convention : Reuss Voigt Hill
#
# Bulk Modulus (GPa) = 40.74079 48.32831 44.53455
# Shear Modulus (GPa) = 18.07158 23.40906 20.74032
#
# Velocity S-wave (km/s) = 3.16572 3.60301 3.39142
# Velocity P-wave (km/s) = 5.99629 6.64153 6.32714
#
# Compressibility (1/GPa) = 0.02454543
#
# Stress axis : x y z
#
# Youngs Moduli (GPa) = 49.13177 67.68197 83.51747
#
# Poissons Ratio (x) = 0.25138 0.12290
# Poissons Ratio (y) = 0.18249 0.50883
# Poissons Ratio (z) = 0.07230 0.41235
#
# Static dielectric constant tensor:
#      x y z
#    x 1.629480 0.000000 0.000000 
#    y 0.000000 1.671350 0.000000 
#    z 0.000000 0.000000 1.566950 
# 
# From -- ./inp_files/7191.got.cif
#   From: 2010.05.17/outbox.cif.g08.bks.cpg/sg57_4_cif.got.tgz:7191.got - 2010.06.03 13:58:18.
