data_PCOD9435441
_publ_section_title
;
Structure prediction by ZEFSAII (Michael W. Deem and Ramdas Pophale) SiO2 
 PCOD9435441
Probable space group: P B C M
;
_chemical_formula_sum "Si O2"
_cell_formula_units_Z 64
_cell_length_a 24.762460
_cell_length_b 15.617889
_cell_length_c 7.872202
_cell_angle_alpha 90.000000
_cell_angle_beta 90.000000
_cell_angle_gamma 90.000000
_cell_volume 3044.474553
_symmetry_space_group_name_H-M "P B C M"
_symmetry_group_IT_number 57
_symmetry_cell_setting 'orthorhombic'
loop_
_space_group_symop_operation_xyz
x,y,z
-x,-y,1/2+z
x,1/2-y,-z
-x,1/2+y,1/2-z
-x,-y,-z
x,y,1/2-z
-x,1/2+y,z
x,1/2-y,1/2+z
loop_
_atom_site_type_symbol
_atom_site_label
_atom_site_fract_x
_atom_site_fract_y
_atom_site_fract_z
Si Si1 0.458237 0.926580 0.439830
Si Si2 0.943448 0.347285 0.547183
Si Si3 0.259383 0.989103 0.041880
Si Si4 0.347331 0.649662 0.544314
Si Si5 0.671694 0.849795 0.545707
Si Si6 0.862586 0.496581 0.452026
Si Si7 0.557222 0.842900 0.950784
Si Si8 0.933679 0.652905 0.454866
O O1 0.443776 0.952178 0.250000
O O2 0.403326 0.893324 0.522383
O O3 0.501924 0.851403 0.448355
O O4 0.500000 0.000000 0.500000
O O5 0.928986 0.250000 0.500000
O O6 0.944152 0.354429 0.750000
O O7 0.901369 0.415893 0.479274
O O8 0.004825 0.362747 0.483182
O O9 0.260091 0.988212 0.250000
O O10 0.297553 0.910075 0.988322
O O11 0.197806 0.981860 0.981730
O O12 0.284533 0.080648 0.988963
O O13 0.343450 0.750000 0.500000
O O14 0.349544 0.646839 0.750000
O O15 0.683657 0.750000 0.500000
O O16 0.669307 0.849552 0.750000
O O17 0.612386 0.891090 0.496721
O O18 0.856819 0.509476 0.250000
O O19 0.892782 0.581054 0.520602
O O20 0.546749 0.852152 0.750000
O O21 0.577260 0.750000 0.000000
O O22 0.918548 0.750000 0.500000
O O23 0.935205 0.647167 0.250000
#
# Coordination Sequence:
#
# PCOD9435441 Si02
#       8
#     8   8   8   8   8   8   8   8
#     4  11  22  35  54  79 106 135 171 217 272 330
#     4  10  20  35  55  80 111 144 179 221 270 324
#     4   9  19  37  57  76 105 145 184 223 271 323
#     4  10  22  40  59  79 106 145 187 227 274 324
#     4   9  18  34  55  78 107 143 179 220 273 331
#     4  10  20  35  56  81 109 143 184 228 273 321
#     4  10  19  32  51  75 103 132 165 206 256 315
#     4   9  19  34  54  82 114 147 179 216 268 326
#
# _framework density 21.021691000000001
#
# number of rings (size 3 to 8) (size 9 to 14) (size 15 to 20)
#    0.000    2.250    0.000    2.625    0.000    6.500 
#    0.000    3.125    0.000    0.000    0.000    0.000 
#    0.000    0.000    0.000    0.000    0.000    0.000 
#
# Total GULP energy -356580.100597 kJ/mol
# GULP energy per Si atom -5571.564072 kJ/mol
# Density = 2.097384 g / cm^3
# Si number density = 21.021691 Si / 1000 Ang^3
#
#
#
# Elastic Constant Matrix: (Units=GPa)
#
#
# Indices 1 2 3 4 5 6 
#
# 1 185.7951 116.2405 10.6571 0.0000 0.0000 0.0000
# 2 116.2405 146.8301 -2.9879 0.0000 0.0000 0.0000
# 3 10.6571 -2.9879 19.0538 0.0000 0.0000 0.0000
# 4 0.0000 0.0000 0.0000 23.9065 0.0000 0.0000
# 5 0.0000 0.0000 0.0000 0.0000 6.5438 0.0000
# 6 0.0000 0.0000 0.0000 0.0000 0.0000 4.8757
#
#
#
# Elastic Compliance Matrix: (Units=1/GPa)
#
#
# Indices 1 2 3 4 5 6 
#
# 1 0.011787 -0.009495 -0.008081 0.000000 0.000000 0.000000
# 2 -0.009495 0.014482 0.007582 0.000000 0.000000 0.000000
# 3 -0.008081 0.007582 0.058192 0.000000 0.000000 0.000000
# 4 0.000000 0.000000 0.000000 0.041830 0.000000 0.000000
# 5 0.000000 0.000000 0.000000 0.000000 0.152817 0.000000
# 6 0.000000 0.000000 0.000000 0.000000 0.000000 0.205099
#
#
# Mechanical properties :
#
#
# Convention : Reuss Voigt Hill
#
# Bulk Modulus (GPa) = 15.51089 66.61093 41.06091
# Shear Modulus (GPa) = 9.51138 22.24982 15.88060
#
# Velocity S-wave (km/s) = 2.12941 3.25687 2.75151
# Velocity P-wave (km/s) = 3.66611 6.77484 5.44696
#
# Compressibility (1/GPa) = 0.06447085
#
# Stress axis : x y z
#
# Youngs Moduli (GPa) = 84.84257 69.05069 17.18448
#
# Poissons Ratio (x) = 0.65567 0.13888
# Poissons Ratio (y) = 0.80562 -0.13029
# Poissons Ratio (z) = 0.68565 -0.52354
#
# Static dielectric constant tensor:
#      x y z
#    x 1.956100 0.000000 0.000000 
#    y 0.000000 1.821560 0.000000 
#    z 0.000000 0.000000 1.804170 
# 
# From -- ./inp_files/9510.got.cif
#   From: 2010.05.17/outbox.cif.g08.bks.cpg/sg57_5_cif.got.tgz:9510.got - 2010.06.03 13:58:18.
