data_PCOD9435048
_publ_section_title
;
Structure prediction by ZEFSAII (Michael W. Deem and Ramdas Pophale) SiO2 
 PCOD9435048
Probable space group: P B C M
;
_chemical_formula_sum "Si O2"
_cell_formula_units_Z 64
_cell_length_a 17.292469
_cell_length_b 24.328180
_cell_length_c 8.783380
_cell_angle_alpha 90.000000
_cell_angle_beta 90.000000
_cell_angle_gamma 90.000000
_cell_volume 3695.117887
_symmetry_space_group_name_H-M "P B C M"
_symmetry_group_IT_number 57
_symmetry_cell_setting 'orthorhombic'
loop_
_space_group_symop_operation_xyz
x,y,z
-x,-y,1/2+z
x,1/2-y,-z
-x,1/2+y,1/2-z
-x,-y,-z
x,y,1/2-z
-x,1/2+y,z
x,1/2-y,1/2+z
loop_
_atom_site_type_symbol
_atom_site_label
_atom_site_fract_x
_atom_site_fract_y
_atom_site_fract_z
Si Si1 0.749544 0.811545 0.568404
Si Si2 0.728696 0.130296 0.432499
Si Si3 0.870704 0.193423 0.571321
Si Si4 0.582124 0.188298 0.932021
Si Si5 0.590444 0.688588 0.567722
Si Si6 0.968647 0.415882 0.428971
Si Si7 0.175927 0.525098 0.067272
Si Si8 0.853332 0.905381 0.434495
O O1 0.758828 0.750000 0.500000
O O2 0.748162 0.807606 0.750000
O O3 0.667392 0.835431 0.507642
O O4 0.815656 0.852443 0.510580
O O5 0.723639 0.130352 0.250000
O O6 0.793313 0.173855 0.486148
O O7 0.647839 0.148950 0.502346
O O8 0.762368 0.070995 0.485012
O O9 0.898709 0.250000 0.500000
O O10 0.854027 0.200107 0.750000
O O11 0.932596 0.144877 0.553951
O O12 0.589472 0.192687 0.750000
O O13 0.495316 0.166328 0.966161
O O14 0.590388 0.250000 0.000000
O O15 0.587680 0.750000 0.500000
O O16 0.600412 0.690233 0.750000
O O17 0.967417 0.430365 0.250000
O O18 0.909061 0.455650 0.513868
O O19 0.057164 0.414094 0.479279
O O20 0.175995 0.526507 0.250000
O O21 0.189469 0.462187 0.021428
O O22 0.850545 0.899254 0.250000
#
# Coordination Sequence:
#
# PCOD9435048 Si02
#       8
#     8   8   8   8   8   8   8   8
#     4  11  22  36  55  79 105 133 163 199 247 298
#     4  10  19  31  47  70  99 132 167 203 244 289
#     4  10  19  31  45  65  95 131 166 201 245 294
#     4  10  19  30  48  75 103 133 166 202 244 290
#     4   9  17  31  51  74 101 131 162 198 243 292
#     4   9  19  33  51  73  98 129 166 211 256 296
#     4   9  19  34  53  74  99 132 168 208 252 295
#     4  10  20  36  55  76 101 129 165 208 252 298
#
# _framework density 17.320152
#
# number of rings (size 3 to 8) (size 9 to 14) (size 15 to 20)
#    0.000    2.250    0.000    4.125    0.000    4.000 
#    0.000    1.250    0.000    0.750    0.000    0.000 
#    0.000    0.000    0.000    0.000    0.000    0.000 
#
# Total GULP energy -356909.465534 kJ/mol
# GULP energy per Si atom -5576.710399 kJ/mol
# Density = 1.728073 g / cm^3
# Si number density = 17.320152 Si / 1000 Ang^3
#
#
#
# Elastic Constant Matrix: (Units=GPa)
#
#
# Indices 1 2 3 4 5 6 
#
# 1 85.5745 44.7268 28.0445 0.0000 0.0000 0.0000
# 2 44.7268 85.7600 36.0243 0.0000 0.0000 0.0000
# 3 28.0445 36.0243 56.1288 0.0000 0.0000 0.0000
# 4 0.0000 0.0000 0.0000 15.8065 0.0000 0.0000
# 5 0.0000 0.0000 0.0000 0.0000 21.8737 0.0000
# 6 0.0000 0.0000 0.0000 0.0000 0.0000 11.7065
#
#
#
# Elastic Compliance Matrix: (Units=1/GPa)
#
#
# Indices 1 2 3 4 5 6 
#
# 1 0.016623 -0.007093 -0.003753 0.000000 0.000000 0.000000
# 2 -0.007093 0.018991 -0.008645 0.000000 0.000000 0.000000
# 3 -0.003753 -0.008645 0.025240 0.000000 0.000000 0.000000
# 4 0.000000 0.000000 0.000000 0.063265 0.000000 0.000000
# 5 0.000000 0.000000 0.000000 0.000000 0.045717 0.000000
# 6 0.000000 0.000000 0.000000 0.000000 0.000000 0.085422
#
#
# Mechanical properties :
#
#
# Convention : Reuss Voigt Hill
#
# Bulk Modulus (GPa) = 45.72075 49.45051 47.58563
# Shear Modulus (GPa) = 16.58206 17.78852 17.18529
#
# Velocity S-wave (km/s) = 3.09752 3.20823 3.15336
# Velocity P-wave (km/s) = 6.26479 6.50665 6.38686
#
# Compressibility (1/GPa) = 0.02187191
#
# Stress axis : x y z
#
# Youngs Moduli (GPa) = 60.15790 52.65671 39.61996
#
# Poissons Ratio (x) = 0.37349 0.14870
# Poissons Ratio (y) = 0.42669 0.34251
# Poissons Ratio (z) = 0.22579 0.45520
#
# Static dielectric constant tensor:
#      x y z
#    x 1.601940 0.000000 0.000000 
#    y 0.000000 1.576400 0.000000 
#    z 0.000000 0.000000 1.582560 
# 
# From -- ./inp_files/7438.got.cif
#   From: 2010.05.17/outbox.cif.g08.bks.cpg/sg57_4_cif.got.tgz:7438.got - 2010.06.03 13:58:18.
