data_PCOD9435902
_publ_section_title
;
Structure prediction by ZEFSAII (Michael W. Deem and Ramdas Pophale) SiO2 
 PCOD9435902
Probable space group: P B C M
;
_chemical_formula_sum "Si O2"
_cell_formula_units_Z 64
_cell_length_a 24.037745
_cell_length_b 9.617457
_cell_length_c 13.760496
_cell_angle_alpha 90.000000
_cell_angle_beta 90.000000
_cell_angle_gamma 90.000000
_cell_volume 3181.178696
_symmetry_space_group_name_H-M "P B C M"
_symmetry_group_IT_number 57
_symmetry_cell_setting 'orthorhombic'
loop_
_space_group_symop_operation_xyz
x,y,z
-x,-y,1/2+z
x,1/2-y,-z
-x,1/2+y,1/2-z
-x,-y,-z
x,y,1/2-z
-x,1/2+y,z
x,1/2-y,1/2+z
loop_
_atom_site_type_symbol
_atom_site_label
_atom_site_fract_x
_atom_site_fract_y
_atom_site_fract_z
Si Si1 0.670338 0.601375 0.472508
Si Si2 0.444847 0.087580 0.131709
Si Si3 0.253351 0.900295 0.136671
Si Si4 0.931735 0.013370 0.133985
Si Si5 0.329237 0.864764 0.866675
Si Si6 0.035170 0.669088 0.634039
Si Si7 0.448514 0.734527 0.633535
Si Si8 0.142184 0.587653 0.975481
O O1 0.695658 0.750000 0.500000
O O2 0.609132 0.629521 0.429166
O O3 0.700529 0.514240 0.388293
O O4 0.673863 0.500762 0.566538
O O5 0.436328 0.101114 0.250000
O O6 0.499098 0.174393 0.102967
O O7 0.454345 0.925978 0.108170
O O8 0.239502 0.896800 0.250000
O O9 0.280555 0.748767 0.113652
O O10 0.199138 0.945708 0.077197
O O11 0.922580 0.006588 0.250000
O O12 0.956919 0.167482 0.110893
O O13 0.875139 0.006345 0.072586
O O14 0.976783 0.898317 0.104069
O O15 0.328775 0.893170 0.750000
O O16 0.388246 0.793923 0.893257
O O17 0.037292 0.658049 0.750000
O O18 0.087275 0.584083 0.591798
O O19 0.448988 0.740331 0.750000
O O20 0.148731 0.750000 0.000000
#
# Coordination Sequence:
#
# PCOD9435902 Si02
#       8
#     8   8   8   8   8   8   8   8
#     4  12  26  41  60  92 122 161 196 247 313 382
#     4  10  21  39  62  89 125 161 197 245 303 368
#     4  11  23  44  69  87 113 156 209 266 314 365
#     4   9  18  32  53  84 125 163 198 245 298 355
#     4  10  22  42  64  87 118 159 206 256 305 363
#     4   9  17  31  51  81 118 157 199 242 297 352
#     4   9  19  36  60  90 121 157 197 243 299 361
#     4  10  19  33  58  88 114 152 207 260 300 357
#
# _framework density 20.118328999999999
#
# number of rings (size 3 to 8) (size 9 to 14) (size 15 to 20)
#    0.000    2.000    1.250    2.250    1.750    2.000 
#    0.000    1.875    0.000    1.500    0.000    0.000 
#    0.000    0.000    0.000    0.000    0.000    0.000 
#
# Total GULP energy -357374.047553 kJ/mol
# GULP energy per Si atom -5583.969493 kJ/mol
# Density = 2.007254 g / cm^3
# Si number density = 20.118329 Si / 1000 Ang^3
#
#
#
# Elastic Constant Matrix: (Units=GPa)
#
#
# Indices 1 2 3 4 5 6 
#
# 1 102.3524 13.6855 44.9872 0.0000 0.0000 0.0000
# 2 13.6855 66.8078 28.4487 0.0000 0.0000 0.0000
# 3 44.9872 28.4487 91.7722 0.0000 0.0000 0.0000
# 4 0.0000 0.0000 0.0000 21.2127 0.0000 0.0000
# 5 0.0000 0.0000 0.0000 0.0000 38.2609 0.0000
# 6 0.0000 0.0000 0.0000 0.0000 0.0000 17.7001
#
#
#
# Elastic Compliance Matrix: (Units=1/GPa)
#
#
# Indices 1 2 3 4 5 6 
#
# 1 0.012454 0.000056 -0.006122 0.000000 0.000000 0.000000
# 2 0.000056 0.017245 -0.005373 0.000000 0.000000 0.000000
# 3 -0.006122 -0.005373 0.015563 0.000000 0.000000 0.000000
# 4 0.000000 0.000000 0.000000 0.047142 0.000000 0.000000
# 5 0.000000 0.000000 0.000000 0.000000 0.026136 0.000000
# 6 0.000000 0.000000 0.000000 0.000000 0.000000 0.056497
#
#
# Mechanical properties :
#
#
# Convention : Reuss Voigt Hill
#
# Bulk Modulus (GPa) = 44.67695 48.35280 46.51487
# Shear Modulus (GPa) = 24.34556 27.02215 25.68385
#
# Velocity S-wave (km/s) = 3.48245 3.66889 3.57689
# Velocity P-wave (km/s) = 6.19881 6.48337 6.34268
#
# Compressibility (1/GPa) = 0.02238291
#
# Stress axis : x y z
#
# Youngs Moduli (GPa) = 80.29823 57.98810 64.25371
#
# Poissons Ratio (x) = -0.00324 0.39337
# Poissons Ratio (y) = -0.00449 0.34525
# Poissons Ratio (z) = 0.49160 0.31158
#
# Static dielectric constant tensor:
#      x y z
#    x 1.712150 0.000000 0.000000 
#    y 0.000000 1.665250 0.000000 
#    z 0.000000 0.000000 1.751100 
# 
# From -- ./inp_files/19474.got.cif
#   From: 2010.05.17/outbox.cif.g08.bks.cpg/sg57_10_cif.got.tgz:19474.got - 2010.06.03 13:58:18.
