data_PCOD9435182
_publ_section_title
;
Structure prediction by ZEFSAII (Michael W. Deem and Ramdas Pophale) SiO2 
 PCOD9435182
Probable space group: P B C M
;
_chemical_formula_sum "Si O2"
_cell_formula_units_Z 48
_cell_length_a 32.965416
_cell_length_b 9.562539
_cell_length_c 8.581243
_cell_angle_alpha 90.000000
_cell_angle_beta 90.000000
_cell_angle_gamma 90.000000
_cell_volume 2705.091628
_symmetry_space_group_name_H-M "P B C M"
_symmetry_group_IT_number 57
_symmetry_cell_setting 'orthorhombic'
loop_
_space_group_symop_operation_xyz
x,y,z
-x,-y,1/2+z
x,1/2-y,-z
-x,1/2+y,1/2-z
-x,-y,-z
x,y,1/2-z
-x,1/2+y,z
x,1/2-y,1/2+z
loop_
_atom_site_type_symbol
_atom_site_label
_atom_site_fract_x
_atom_site_fract_y
_atom_site_fract_z
Si Si1 0.710017 0.091894 0.563144
Si Si2 0.874675 0.908552 0.562212
Si Si3 0.036734 0.408387 0.937227
Si Si4 0.463449 0.592082 0.436658
Si Si5 0.374162 0.908931 0.936692
Si Si6 0.213751 0.408201 0.938558
O O1 0.713273 0.250000 0.500000
O O2 0.709509 0.097175 0.750000
O O3 0.667083 0.028806 0.505858
O O4 0.748544 0.001922 0.509427
O O5 0.874591 0.750000 0.500000
O O6 0.874714 0.906420 0.750000
O O7 0.830748 0.967067 0.512962
O O8 0.918618 0.967100 0.513879
O O9 0.035219 0.405088 0.750000
O O10 0.033607 0.250000 0.000000
O O11 0.000000 0.500000 0.000000
O O12 0.466596 0.750000 0.500000
O O13 0.500000 0.500000 0.500000
O O14 0.465157 0.596871 0.250000
O O15 0.418590 0.533389 0.480416
O O16 0.370949 0.906870 0.750000
O O17 0.374820 0.750000 0.000000
O O18 0.214560 0.403722 0.750000
O O19 0.217378 0.250000 0.000000
#
# Coordination Sequence:
#
# PCOD9435182 Si02
#       6
#     8   8   8   8   8   8
#     4  10  19  31  49  72  97 126 159 196 236 280
#     4   8  15  29  48  68  92 123 158 195 234 282
#     4  10  19  32  51  73  98 128 162 201 244 290
#     4  10  20  34  53  76 101 130 164 203 245 290
#     4   9  17  30  49  71  95 126 162 196 234 283
#     4   9  18  32  50  72  96 123 158 197 238 283
#
# _framework density 17.744316000000001
#
# number of rings (size 3 to 8) (size 9 to 14) (size 15 to 20)
#    0.000    2.667    0.000    3.000    0.000    4.000 
#    0.000    1.667    0.000    4.000    0.000    0.000 
#    0.000    0.000    0.000    0.000    0.000    0.000 
#
# Total GULP energy -267247.437603 kJ/mol
# GULP energy per Si atom -5567.654950 kJ/mol
# Density = 1.770393 g / cm^3
# Si number density = 17.744316 Si / 1000 Ang^3
#
#
#
# Elastic Constant Matrix: (Units=GPa)
#
#
# Indices 1 2 3 4 5 6 
#
# 1 242.5335 65.6683 46.1683 0.0000 0.0000 0.0000
# 2 65.6683 40.5252 14.3576 0.0000 0.0000 0.0000
# 3 46.1683 14.3576 39.2004 0.0000 0.0000 0.0000
# 4 0.0000 0.0000 0.0000 22.0506 0.0000 0.0000
# 5 0.0000 0.0000 0.0000 0.0000 26.6530 0.0000
# 6 0.0000 0.0000 0.0000 0.0000 0.0000 33.8900
#
#
#
# Elastic Compliance Matrix: (Units=1/GPa)
#
#
# Indices 1 2 3 4 5 6 
#
# 1 0.008282 -0.011450 -0.005560 0.000000 0.000000 0.000000
# 2 -0.011450 0.044186 -0.002698 0.000000 0.000000 0.000000
# 3 -0.005560 -0.002698 0.033047 0.000000 0.000000 0.000000
# 4 0.000000 0.000000 0.000000 0.045350 0.000000 0.000000
# 5 0.000000 0.000000 0.000000 0.000000 0.037519 0.000000
# 6 0.000000 0.000000 0.000000 0.000000 0.000000 0.029507
#
#
# Mechanical properties :
#
#
# Convention : Reuss Voigt Hill
#
# Bulk Modulus (GPa) = 21.69311 63.84971 42.77141
# Shear Modulus (GPa) = 19.78830 29.58971 24.68901
#
# Velocity S-wave (km/s) = 3.34307 4.08801 3.73416
# Velocity P-wave (km/s) = 5.21089 7.63831 6.53824
#
# Compressibility (1/GPa) = 0.04609758
#
# Stress axis : x y z
#
# Youngs Moduli (GPa) = 120.74640 22.63146 30.26022
#
# Poissons Ratio (x) = 0.25914 0.16825
# Poissons Ratio (y) = 1.38257 0.08165
# Poissons Ratio (z) = 0.67137 0.06106
#
# Static dielectric constant tensor:
#      x y z
#    x 1.686900 0.000000 0.000000 
#    y 0.000000 1.557880 0.000000 
#    z 0.000000 0.000000 1.602430 
# 
# From -- ./inp_files/9687.got.cif
#   From: 2010.05.17/outbox.cif.g08.bks.cpg/sg57_5_cif.got.tgz:9687.got - 2010.06.03 13:58:18.
