data_PCOD9435597
_publ_section_title
;
Structure prediction by ZEFSAII (Michael W. Deem and Ramdas Pophale) SiO2 
 PCOD9435597
Probable space group: P B C M
;
_chemical_formula_sum "Si O2"
_cell_formula_units_Z 48
_cell_length_a 9.773603
_cell_length_b 11.017360
_cell_length_c 18.161914
_cell_angle_alpha 90.000000
_cell_angle_beta 90.000000
_cell_angle_gamma 90.000000
_cell_volume 1955.662236
_symmetry_space_group_name_H-M "P B C M"
_symmetry_group_IT_number 57
_symmetry_cell_setting 'orthorhombic'
loop_
_space_group_symop_operation_xyz
x,y,z
-x,-y,1/2+z
x,1/2-y,-z
-x,1/2+y,1/2-z
-x,-y,-z
x,y,1/2-z
-x,1/2+y,z
x,1/2-y,1/2+z
loop_
_atom_site_type_symbol
_atom_site_label
_atom_site_fract_x
_atom_site_fract_y
_atom_site_fract_z
Si Si1 0.809111 0.351099 0.833213
Si Si2 0.422153 0.381194 0.527439
Si Si3 0.412140 0.258709 0.336015
Si Si4 0.330549 0.590512 0.835339
Si Si5 0.945150 0.998258 0.662386
Si Si6 0.799836 0.913145 0.087582
O O1 0.770930 0.389505 0.750000
O O2 0.753541 0.218041 0.842884
O O3 0.972953 0.370779 0.839011
O O4 0.752525 0.450957 0.888990
O O5 0.477471 0.250000 0.500000
O O6 0.500000 0.500000 0.500000
O O7 0.433836 0.360921 0.615069
O O8 0.270024 0.387290 0.490709
O O9 0.427917 0.235398 0.250000
O O10 0.520641 0.363784 0.359262
O O11 0.267588 0.316224 0.357432
O O12 0.349397 0.558571 0.750000
O O13 0.210783 0.501204 0.862300
O O14 0.951482 0.037197 0.750000
O O15 0.039583 0.078226 0.607112
#
# Coordination Sequence:
#
# PCOD9435597 Si02
#       6
#     8   8   8   8   8   8
#     4   8  14  26  48  75 108 151 192 234 296 361
#     4  10  21  37  60  87 118 161 208 255 308 370
#     4  10  19  32  56  91 122 155 203 258 309 372
#     4   9  16  27  49  78 112 150 191 240 298 362
#     4   8  15  28  50  78 110 153 196 239 295 363
#     4   9  17  32  55  81 113 155 200 244 301 363
#
# _framework density 24.544114
#
# number of rings (size 3 to 8) (size 9 to 14) (size 15 to 20)
#    1.000    2.000    0.000    2.000    0.000    0.000 
#    0.000    3.333   18.333    9.000    0.000   19.833 
#    0.000    0.000    0.000    0.000    0.000    0.000 
#
# Total GULP energy -267326.974440 kJ/mol
# GULP energy per Si atom -5569.311968 kJ/mol
# Density = 2.448825 g / cm^3
# Si number density = 24.544114 Si / 1000 Ang^3
#
#
#
# Elastic Constant Matrix: (Units=GPa)
#
#
# Indices 1 2 3 4 5 6 
#
# 1 115.7482 19.6072 25.2060 0.0000 0.0000 0.0000
# 2 19.6072 71.5678 40.1447 0.0000 0.0000 0.0000
# 3 25.2060 40.1447 139.5498 0.0000 0.0000 0.0000
# 4 0.0000 0.0000 0.0000 36.8284 0.0000 0.0000
# 5 0.0000 0.0000 0.0000 0.0000 15.6662 0.0000
# 6 0.0000 0.0000 0.0000 0.0000 0.0000 36.7077
#
#
#
# Elastic Compliance Matrix: (Units=1/GPa)
#
#
# Indices 1 2 3 4 5 6 
#
# 1 0.009204 -0.001895 -0.001117 0.000000 0.000000 0.000000
# 2 -0.001895 0.017051 -0.004563 0.000000 0.000000 0.000000
# 3 -0.001117 -0.004563 0.008680 0.000000 0.000000 0.000000
# 4 0.000000 0.000000 0.000000 0.027153 0.000000 0.000000
# 5 0.000000 0.000000 0.000000 0.000000 0.063832 0.000000
# 6 0.000000 0.000000 0.000000 0.000000 0.000000 0.027242
#
#
# Mechanical properties :
#
#
# Convention : Reuss Voigt Hill
#
# Bulk Modulus (GPa) = 50.54255 55.19795 52.87025
# Shear Modulus (GPa) = 28.58653 33.96767 31.27710
#
# Velocity S-wave (km/s) = 3.41647 3.72417 3.57364
# Velocity P-wave (km/s) = 6.01667 6.40552 6.21414
#
# Compressibility (1/GPa) = 0.01978531
#
# Stress axis : x y z
#
# Youngs Moduli (GPa) = 108.65164 58.64621 115.20256
#
# Poissons Ratio (x) = 0.11112 0.12872
# Poissons Ratio (y) = 0.20587 0.52567
# Poissons Ratio (z) = 0.12140 0.26760
#
# Static dielectric constant tensor:
#      x y z
#    x 1.969800 0.000000 0.000000 
#    y 0.000000 2.021880 0.000000 
#    z 0.000000 0.000000 1.998570 
# 
# From -- ./inp_files/25122.got.cif
#   From: 2010.05.17/outbox.cif.g08.bks.cpg/sg57_13_cif.got.tgz:25122.got - 2010.06.03 13:58:18.
