data_PCOD9435858
_publ_section_title
;
Structure prediction by ZEFSAII (Michael W. Deem and Ramdas Pophale) SiO2 
 PCOD9435858
Probable space group: P B C M
;
_chemical_formula_sum "Si O2"
_cell_formula_units_Z 64
_cell_length_a 13.657949
_cell_length_b 9.797421
_cell_length_c 22.792403
_cell_angle_alpha 90.000000
_cell_angle_beta 90.000000
_cell_angle_gamma 90.000000
_cell_volume 3049.912446
_symmetry_space_group_name_H-M "P B C M"
_symmetry_group_IT_number 57
_symmetry_cell_setting 'orthorhombic'
loop_
_space_group_symop_operation_xyz
x,y,z
-x,-y,1/2+z
x,1/2-y,-z
-x,1/2+y,1/2-z
-x,-y,-z
x,y,1/2-z
-x,1/2+y,z
x,1/2-y,1/2+z
loop_
_atom_site_type_symbol
_atom_site_label
_atom_site_fract_x
_atom_site_fract_y
_atom_site_fract_z
Si Si1 0.282131 0.640093 0.952802
Si Si2 0.059769 0.215294 0.318902
Si Si3 0.772112 0.592196 0.641611
Si Si4 0.344369 0.103087 0.530576
Si Si5 0.481959 0.777945 0.072431
Si Si6 0.843060 0.181818 0.184532
Si Si7 0.384663 0.188176 0.318632
Si Si8 0.788908 0.477379 0.157165
O O1 0.368397 0.705923 0.913123
O O2 0.206061 0.565585 0.911041
O O3 0.245415 0.750000 0.000000
O O4 0.336402 0.518496 0.986274
O O5 0.050269 0.247108 0.250000
O O6 0.124881 0.335886 0.345525
O O7 0.950779 0.198005 0.343555
O O8 0.123113 0.077542 0.325707
O O9 0.745572 0.603683 0.574011
O O10 0.777601 0.433014 0.655148
O O11 0.688042 0.680005 0.674869
O O12 0.342656 0.250000 0.500000
O O13 0.444966 0.092313 0.567465
O O14 0.538040 0.697364 0.126107
O O15 0.473783 0.750000 0.000000
O O16 0.859438 0.127683 0.250000
O O17 0.796747 0.331077 0.187180
O O18 0.420161 0.183086 0.250000
O O19 0.311150 0.060374 0.329915
#
# Coordination Sequence:
#
# PCOD9435858 Si02
#       8
#     8   8   8   8   8   8   8   8
#     4  11  22  37  59  85 115 151 200 252 295 349
#     4  10  20  36  58  82 112 152 194 235 290 366
#     4  10  19  33  56  82 113 150 188 239 301 359
#     4  10  19  35  59  83 108 145 197 246 292 351
#     4   9  19  36  60  85 110 151 201 242 283 346
#     4  11  21  34  55  84 114 146 191 242 293 357
#     4  10  20  37  59  85 121 160 198 246 308 368
#     4  11  21  36  59  86 117 152 192 244 299 355
#
# _framework density 20.984210000000001
#
# number of rings (size 3 to 8) (size 9 to 14) (size 15 to 20)
#    0.000    1.750    0.000    7.875    0.000    3.000 
#    0.000    1.875    0.000   15.000    0.000    0.000 
#    0.000    0.000    0.000    0.000    0.000    0.000 
#
# Total GULP energy -356414.251103 kJ/mol
# GULP energy per Si atom -5568.972673 kJ/mol
# Density = 2.093645 g / cm^3
# Si number density = 20.984210 Si / 1000 Ang^3
#
#
#
# Elastic Constant Matrix: (Units=GPa)
#
#
# Indices 1 2 3 4 5 6 
#
# 1 33.1333 18.6669 30.8837 0.0000 0.0000 0.0000
# 2 18.6669 113.4983 26.7434 0.0000 0.0000 0.0000
# 3 30.8837 26.7434 87.2533 0.0000 0.0000 0.0000
# 4 0.0000 0.0000 0.0000 11.5112 0.0000 0.0000
# 5 0.0000 0.0000 0.0000 0.0000 -407.0318 0.0000
# 6 0.0000 0.0000 0.0000 0.0000 0.0000 13.5204
#
#
#
# Elastic Compliance Matrix: (Units=1/GPa)
#
#
# Indices 1 2 3 4 5 6 
#
# 1 0.046734 -0.004083 -0.015290 0.000000 0.000000 0.000000
# 2 -0.004083 0.009853 -0.001575 0.000000 0.000000 0.000000
# 3 -0.015290 -0.001575 0.017355 0.000000 0.000000 0.000000
# 4 0.000000 0.000000 0.000000 0.086872 0.000000 0.000000
# 5 0.000000 0.000000 0.000000 0.000000 -0.002457 0.000000
# 6 0.000000 0.000000 0.000000 0.000000 0.000000 0.073962
#
#
# Mechanical properties :
#
#
# Convention : Reuss Voigt Hill
#
# Bulk Modulus (GPa) = 31.20504 42.94144 37.07324
# Shear Modulus (GPa) = 17.55012 -65.89399 -24.17193
#
# Velocity S-wave (km/s) = 2.89511 -5.60980 -3.39766
# Velocity P-wave (km/s) = 5.10671 4.63160 1.52099
#
# Compressibility (1/GPa) = 0.03204611
#
# Stress axis : x y z
#
# Youngs Moduli (GPa) = 21.39791 101.48826 57.61865
#
# Poissons Ratio (x) = 0.41442 0.88099
# Poissons Ratio (y) = 0.08738 0.09073
# Poissons Ratio (z) = 0.32717 0.15982
#
# Static dielectric constant tensor:
#      x y z
#    x 1.816780 0.000000 0.000000 
#    y 0.000000 1.771210 0.000000 
#    z 0.000000 0.000000 1.818180 
# 
# From -- ./inp_files/27477.got.cif
#   From: 2010.05.17/outbox.cif.g08.bks.cpg/sg57_14_cif.got.tgz:27477.got - 2010.06.03 13:58:18.
