data_PCOD9435677
_publ_section_title
;
Structure prediction by ZEFSAII (Michael W. Deem and Ramdas Pophale) SiO2 
 PCOD9435677
Probable space group: P B C M
;
_chemical_formula_sum "Si O2"
_cell_formula_units_Z 40
_cell_length_a 5.157976
_cell_length_b 18.081046
_cell_length_c 17.514242
_cell_angle_alpha 90.000000
_cell_angle_beta 90.000000
_cell_angle_gamma 90.000000
_cell_volume 1633.406255
_symmetry_space_group_name_H-M "P B C M"
_symmetry_group_IT_number 57
_symmetry_cell_setting 'orthorhombic'
loop_
_space_group_symop_operation_xyz
x,y,z
-x,-y,1/2+z
x,1/2-y,-z
-x,1/2+y,1/2-z
-x,-y,-z
x,y,1/2-z
-x,1/2+y,z
x,1/2-y,1/2+z
loop_
_atom_site_type_symbol
_atom_site_label
_atom_site_fract_x
_atom_site_fract_y
_atom_site_fract_z
Si Si1 0.626009 0.939044 0.158129
Si Si2 0.717235 0.410010 0.573942
Si Si3 0.782657 0.829328 0.961240
Si Si4 0.883089 0.348343 0.340553
Si Si5 0.448505 0.715278 0.164239
O O1 0.669096 0.954258 0.250000
O O2 0.682622 0.007506 0.102677
O O3 0.327989 0.913841 0.151233
O O4 0.831862 0.874688 0.135503
O O5 0.480017 0.376374 0.524509
O O6 0.701885 0.361040 0.651562
O O7 0.979287 0.384841 0.533778
O O8 0.720830 0.802196 0.874776
O O9 0.810964 0.750000 0.000000
O O10 0.911369 0.333091 0.250000
O O11 0.730382 0.277914 0.374632
O O12 0.495066 0.737061 0.250000
#
# Coordination Sequence:
#
# PCOD9435677 Si02
#       5
#     8   8   8   8   8
#     4  10  19  33  52  82 118 147 176 226 291 338
#     4  10  21  35  59  83 110 146 189 235 270 331
#     4  10  22  38  59  82 112 152 189 234 284 332
#     4   9  19  32  51  78 117 149 173 221 289 341
#     4   9  21  36  59  89 111 142 192 239 278 327
#
# _framework density 24.488705
#
# number of rings (size 3 to 8) (size 9 to 14) (size 15 to 20)
#    1.200    1.200    0.000    2.400    2.800    1.600 
#    0.000    0.000    0.000    7.200    0.000    0.000 
#    0.000    0.000    0.000    0.000    0.000    0.000 
#
# Total GULP energy -223284.105355 kJ/mol
# GULP energy per Si atom -5582.102634 kJ/mol
# Density = 2.443297 g / cm^3
# Si number density = 24.488705 Si / 1000 Ang^3
#
#
#
# Elastic Constant Matrix: (Units=GPa)
#
#
# Indices 1 2 3 4 5 6 
#
# 1 150.6306 5.1060 11.6242 0.0000 0.0000 0.0000
# 2 5.1060 95.1122 -2.9800 0.0000 0.0000 0.0000
# 3 11.6242 -2.9800 55.8323 0.0000 0.0000 0.0000
# 4 0.0000 0.0000 0.0000 34.8458 0.0000 0.0000
# 5 0.0000 0.0000 0.0000 0.0000 26.6294 0.0000
# 6 0.0000 0.0000 0.0000 0.0000 0.0000 28.1973
#
#
#
# Elastic Compliance Matrix: (Units=1/GPa)
#
#
# Indices 1 2 3 4 5 6 
#
# 1 0.006763 -0.000408 -0.001430 0.000000 0.000000 0.000000
# 2 -0.000408 0.010556 0.000648 0.000000 0.000000 0.000000
# 3 -0.001430 0.000648 0.018243 0.000000 0.000000 0.000000
# 4 0.000000 0.000000 0.000000 0.028698 0.000000 0.000000
# 5 0.000000 0.000000 0.000000 0.000000 0.037553 0.000000
# 6 0.000000 0.000000 0.000000 0.000000 0.000000 0.035464
#
#
# Mechanical properties :
#
#
# Convention : Reuss Voigt Hill
#
# Bulk Modulus (GPa) = 30.13550 36.56394 33.34972
# Shear Modulus (GPa) = 33.17482 37.12281 35.14881
#
# Velocity S-wave (km/s) = 3.68462 3.89770 3.79265
# Velocity P-wave (km/s) = 5.51674 5.93460 5.72948
#
# Compressibility (1/GPa) = 0.03318346
#
# Stress axis : x y z
#
# Youngs Moduli (GPa) = 147.86512 94.73186 54.81530
#
# Poissons Ratio (x) = 0.03864 0.07837
# Poissons Ratio (y) = 0.06031 -0.03554
# Poissons Ratio (z) = 0.21142 -0.06142
#
# Static dielectric constant tensor:
#      x y z
#    x 1.938690 0.000000 0.000000 
#    y 0.000000 1.934330 0.000000 
#    z 0.000000 0.000000 2.060960 
# 
# From -- ./inp_files/23576.got.cif
#   From: 2010.05.17/outbox.cif.g08.bks.cpg/sg57_12_cif.got.tgz:23576.got - 2010.06.03 13:58:18.
