data_PCOD9435212
_publ_section_title
;
Structure prediction by ZEFSAII (Michael W. Deem and Ramdas Pophale) SiO2 
 PCOD9435212
Probable space group: P B C M
;
_chemical_formula_sum "Si O2"
_cell_formula_units_Z 48
_cell_length_a 15.526818
_cell_length_b 21.432090
_cell_length_c 8.050610
_cell_angle_alpha 90.000000
_cell_angle_beta 90.000000
_cell_angle_gamma 90.000000
_cell_volume 2679.018885
_symmetry_space_group_name_H-M "P B C M"
_symmetry_group_IT_number 57
_symmetry_cell_setting 'orthorhombic'
loop_
_space_group_symop_operation_xyz
x,y,z
-x,-y,1/2+z
x,1/2-y,-z
-x,1/2+y,1/2-z
-x,-y,-z
x,y,1/2-z
-x,1/2+y,z
x,1/2-y,1/2+z
loop_
_atom_site_type_symbol
_atom_site_label
_atom_site_fract_x
_atom_site_fract_y
_atom_site_fract_z
Si Si1 0.567994 0.446417 0.549611
Si Si2 0.885828 0.683184 0.052082
Si Si3 0.304324 0.157635 0.052795
Si Si4 0.269045 0.480665 0.451795
Si Si5 0.507998 0.815763 0.549395
Si Si6 0.922998 0.545065 0.947644
O O1 0.500000 0.500000 0.500000
O O2 0.568009 0.444580 0.750000
O O3 0.664134 0.466051 0.495968
O O4 0.538492 0.378484 0.489174
O O5 0.881286 0.682601 0.250000
O O6 0.787349 0.680089 0.981742
O O7 0.924128 0.750000 0.000000
O O8 0.929425 0.617650 0.002057
O O9 0.303021 0.170134 0.250000
O O10 0.393546 0.183206 0.982797
O O11 0.305970 0.083810 0.022453
O O12 0.269638 0.477655 0.250000
O O13 0.169581 0.481854 0.507782
O O14 0.467375 0.750000 0.500000
O O15 0.511380 0.818909 0.750000
O O16 0.920017 0.545647 0.750000
O O17 0.000000 0.500000 0.000000
#
# Coordination Sequence:
#
# PCOD9435212 Si02
#       6
#     8   8   8   8   8   8
#     4  10  19  32  50  72  98 130 169 208 246 293
#     4  10  19  31  49  74 105 137 167 203 252 307
#     4   9  17  29  45  69 100 132 164 200 242 294
#     4   9  18  31  50  74  98 128 165 207 253 300
#     4  10  20  31  44  66  98 133 169 206 245 289
#     4  10  20  35  54  77 103 132 170 213 263 315
#
# _framework density 17.917007999999999
#
# number of rings (size 3 to 8) (size 9 to 14) (size 15 to 20)
#    0.000    2.333    1.667    1.500    0.000    2.667 
#    0.000    0.000    0.000    1.000    0.000    2.333 
#    0.000    0.000    0.000    0.000    0.000    0.000 
#
# Total GULP energy -267525.322239 kJ/mol
# GULP energy per Si atom -5573.444213 kJ/mol
# Density = 1.787623 g / cm^3
# Si number density = 17.917008 Si / 1000 Ang^3
#
#
#
# Elastic Constant Matrix: (Units=GPa)
#
#
# Indices 1 2 3 4 5 6 
#
# 1 86.2628 77.0000 11.0188 0.0000 0.0000 0.0000
# 2 77.0000 170.7557 11.3874 0.0000 0.0000 0.0000
# 3 11.0188 11.3874 19.1959 0.0000 0.0000 0.0000
# 4 0.0000 0.0000 0.0000 27.1208 0.0000 0.0000
# 5 0.0000 0.0000 0.0000 0.0000 12.3001 0.0000
# 6 0.0000 0.0000 0.0000 0.0000 0.0000 17.6318
#
#
#
# Elastic Compliance Matrix: (Units=1/GPa)
#
#
# Indices 1 2 3 4 5 6 
#
# 1 0.020136 -0.008651 -0.006426 0.000000 0.000000 0.000000
# 2 -0.008651 0.009815 -0.000856 0.000000 0.000000 0.000000
# 3 -0.006426 -0.000856 0.056291 0.000000 0.000000 0.000000
# 4 0.000000 0.000000 0.000000 0.036872 0.000000 0.000000
# 5 0.000000 0.000000 0.000000 0.000000 0.081300 0.000000
# 6 0.000000 0.000000 0.000000 0.000000 0.000000 0.056716
#
#
# Mechanical properties :
#
#
# Convention : Reuss Voigt Hill
#
# Bulk Modulus (GPa) = 18.39112 52.78076 35.58594
# Shear Modulus (GPa) = 16.07090 23.19776 19.63433
#
# Velocity S-wave (km/s) = 2.99818 3.60214 3.31395
# Velocity P-wave (km/s) = 4.71936 6.84273 5.87773
#
# Compressibility (1/GPa) = 0.05437408
#
# Stress axis : x y z
#
# Youngs Moduli (GPa) = 49.66291 101.88849 17.76480
#
# Poissons Ratio (x) = 0.88148 0.11416
# Poissons Ratio (y) = 0.42965 0.01521
# Poissons Ratio (z) = 0.31914 0.08723
#
# Static dielectric constant tensor:
#      x y z
#    x 1.647490 0.000000 0.000000 
#    y 0.000000 1.564090 0.000000 
#    z 0.000000 0.000000 1.632620 
# 
# From -- ./inp_files/4839.got.cif
#   From: 2010.05.17/outbox.cif.g08.bks.cpg/sg57_3_cif.got.tgz:4839.got - 2010.06.03 13:58:18.
