data_PCOD9435453
_publ_section_title
;
Structure prediction by ZEFSAII (Michael W. Deem and Ramdas Pophale) SiO2 
 PCOD9435453
Probable space group: P B C M
;
_chemical_formula_sum "Si O2"
_cell_formula_units_Z 56
_cell_length_a 19.968087
_cell_length_b 18.884821
_cell_length_c 8.063967
_cell_angle_alpha 90.000000
_cell_angle_beta 90.000000
_cell_angle_gamma 90.000000
_cell_volume 3040.871545
_symmetry_space_group_name_H-M "P B C M"
_symmetry_group_IT_number 57
_symmetry_cell_setting 'orthorhombic'
loop_
_space_group_symop_operation_xyz
x,y,z
-x,-y,1/2+z
x,1/2-y,-z
-x,1/2+y,1/2-z
-x,-y,-z
x,y,1/2-z
-x,1/2+y,z
x,1/2-y,1/2+z
loop_
_atom_site_type_symbol
_atom_site_label
_atom_site_fract_x
_atom_site_fract_y
_atom_site_fract_z
Si Si1 0.556901 0.332578 0.550267
Si Si2 0.703405 0.168250 0.049381
Si Si3 0.071825 0.471527 0.447314
Si Si4 0.588312 0.667623 0.450537
Si Si5 0.725256 0.598223 0.451093
Si Si6 0.205883 0.544103 0.449202
Si Si7 0.861359 0.670817 0.052847
O O1 0.556421 0.250000 0.500000
O O2 0.556883 0.337813 0.750000
O O3 0.629652 0.358728 0.491561
O O4 0.484628 0.360517 0.491009
O O5 0.703094 0.165875 0.250000
O O6 0.761895 0.116794 0.987651
O O7 0.711604 0.250000 0.000000
O O8 0.074951 0.474504 0.250000
O O9 0.133315 0.519661 0.514787
O O10 0.088207 0.390891 0.497411
O O11 0.000000 0.500000 0.500000
O O12 0.594156 0.750000 0.500000
O O13 0.588424 0.664703 0.250000
O O14 0.653487 0.625863 0.510690
O O15 0.724928 0.598701 0.250000
O O16 0.743923 0.520054 0.510458
O O17 0.786950 0.648199 0.508606
O O18 0.200446 0.549906 0.250000
O O19 0.859119 0.669177 0.250000
O O20 0.878647 0.750000 0.000000
#
# Coordination Sequence:
#
# PCOD9435453 Si02
#       7
#     8   8   8   8   8   8   8
#     4   8  14  25  42  62  88 120 155 194 236 277
#     4   9  17  31  50  71  92 119 156 198 239 280
#     4  10  20  36  56  76 100 131 162 196 240 292
#     4   9  16  26  41  64  92 124 160 198 236 276
#     4   9  18  30  45  67  97 129 161 196 236 280
#     4   9  19  34  51  70  94 123 156 192 235 287
#     4  10  19  32  51  76 103 132 166 202 238 282
#
# _framework density 18.415773999999999
#
# number of rings (size 3 to 8) (size 9 to 14) (size 15 to 20)
#    0.000    2.857    0.000    1.286    0.000    2.286 
#    0.000    1.429    0.000    1.714    0.000    0.000 
#    0.000    0.000    0.000    0.000    0.000    0.000 
#
# Total GULP energy -311928.329116 kJ/mol
# GULP energy per Si atom -5570.148734 kJ/mol
# Density = 1.837386 g / cm^3
# Si number density = 18.415774 Si / 1000 Ang^3
#
#
#
# Elastic Constant Matrix: (Units=GPa)
#
#
# Indices 1 2 3 4 5 6 
#
# 1 154.4489 96.8777 15.3022 0.0000 0.0000 0.0000
# 2 96.8777 106.0876 7.7064 0.0000 0.0000 0.0000
# 3 15.3022 7.7064 15.3638 0.0000 0.0000 0.0000
# 4 0.0000 0.0000 0.0000 21.4608 0.0000 0.0000
# 5 0.0000 0.0000 0.0000 0.0000 11.5453 0.0000
# 6 0.0000 0.0000 0.0000 0.0000 0.0000 15.0777
#
#
#
# Elastic Compliance Matrix: (Units=1/GPa)
#
#
# Indices 1 2 3 4 5 6 
#
# 1 0.016295 -0.014220 -0.009097 0.000000 0.000000 0.000000
# 2 -0.014220 0.022191 0.003032 0.000000 0.000000 0.000000
# 3 -0.009097 0.003032 0.072629 0.000000 0.000000 0.000000
# 4 0.000000 0.000000 0.000000 0.046597 0.000000 0.000000
# 5 0.000000 0.000000 0.000000 0.000000 0.086615 0.000000
# 6 0.000000 0.000000 0.000000 0.000000 0.000000 0.066323
#
#
# Mechanical properties :
#
#
# Convention : Reuss Voigt Hill
#
# Bulk Modulus (GPa) = 14.17552 57.29700 35.73626
# Shear Modulus (GPa) = 13.34274 20.01769 16.68021
#
# Velocity S-wave (km/s) = 2.69463 3.30052 3.01284
# Velocity P-wave (km/s) = 4.17080 6.76056 5.61697
#
# Compressibility (1/GPa) = 0.07054417
#
# Stress axis : x y z
#
# Youngs Moduli (GPa) = 61.36735 45.06281 13.76869
#
# Poissons Ratio (x) = 0.64078 0.12526
# Poissons Ratio (y) = 0.87263 -0.04174
# Poissons Ratio (z) = 0.55829 -0.13662
#
# Static dielectric constant tensor:
#      x y z
#    x 1.708490 0.000000 0.000000 
#    y 0.000000 1.596900 0.000000 
#    z 0.000000 0.000000 1.642380 
# 
# From -- ./inp_files/8279.got.cif
#   From: 2010.05.17/outbox.cif.g08.bks.cpg/sg57_5_cif.got.tgz:8279.got - 2010.06.03 13:58:18.
