data_PCOD9435741
_publ_section_title
;
Structure prediction by ZEFSAII (Michael W. Deem and Ramdas Pophale) SiO2 
 PCOD9435741
Probable space group: P B C M
;
_chemical_formula_sum "Si O2"
_cell_formula_units_Z 64
_cell_length_a 21.064507
_cell_length_b 19.825967
_cell_length_c 8.634735
_cell_angle_alpha 90.000000
_cell_angle_beta 90.000000
_cell_angle_gamma 90.000000
_cell_volume 3606.074475
_symmetry_space_group_name_H-M "P B C M"
_symmetry_group_IT_number 57
_symmetry_cell_setting 'orthorhombic'
loop_
_space_group_symop_operation_xyz
x,y,z
-x,-y,1/2+z
x,1/2-y,-z
-x,1/2+y,1/2-z
-x,-y,-z
x,y,1/2-z
-x,1/2+y,z
x,1/2-y,1/2+z
loop_
_atom_site_type_symbol
_atom_site_label
_atom_site_fract_x
_atom_site_fract_y
_atom_site_fract_z
Si Si1 0.010317 0.322705 0.934958
Si Si2 0.867828 0.322793 0.434893
Si Si3 0.059315 0.042228 0.935649
Si Si4 0.185188 0.541894 0.437158
Si Si5 0.639174 0.677205 0.936382
Si Si6 0.440516 0.541704 0.435656
Si Si7 0.490525 0.677082 0.564528
Si Si8 0.312447 0.034558 0.938817
O O1 0.008162 0.321394 0.750000
O O2 0.030301 0.250000 0.000000
O O3 0.938739 0.334962 0.997750
O O4 0.053838 0.383254 0.994505
O O5 0.846998 0.250000 0.500000
O O6 0.871716 0.319842 0.250000
O O7 0.824551 0.384692 0.489280
O O8 0.054823 0.045854 0.750000
O O9 0.123923 0.003520 0.976453
O O10 0.000000 0.000000 0.000000
O O11 0.186605 0.549353 0.250000
O O12 0.248703 0.503263 0.488022
O O13 0.641501 0.679918 0.750000
O O14 0.564915 0.666122 0.979479
O O15 0.678974 0.612225 0.989482
O O16 0.659076 0.750000 0.000000
O O17 0.500000 0.500000 0.500000
O O18 0.442613 0.540085 0.250000
O O19 0.448816 0.617495 0.494967
O O20 0.375010 0.506819 0.486021
O O21 0.472136 0.750000 0.500000
O O22 0.487049 0.676098 0.750000
O O23 0.311719 0.035800 0.750000
#
# Coordination Sequence:
#
# PCOD9435741 Si02
#       8
#     8   8   8   8   8   8   8   8
#     4  11  21  35  56  83 114 147 187 232 283 334
#     4  11  21  35  57  83 113 143 183 231 279 334
#     4  11  21  34  56  84 113 145 185 230 280 332
#     4  10  21  38  59  81 110 150 190 226 276 334
#     4   9  17  32  53  78 107 141 180 224 271 323
#     4  11  20  34  56  82 111 145 184 230 279 328
#     4  10  19  33  53  82 113 143 183 229 280 332
#     4   9  19  37  57  79 111 149 187 227 275 331
#
# _framework density 17.747831000000001
#
# number of rings (size 3 to 8) (size 9 to 14) (size 15 to 20)
#    0.000    1.750    2.500    4.125    0.000    1.000 
#    0.000    3.125    0.000    1.500    0.000    0.000 
#    0.000    0.000    0.000    0.000    0.000    0.000 
#
# Total GULP energy -357382.468950 kJ/mol
# GULP energy per Si atom -5584.101077 kJ/mol
# Density = 1.770744 g / cm^3
# Si number density = 17.747831 Si / 1000 Ang^3
#
#
#
# Elastic Constant Matrix: (Units=GPa)
#
#
# Indices 1 2 3 4 5 6 
#
# 1 110.3276 84.3745 39.7447 0.0000 0.0000 0.0000
# 2 84.3745 190.0918 51.3831 0.0000 0.0000 0.0000
# 3 39.7447 51.3831 66.0783 0.0000 0.0000 0.0000
# 4 0.0000 0.0000 0.0000 34.6425 0.0000 0.0000
# 5 0.0000 0.0000 0.0000 0.0000 15.6305 0.0000
# 6 0.0000 0.0000 0.0000 0.0000 0.0000 29.1521
#
#
#
# Elastic Compliance Matrix: (Units=1/GPa)
#
#
# Indices 1 2 3 4 5 6 
#
# 1 0.014841 -0.005285 -0.004817 0.000000 0.000000 0.000000
# 2 -0.005285 0.008543 -0.003464 0.000000 0.000000 0.000000
# 3 -0.004817 -0.003464 0.020724 0.000000 0.000000 0.000000
# 4 0.000000 0.000000 0.000000 0.028866 0.000000 0.000000
# 5 0.000000 0.000000 0.000000 0.000000 0.063978 0.000000
# 6 0.000000 0.000000 0.000000 0.000000 0.000000 0.034303
#
#
# Mechanical properties :
#
#
# Convention : Reuss Voigt Hill
#
# Bulk Modulus (GPa) = 58.90578 79.72248 69.31413
# Shear Modulus (GPa) = 24.50426 28.61804 26.56115
#
# Velocity S-wave (km/s) = 3.71980 4.01993 3.87277
# Velocity P-wave (km/s) = 7.19108 8.15865 7.69010
#
# Compressibility (1/GPa) = 0.01697626
#
# Stress axis : x y z
#
# Youngs Moduli (GPa) = 67.37991 117.05521 48.25254
#
# Poissons Ratio (x) = 0.61869 0.23242
# Poissons Ratio (y) = 0.35613 0.16715
# Poissons Ratio (z) = 0.32455 0.40548
#
# Static dielectric constant tensor:
#      x y z
#    x 1.585510 0.000000 0.000000 
#    y 0.000000 1.613830 0.000000 
#    z 0.000000 0.000000 1.600020 
# 
# From -- ./inp_files/7268.got.cif
#   From: 2010.05.17/outbox.cif.g08.bks.cpg/sg57_4_cif.got.tgz:7268.got - 2010.06.03 13:58:18.
