data_PCOD9435490
_publ_section_title
;
Structure prediction by ZEFSAII (Michael W. Deem and Ramdas Pophale) SiO2 
 PCOD9435490
Probable space group: P B C M
;
_chemical_formula_sum "Si O2"
_cell_formula_units_Z 48
_cell_length_a 17.134740
_cell_length_b 18.598627
_cell_length_c 8.262153
_cell_angle_alpha 90.000000
_cell_angle_beta 90.000000
_cell_angle_gamma 90.000000
_cell_volume 2633.004714
_symmetry_space_group_name_H-M "P B C M"
_symmetry_group_IT_number 57
_symmetry_cell_setting 'orthorhombic'
loop_
_space_group_symop_operation_xyz
x,y,z
-x,-y,1/2+z
x,1/2-y,-z
-x,1/2+y,1/2-z
-x,-y,-z
x,y,1/2-z
-x,1/2+y,z
x,1/2-y,1/2+z
loop_
_atom_site_type_symbol
_atom_site_label
_atom_site_fract_x
_atom_site_fract_y
_atom_site_fract_z
Si Si1 0.335745 0.171330 0.054944
Si Si2 0.415441 0.024733 0.445201
Si Si3 0.822235 0.600439 0.053114
Si Si4 0.258084 0.951708 0.054990
Si Si5 0.853865 0.168545 0.442558
Si Si6 0.005598 0.082705 0.053906
O O1 0.335169 0.169977 0.250000
O O2 0.390169 0.104975 0.000518
O O3 0.247221 0.152945 0.998652
O O4 0.360142 0.250000 0.000000
O O5 0.414172 0.025372 0.250000
O O6 0.500000 0.000000 0.500000
O O7 0.345697 0.971371 0.498725
O O8 0.822131 0.602298 0.250000
O O9 0.795682 0.519801 0.005814
O O10 0.910477 0.613496 0.998674
O O11 0.257806 0.949782 0.250000
O O12 0.220233 0.879090 0.992489
O O13 0.849390 0.250000 0.500000
O O14 0.858825 0.168578 0.250000
O O15 0.931807 0.128316 0.506365
O O16 0.004905 0.083612 0.250000
O O17 0.000000 0.000000 0.000000
#
# Coordination Sequence:
#
# PCOD9435490 Si02
#       6
#     8   8   8   8   8   8
#     4   9  18  33  52  77 107 138 170 206 256 310
#     4   9  19  35  57  83 107 136 173 212 259 315
#     4   8  15  30  52  73  99 135 170 208 255 306
#     4   9  17  34  57  75  98 136 174 212 262 312
#     4  11  23  35  50  76 107 140 180 222 265 311
#     4  10  19  32  52  76 102 138 180 220 261 307
#
# _framework density 18.230122999999999
#
# number of rings (size 3 to 8) (size 9 to 14) (size 15 to 20)
#    0.000    2.667    1.667    2.500    0.000    2.667 
#    0.000    4.167    0.000    2.000    0.000    0.000 
#    0.000    0.000    0.000    0.000    0.000    0.000 
#
# Total GULP energy -267629.301430 kJ/mol
# GULP energy per Si atom -5575.610446 kJ/mol
# Density = 1.818863 g / cm^3
# Si number density = 18.230123 Si / 1000 Ang^3
#
#
#
# Elastic Constant Matrix: (Units=GPa)
#
#
# Indices 1 2 3 4 5 6 
#
# 1 165.4676 91.9439 20.1835 0.0000 0.0000 0.0000
# 2 91.9439 149.3723 18.3235 0.0000 0.0000 0.0000
# 3 20.1835 18.3235 11.2162 0.0000 0.0000 0.0000
# 4 0.0000 0.0000 0.0000 25.0275 0.0000 0.0000
# 5 0.0000 0.0000 0.0000 0.0000 21.2820 0.0000
# 6 0.0000 0.0000 0.0000 0.0000 0.0000 19.6046
#
#
#
# Elastic Compliance Matrix: (Units=1/GPa)
#
#
# Indices 1 2 3 4 5 6 
#
# 1 0.009997 -0.004936 -0.009926 0.000000 0.000000 0.000000
# 2 -0.004936 0.010810 -0.008777 0.000000 0.000000 0.000000
# 3 -0.009926 -0.008777 0.121358 0.000000 0.000000 0.000000
# 4 0.000000 0.000000 0.000000 0.039956 0.000000 0.000000
# 5 0.000000 0.000000 0.000000 0.000000 0.046988 0.000000
# 6 0.000000 0.000000 0.000000 0.000000 0.000000 0.051009
#
#
# Mechanical properties :
#
#
# Convention : Reuss Voigt Hill
#
# Bulk Modulus (GPa) = 10.53894 65.21753 37.87823
# Shear Modulus (GPa) = 13.92669 26.22317 20.07493
#
# Velocity S-wave (km/s) = 2.76694 3.79681 3.32203
# Velocity P-wave (km/s) = 4.00020 7.42114 5.96133
#
# Compressibility (1/GPa) = 0.09488622
#
# Stress axis : x y z
#
# Youngs Moduli (GPa) = 100.03138 92.51088 8.24011
#
# Poissons Ratio (x) = 0.45662 0.08179
# Poissons Ratio (y) = 0.49374 0.07232
# Poissons Ratio (z) = 0.99290 0.81198
#
# Static dielectric constant tensor:
#      x y z
#    x 1.640390 0.000000 0.000000 
#    y 0.000000 1.614380 0.000000 
#    z 0.000000 0.000000 1.637640 
# 
# From -- ./inp_files/6701.got.cif
#   From: 2010.05.17/outbox.cif.g08.bks.cpg/sg57_4_cif.got.tgz:6701.got - 2010.06.03 13:58:18.
