data_PCOD9435719
_publ_section_title
;
Structure prediction by ZEFSAII (Michael W. Deem and Ramdas Pophale) SiO2 
 PCOD9435719
Probable space group: P B C M
;
_chemical_formula_sum "Si O2"
_cell_formula_units_Z 48
_cell_length_a 16.973530
_cell_length_b 18.406390
_cell_length_c 8.548016
_cell_angle_alpha 90.000000
_cell_angle_beta 90.000000
_cell_angle_gamma 90.000000
_cell_volume 2670.583236
_symmetry_space_group_name_H-M "P B C M"
_symmetry_group_IT_number 57
_symmetry_cell_setting 'orthorhombic'
loop_
_space_group_symop_operation_xyz
x,y,z
-x,-y,1/2+z
x,1/2-y,-z
-x,1/2+y,1/2-z
-x,-y,-z
x,y,1/2-z
-x,1/2+y,z
x,1/2-y,1/2+z
loop_
_atom_site_type_symbol
_atom_site_label
_atom_site_fract_x
_atom_site_fract_y
_atom_site_fract_z
Si Si1 0.650251 0.831395 0.437628
Si Si2 0.916083 0.025556 0.436501
Si Si3 0.505707 0.417690 0.060461
Si Si4 0.679011 0.397421 0.060658
Si Si5 0.237988 0.047643 0.437585
Si Si6 0.839835 0.171773 0.562014
O O1 0.653584 0.750000 0.500000
O O2 0.651124 0.830950 0.250000
O O3 0.569294 0.870803 0.490770
O O4 0.722321 0.879915 0.498906
O O5 0.916898 0.027607 0.250000
O O6 0.892053 0.104958 0.501138
O O7 0.847336 0.971398 0.494522
O O8 0.000000 0.000000 0.500000
O O9 0.505681 0.419741 0.250000
O O10 0.589880 0.385126 0.006955
O O11 0.500000 0.500000 0.000000
O O12 0.678441 0.393951 0.250000
O O13 0.706127 0.479132 0.018018
O O14 0.749705 0.345224 0.007695
O O15 0.233359 0.049528 0.250000
O O16 0.864846 0.250000 0.500000
O O17 0.841300 0.170894 0.750000
#
# Coordination Sequence:
#
# PCOD9435719 Si02
#       6
#     8   8   8   8   8   8
#     4  11  23  36  53  79 113 152 197 242 289 340
#     4  11  22  39  63  91 119 149 189 230 278 342
#     4  10  19  33  53  79 109 148 196 242 286 336
#     4   8  16  31  53  78 108 145 186 229 279 335
#     4  10  19  36  60  82 110 146 185 231 285 338
#     4  10  20  36  57  85 119 155 191 235 289 338
#
# _framework density 17.973600999999999
#
# number of rings (size 3 to 8) (size 9 to 14) (size 15 to 20)
#    0.000    2.000    1.667    4.000    0.000    1.333 
#    0.000    1.667    0.000    0.000    0.000    0.000 
#    0.000    0.000    0.000    0.000    0.000    0.000 
#
# Total GULP energy -267946.425619 kJ/mol
# GULP energy per Si atom -5582.217200 kJ/mol
# Density = 1.793269 g / cm^3
# Si number density = 17.973601 Si / 1000 Ang^3
#
#
#
# Elastic Constant Matrix: (Units=GPa)
#
#
# Indices 1 2 3 4 5 6 
#
# 1 162.7316 86.6635 47.0932 0.0000 0.0000 0.0000
# 2 86.6635 143.2541 46.4807 0.0000 0.0000 0.0000
# 3 47.0932 46.4807 76.6811 0.0000 0.0000 0.0000
# 4 0.0000 0.0000 0.0000 29.0284 0.0000 0.0000
# 5 0.0000 0.0000 0.0000 0.0000 22.7387 0.0000
# 6 0.0000 0.0000 0.0000 0.0000 0.0000 18.2164
#
#
#
# Elastic Compliance Matrix: (Units=1/GPa)
#
#
# Indices 1 2 3 4 5 6 
#
# 1 0.009573 -0.004835 -0.002949 0.000000 0.000000 0.000000
# 2 -0.004835 0.011131 -0.003778 0.000000 0.000000 0.000000
# 3 -0.002949 -0.003778 0.017142 0.000000 0.000000 0.000000
# 4 0.000000 0.000000 0.000000 0.034449 0.000000 0.000000
# 5 0.000000 0.000000 0.000000 0.000000 0.043978 0.000000
# 6 0.000000 0.000000 0.000000 0.000000 0.000000 0.054896
#
#
# Mechanical properties :
#
#
# Convention : Reuss Voigt Hill
#
# Bulk Modulus (GPa) = 67.91859 82.57129 75.24494
# Shear Modulus (GPa) = 25.10040 27.49197 26.29619
#
# Velocity S-wave (km/s) = 3.74105 3.91522 3.82913
# Velocity P-wave (km/s) = 7.51869 8.15344 7.84249
#
# Compressibility (1/GPa) = 0.01472351
#
# Stress axis : x y z
#
# Youngs Moduli (GPa) = 104.45888 89.83722 58.33594
#
# Poissons Ratio (x) = 0.43433 0.17202
# Poissons Ratio (y) = 0.50502 0.22040
# Poissons Ratio (z) = 0.30802 0.33941
#
# Static dielectric constant tensor:
#      x y z
#    x 1.621030 0.000000 0.000000 
#    y 0.000000 1.585690 0.000000 
#    z 0.000000 0.000000 1.604080 
# 
# From -- ./inp_files/4545.got.cif
#   From: 2010.05.17/outbox.cif.g08.bks.cpg/sg57_3_cif.got.tgz:4545.got - 2010.06.03 13:58:18.
