data_PCOD9435867
_publ_section_title
;
Structure prediction by ZEFSAII (Michael W. Deem and Ramdas Pophale) SiO2 
 PCOD9435867
Probable space group: P B C M
;
_chemical_formula_sum "Si O2"
_cell_formula_units_Z 64
_cell_length_a 10.170263
_cell_length_b 32.764285
_cell_length_c 9.650102
_cell_angle_alpha 90.000000
_cell_angle_beta 90.000000
_cell_angle_gamma 90.000000
_cell_volume 3215.620455
_symmetry_space_group_name_H-M "P B C M"
_symmetry_group_IT_number 57
_symmetry_cell_setting 'orthorhombic'
loop_
_space_group_symop_operation_xyz
x,y,z
-x,-y,1/2+z
x,1/2-y,-z
-x,1/2+y,1/2-z
-x,-y,-z
x,y,1/2-z
-x,1/2+y,z
x,1/2-y,1/2+z
loop_
_atom_site_type_symbol
_atom_site_label
_atom_site_fract_x
_atom_site_fract_y
_atom_site_fract_z
Si Si1 0.898454 0.210770 0.911545
Si Si2 0.212241 0.408936 0.906508
Si Si3 0.811281 0.419012 0.098603
Si Si4 0.431821 0.125920 0.915326
Si Si5 0.557824 0.036570 0.910719
Si Si6 0.063729 0.637194 0.403952
Si Si7 0.582352 0.210091 0.588280
Si Si8 0.075262 0.032395 0.594460
O O1 0.930362 0.214299 0.750000
O O2 0.740243 0.205826 0.925146
O O3 0.936693 0.250000 0.000000
O O4 0.962024 0.172101 0.984814
O O5 0.257363 0.419385 0.750000
O O6 0.067302 0.389740 0.892704
O O7 0.306283 0.377505 0.985231
O O8 0.193736 0.447568 0.008616
O O9 0.772001 0.400605 0.250000
O O10 0.714659 0.456813 0.074127
O O11 0.960550 0.433928 0.112177
O O12 0.817001 0.388842 0.969507
O O13 0.399866 0.126798 0.750000
O O14 0.505080 0.082511 0.941047
O O15 0.514627 0.166788 0.947190
O O16 0.528891 0.028074 0.750000
O O17 0.500000 0.000000 0.000000
O O18 0.096001 0.652825 0.250000
O O19 0.542362 0.250000 0.500000
O O20 0.553919 0.218097 0.750000
O O21 0.111331 0.018126 0.750000
O O22 0.000000 0.000000 0.500000
#
# Coordination Sequence:
#
# PCOD9435867 Si02
#       8
#     8   8   8   8   8   8   8   8
#     4  10  19  33  56  85 116 146 177 222 276 334
#     4  10  22  38  55  78 108 145 190 235 278 332
#     4   9  19  36  55  75 103 139 176 218 273 329
#     4  10  21  38  58  81 113 153 191 233 286 343
#     4  10  22  38  55  80 112 147 187 231 282 340
#     4  10  20  35  55  80 108 138 180 229 275 328
#     4   9  19  36  59  87 117 147 186 231 281 339
#     4  10  20  34  55  80 106 138 179 228 279 331
#
# _framework density 19.902847999999999
#
# number of rings (size 3 to 8) (size 9 to 14) (size 15 to 20)
#    0.000    2.250    0.000    2.250    1.750    6.000 
#    0.000    1.875    0.000    1.500    0.000    0.000 
#    0.000    0.000    0.000    0.000    0.000    0.000 
#
# Total GULP energy -356810.065607 kJ/mol
# GULP energy per Si atom -5575.157275 kJ/mol
# Density = 1.985755 g / cm^3
# Si number density = 19.902848 Si / 1000 Ang^3
#
#
#
# Elastic Constant Matrix: (Units=GPa)
#
#
# Indices 1 2 3 4 5 6 
#
# 1 28.1777 2.3298 18.1404 0.0000 0.0000 0.0000
# 2 2.3298 81.6129 51.9891 0.0000 0.0000 0.0000
# 3 18.1404 51.9891 131.5874 0.0000 0.0000 0.0000
# 4 0.0000 0.0000 0.0000 37.0036 0.0000 0.0000
# 5 0.0000 0.0000 0.0000 0.0000 13.2754 0.0000
# 6 0.0000 0.0000 0.0000 0.0000 0.0000 24.7144
#
#
#
# Elastic Compliance Matrix: (Units=1/GPa)
#
#
# Indices 1 2 3 4 5 6 
#
# 1 0.039535 0.003131 -0.006688 0.000000 0.000000 0.000000
# 2 0.003131 0.016622 -0.006999 0.000000 0.000000 0.000000
# 3 -0.006688 -0.006999 0.011287 0.000000 0.000000 0.000000
# 4 0.000000 0.000000 0.000000 0.027024 0.000000 0.000000
# 5 0.000000 0.000000 0.000000 0.000000 0.075327 0.000000
# 6 0.000000 0.000000 0.000000 0.000000 0.000000 0.040462
#
#
# Mechanical properties :
#
#
# Convention : Reuss Voigt Hill
#
# Bulk Modulus (GPa) = 21.58234 42.92186 32.25210
# Shear Modulus (GPa) = 20.25828 26.25993 23.25911
#
# Velocity S-wave (km/s) = 3.19385 3.63630 3.42223
# Velocity P-wave (km/s) = 4.94654 6.26441 5.64407
#
# Compressibility (1/GPa) = 0.04633417
#
# Stress axis : x y z
#
# Youngs Moduli (GPa) = 25.29375 60.16114 88.60015
#
# Poissons Ratio (x) = -0.18839 0.59251
# Poissons Ratio (y) = -0.07921 0.62011
# Poissons Ratio (z) = 0.16915 0.42106
#
# Static dielectric constant tensor:
#      x y z
#    x 1.742320 0.000000 0.000000 
#    y 0.000000 1.742690 0.000000 
#    z 0.000000 0.000000 1.731350 
# 
# From -- ./inp_files/3750.got.cif
#   From: 2010.05.17/outbox.cif.g08.bks.cpg/sg57_2_cif.got.tgz:3750.got - 2010.06.03 13:58:18.
