data_PCOD9435822
_publ_section_title
;
Structure prediction by ZEFSAII (Michael W. Deem and Ramdas Pophale) SiO2 
 PCOD9435822
Probable space group: P B C M
;
_chemical_formula_sum "Si O2"
_cell_formula_units_Z 64
_cell_length_a 28.422735
_cell_length_b 12.447556
_cell_length_c 9.357342
_cell_angle_alpha 90.000000
_cell_angle_beta 90.000000
_cell_angle_gamma 90.000000
_cell_volume 3310.567578
_symmetry_space_group_name_H-M "P B C M"
_symmetry_group_IT_number 57
_symmetry_cell_setting 'orthorhombic'
loop_
_space_group_symop_operation_xyz
x,y,z
-x,-y,1/2+z
x,1/2-y,-z
-x,1/2+y,1/2-z
-x,-y,-z
x,y,1/2-z
-x,1/2+y,z
x,1/2-y,1/2+z
loop_
_atom_site_type_symbol
_atom_site_label
_atom_site_fract_x
_atom_site_fract_y
_atom_site_fract_z
Si Si1 0.008280 0.627878 0.424832
Si Si2 0.216298 0.642659 0.081758
Si Si3 0.426880 0.015990 0.908118
Si Si4 0.336228 0.350175 0.417684
Si Si5 0.111646 0.939982 0.587464
Si Si6 0.245415 0.430391 0.580490
Si Si7 0.519200 0.352144 0.407378
Si Si8 0.138626 0.144605 0.083508
O O1 0.994135 0.750000 0.500000
O O2 0.995182 0.625609 0.250000
O O3 0.064851 0.628352 0.430285
O O4 0.000000 0.500000 0.500000
O O5 0.228317 0.643225 0.250000
O O6 0.159846 0.625854 0.070612
O O7 0.229748 0.750000 0.000000
O O8 0.238990 0.543602 0.998417
O O9 0.431083 0.965128 0.750000
O O10 0.373927 0.054587 0.927842
O O11 0.464705 0.112353 0.907457
O O12 0.447246 0.942663 0.030453
O O13 0.358514 0.250000 0.500000
O O14 0.327941 0.328069 0.250000
O O15 0.287909 0.373446 0.499476
O O16 0.112026 0.983982 0.750000
O O17 0.113888 0.039702 0.479928
O O18 0.254477 0.440582 0.750000
O O19 0.194912 0.372112 0.564396
O O20 0.524722 0.250000 0.500000
O O21 0.534108 0.327454 0.250000
O O22 0.128903 0.155208 0.250000
O O23 0.123721 0.250000 0.000000
#
# Coordination Sequence:
#
# PCOD9435822 Si02
#       8
#     8   8   8   8   8   8   8   8
#     4  11  24  43  66  93 125 164 207 253 305 363
#     4  10  19  34  57  83 110 141 178 224 275 327
#     4   9  20  36  53  77 106 136 174 215 257 311
#     4  11  22  36  55  78 106 140 176 216 262 315
#     4   9  20  37  58  84 114 148 190 238 288 343
#     4  10  21  36  53  77 108 143 183 225 271 325
#     4  10  19  33  55  79 105 136 169 212 263 312
#     4  10  20  33  53  80 112 149 189 235 287 341
#
# _framework density 19.332032999999999
#
# number of rings (size 3 to 8) (size 9 to 14) (size 15 to 20)
#    0.000    2.000    0.000    3.375    0.000    6.000 
#    0.000    0.625    0.000    3.000    0.000    0.000 
#    0.000    0.000    0.000    0.000    0.000    0.000 
#
# Total GULP energy -356282.272175 kJ/mol
# GULP energy per Si atom -5566.910503 kJ/mol
# Density = 1.928803 g / cm^3
# Si number density = 19.332033 Si / 1000 Ang^3
#
#
#
# Elastic Constant Matrix: (Units=GPa)
#
#
# Indices 1 2 3 4 5 6 
#
# 1 59.5357 6.9266 33.3506 0.0000 0.0000 0.0000
# 2 6.9266 86.5528 70.5424 0.0000 0.0000 0.0000
# 3 33.3506 70.5424 144.4138 0.0000 0.0000 0.0000
# 4 0.0000 0.0000 0.0000 30.2795 0.0000 0.0000
# 5 0.0000 0.0000 0.0000 0.0000 22.7918 0.0000
# 6 0.0000 0.0000 0.0000 0.0000 0.0000 -7.4416
#
#
#
# Elastic Compliance Matrix: (Units=1/GPa)
#
#
# Indices 1 2 3 4 5 6 
#
# 1 0.019940 0.003584 -0.006356 0.000000 0.000000 0.000000
# 2 0.003584 0.019840 -0.010519 0.000000 0.000000 0.000000
# 3 -0.006356 -0.010519 0.013531 0.000000 0.000000 0.000000
# 4 0.000000 0.000000 0.000000 0.033026 0.000000 0.000000
# 5 0.000000 0.000000 0.000000 0.000000 0.043875 0.000000
# 6 0.000000 0.000000 0.000000 0.000000 0.000000 -0.134380
#
#
# Mechanical properties :
#
#
# Convention : Reuss Voigt Hill
#
# Bulk Modulus (GPa) = 37.41168 56.90461 47.15814
# Shear Modulus (GPa) = 159.62604 21.10478 90.36541
#
# Velocity S-wave (km/s) = 9.09670 3.30767 6.84437
# Velocity P-wave (km/s) = 11.38980 6.63980 9.32240
#
# Compressibility (1/GPa) = 0.02672962
#
# Stress axis : x y z
#
# Youngs Moduli (GPa) = 50.15053 50.40290 73.90630
#
# Poissons Ratio (x) = -0.18066 0.46973
# Poissons Ratio (y) = -0.17975 0.77743
# Poissons Ratio (z) = 0.31874 0.53019
#
# Static dielectric constant tensor:
#      x y z
#    x 1.670310 0.000000 0.000000 
#    y 0.000000 1.760310 0.000000 
#    z 0.000000 0.000000 1.674140 
# 
# From -- ./inp_files/10324.got.cif
#   From: 2010.05.17/outbox.cif.g08.bks.cpg/sg57_6_cif.got.tgz:10324.got - 2010.06.03 13:58:18.
