data_PCOD9435110
_publ_section_title
;
Structure prediction by ZEFSAII (Michael W. Deem and Ramdas Pophale) SiO2 
 PCOD9435110
Probable space group: P B C M
;
_chemical_formula_sum "Si O2"
_cell_formula_units_Z 64
_cell_length_a 16.097900
_cell_length_b 29.369264
_cell_length_c 8.675126
_cell_angle_alpha 90.000000
_cell_angle_beta 90.000000
_cell_angle_gamma 90.000000
_cell_volume 4101.456216
_symmetry_space_group_name_H-M "P B C M"
_symmetry_group_IT_number 57
_symmetry_cell_setting 'orthorhombic'
loop_
_space_group_symop_operation_xyz
x,y,z
-x,-y,1/2+z
x,1/2-y,-z
-x,1/2+y,1/2-z
-x,-y,-z
x,y,1/2-z
-x,1/2+y,z
x,1/2-y,1/2+z
loop_
_atom_site_type_symbol
_atom_site_label
_atom_site_fract_x
_atom_site_fract_y
_atom_site_fract_z
Si Si1 0.904703 0.548371 0.564357
Si Si2 0.492730 0.801400 0.065107
Si Si3 0.098477 0.951029 0.066010
Si Si4 0.997706 0.800831 0.935230
Si Si5 0.324019 0.198799 0.935888
Si Si6 0.320753 0.698661 0.064981
Si Si7 0.840272 0.358588 0.564259
Si Si8 0.160517 0.354578 0.436736
O O1 0.902719 0.544837 0.750000
O O2 0.875798 0.500661 0.494268
O O3 0.853505 0.592950 0.517311
O O4 0.001458 0.555322 0.517950
O O5 0.485401 0.800581 0.250000
O O6 0.584090 0.819877 0.022746
O O7 0.494488 0.750000 0.000000
O O8 0.408494 0.821251 0.994485
O O9 0.101265 0.950282 0.250000
O O10 0.150620 0.909239 0.000235
O O11 0.995410 0.799378 0.750000
O O12 0.078580 0.829743 0.984024
O O13 0.003078 0.750000 0.000000
O O14 0.915252 0.825190 0.997303
O O15 0.321813 0.201953 0.750000
O O16 0.247864 0.167224 0.986176
O O17 0.314413 0.250000 0.000000
O O18 0.322741 0.701492 0.250000
O O19 0.242854 0.667924 0.016373
O O20 0.311277 0.750000 0.000000
O O21 0.840522 0.360670 0.750000
O O22 0.156399 0.352736 0.250000
#
# Coordination Sequence:
#
# PCOD9435110 Si02
#       8
#     8   8   8   8   8   8   8   8
#     4   9  18  32  49  68  92 121 152 192 236 276
#     4   9  16  28  45  66  90 119 152 191 232 269
#     4  10  19  31  50  71  90 118 155 195 235 275
#     4  11  22  33  45  63  92 128 160 191 223 265
#     4   9  18  30  46  67  94 124 156 190 227 271
#     4  10  19  31  47  68  93 124 157 192 231 274
#     4  10  21  34  47  66  93 124 157 191 231 275
#     4  10  19  33  49  68  93 124 159 191 227 274
#
# _framework density 15.604215
#
# number of rings (size 3 to 8) (size 9 to 14) (size 15 to 20)
#    0.000    2.250    1.250    3.000    0.000    4.500 
#    0.000    0.000    0.000    0.000    0.000    0.875 
#    0.000    0.000    0.000    0.000    0.000    0.000 
#
# Total GULP energy -356856.458795 kJ/mol
# GULP energy per Si atom -5575.882169 kJ/mol
# Density = 1.556870 g / cm^3
# Si number density = 15.604215 Si / 1000 Ang^3
#
#
#
# Elastic Constant Matrix: (Units=GPa)
#
#
# Indices 1 2 3 4 5 6 
#
# 1 139.6321 67.1018 29.3009 0.0000 0.0000 0.0000
# 2 67.1018 113.8204 23.1646 0.0000 0.0000 0.0000
# 3 29.3009 23.1646 21.5522 0.0000 0.0000 0.0000
# 4 0.0000 0.0000 0.0000 13.7103 0.0000 0.0000
# 5 0.0000 0.0000 0.0000 0.0000 20.1269 0.0000
# 6 0.0000 0.0000 0.0000 0.0000 0.0000 -55.1419
#
#
#
# Elastic Compliance Matrix: (Units=1/GPa)
#
#
# Indices 1 2 3 4 5 6 
#
# 1 0.011691 -0.004682 -0.010862 0.000000 0.000000 0.000000
# 2 -0.004682 0.013120 -0.007737 0.000000 0.000000 0.000000
# 3 -0.010862 -0.007737 0.069483 0.000000 0.000000 0.000000
# 4 0.000000 0.000000 0.000000 0.072938 0.000000 0.000000
# 5 0.000000 0.000000 0.000000 0.000000 0.049685 0.000000
# 6 0.000000 0.000000 0.000000 0.000000 0.000000 -0.018135
#
#
# Mechanical properties :
#
#
# Convention : Reuss Voigt Hill
#
# Bulk Modulus (GPa) = 20.95036 57.12658 39.03847
# Shear Modulus (GPa) = 19.13841 6.10155 12.61998
#
# Velocity S-wave (km/s) = 3.50593 1.97957 2.84695
# Velocity P-wave (km/s) = 5.46296 6.47411 5.98991
#
# Compressibility (1/GPa) = 0.04773187
#
# Stress axis : x y z
#
# Youngs Moduli (GPa) = 85.53707 76.21714 14.39203
#
# Poissons Ratio (x) = 0.35681 0.15633
# Poissons Ratio (y) = 0.40045 0.11136
# Poissons Ratio (z) = 0.92913 0.58971
#
# Static dielectric constant tensor:
#      x y z
#    x 1.541440 0.000000 0.000000 
#    y 0.000000 1.408270 0.000000 
#    z 0.000000 0.000000 1.526910 
# 
# From -- ./inp_files/7476.got.cif
#   From: 2010.05.17/outbox.cif.g08.bks.cpg/sg57_4_cif.got.tgz:7476.got - 2010.06.03 13:58:18.
