data_PCOD9435301
_publ_section_title
;
Structure prediction by ZEFSAII (Michael W. Deem and Ramdas Pophale) SiO2 
 PCOD9435301
Probable space group: P B C M
;
_chemical_formula_sum "Si O2"
_cell_formula_units_Z 64
_cell_length_a 18.136859
_cell_length_b 22.882332
_cell_length_c 8.777052
_cell_angle_alpha 90.000000
_cell_angle_beta 90.000000
_cell_angle_gamma 90.000000
_cell_volume 3642.596203
_symmetry_space_group_name_H-M "P B C M"
_symmetry_group_IT_number 57
_symmetry_cell_setting 'orthorhombic'
loop_
_space_group_symop_operation_xyz
x,y,z
-x,-y,1/2+z
x,1/2-y,-z
-x,1/2+y,1/2-z
-x,-y,-z
x,y,1/2-z
-x,1/2+y,z
x,1/2-y,1/2+z
loop_
_atom_site_type_symbol
_atom_site_label
_atom_site_fract_x
_atom_site_fract_y
_atom_site_fract_z
Si Si1 0.670050 0.050252 0.932938
Si Si2 0.347696 0.419546 0.434488
Si Si3 0.509090 0.064629 0.932959
Si Si4 0.178503 0.917939 0.932381
Si Si5 0.927697 0.188329 0.066100
Si Si6 0.092706 0.154685 0.069188
Si Si7 0.753513 0.811025 0.068269
Si Si8 0.921037 0.983702 0.930202
O O1 0.674639 0.047753 0.750000
O O2 0.592384 0.081012 0.978084
O O3 0.740156 0.083472 0.999195
O O4 0.669548 0.983281 0.995227
O O5 0.342831 0.425118 0.250000
O O6 0.432845 0.403628 0.475779
O O7 0.292613 0.368099 0.483409
O O8 0.509172 0.061681 0.750000
O O9 0.500000 0.000000 0.000000
O O10 0.182016 0.918184 0.750000
O O11 0.125619 0.864579 0.981023
O O12 0.140192 0.977208 0.989349
O O13 0.927718 0.189794 0.250000
O O14 0.012304 0.176614 0.017510
O O15 0.902986 0.250000 0.000000
O O16 0.100184 0.167153 0.250000
O O17 0.093181 0.084825 0.048844
O O18 0.161836 0.181152 0.982292
O O19 0.749030 0.808375 0.250000
O O20 0.725448 0.750000 0.000000
O O21 0.921561 0.995849 0.750000
O O22 0.000000 0.000000 0.000000
#
# Coordination Sequence:
#
# PCOD9435301 Si02
#       8
#     8   8   8   8   8   8   8   8
#     4  10  19  31  52  84 111 135 170 214 265 315
#     4   9  18  34  54  76 105 142 174 207 259 318
#     4   8  15  29  50  76 106 134 164 202 247 306
#     4  11  22  37  53  75 108 141 175 215 261 310
#     4  10  22  39  55  72  95 130 175 220 260 303
#     4  10  21  38  55  75 104 135 172 216 260 306
#     4  11  23  36  52  75 102 138 181 220 263 311
#     4  11  21  35  55  80 109 138 171 213 262 315
#
# _framework density 17.569886
#
# number of rings (size 3 to 8) (size 9 to 14) (size 15 to 20)
#    0.000    2.000    1.250    2.625    0.000    7.000 
#    0.000    0.000    0.000    0.750    0.000    3.500 
#    0.000    0.000    0.000    0.000    0.000    0.000 
#
# Total GULP energy -357049.268181 kJ/mol
# GULP energy per Si atom -5578.894815 kJ/mol
# Density = 1.752990 g / cm^3
# Si number density = 17.569886 Si / 1000 Ang^3
#
#
#
# Elastic Constant Matrix: (Units=GPa)
#
#
# Indices 1 2 3 4 5 6 
#
# 1 127.5902 33.1949 24.2055 0.0000 0.0000 0.0000
# 2 33.1949 58.0116 26.0252 0.0000 0.0000 0.0000
# 3 24.2055 26.0252 27.9274 0.0000 0.0000 0.0000
# 4 0.0000 0.0000 0.0000 24.3499 0.0000 0.0000
# 5 0.0000 0.0000 0.0000 0.0000 26.6164 0.0000
# 6 0.0000 0.0000 0.0000 0.0000 0.0000 4.6556
#
#
#
# Elastic Compliance Matrix: (Units=1/GPa)
#
#
# Indices 1 2 3 4 5 6 
#
# 1 0.009684 -0.003052 -0.005550 0.000000 0.000000 0.000000
# 2 -0.003052 0.030583 -0.025855 0.000000 0.000000 0.000000
# 3 -0.005550 -0.025855 0.064712 0.000000 0.000000 0.000000
# 4 0.000000 0.000000 0.000000 0.041068 0.000000 0.000000
# 5 0.000000 0.000000 0.000000 0.000000 0.037571 0.000000
# 6 0.000000 0.000000 0.000000 0.000000 0.000000 0.214793
#
#
# Mechanical properties :
#
#
# Convention : Reuss Voigt Hill
#
# Bulk Modulus (GPa) = 27.72721 42.26449 34.99585
# Shear Modulus (GPa) = 10.43085 19.79798 15.11441
#
# Velocity S-wave (km/s) = 2.43919 3.36045 2.93618
# Velocity P-wave (km/s) = 4.87322 6.25812 5.60858
#
# Compressibility (1/GPa) = 0.03606565
#
# Stress axis : x y z
#
# Youngs Moduli (GPa) = 103.25835 32.69751 15.45317
#
# Poissons Ratio (x) = 0.09979 0.08576
# Poissons Ratio (y) = 0.31512 0.39955
# Poissons Ratio (z) = 0.57307 0.84540
#
# Static dielectric constant tensor:
#      x y z
#    x 1.616770 0.000000 0.000000 
#    y 0.000000 1.576700 0.000000 
#    z 0.000000 0.000000 1.592760 
# 
# From -- ./inp_files/7160.got.cif
#   From: 2010.05.17/outbox.cif.g08.bks.cpg/sg57_4_cif.got.tgz:7160.got - 2010.06.03 13:58:18.
