data_PCOD9435647
_publ_section_title
;
Structure prediction by ZEFSAII (Michael W. Deem and Ramdas Pophale) SiO2 
 PCOD9435647
Probable space group: P B C M
;
_chemical_formula_sum "Si O2"
_cell_formula_units_Z 40
_cell_length_a 13.524673
_cell_length_b 18.022325
_cell_length_c 8.505672
_cell_angle_alpha 90.000000
_cell_angle_beta 90.000000
_cell_angle_gamma 90.000000
_cell_volume 2073.223972
_symmetry_space_group_name_H-M "P B C M"
_symmetry_group_IT_number 57
_symmetry_cell_setting 'orthorhombic'
loop_
_space_group_symop_operation_xyz
x,y,z
-x,-y,1/2+z
x,1/2-y,-z
-x,1/2+y,1/2-z
-x,-y,-z
x,y,1/2-z
-x,1/2+y,z
x,1/2-y,1/2+z
loop_
_atom_site_type_symbol
_atom_site_label
_atom_site_fract_x
_atom_site_fract_y
_atom_site_fract_z
Si Si1 0.994672 0.328743 0.937774
Si Si2 0.597923 0.597204 0.436471
Si Si3 0.612670 0.428541 0.559493
Si Si4 0.194777 0.110855 0.937422
Si Si5 0.171354 0.560269 0.440659
O O1 0.992135 0.328944 0.750000
O O2 0.922866 0.394223 0.998184
O O3 0.958373 0.250000 0.000000
O O4 0.106528 0.341502 0.992692
O O5 0.606553 0.605870 0.250000
O O6 0.604575 0.509999 0.482510
O O7 0.485368 0.617487 0.485217
O O8 0.694183 0.633175 0.514115
O O9 0.609110 0.438258 0.750000
O O10 0.723042 0.402178 0.518564
O O11 0.188733 0.112082 0.750000
O O12 0.175797 0.025487 0.992518
O O13 0.166372 0.558468 0.250000
#
# Coordination Sequence:
#
# PCOD9435647 Si02
#       5
#     8   8   8   8   8
#     4  11  22  36  52  71  97 129 165 203 247 296
#     4   9  15  24  43  72 102 129 158 196 243 292
#     4   8  14  26  44  69 100 130 159 195 242 291
#     4  10  19  33  52  74 100 129 164 205 246 290
#     4   8  16  31  52  75  99 128 162 202 245 289
#
# _framework density 19.293620000000001
#
# number of rings (size 3 to 8) (size 9 to 14) (size 15 to 20)
#    0.000    2.800    0.000    3.600    0.000    0.800 
#    0.000    9.000    0.000    1.200    0.000    2.800 
#    0.000    0.000    0.000    0.000    0.000    0.000 
#
# Total GULP energy -222765.926353 kJ/mol
# GULP energy per Si atom -5569.148159 kJ/mol
# Density = 1.924971 g / cm^3
# Si number density = 19.293620 Si / 1000 Ang^3
#
#
#
# Elastic Constant Matrix: (Units=GPa)
#
#
# Indices 1 2 3 4 5 6 
#
# 1 88.5048 8.9034 13.8204 0.0000 0.0000 0.0000
# 2 8.9034 21.2041 3.8438 0.0000 0.0000 0.0000
# 3 13.8204 3.8438 32.1366 0.0000 0.0000 0.0000
# 4 0.0000 0.0000 0.0000 16.4303 0.0000 0.0000
# 5 0.0000 0.0000 0.0000 0.0000 21.8741 0.0000
# 6 0.0000 0.0000 0.0000 0.0000 0.0000 -7.6590
#
#
#
# Elastic Compliance Matrix: (Units=1/GPa)
#
#
# Indices 1 2 3 4 5 6 
#
# 1 0.012496 -0.004367 -0.004851 0.000000 0.000000 0.000000
# 2 -0.004367 0.049732 -0.004070 0.000000 0.000000 0.000000
# 3 -0.004851 -0.004070 0.033690 0.000000 0.000000 0.000000
# 4 0.000000 0.000000 0.000000 0.060863 0.000000 0.000000
# 5 0.000000 0.000000 0.000000 0.000000 0.045716 0.000000
# 6 0.000000 0.000000 0.000000 0.000000 0.000000 -0.130566
#
#
# Mechanical properties :
#
#
# Convention : Reuss Voigt Hill
#
# Bulk Modulus (GPa) = 14.42163 21.66454 18.04308
# Shear Modulus (GPa) = 41.11042 13.81426 27.46234
#
# Velocity S-wave (km/s) = 4.62104 2.67872 3.77688
# Velocity P-wave (km/s) = 5.99692 4.56297 5.32840
#
# Compressibility (1/GPa) = 0.06934030
#
# Stress axis : x y z
#
# Youngs Moduli (GPa) = 80.02721 20.10764 29.68205
#
# Poissons Ratio (x) = 0.08782 0.14400
# Poissons Ratio (y) = 0.34951 0.12081
# Poissons Ratio (z) = 0.38825 0.08184
#
# Static dielectric constant tensor:
#      x y z
#    x 1.741910 0.000000 0.000000 
#    y 0.000000 1.670100 0.000000 
#    z 0.000000 0.000000 1.647650 
# 
# From -- ./inp_files/2918.got.cif
#   From: 2010.05.17/outbox.cif.g08.bks.cpg/sg57_2_cif.got.tgz:2918.got - 2010.06.03 13:58:18.
