data_PCOD9435709
_publ_section_title
;
Structure prediction by ZEFSAII (Michael W. Deem and Ramdas Pophale) SiO2 
 PCOD9435709
Probable space group: P B C M
;
_chemical_formula_sum "Si O2"
_cell_formula_units_Z 64
_cell_length_a 22.957903
_cell_length_b 18.071443
_cell_length_c 8.616043
_cell_angle_alpha 90.000000
_cell_angle_beta 90.000000
_cell_angle_gamma 90.000000
_cell_volume 3574.644904
_symmetry_space_group_name_H-M "P B C M"
_symmetry_group_IT_number 57
_symmetry_cell_setting 'orthorhombic'
loop_
_space_group_symop_operation_xyz
x,y,z
-x,-y,1/2+z
x,1/2-y,-z
-x,1/2+y,1/2-z
-x,-y,-z
x,y,1/2-z
-x,1/2+y,z
x,1/2-y,1/2+z
loop_
_atom_site_type_symbol
_atom_site_label
_atom_site_fract_x
_atom_site_fract_y
_atom_site_fract_z
Si Si1 0.241082 0.512598 0.064520
Si Si2 0.460006 0.933761 0.436928
Si Si3 0.047840 0.328509 0.934238
Si Si4 0.200399 0.827159 0.563687
Si Si5 0.075005 0.627801 0.566004
Si Si6 0.108807 0.026915 0.564782
Si Si7 0.559399 0.831336 0.063932
Si Si8 0.361077 0.036302 0.064659
O O1 0.248837 0.509146 0.250000
O O2 0.236376 0.599368 0.019609
O O3 0.177664 0.478540 0.028881
O O4 0.294680 0.471869 0.985820
O O5 0.460995 0.933500 0.250000
O O6 0.494765 0.860381 0.487080
O O7 0.500000 0.000000 0.500000
O O8 0.395791 0.960903 0.484582
O O9 0.054443 0.331475 0.750000
O O10 0.068391 0.250000 0.000000
O O11 0.081830 0.396027 0.013177
O O12 0.980131 0.337934 0.979826
O O13 0.224366 0.750000 0.500000
O O14 0.196027 0.825216 0.750000
O O15 0.135736 0.838645 0.494230
O O16 0.069379 0.638493 0.750000
O O17 0.078119 0.540841 0.523759
O O18 0.101802 0.015562 0.750000
O O19 0.561153 0.829492 0.250000
O O20 0.571301 0.750000 0.000000
O O21 0.605538 0.893105 0.006924
O O22 0.365068 0.042685 0.250000
#
# Coordination Sequence:
#
# PCOD9435709 Si02
#       8
#     8   8   8   8   8   8   8   8
#     4   9  20  37  56  77 105 141 180 219 261 309
#     4   8  16  30  49  74 102 133 165 204 250 300
#     4  12  24  38  55  78 107 138 173 216 269 324
#     4  10  20  35  54  78 107 138 174 219 268 318
#     4  11  21  35  56  81 107 137 173 214 264 323
#     4  10  21  39  58  78 105 138 177 220 265 317
#     4  10  19  33  53  78 110 141 175 217 264 308
#     4  10  19  33  55  80 106 138 180 219 258 309
#
# _framework density 17.903877000000001
#
# number of rings (size 3 to 8) (size 9 to 14) (size 15 to 20)
#    0.000    2.000    0.000    5.250    0.000    4.000 
#    0.000    1.250    0.000    6.000    0.000    0.000 
#    0.000    0.000    0.000    0.000    0.000    0.000 
#
# Total GULP energy -357103.664026 kJ/mol
# GULP energy per Si atom -5579.744750 kJ/mol
# Density = 1.786313 g / cm^3
# Si number density = 17.903877 Si / 1000 Ang^3
#
#
#
# Elastic Constant Matrix: (Units=GPa)
#
#
# Indices 1 2 3 4 5 6 
#
# 1 49.0048 26.8531 10.3684 0.0000 0.0000 0.0000
# 2 26.8531 102.5323 9.8301 0.0000 0.0000 0.0000
# 3 10.3684 9.8301 41.2999 0.0000 0.0000 0.0000
# 4 0.0000 0.0000 0.0000 30.0750 0.0000 0.0000
# 5 0.0000 0.0000 0.0000 0.0000 22.1718 0.0000
# 6 0.0000 0.0000 0.0000 0.0000 0.0000 15.5413
#
#
#
# Elastic Compliance Matrix: (Units=1/GPa)
#
#
# Indices 1 2 3 4 5 6 
#
# 1 0.024712 -0.006014 -0.004772 0.000000 0.000000 0.000000
# 2 -0.006014 0.011445 -0.001214 0.000000 0.000000 0.000000
# 3 -0.004772 -0.001214 0.025700 0.000000 0.000000 0.000000
# 4 0.000000 0.000000 0.000000 0.033250 0.000000 0.000000
# 5 0.000000 0.000000 0.000000 0.000000 0.045102 0.000000
# 6 0.000000 0.000000 0.000000 0.000000 0.000000 0.064345
#
#
# Mechanical properties :
#
#
# Convention : Reuss Voigt Hill
#
# Bulk Modulus (GPa) = 26.41676 31.88222 29.14949
# Shear Modulus (GPa) = 20.73195 23.27664 22.00430
#
# Velocity S-wave (km/s) = 3.40657 3.60959 3.50955
# Velocity P-wave (km/s) = 5.50089 5.93450 5.72180
#
# Compressibility (1/GPa) = 0.03785476
#
# Stress axis : x y z
#
# Youngs Moduli (GPa) = 40.46684 87.37753 38.91015
#
# Poissons Ratio (x) = 0.52552 0.18569
# Poissons Ratio (y) = 0.24338 0.04724
# Poissons Ratio (z) = 0.19312 0.10608
#
# Static dielectric constant tensor:
#      x y z
#    x 1.607070 0.000000 0.000000 
#    y 0.000000 1.620200 0.000000 
#    z 0.000000 0.000000 1.611380 
# 
# From -- ./inp_files/8438.got.cif
#   From: 2010.05.17/outbox.cif.g08.bks.cpg/sg57_5_cif.got.tgz:8438.got - 2010.06.03 13:58:18.
