data_PCOD9435085
_publ_section_title
;
Structure prediction by ZEFSAII (Michael W. Deem and Ramdas Pophale) SiO2 
 PCOD9435085
Probable space group: P B C M
;
_chemical_formula_sum "Si O2"
_cell_formula_units_Z 48
_cell_length_a 15.950949
_cell_length_b 22.067075
_cell_length_c 8.293360
_cell_angle_alpha 90.000000
_cell_angle_beta 90.000000
_cell_angle_gamma 90.000000
_cell_volume 2919.186321
_symmetry_space_group_name_H-M "P B C M"
_symmetry_group_IT_number 57
_symmetry_cell_setting 'orthorhombic'
loop_
_space_group_symop_operation_xyz
x,y,z
-x,-y,1/2+z
x,1/2-y,-z
-x,1/2+y,1/2-z
-x,-y,-z
x,y,1/2-z
-x,1/2+y,z
x,1/2-y,1/2+z
loop_
_atom_site_type_symbol
_atom_site_label
_atom_site_fract_x
_atom_site_fract_y
_atom_site_fract_z
Si Si1 0.801415 0.040848 0.945015
Si Si2 0.557168 0.588110 0.057893
Si Si3 0.158097 0.404085 0.054523
Si Si4 0.306797 0.181401 0.941876
Si Si5 0.384250 0.545946 0.944909
Si Si6 0.020556 0.931668 0.055420
O O1 0.800860 0.041523 0.750000
O O2 0.709636 0.061998 0.999530
O O3 0.883685 0.078221 0.000322
O O4 0.814155 0.970993 0.997572
O O5 0.563008 0.589319 0.250000
O O6 0.595588 0.523307 0.001836
O O7 0.611977 0.642610 0.990264
O O8 0.460080 0.586841 0.007463
O O9 0.159409 0.404466 0.250000
O O10 0.224855 0.354875 0.995265
O O11 0.061233 0.394130 0.001831
O O12 0.301375 0.181893 0.750000
O O13 0.310204 0.250000 0.000000
O O14 0.386643 0.546811 0.750000
O O15 0.021526 0.929656 0.250000
O O16 0.000000 0.000000 0.000000
#
# Coordination Sequence:
#
# PCOD9435085 Si02
#       6
#     8   8   8   8   8   8
#     4   9  15  25  43  66  92 120 147 178 218 271
#     4  10  19  31  46  65  90 120 154 192 232 275
#     4   9  17  28  42  62  89 118 148 184 223 266
#     4  11  22  34  48  65  89 121 157 194 230 272
#     4   9  17  28  44  67  94 122 151 184 229 280
#     4   8  14  24  39  61  88 116 144 174 213 260
#
# _framework density 16.442938000000002
#
# number of rings (size 3 to 8) (size 9 to 14) (size 15 to 20)
#    0.000    2.667    1.667    1.000    0.000    2.000 
#    0.000    0.000    0.000    0.000    0.000    1.167 
#    0.000    2.667    0.000    0.000    0.000    0.000 
#
# Total GULP energy -267231.742072 kJ/mol
# GULP energy per Si atom -5567.327960 kJ/mol
# Density = 1.640551 g / cm^3
# Si number density = 16.442938 Si / 1000 Ang^3
#
#
#
# Elastic Constant Matrix: (Units=GPa)
#
#
# Indices 1 2 3 4 5 6 
#
# 1 192.4071 62.4079 20.8618 0.0000 0.0000 0.0000
# 2 62.4079 67.7514 9.5723 0.0000 0.0000 0.0000
# 3 20.8618 9.5723 9.9319 0.0000 0.0000 0.0000
# 4 0.0000 0.0000 0.0000 16.6333 0.0000 0.0000
# 5 0.0000 0.0000 0.0000 0.0000 14.0704 0.0000
# 6 0.0000 0.0000 0.0000 0.0000 0.0000 10.1460
#
#
#
# Elastic Compliance Matrix: (Units=1/GPa)
#
#
# Indices 1 2 3 4 5 6 
#
# 1 0.008474 -0.006125 -0.011896 0.000000 0.000000 0.000000
# 2 -0.006125 0.021513 -0.007870 0.000000 0.000000 0.000000
# 3 -0.011896 -0.007870 0.133258 0.000000 0.000000 0.000000
# 4 0.000000 0.000000 0.000000 0.060120 0.000000 0.000000
# 5 0.000000 0.000000 0.000000 0.000000 0.071071 0.000000
# 6 0.000000 0.000000 0.000000 0.000000 0.000000 0.098561
#
#
# Mechanical properties :
#
#
# Convention : Reuss Voigt Hill
#
# Bulk Modulus (GPa) = 8.97150 50.64161 29.80656
# Shear Modulus (GPa) = 10.37490 19.98650 15.18070
#
# Velocity S-wave (km/s) = 2.51462 3.49019 3.04178
# Velocity P-wave (km/s) = 3.72815 6.86347 5.52297
#
# Compressibility (1/GPa) = 0.11146405
#
# Stress axis : x y z
#
# Youngs Moduli (GPa) = 118.01246 46.48276 7.50425
#
# Poissons Ratio (x) = 0.28469 0.08927
# Poissons Ratio (y) = 0.72278 0.05906
# Poissons Ratio (z) = 1.40387 0.36581
#
# Static dielectric constant tensor:
#      x y z
#    x 1.624660 0.000000 0.000000 
#    y 0.000000 1.502710 0.000000 
#    z 0.000000 0.000000 1.543400 
# 
# From -- ./inp_files/5356.got.cif
#   From: 2010.05.17/outbox.cif.g08.bks.cpg/sg57_3_cif.got.tgz:5356.got - 2010.06.03 13:58:18.
