data_PCOD9435038
_publ_section_title
;
Structure prediction by ZEFSAII (Michael W. Deem and Ramdas Pophale) SiO2 
 PCOD9435038
Probable space group: P B C M
;
_chemical_formula_sum "Si O2"
_cell_formula_units_Z 64
_cell_length_a 15.245216
_cell_length_b 30.438921
_cell_length_c 8.726368
_cell_angle_alpha 90.000000
_cell_angle_beta 90.000000
_cell_angle_gamma 90.000000
_cell_volume 4049.452967
_symmetry_space_group_name_H-M "P B C M"
_symmetry_group_IT_number 57
_symmetry_cell_setting 'orthorhombic'
loop_
_space_group_symop_operation_xyz
x,y,z
-x,-y,1/2+z
x,1/2-y,-z
-x,1/2+y,1/2-z
-x,-y,-z
x,y,1/2-z
-x,1/2+y,z
x,1/2-y,1/2+z
loop_
_atom_site_type_symbol
_atom_site_label
_atom_site_fract_x
_atom_site_fract_y
_atom_site_fract_z
Si Si1 0.799138 0.885170 0.065852
Si Si2 0.539724 0.112224 0.564909
Si Si3 0.125286 0.530189 0.565461
Si Si4 0.673542 0.463505 0.065077
Si Si5 0.045904 0.064377 0.067294
Si Si6 0.493213 0.203333 0.067171
Si Si7 0.297035 0.295794 0.066110
Si Si8 0.366991 0.443137 0.065173
O O1 0.805963 0.888239 0.250000
O O2 0.763570 0.836993 0.027154
O O3 0.723322 0.919492 0.016001
O O4 0.891364 0.897507 0.992696
O O5 0.538543 0.117289 0.750000
O O6 0.618454 0.079485 0.521828
O O7 0.543480 0.160090 0.490036
O O8 0.449452 0.087166 0.520631
O O9 0.123164 0.532151 0.750000
O O10 0.224883 0.538254 0.514647
O O11 0.093806 0.481287 0.518533
O O12 0.051724 0.562637 0.499971
O O13 0.672235 0.466402 0.250000
O O14 0.630513 0.507974 0.000977
O O15 0.041622 0.064863 0.250000
O O16 0.491997 0.205666 0.250000
O O17 0.525467 0.250000 0.000000
O O18 0.393769 0.197873 0.004321
O O19 0.306056 0.293525 0.250000
O O20 0.262550 0.250000 0.000000
O O21 0.367324 0.445532 0.250000
#
# Coordination Sequence:
#
# PCOD9435038 Si02
#       8
#     8   8   8   8   8   8   8   8
#     4  10  19  31  48  69  98 133 161 195 243 290
#     4  10  20  35  50  69  99 133 167 202 245 292
#     4   9  18  32  46  67  95 124 160 200 245 287
#     4  10  20  33  50  70  97 132 169 209 243 284
#     4  10  19  30  48  70  93 123 162 203 238 284
#     4  11  21  33  51  72  96 126 163 205 247 289
#     4  10  19  33  50  71  99 129 163 199 245 292
#     4  10  19  31  46  67 100 136 167 199 236 286
#
# _framework density 15.804605
#
# number of rings (size 3 to 8) (size 9 to 14) (size 15 to 20)
#    0.000    2.000    2.500    3.000    0.000    3.000 
#    0.000    0.000    0.000    0.000    0.000    0.875 
#    0.000    4.000    0.000    0.000    0.000    0.000 
#
# Total GULP energy -357102.587833 kJ/mol
# GULP energy per Si atom -5579.727935 kJ/mol
# Density = 1.576863 g / cm^3
# Si number density = 15.804605 Si / 1000 Ang^3
#
#
#
# Elastic Constant Matrix: (Units=GPa)
#
#
# Indices 1 2 3 4 5 6 
#
# 1 67.3934 45.0190 19.3251 0.0000 0.0000 0.0000
# 2 45.0190 130.7392 38.4280 0.0000 0.0000 0.0000
# 3 19.3251 38.4280 31.7890 0.0000 0.0000 0.0000
# 4 0.0000 0.0000 0.0000 27.6280 0.0000 0.0000
# 5 0.0000 0.0000 0.0000 0.0000 16.6996 0.0000
# 6 0.0000 0.0000 0.0000 0.0000 0.0000 22.0524
#
#
#
# Elastic Compliance Matrix: (Units=1/GPa)
#
#
# Indices 1 2 3 4 5 6 
#
# 1 0.019968 -0.005131 -0.005936 0.000000 0.000000 0.000000
# 2 -0.005131 0.013183 -0.012817 0.000000 0.000000 0.000000
# 3 -0.005936 -0.012817 0.050560 0.000000 0.000000 0.000000
# 4 0.000000 0.000000 0.000000 0.036195 0.000000 0.000000
# 5 0.000000 0.000000 0.000000 0.000000 0.059882 0.000000
# 6 0.000000 0.000000 0.000000 0.000000 0.000000 0.045347
#
#
# Mechanical properties :
#
#
# Convention : Reuss Voigt Hill
#
# Bulk Modulus (GPa) = 27.82228 48.38508 38.10368
# Shear Modulus (GPa) = 17.55103 21.75263 19.65183
#
# Velocity S-wave (km/s) = 3.33603 3.71394 3.53005
# Velocity P-wave (km/s) = 5.69921 7.00515 6.38565
#
# Compressibility (1/GPa) = 0.03594242
#
# Stress axis : x y z
#
# Youngs Moduli (GPa) = 50.08015 75.85599 19.77850
#
# Poissons Ratio (x) = 0.38921 0.11741
# Poissons Ratio (y) = 0.25696 0.25350
# Poissons Ratio (z) = 0.29729 0.97224
#
# Static dielectric constant tensor:
#      x y z
#    x 1.519510 0.000000 0.000000 
#    y 0.000000 1.526920 0.000000 
#    z 0.000000 0.000000 1.527610 
# 
# From -- ./inp_files/5992.got.cif
#   From: 2010.05.17/outbox.cif.g08.bks.cpg/sg57_3_cif.got.tgz:5992.got - 2010.06.03 13:58:18.
