data_PCOD9435351
_publ_section_title
;
Structure prediction by ZEFSAII (Michael W. Deem and Ramdas Pophale) SiO2 
 PCOD9435351
Probable space group: P B C M
;
_chemical_formula_sum "Si O2"
_cell_formula_units_Z 40
_cell_length_a 15.469455
_cell_length_b 13.019237
_cell_length_c 9.192482
_cell_angle_alpha 90.000000
_cell_angle_beta 90.000000
_cell_angle_gamma 90.000000
_cell_volume 1851.370479
_symmetry_space_group_name_H-M "P B C M"
_symmetry_group_IT_number 57
_symmetry_cell_setting 'orthorhombic'
loop_
_space_group_symop_operation_xyz
x,y,z
-x,-y,1/2+z
x,1/2-y,-z
-x,1/2+y,1/2-z
-x,-y,-z
x,y,1/2-z
-x,1/2+y,z
x,1/2-y,1/2+z
loop_
_atom_site_type_symbol
_atom_site_label
_atom_site_fract_x
_atom_site_fract_y
_atom_site_fract_z
Si Si1 0.566904 0.855969 0.921309
Si Si2 0.977924 0.398090 0.084011
Si Si3 0.827769 0.649369 0.919794
Si Si4 0.374214 0.937501 0.579327
Si Si5 0.793427 0.429625 0.424486
O O1 0.589113 0.854806 0.750000
O O2 0.463518 0.875393 0.934208
O O3 0.588310 0.750000 0.000000
O O4 0.609880 0.952802 0.001456
O O5 0.965030 0.428108 0.250000
O O6 0.881406 0.367144 0.037099
O O7 0.067316 0.337166 0.081105
O O8 0.000000 0.500000 0.000000
O O9 0.801179 0.641473 0.750000
O O10 0.791646 0.750000 0.000000
O O11 0.807265 0.544659 0.007521
O O12 0.356794 0.952046 0.750000
O O13 0.292345 0.887743 0.500465
O O14 0.781194 0.434323 0.250000
#
# Coordination Sequence:
#
# PCOD9435351 Si02
#       5
#     8   8   8   8   8
#     4  10  21  38  60  83 109 142 178 219 268 323
#     4   8  16  30  48  68  93 127 164 202 245 294
#     4  10  19  32  49  72 102 135 173 216 262 310
#     4  10  21  37  57  83 112 142 178 220 269 323
#     4  10  19  33  53  76 102 134 172 214 261 311
#
# _framework density 21.605615
#
# number of rings (size 3 to 8) (size 9 to 14) (size 15 to 20)
#    0.000    2.400    0.000    2.400    0.000    4.800 
#    0.000    5.000    0.000    4.800    0.000    0.000 
#    0.000    0.000    0.000    0.000    0.000    0.000 
#
# Total GULP energy -223085.413766 kJ/mol
# GULP energy per Si atom -5577.135344 kJ/mol
# Density = 2.155644 g / cm^3
# Si number density = 21.605615 Si / 1000 Ang^3
#
#
#
# Elastic Constant Matrix: (Units=GPa)
#
#
# Indices 1 2 3 4 5 6 
#
# 1 133.0571 -9.4047 46.9968 0.0000 0.0000 0.0000
# 2 -9.4047 60.1493 35.8709 0.0000 0.0000 0.0000
# 3 46.9968 35.8709 111.4883 0.0000 0.0000 0.0000
# 4 0.0000 0.0000 0.0000 17.7064 0.0000 0.0000
# 5 0.0000 0.0000 0.0000 0.0000 34.6242 0.0000
# 6 0.0000 0.0000 0.0000 0.0000 0.0000 -3.5523
#
#
#
# Elastic Compliance Matrix: (Units=1/GPa)
#
#
# Indices 1 2 3 4 5 6 
#
# 1 0.009914 0.005002 -0.005788 0.000000 0.000000 0.000000
# 2 0.005002 0.023097 -0.009540 0.000000 0.000000 0.000000
# 3 -0.005788 -0.009540 0.014479 0.000000 0.000000 0.000000
# 4 0.000000 0.000000 0.000000 0.056477 0.000000 0.000000
# 5 0.000000 0.000000 0.000000 0.000000 0.028882 0.000000
# 6 0.000000 0.000000 0.000000 0.000000 0.000000 -0.281505
#
#
# Mechanical properties :
#
#
# Convention : Reuss Voigt Hill
#
# Bulk Modulus (GPa) = 37.26210 50.18006 43.72108
# Shear Modulus (GPa) = -41.99574 25.17110 -8.41232
#
# Velocity S-wave (km/s) = -4.41357 3.41695 -1.97536
# Velocity P-wave (km/s) = 2.94769 6.23244 3.88294
#
# Compressibility (1/GPa) = 0.02683692
#
# Stress axis : x y z
#
# Youngs Moduli (GPa) = 100.87131 43.29646 69.06570
#
# Poissons Ratio (x) = -0.21657 0.39978
# Poissons Ratio (y) = -0.50456 0.65887
# Poissons Ratio (z) = 0.58388 0.41304
#
# Static dielectric constant tensor:
#      x y z
#    x 1.852750 0.000000 0.000000 
#    y 0.000000 1.759320 0.000000 
#    z 0.000000 0.000000 1.725480 
# 
# From -- ./inp_files/4264.got.cif
#   From: 2010.05.17/outbox.cif.g08.bks.cpg/sg57_3_cif.got.tgz:4264.got - 2010.06.03 13:58:18.
