data_PCOD9435353
_publ_section_title
;
Structure prediction by ZEFSAII (Michael W. Deem and Ramdas Pophale) SiO2 
 PCOD9435353
Probable space group: P B C M
;
_chemical_formula_sum "Si O2"
_cell_formula_units_Z 64
_cell_length_a 22.272506
_cell_length_b 19.452540
_cell_length_c 8.678083
_cell_angle_alpha 90.000000
_cell_angle_beta 90.000000
_cell_angle_gamma 90.000000
_cell_volume 3759.838591
_symmetry_space_group_name_H-M "P B C M"
_symmetry_group_IT_number 57
_symmetry_cell_setting 'orthorhombic'
loop_
_space_group_symop_operation_xyz
x,y,z
-x,-y,1/2+z
x,1/2-y,-z
-x,1/2+y,1/2-z
-x,-y,-z
x,y,1/2-z
-x,1/2+y,z
x,1/2-y,1/2+z
loop_
_atom_site_type_symbol
_atom_site_label
_atom_site_fract_x
_atom_site_fract_y
_atom_site_fract_z
Si Si1 0.312518 0.058183 0.564069
Si Si2 0.774126 0.379960 0.431132
Si Si3 0.900419 0.322163 0.431656
Si Si4 0.185995 0.020771 0.569349
Si Si5 0.399455 0.326141 0.935000
Si Si6 0.061429 0.530537 0.064055
Si Si7 0.536973 0.325894 0.566052
Si Si8 0.355013 0.588401 0.932844
O O1 0.312673 0.056067 0.750000
O O2 0.242688 0.064311 0.509195
O O3 0.353229 0.119720 0.504186
O O4 0.339008 0.986252 0.501210
O O5 0.777703 0.402270 0.250000
O O6 0.827855 0.326681 0.452706
O O7 0.790851 0.443203 0.541108
O O8 0.704428 0.364174 0.460069
O O9 0.922087 0.250000 0.500000
O O10 0.912723 0.324759 0.250000
O O11 0.927065 0.391273 0.507720
O O12 0.180930 0.036027 0.750000
O O13 0.118133 0.016298 0.507464
O O14 0.395162 0.325482 0.750000
O O15 0.468435 0.344699 0.977548
O O16 0.388253 0.250000 0.000000
O O17 0.061179 0.530267 0.250000
O O18 0.000000 0.500000 0.000000
O O19 0.548998 0.250000 0.500000
O O20 0.539999 0.322885 0.750000
O O21 0.586197 0.378509 0.504841
O O22 0.363045 0.581827 0.750000
#
# Coordination Sequence:
#
# PCOD9435353 Si02
#       8
#     8   8   8   8   8   8   8   8
#     4  10  19  33  54  78 102 130 164 206 253 298
#     4   8  16  29  45  67  96 128 162 199 240 287
#     4  10  19  32  49  72 102 136 173 212 251 293
#     4   8  16  30  49  73 100 127 157 195 238 285
#     4  10  21  37  55  74  96 126 165 210 260 313
#     4  10  19  33  53  78 106 138 173 207 247 296
#     4  10  21  36  51  68  94 129 168 209 255 307
#     4  10  19  32  50  74 103 134 169 208 250 297
#
# _framework density 17.022008
#
# number of rings (size 3 to 8) (size 9 to 14) (size 15 to 20)
#    0.000    2.500    0.000    2.250    0.000    4.500 
#    0.000    1.250    0.000    0.750    0.000    3.500 
#    0.000    0.000    0.000    0.000    0.000    0.000 
#
# Total GULP energy -356438.747601 kJ/mol
# GULP energy per Si atom -5569.355431 kJ/mol
# Density = 1.698327 g / cm^3
# Si number density = 17.022008 Si / 1000 Ang^3
#
#
#
# Elastic Constant Matrix: (Units=GPa)
#
#
# Indices 1 2 3 4 5 6 
#
# 1 159.5559 79.9701 46.1458 0.0000 0.0000 0.0000
# 2 79.9701 77.2510 34.6442 0.0000 0.0000 0.0000
# 3 46.1458 34.6442 50.0980 0.0000 0.0000 0.0000
# 4 0.0000 0.0000 0.0000 28.9144 0.0000 0.0000
# 5 0.0000 0.0000 0.0000 0.0000 19.6433 0.0000
# 6 0.0000 0.0000 0.0000 0.0000 0.0000 6.3977
#
#
#
# Elastic Compliance Matrix: (Units=1/GPa)
#
#
# Indices 1 2 3 4 5 6 
#
# 1 0.013566 -0.012234 -0.004036 0.000000 0.000000 0.000000
# 2 -0.012234 0.029796 -0.009336 0.000000 0.000000 0.000000
# 3 -0.004036 -0.009336 0.030135 0.000000 0.000000 0.000000
# 4 0.000000 0.000000 0.000000 0.034585 0.000000 0.000000
# 5 0.000000 0.000000 0.000000 0.000000 0.050908 0.000000
# 6 0.000000 0.000000 0.000000 0.000000 0.000000 0.156306
#
#
# Mechanical properties :
#
#
# Convention : Reuss Voigt Hill
#
# Bulk Modulus (GPa) = 44.87297 67.60277 56.23787
# Shear Modulus (GPa) = 13.37124 19.40073 16.38599
#
# Velocity S-wave (km/s) = 2.80577 3.37967 3.10600
# Velocity P-wave (km/s) = 6.07580 7.41827 6.78034
#
# Compressibility (1/GPa) = 0.02228513
#
# Stress axis : x y z
#
# Youngs Moduli (GPa) = 73.71198 33.56135 33.18425
#
# Poissons Ratio (x) = 0.41058 0.13393
# Poissons Ratio (y) = 0.90178 0.30982
# Poissons Ratio (z) = 0.29750 0.31334
#
# Static dielectric constant tensor:
#      x y z
#    x 1.610870 0.000000 0.000000 
#    y 0.000000 1.542730 0.000000 
#    z 0.000000 0.000000 1.577770 
# 
# From -- ./inp_files/8468.got.cif
#   From: 2010.05.17/outbox.cif.g08.bks.cpg/sg57_5_cif.got.tgz:8468.got - 2010.06.03 13:58:18.
