data_PCOD9435608
_publ_section_title
;
Structure prediction by ZEFSAII (Michael W. Deem and Ramdas Pophale) SiO2 
 PCOD9435608
Probable space group: P B C M
;
_chemical_formula_sum "Si O2"
_cell_formula_units_Z 48
_cell_length_a 14.950536
_cell_length_b 9.520446
_cell_length_c 17.343830
_cell_angle_alpha 90.000000
_cell_angle_beta 90.000000
_cell_angle_gamma 90.000000
_cell_volume 2468.647409
_symmetry_space_group_name_H-M "P B C M"
_symmetry_group_IT_number 57
_symmetry_cell_setting 'orthorhombic'
loop_
_space_group_symop_operation_xyz
x,y,z
-x,-y,1/2+z
x,1/2-y,-z
-x,1/2+y,1/2-z
-x,-y,-z
x,y,1/2-z
-x,1/2+y,z
x,1/2-y,1/2+z
loop_
_atom_site_type_symbol
_atom_site_label
_atom_site_fract_x
_atom_site_fract_y
_atom_site_fract_z
Si Si1 0.757872 0.218386 0.337642
Si Si2 0.066901 0.641531 0.428774
Si Si3 0.689336 0.479874 0.428321
Si Si4 0.617041 0.028843 0.394805
Si Si5 0.123934 0.104654 0.037075
Si Si6 0.447390 0.219757 0.092144
O O1 0.761692 0.266092 0.250000
O O2 0.857603 0.193542 0.370439
O O3 0.700703 0.329922 0.387816
O O4 0.702642 0.073988 0.345702
O O5 0.068013 0.750000 0.500000
O O6 0.094296 0.493719 0.466017
O O7 0.962196 0.627238 0.408112
O O8 0.651349 0.465755 0.515729
O O9 0.790459 0.534778 0.426508
O O10 0.627284 0.600773 0.392433
O O11 0.538930 0.143769 0.384060
O O12 0.578611 0.873645 0.376499
O O13 0.152849 0.250000 0.000000
O O14 0.453048 0.250000 0.000000
#
# Coordination Sequence:
#
# PCOD9435608 Si02
#       6
#     8   8   8   8   8   8
#     4  12  24  39  57  81 117 163 199 237 292 349
#     4  10  19  37  61  89 115 150 196 242 283 343
#     4  11  20  37  61  89 118 148 193 246 292 351
#     4  11  20  38  61  89 118 151 192 249 295 352
#     4  10  19  32  64  94 114 141 190 243 296 340
#     4  10  20  33  62  95 116 142 192 250 302 341
#
# _framework density 19.443846000000001
#
# number of rings (size 3 to 8) (size 9 to 14) (size 15 to 20)
#    0.000    1.333    3.333    6.000    0.000    0.000 
#    0.000    5.000    0.000    0.000    0.000    0.000 
#    0.000    0.000    0.000    0.000    0.000    0.000 
#
# Total GULP energy -267717.947911 kJ/mol
# GULP energy per Si atom -5577.457248 kJ/mol
# Density = 1.939959 g / cm^3
# Si number density = 19.443846 Si / 1000 Ang^3
#
#
#
# Elastic Constant Matrix: (Units=GPa)
#
#
# Indices 1 2 3 4 5 6 
#
# 1 142.8139 27.4309 22.3427 0.0000 0.0000 0.0000
# 2 27.4309 99.1850 9.7355 0.0000 0.0000 0.0000
# 3 22.3427 9.7355 28.7969 0.0000 0.0000 0.0000
# 4 0.0000 0.0000 0.0000 -1.5684 0.0000 0.0000
# 5 0.0000 0.0000 0.0000 0.0000 -7.5564 0.0000
# 6 0.0000 0.0000 0.0000 0.0000 0.0000 40.9876
#
#
#
# Elastic Compliance Matrix: (Units=1/GPa)
#
#
# Indices 1 2 3 4 5 6 
#
# 1 0.008240 -0.001708 -0.005816 0.000000 0.000000 0.000000
# 2 -0.001708 0.010782 -0.002320 0.000000 0.000000 0.000000
# 3 -0.005816 -0.002320 0.040023 0.000000 0.000000 0.000000
# 4 0.000000 0.000000 0.000000 -0.637606 0.000000 0.000000
# 5 0.000000 0.000000 0.000000 0.000000 -0.132338 0.000000
# 6 0.000000 0.000000 0.000000 0.000000 0.000000 0.024398
#
#
# Mechanical properties :
#
#
# Convention : Reuss Voigt Hill
#
# Bulk Modulus (GPa) = 25.40821 43.31266 34.36044
# Shear Modulus (GPa) = -7.64883 20.45835 6.40476
#
# Velocity S-wave (km/s) = -1.98553 3.24725 1.81690
# Velocity P-wave (km/s) = 2.79989 6.03188 4.70229
#
# Compressibility (1/GPa) = 0.03935735
#
# Stress axis : x y z
#
# Youngs Moduli (GPa) = 121.35851 92.74490 24.98586
#
# Poissons Ratio (x) = 0.15841 0.14531
# Poissons Ratio (y) = 0.20729 0.05797
# Poissons Ratio (z) = 0.70580 0.21517
#
# Static dielectric constant tensor:
#      x y z
#    x 1.725040 0.000000 0.000000 
#    y 0.000000 1.719250 0.000000 
#    z 0.000000 0.000000 1.678760 
# 
# From -- ./inp_files/22481.got.cif
#   From: 2010.05.17/outbox.cif.g08.bks.cpg/sg57_12_cif.got.tgz:22481.got - 2010.06.03 13:58:18.
