data_PCOD9435826
_publ_section_title
;
Structure prediction by ZEFSAII (Michael W. Deem and Ramdas Pophale) SiO2 
 PCOD9435826
Probable space group: P B C M
;
_chemical_formula_sum "Si O2"
_cell_formula_units_Z 48
_cell_length_a 16.179357
_cell_length_b 9.038105
_cell_length_c 14.674906
_cell_angle_alpha 90.000000
_cell_angle_beta 90.000000
_cell_angle_gamma 90.000000
_cell_volume 2145.922179
_symmetry_space_group_name_H-M "P B C M"
_symmetry_group_IT_number 57
_symmetry_cell_setting 'orthorhombic'
loop_
_space_group_symop_operation_xyz
x,y,z
-x,-y,1/2+z
x,1/2-y,-z
-x,1/2+y,1/2-z
-x,-y,-z
x,y,1/2-z
-x,1/2+y,z
x,1/2-y,1/2+z
loop_
_atom_site_type_symbol
_atom_site_label
_atom_site_fract_x
_atom_site_fract_y
_atom_site_fract_z
Si Si1 0.095239 0.873677 0.138215
Si Si2 0.412020 0.320941 0.398902
Si Si3 0.425959 0.674790 0.400434
Si Si4 0.768876 0.841000 0.093597
Si Si5 0.757430 0.334284 0.645013
Si Si6 0.064400 0.198742 0.144732
O O1 0.095837 0.879552 0.250000
O O2 0.179771 0.791717 0.113855
O O3 0.015610 0.781076 0.107171
O O4 0.085878 0.040095 0.102627
O O5 0.406182 0.250000 0.500000
O O6 0.430188 0.496391 0.404664
O O7 0.490790 0.239492 0.356042
O O8 0.319529 0.302814 0.359610
O O9 0.422454 0.750000 0.500000
O O10 0.338026 0.713294 0.356598
O O11 0.853434 0.796840 0.141992
O O12 0.766170 0.018079 0.085125
O O13 0.771068 0.750000 0.000000
O O14 0.778498 0.375088 0.750000
O O15 0.042827 0.170570 0.250000
#
# Coordination Sequence:
#
# PCOD9435826 Si02
#       6
#     8   8   8   8   8   8
#     4   9  19  34  56  80 104 141 183 220 277 346
#     4   9  18  32  52  77 106 141 180 218 265 327
#     4  10  19  33  55  79 105 143 184 222 265 321
#     4  10  21  36  55  81 110 146 188 228 275 332
#     4  10  21  38  56  80 113 147 182 230 285 335
#     4  10  19  35  57  79 105 142 185 230 277 335
#
# _framework density 22.368003999999999
#
# number of rings (size 3 to 8) (size 9 to 14) (size 15 to 20)
#    0.000    2.333    0.000    3.500    0.000    8.000 
#    0.000    8.333    0.000    0.000    0.000    0.000 
#    0.000    0.000    0.000    0.000    0.000    0.000 
#
# Total GULP energy -267915.020968 kJ/mol
# GULP energy per Si atom -5581.562937 kJ/mol
# Density = 2.231709 g / cm^3
# Si number density = 22.368004 Si / 1000 Ang^3
#
#
#
# Elastic Constant Matrix: (Units=GPa)
#
#
# Indices 1 2 3 4 5 6 
#
# 1 183.4094 66.5173 -11.7951 0.0000 0.0000 0.0000
# 2 66.5173 74.8735 -8.6325 0.0000 0.0000 0.0000
# 3 -11.7951 -8.6325 50.5449 0.0000 0.0000 0.0000
# 4 0.0000 0.0000 0.0000 13.8284 0.0000 0.0000
# 5 0.0000 0.0000 0.0000 0.0000 16.8142 0.0000
# 6 0.0000 0.0000 0.0000 0.0000 0.0000 39.5233
#
#
#
# Elastic Compliance Matrix: (Units=1/GPa)
#
#
# Indices 1 2 3 4 5 6 
#
# 1 0.008066 -0.007089 0.000672 0.000000 0.000000 0.000000
# 2 -0.007089 0.019854 0.001737 0.000000 0.000000 0.000000
# 3 0.000672 0.001737 0.020238 0.000000 0.000000 0.000000
# 4 0.000000 0.000000 0.000000 0.072315 0.000000 0.000000
# 5 0.000000 0.000000 0.000000 0.000000 0.059473 0.000000
# 6 0.000000 0.000000 0.000000 0.000000 0.000000 0.025302
#
#
# Mechanical properties :
#
#
# Convention : Reuss Voigt Hill
#
# Bulk Modulus (GPa) = 25.77529 44.55636 35.16583
# Shear Modulus (GPa) = 21.97407 31.54905 26.76156
#
# Velocity S-wave (km/s) = 3.13771 3.75968 3.46268
# Velocity P-wave (km/s) = 4.96742 6.22975 5.63405
#
# Compressibility (1/GPa) = 0.03879685
#
# Stress axis : x y z
#
# Youngs Moduli (GPa) = 123.97221 50.36874 49.41267
#
# Poissons Ratio (x) = 0.35705 -0.03319
# Poissons Ratio (y) = 0.87879 -0.08581
# Poissons Ratio (z) = -0.08327 -0.08747
#
# Static dielectric constant tensor:
#      x y z
#    x 1.849280 0.000000 0.000000 
#    y 0.000000 1.782760 0.000000 
#    z 0.000000 0.000000 1.876260 
# 
# From -- ./inp_files/22427.got.cif
#   From: 2010.05.17/outbox.cif.g08.bks.cpg/sg57_12_cif.got.tgz:22427.got - 2010.06.03 13:58:18.
