data_PCOD9435207
_publ_section_title
;
Structure prediction by ZEFSAII (Michael W. Deem and Ramdas Pophale) SiO2 
 PCOD9435207
Probable space group: P B C M
;
_chemical_formula_sum "Si O2"
_cell_formula_units_Z 48
_cell_length_a 9.604243
_cell_length_b 31.754541
_cell_length_c 9.230127
_cell_angle_alpha 90.000000
_cell_angle_beta 90.000000
_cell_angle_gamma 90.000000
_cell_volume 2814.988701
_symmetry_space_group_name_H-M "P B C M"
_symmetry_group_IT_number 57
_symmetry_cell_setting 'orthorhombic'
loop_
_space_group_symop_operation_xyz
x,y,z
-x,-y,1/2+z
x,1/2-y,-z
-x,1/2+y,1/2-z
-x,-y,-z
x,y,1/2-z
-x,1/2+y,z
x,1/2-y,1/2+z
loop_
_atom_site_type_symbol
_atom_site_label
_atom_site_fract_x
_atom_site_fract_y
_atom_site_fract_z
Si Si1 0.173329 0.621675 0.422591
Si Si2 0.643385 0.953464 0.577615
Si Si3 0.348448 0.950131 0.077813
Si Si4 0.843041 0.623690 0.421310
Si Si5 0.823519 0.292258 0.417811
Si Si6 0.162932 0.208222 0.916096
O O1 0.196948 0.623301 0.250000
O O2 0.252718 0.582951 0.494876
O O3 0.217997 0.665525 0.497383
O O4 0.007353 0.617120 0.447812
O O5 0.610243 0.950499 0.750000
O O6 0.504484 0.946721 0.484893
O O7 0.756134 0.917909 0.542510
O O8 0.695020 0.001179 0.552155
O O9 0.345956 0.942378 0.250000
O O10 0.827057 0.632092 0.250000
O O11 0.794643 0.664831 0.507865
O O12 0.776990 0.250000 0.500000
O O13 0.779584 0.292914 0.250000
O O14 0.993213 0.291486 0.418700
O O15 0.207606 0.209488 0.750000
O O16 0.209510 0.250000 0.000000
#
# Coordination Sequence:
#
# PCOD9435207 Si02
#       6
#     8   8   8   8   8   8
#     4  10  19  31  49  74 102 131 163 201 245 289
#     4   9  19  36  54  71  95 129 166 203 246 296
#     4  10  20  34  52  73  97 128 166 204 244 295
#     4   9  18  32  50  73 100 129 163 203 245 288
#     4   9  16  27  44  68  98 130 163 199 239 285
#     4   9  16  26  43  68  98 130 162 197 238 285
#
# _framework density 17.051577000000002
#
# number of rings (size 3 to 8) (size 9 to 14) (size 15 to 20)
#    0.000    2.667    0.000    2.000    0.000    6.667 
#    0.000    0.000    0.000    1.000    0.000    2.333 
#    0.000    0.000    0.000    0.000    0.000    0.000 
#
# Total GULP energy -267621.976402 kJ/mol
# GULP energy per Si atom -5575.457842 kJ/mol
# Density = 1.701277 g / cm^3
# Si number density = 17.051577 Si / 1000 Ang^3
#
#
#
# Elastic Constant Matrix: (Units=GPa)
#
#
# Indices 1 2 3 4 5 6 
#
# 1 29.0928 64.6780 49.0510 0.0000 0.0000 0.0000
# 2 64.6780 194.3366 115.7521 0.0000 0.0000 0.0000
# 3 49.0510 115.7521 119.1064 0.0000 0.0000 0.0000
# 4 0.0000 0.0000 0.0000 36.0181 0.0000 0.0000
# 5 0.0000 0.0000 0.0000 0.0000 19.2910 0.0000
# 6 0.0000 0.0000 0.0000 0.0000 0.0000 -14.5245
#
#
#
# Elastic Compliance Matrix: (Units=1/GPa)
#
#
# Indices 1 2 3 4 5 6 
#
# 1 0.186644 -0.038787 -0.039170 0.000000 0.000000 0.000000
# 2 -0.038787 0.020279 -0.003734 0.000000 0.000000 0.000000
# 3 -0.039170 -0.003734 0.028156 0.000000 0.000000 0.000000
# 4 0.000000 0.000000 0.000000 0.027764 0.000000 0.000000
# 5 0.000000 0.000000 0.000000 0.000000 0.051838 0.000000
# 6 0.000000 0.000000 0.000000 0.000000 0.000000 -0.068849
#
#
# Mechanical properties :
#
#
# Convention : Reuss Voigt Hill
#
# Bulk Modulus (GPa) = 13.94771 89.05534 51.50152
# Shear Modulus (GPa) = 11.54438 15.69392 13.61915
#
# Velocity S-wave (km/s) = 2.60480 3.03707 2.82920
# Velocity P-wave (km/s) = 4.15260 8.03982 6.39855
#
# Compressibility (1/GPa) = 0.07169636
#
# Stress axis : x y z
#
# Youngs Moduli (GPa) = 5.35781 49.31241 35.51653
#
# Poissons Ratio (x) = 1.91269 1.39117
# Poissons Ratio (y) = 0.20781 0.13263
# Poissons Ratio (z) = 0.20986 0.18414
#
# Static dielectric constant tensor:
#      x y z
#    x 1.550260 0.000000 0.000000 
#    y 0.000000 1.565720 0.000000 
#    z 0.000000 0.000000 1.570740 
# 
# From -- ./inp_files/1971.got.cif
#   From: 2010.05.17/outbox.cif.g08.bks.cpg/sg57_1_cif.got.tgz:1971.got - 2010.06.03 13:58:18.
