data_PCOD9435535
_publ_section_title
;
Structure prediction by ZEFSAII (Michael W. Deem and Ramdas Pophale) SiO2 
 PCOD9435535
Probable space group: P B C M
;
_chemical_formula_sum "Si O2"
_cell_formula_units_Z 64
_cell_length_a 15.000447
_cell_length_b 25.550785
_cell_length_c 8.835627
_cell_angle_alpha 90.000000
_cell_angle_beta 90.000000
_cell_angle_gamma 90.000000
_cell_volume 3386.459001
_symmetry_space_group_name_H-M "P B C M"
_symmetry_group_IT_number 57
_symmetry_cell_setting 'orthorhombic'
loop_
_space_group_symop_operation_xyz
x,y,z
-x,-y,1/2+z
x,1/2-y,-z
-x,1/2+y,1/2-z
-x,-y,-z
x,y,1/2-z
-x,1/2+y,z
x,1/2-y,1/2+z
loop_
_atom_site_type_symbol
_atom_site_label
_atom_site_fract_x
_atom_site_fract_y
_atom_site_fract_z
Si Si1 0.137943 0.303800 0.567958
Si Si2 0.707923 0.886082 0.930720
Si Si3 0.949801 0.954444 0.079268
Si Si4 0.748618 0.992766 0.423172
Si Si5 0.641550 0.193338 0.929751
Si Si6 0.429523 0.306354 0.428711
Si Si7 0.032507 0.848708 0.433171
Si Si8 0.779911 0.386126 0.567629
O O1 0.177164 0.250000 0.500000
O O2 0.135322 0.301691 0.750000
O O3 0.202659 0.352752 0.522728
O O4 0.037197 0.307581 0.502115
O O5 0.708269 0.886729 0.750000
O O6 0.699726 0.946238 0.987156
O O7 0.626909 0.851754 0.993735
O O8 0.982309 0.952044 0.250000
O O9 0.847331 0.968321 0.079438
O O10 0.980208 0.900513 0.011017
O O11 0.000000 0.000000 0.000000
O O12 0.714733 0.995736 0.250000
O O13 0.761629 0.052853 0.478819
O O14 0.660986 0.192957 0.750000
O O15 0.535580 0.185399 0.949759
O O16 0.664174 0.250000 0.000000
O O17 0.697327 0.148923 0.014298
O O18 0.407579 0.250000 0.500000
O O19 0.410806 0.305312 0.250000
O O20 0.034567 0.842850 0.250000
O O21 0.132162 0.859033 0.494285
O O22 0.790470 0.386274 0.750000
#
# Coordination Sequence:
#
# PCOD9435535 Si02
#       8
#     8   8   8   8   8   8   8   8
#     4  11  24  39  55  80 115 154 196 243 294 349
#     4  11  23  37  59  89 120 156 196 241 293 351
#     4  10  19  32  53  79 109 149 194 240 285 332
#     4  10  21  37  56  83 120 159 198 240 290 345
#     4  10  22  42  67  93 118 149 191 241 295 351
#     4  10  21  39  65  92 119 150 191 242 294 352
#     4  11  22  36  56  81 112 152 195 240 287 341
#     4  11  23  39  61  89 121 157 197 244 294 347
#
# _framework density 18.898796999999998
#
# number of rings (size 3 to 8) (size 9 to 14) (size 15 to 20)
#    0.000    1.500    2.500    2.625    0.000    6.500 
#    0.000    3.125    0.000    0.000    0.000    0.000 
#    0.000    0.000    0.000    0.000    0.000    0.000 
#
# Total GULP energy -356743.960679 kJ/mol
# GULP energy per Si atom -5574.124386 kJ/mol
# Density = 1.885578 g / cm^3
# Si number density = 18.898797 Si / 1000 Ang^3
#
#
#
# Elastic Constant Matrix: (Units=GPa)
#
#
# Indices 1 2 3 4 5 6 
#
# 1 54.6993 41.9532 33.8596 0.0000 0.0000 0.0000
# 2 41.9532 108.2818 39.0589 0.0000 0.0000 0.0000
# 3 33.8596 39.0589 45.6428 0.0000 0.0000 0.0000
# 4 0.0000 0.0000 0.0000 29.8122 0.0000 0.0000
# 5 0.0000 0.0000 0.0000 0.0000 27.8805 0.0000
# 6 0.0000 0.0000 0.0000 0.0000 0.0000 33.2028
#
#
#
# Elastic Compliance Matrix: (Units=1/GPa)
#
#
# Indices 1 2 3 4 5 6 
#
# 1 0.036588 -0.006343 -0.021714 0.000000 0.000000 0.000000
# 2 -0.006343 0.014458 -0.007667 0.000000 0.000000 0.000000
# 3 -0.021714 -0.007667 0.044579 0.000000 0.000000 0.000000
# 4 0.000000 0.000000 0.000000 0.033543 0.000000 0.000000
# 5 0.000000 0.000000 0.000000 0.000000 0.035867 0.000000
# 6 0.000000 0.000000 0.000000 0.000000 0.000000 0.030118
#
#
# Mechanical properties :
#
#
# Convention : Reuss Voigt Hill
#
# Bulk Modulus (GPa) = 41.36298 48.70745 45.03522
# Shear Modulus (GPa) = 18.20411 24.42924 21.31668
#
# Velocity S-wave (km/s) = 3.10698 3.59922 3.36212
# Velocity P-wave (km/s) = 5.89959 6.56516 6.24125
#
# Compressibility (1/GPa) = 0.02417621
#
# Stress axis : x y z
#
# Youngs Moduli (GPa) = 27.33104 69.16347 22.43203
#
# Poissons Ratio (x) = 0.43872 0.48710
# Poissons Ratio (y) = 0.17337 0.17199
# Poissons Ratio (z) = 0.59348 0.53029
#
# Static dielectric constant tensor:
#      x y z
#    x 1.652440 0.000000 0.000000 
#    y 0.000000 1.673220 0.000000 
#    z 0.000000 0.000000 1.643280 
# 
# From -- ./inp_files/5705.got.cif
#   From: 2010.05.17/outbox.cif.g08.bks.cpg/sg57_3_cif.got.tgz:5705.got - 2010.06.03 13:58:18.
