data_PCOD9435208
_publ_section_title
;
Structure prediction by ZEFSAII (Michael W. Deem and Ramdas Pophale) SiO2 
 PCOD9435208
Probable space group: P B C M
;
_chemical_formula_sum "Si O2"
_cell_formula_units_Z 64
_cell_length_a 11.934954
_cell_length_b 33.914592
_cell_length_c 8.975134
_cell_angle_alpha 90.000000
_cell_angle_beta 90.000000
_cell_angle_gamma 90.000000
_cell_volume 3632.856871
_symmetry_space_group_name_H-M "P B C M"
_symmetry_group_IT_number 57
_symmetry_cell_setting 'orthorhombic'
loop_
_space_group_symop_operation_xyz
x,y,z
-x,-y,1/2+z
x,1/2-y,-z
-x,1/2+y,1/2-z
-x,-y,-z
x,y,1/2-z
-x,1/2+y,z
x,1/2-y,1/2+z
loop_
_atom_site_type_symbol
_atom_site_label
_atom_site_fract_x
_atom_site_fract_y
_atom_site_fract_z
Si Si1 0.471558 0.082940 0.920533
Si Si2 0.112072 0.518348 0.072309
Si Si3 0.135892 0.123155 0.425639
Si Si4 0.666727 0.665632 0.578217
Si Si5 0.903755 0.396808 0.073285
Si Si6 0.533082 0.208504 0.427556
Si Si7 0.276114 0.458505 0.924030
Si Si8 0.664549 0.137153 0.572404
O O1 0.476353 0.068551 0.750000
O O2 0.401760 0.124134 0.921336
O O3 0.594342 0.097578 0.969468
O O4 0.399862 0.053233 0.019963
O O5 0.102067 0.517755 0.250000
O O6 0.119435 0.562429 0.011029
O O7 0.217246 0.492489 0.018576
O O8 0.000000 0.500000 0.000000
O O9 0.121539 0.129985 0.250000
O O10 0.217258 0.155466 0.498373
O O11 0.198646 0.080729 0.441829
O O12 0.017934 0.120772 0.508417
O O13 0.681248 0.677576 0.750000
O O14 0.589015 0.695943 0.489708
O O15 0.915914 0.404306 0.250000
O O16 0.795579 0.369449 0.050943
O O17 0.565215 0.250000 0.500000
O O18 0.531916 0.210809 0.250000
O O19 0.615569 0.173909 0.483058
O O20 0.277146 0.468986 0.750000
O O21 0.642512 0.143037 0.750000
#
# Coordination Sequence:
#
# PCOD9435208 Si02
#       8
#     8   8   8   8   8   8   8   8
#     4   8  15  30  51  73 100 134 173 219 267 316
#     4  12  23  35  51  73 103 138 183 235 283 332
#     4  10  19  31  50  77 108 140 178 221 266 322
#     4   9  17  31  52  79 110 139 173 216 262 313
#     4  11  22  36  55  77 107 146 185 228 277 328
#     4  11  21  35  59  88 116 144 176 217 264 315
#     4  10  19  31  49  74 102 133 175 226 278 328
#     4   9  20  38  57  80 110 144 184 224 267 325
#
# _framework density 17.616990000000001
#
# number of rings (size 3 to 8) (size 9 to 14) (size 15 to 20)
#    0.000    2.000    1.250    4.500    0.000    5.000 
#    0.000    0.625    0.000    0.750    0.000    1.750 
#    0.000    0.000    0.000    0.000    0.000    0.000 
#
# Total GULP energy -357271.685828 kJ/mol
# GULP energy per Si atom -5582.370091 kJ/mol
# Density = 1.757689 g / cm^3
# Si number density = 17.616990 Si / 1000 Ang^3
#
#
#
# Elastic Constant Matrix: (Units=GPa)
#
#
# Indices 1 2 3 4 5 6 
#
# 1 77.0828 18.4178 55.1728 0.0000 0.0000 0.0000
# 2 18.4178 48.1922 46.7537 0.0000 0.0000 0.0000
# 3 55.1728 46.7537 139.7698 0.0000 0.0000 0.0000
# 4 0.0000 0.0000 0.0000 24.2463 0.0000 0.0000
# 5 0.0000 0.0000 0.0000 0.0000 24.4124 0.0000
# 6 0.0000 0.0000 0.0000 0.0000 0.0000 14.5579
#
#
#
# Elastic Compliance Matrix: (Units=1/GPa)
#
#
# Indices 1 2 3 4 5 6 
#
# 1 0.018082 0.000021 -0.007145 0.000000 0.000000 0.000000
# 2 0.000021 0.030719 -0.010284 0.000000 0.000000 0.000000
# 3 -0.007145 -0.010284 0.013415 0.000000 0.000000 0.000000
# 4 0.000000 0.000000 0.000000 0.041243 0.000000 0.000000
# 5 0.000000 0.000000 0.000000 0.000000 0.040963 0.000000
# 6 0.000000 0.000000 0.000000 0.000000 0.000000 0.068691
#
#
# Mechanical properties :
#
#
# Convention : Reuss Voigt Hill
#
# Bulk Modulus (GPa) = 36.49535 56.19259 46.34397
# Shear Modulus (GPa) = 19.45050 22.29003 20.87027
#
# Velocity S-wave (km/s) = 3.32637 3.56090 3.44563
# Velocity P-wave (km/s) = 5.95936 6.99091 6.49564
#
# Compressibility (1/GPa) = 0.02740075
#
# Stress axis : x y z
#
# Youngs Moduli (GPa) = 55.30390 32.55276 74.54342
#
# Poissons Ratio (x) = -0.00068 0.53259
# Poissons Ratio (y) = -0.00116 0.76661
# Poissons Ratio (z) = 0.39513 0.33478
#
# Static dielectric constant tensor:
#      x y z
#    x 1.611590 0.000000 0.000000 
#    y 0.000000 1.587490 0.000000 
#    z 0.000000 0.000000 1.587470 
# 
# From -- ./inp_files/3860.got.cif
#   From: 2010.05.17/outbox.cif.g08.bks.cpg/sg57_2_cif.got.tgz:3860.got - 2010.06.03 13:58:18.
