data_PCOD9435793
_publ_section_title
;
Structure prediction by ZEFSAII (Michael W. Deem and Ramdas Pophale) SiO2 
 PCOD9435793
Probable space group: P B C M
;
_chemical_formula_sum "Si O2"
_cell_formula_units_Z 56
_cell_length_a 21.747092
_cell_length_b 13.845439
_cell_length_c 7.879681
_cell_angle_alpha 90.000000
_cell_angle_beta 90.000000
_cell_angle_gamma 90.000000
_cell_volume 2372.556471
_symmetry_space_group_name_H-M "P B C M"
_symmetry_group_IT_number 57
_symmetry_cell_setting 'orthorhombic'
loop_
_space_group_symop_operation_xyz
x,y,z
-x,-y,1/2+z
x,1/2-y,-z
-x,1/2+y,1/2-z
-x,-y,-z
x,y,1/2-z
-x,1/2+y,z
x,1/2-y,1/2+z
loop_
_atom_site_type_symbol
_atom_site_label
_atom_site_fract_x
_atom_site_fract_y
_atom_site_fract_z
Si Si1 0.964719 0.635855 0.045572
Si Si2 0.170745 0.138350 0.047245
Si Si3 0.616941 0.850262 0.452506
Si Si4 0.485263 0.610235 0.545544
Si Si5 0.903105 0.137102 0.044743
Si Si6 0.644727 0.069656 0.550668
Si Si7 0.777112 0.052392 0.051693
O O1 0.963912 0.626517 0.250000
O O2 0.897329 0.605447 0.980670
O O3 0.030671 0.597100 0.980907
O O4 0.966004 0.750000 0.000000
O O5 0.170613 0.132351 0.250000
O O6 0.180310 0.250000 0.000000
O O7 0.220061 0.062607 0.979700
O O8 0.649992 0.750000 0.500000
O O9 0.615199 0.854731 0.250000
O O10 0.547149 0.842774 0.526348
O O11 0.640317 0.955059 0.509601
O O12 0.500000 0.500000 0.500000
O O13 0.485182 0.624636 0.750000
O O14 0.415728 0.624320 0.477555
O O15 0.904051 0.127213 0.250000
O O16 0.840347 0.092541 0.973167
O O17 0.901696 0.250000 0.000000
O O18 0.638897 0.079247 0.750000
O O19 0.713431 0.099418 0.504411
O O20 0.780671 0.069389 0.250000
#
# Coordination Sequence:
#
# PCOD9435793 Si02
#       7
#     8   8   8   8   8   8   8
#     4   8  15  30  52  77 103 133 172 220 275 327
#     4  10  20  35  55  79 108 142 180 224 273 327
#     4  10  19  33  54  82 110 135 167 209 257 308
#     4   8  16  31  52  74  97 125 159 200 243 288
#     4   9  19  36  57  79 105 137 177 227 278 327
#     4  10  20  36  55  75 102 139 178 214 256 308
#     4  11  23  37  53  78 111 147 185 224 269 322
#
# _framework density 23.603232999999999
#
# number of rings (size 3 to 8) (size 9 to 14) (size 15 to 20)
#    0.000    2.571    0.000    1.714    0.000    4.000 
#    0.000    3.571    0.000    3.429    0.000    0.000 
#    0.000    0.000    0.000    0.000    0.000    0.000 
#
# Total GULP energy -312232.997247 kJ/mol
# GULP energy per Si atom -5575.589237 kJ/mol
# Density = 2.354951 g / cm^3
# Si number density = 23.603233 Si / 1000 Ang^3
#
#
#
# Elastic Constant Matrix: (Units=GPa)
#
#
# Indices 1 2 3 4 5 6 
#
# 1 138.5780 -1.0105 10.6397 0.0000 0.0000 0.0000
# 2 -1.0105 34.4414 -22.5338 0.0000 0.0000 0.0000
# 3 10.6397 -22.5338 41.3316 0.0000 0.0000 0.0000
# 4 0.0000 0.0000 0.0000 11.6656 0.0000 0.0000
# 5 0.0000 0.0000 0.0000 0.0000 21.9470 0.0000
# 6 0.0000 0.0000 0.0000 0.0000 0.0000 11.2336
#
#
#
# Elastic Compliance Matrix: (Units=1/GPa)
#
#
# Indices 1 2 3 4 5 6 
#
# 1 0.007418 -0.001604 -0.002784 0.000000 0.000000 0.000000
# 2 -0.001604 0.045481 0.025209 0.000000 0.000000 0.000000
# 3 -0.002784 0.025209 0.038655 0.000000 0.000000 0.000000
# 4 0.000000 0.000000 0.000000 0.085722 0.000000 0.000000
# 5 0.000000 0.000000 0.000000 0.000000 0.045564 0.000000
# 6 0.000000 0.000000 0.000000 0.000000 0.000000 0.089018
#
#
# Mechanical properties :
#
#
# Convention : Reuss Voigt Hill
#
# Bulk Modulus (GPa) = 7.50768 20.94908 14.22838
# Shear Modulus (GPa) = 15.89240 24.11963 20.00602
#
# Velocity S-wave (km/s) = 2.59765 3.20015 2.91451
# Velocity P-wave (km/s) = 3.49066 4.74862 4.16738
#
# Compressibility (1/GPa) = 0.13319689
#
# Stress axis : x y z
#
# Youngs Moduli (GPa) = 134.80342 21.98710 25.86978
#
# Poissons Ratio (x) = 0.03526 0.07202
# Poissons Ratio (y) = 0.21620 -0.65215
# Poissons Ratio (z) = 0.37530 -0.55427
#
# Static dielectric constant tensor:
#      x y z
#    x 2.010160 0.000000 0.000000 
#    y 0.000000 1.868020 0.000000 
#    z 0.000000 0.000000 1.459590 
# 
# From -- ./inp_files/8158.got.cif
#   From: 2010.05.17/outbox.cif.g08.bks.cpg/sg57_5_cif.got.tgz:8158.got - 2010.06.03 13:58:18.
