data_PCOD9435807
_publ_section_title
;
Structure prediction by ZEFSAII (Michael W. Deem and Ramdas Pophale) SiO2 
 PCOD9435807
Probable space group: P B C M
;
_chemical_formula_sum "Si O2"
_cell_formula_units_Z 56
_cell_length_a 21.577151
_cell_length_b 15.873748
_cell_length_c 8.472527
_cell_angle_alpha 90.000000
_cell_angle_beta 90.000000
_cell_angle_gamma 90.000000
_cell_volume 2901.927405
_symmetry_space_group_name_H-M "P B C M"
_symmetry_group_IT_number 57
_symmetry_cell_setting 'orthorhombic'
loop_
_space_group_symop_operation_xyz
x,y,z
-x,-y,1/2+z
x,1/2-y,-z
-x,1/2+y,1/2-z
-x,-y,-z
x,y,1/2-z
-x,1/2+y,z
x,1/2-y,1/2+z
loop_
_atom_site_type_symbol
_atom_site_label
_atom_site_fract_x
_atom_site_fract_y
_atom_site_fract_z
Si Si1 0.990943 0.595046 0.059174
Si Si2 0.143858 0.157833 0.061322
Si Si3 0.595377 0.838799 0.439560
Si Si4 0.470504 0.586917 0.560015
Si Si5 0.877462 0.160354 0.059806
Si Si6 0.653816 0.013092 0.560528
Si Si7 0.790419 0.006940 0.061473
O O1 0.990112 0.593853 0.250000
O O2 0.925812 0.633817 0.004143
O O3 0.051529 0.646415 0.006856
O O4 0.000000 0.500000 0.000000
O O5 0.143133 0.159836 0.250000
O O6 0.161315 0.250000 0.000000
O O7 0.188500 0.082816 0.006665
O O8 0.620582 0.750000 0.500000
O O9 0.598943 0.842364 0.250000
O O10 0.522597 0.846394 0.490070
O O11 0.630122 0.920381 0.508194
O O12 0.500000 0.500000 0.500000
O O13 0.469670 0.587539 0.750000
O O14 0.399008 0.580666 0.508307
O O15 0.876583 0.160641 0.250000
O O16 0.836788 0.080768 0.005763
O O17 0.854065 0.250000 0.000000
O O18 0.657860 0.014689 0.750000
O O19 0.720741 0.028082 0.488050
O O20 0.794670 0.002089 0.250000
#
# Coordination Sequence:
#
# PCOD9435807 Si02
#       7
#     8   8   8   8   8   8   8
#     4  10  20  36  59  87 115 147 186 234 291 346
#     4  11  23  38  59  86 116 152 192 237 291 348
#     4  10  19  33  54  83 114 144 180 223 275 328
#     4   8  16  31  52  76 103 134 170 214 259 311
#     4  10  22  39  60  85 113 147 189 237 289 342
#     4  10  20  36  57  80 108 145 187 227 275 332
#     4  11  23  40  59  82 116 154 195 241 287 341
#
# _framework density 19.297519000000001
#
# number of rings (size 3 to 8) (size 9 to 14) (size 15 to 20)
#    0.000    2.000    1.429    2.143    0.000    4.000 
#    0.000    3.571    0.000    3.429    0.000    0.000 
#    0.000    0.000    0.000    0.000    0.000    0.000 
#
# Total GULP energy -312453.735622 kJ/mol
# GULP energy per Si atom -5579.530993 kJ/mol
# Density = 1.925360 g / cm^3
# Si number density = 19.297519 Si / 1000 Ang^3
#
#
#
# Elastic Constant Matrix: (Units=GPa)
#
#
# Indices 1 2 3 4 5 6 
#
# 1 83.5252 -4.5426 8.2236 0.0000 0.0000 0.0000
# 2 -4.5426 65.9345 5.9068 0.0000 0.0000 0.0000
# 3 8.2236 5.9068 24.0093 0.0000 0.0000 0.0000
# 4 0.0000 0.0000 0.0000 25.6422 0.0000 0.0000
# 5 0.0000 0.0000 0.0000 0.0000 22.4433 0.0000
# 6 0.0000 0.0000 0.0000 0.0000 0.0000 11.9628
#
#
#
# Elastic Compliance Matrix: (Units=1/GPa)
#
#
# Indices 1 2 3 4 5 6 
#
# 1 0.012494 0.001272 -0.004592 0.000000 0.000000 0.000000
# 2 0.001272 0.015638 -0.004283 0.000000 0.000000 0.000000
# 3 -0.004592 -0.004283 0.044277 0.000000 0.000000 0.000000
# 4 0.000000 0.000000 0.000000 0.038998 0.000000 0.000000
# 5 0.000000 0.000000 0.000000 0.000000 0.044557 0.000000
# 6 0.000000 0.000000 0.000000 0.000000 0.000000 0.083592
#
#
# Mechanical properties :
#
#
# Convention : Reuss Voigt Hill
#
# Bulk Modulus (GPa) = 17.48174 21.40497 19.44335
# Shear Modulus (GPa) = 18.25953 22.93508 20.59730
#
# Velocity S-wave (km/s) = 3.07939 3.45120 3.27058
# Velocity P-wave (km/s) = 4.66072 5.19588 4.93556
#
# Compressibility (1/GPa) = 0.05720253
#
# Stress axis : x y z
#
# Youngs Moduli (GPa) = 80.03989 63.94715 22.58503
#
# Poissons Ratio (x) = -0.08135 0.10372
# Poissons Ratio (y) = -0.10182 0.09673
# Poissons Ratio (z) = 0.36757 0.27388
#
# Static dielectric constant tensor:
#      x y z
#    x 1.702440 0.000000 0.000000 
#    y 0.000000 1.656010 0.000000 
#    z 0.000000 0.000000 1.710040 
# 
# From -- ./inp_files/8142.got.cif
#   From: 2010.05.17/outbox.cif.g08.bks.cpg/sg57_5_cif.got.tgz:8142.got - 2010.06.03 13:58:18.
