data_PCOD9435229
_publ_section_title
;
Structure prediction by ZEFSAII (Michael W. Deem and Ramdas Pophale) SiO2 
 PCOD9435229
Probable space group: P B C M
;
_chemical_formula_sum "Si O2"
_cell_formula_units_Z 56
_cell_length_a 23.800794
_cell_length_b 14.494036
_cell_length_c 7.697989
_cell_angle_alpha 90.000000
_cell_angle_beta 90.000000
_cell_angle_gamma 90.000000
_cell_volume 2655.571917
_symmetry_space_group_name_H-M "P B C M"
_symmetry_group_IT_number 57
_symmetry_cell_setting 'orthorhombic'
loop_
_space_group_symop_operation_xyz
x,y,z
-x,-y,1/2+z
x,1/2-y,-z
-x,1/2+y,1/2-z
-x,-y,-z
x,y,1/2-z
-x,1/2+y,z
x,1/2-y,1/2+z
loop_
_atom_site_type_symbol
_atom_site_label
_atom_site_fract_x
_atom_site_fract_y
_atom_site_fract_z
Si Si1 0.370046 0.441887 0.036534
Si Si2 0.510618 0.892973 0.456744
Si Si3 0.252213 0.357170 0.459164
Si Si4 0.082452 0.856620 0.540875
Si Si5 0.610275 0.350766 0.945493
Si Si6 0.043317 0.357857 0.957755
Si Si7 0.149437 0.477190 0.451688
O O1 0.372424 0.443823 0.250000
O O2 0.424956 0.382081 0.984364
O O3 0.312350 0.395245 0.980291
O O4 0.374608 0.549000 0.972472
O O5 0.506522 0.876794 0.250000
O O6 0.457701 0.845302 0.545263
O O7 0.500000 0.000000 0.500000
O O8 0.243972 0.250000 0.500000
O O9 0.252395 0.364048 0.250000
O O10 0.201267 0.420236 0.528143
O O11 0.092255 0.750000 0.500000
O O12 0.080886 0.865625 0.750000
O O13 0.019544 0.882713 0.478843
O O14 0.129792 0.925323 0.470989
O O15 0.629463 0.361023 0.750000
O O16 0.631819 0.250000 0.000000
O O17 0.045817 0.370172 0.750000
O O18 0.050924 0.250000 0.000000
O O19 0.093388 0.415364 0.039908
O O20 0.163936 0.493977 0.250000
#
# Coordination Sequence:
#
# PCOD9435229 Si02
#       7
#     8   8   8   8   8   8   8
#     4   8  17  34  53  72  99 135 170 204 248 298
#     4   9  16  29  49  73 101 132 167 206 249 298
#     4  10  21  38  56  74  98 130 167 208 250 297
#     4   9  19  34  51  75 103 134 167 204 251 302
#     4  10  19  32  51  76 105 136 169 207 253 306
#     4  10  19  31  50  75 105 135 167 206 251 301
#     4  10  20  34  53  75 102 134 170 209 252 298
#
# _framework density 21.087734999999999
#
# number of rings (size 3 to 8) (size 9 to 14) (size 15 to 20)
#    0.000    2.571    0.000    3.000    0.000    3.429 
#    0.000    6.429    0.000    0.000    0.000    0.000 
#    0.000    0.000    0.000    0.000    0.000    0.000 
#
# Total GULP energy -312207.309373 kJ/mol
# GULP energy per Si atom -5575.130525 kJ/mol
# Density = 2.103974 g / cm^3
# Si number density = 21.087735 Si / 1000 Ang^3
#
#
#
# Elastic Constant Matrix: (Units=GPa)
#
#
# Indices 1 2 3 4 5 6 
#
# 1 123.0231 48.3540 -8.9824 0.0000 0.0000 0.0000
# 2 48.3540 67.7272 -19.0883 0.0000 0.0000 0.0000
# 3 -8.9824 -19.0883 36.1976 0.0000 0.0000 0.0000
# 4 0.0000 0.0000 0.0000 22.9717 0.0000 0.0000
# 5 0.0000 0.0000 0.0000 0.0000 0.5065 0.0000
# 6 0.0000 0.0000 0.0000 0.0000 0.0000 23.3257
#
#
#
# Elastic Compliance Matrix: (Units=1/GPa)
#
#
# Indices 1 2 3 4 5 6 
#
# 1 0.011389 -0.008615 -0.001717 0.000000 0.000000 0.000000
# 2 -0.008615 0.023860 0.010444 0.000000 0.000000 0.000000
# 3 -0.001717 0.010444 0.032708 0.000000 0.000000 0.000000
# 4 0.000000 0.000000 0.000000 0.043532 0.000000 0.000000
# 5 0.000000 0.000000 0.000000 0.000000 1.974485 0.000000
# 6 0.000000 0.000000 0.000000 0.000000 0.000000 0.042871
#
#
# Mechanical properties :
#
#
# Convention : Reuss Voigt Hill
#
# Bulk Modulus (GPa) = 14.66696 29.72383 22.19540
# Shear Modulus (GPa) = 2.32412 23.13843 12.73128
#
# Velocity S-wave (km/s) = 1.05096 3.31606 2.45976
# Velocity P-wave (km/s) = 2.90568 5.36541 4.31455
#
# Compressibility (1/GPa) = 0.06818043
#
# Stress axis : x y z
#
# Youngs Moduli (GPa) = 87.80039 41.91163 30.57388
#
# Poissons Ratio (x) = 0.36109 0.05249
# Poissons Ratio (y) = 0.75644 -0.31932
# Poissons Ratio (z) = 0.15075 -0.43773
#
# Static dielectric constant tensor:
#      x y z
#    x 1.764280 0.000000 0.000000 
#    y 0.000000 1.775520 0.000000 
#    z 0.000000 0.000000 1.814930 
# 
# From -- ./inp_files/8003.got.cif
#   From: 2010.05.17/outbox.cif.g08.bks.cpg/sg57_5_cif.got.tgz:8003.got - 2010.06.03 13:58:18.
