data_PCOD9435776
_publ_section_title
;
Structure prediction by ZEFSAII (Michael W. Deem and Ramdas Pophale) SiO2 
 PCOD9435776
Probable space group: P B C M
;
_chemical_formula_sum "Si O2"
_cell_formula_units_Z 56
_cell_length_a 16.958126
_cell_length_b 21.796353
_cell_length_c 8.962745
_cell_angle_alpha 90.000000
_cell_angle_beta 90.000000
_cell_angle_gamma 90.000000
_cell_volume 3312.857314
_symmetry_space_group_name_H-M "P B C M"
_symmetry_group_IT_number 57
_symmetry_cell_setting 'orthorhombic'
loop_
_space_group_symop_operation_xyz
x,y,z
-x,-y,1/2+z
x,1/2-y,-z
-x,1/2+y,1/2-z
-x,-y,-z
x,y,1/2-z
-x,1/2+y,z
x,1/2-y,1/2+z
loop_
_atom_site_type_symbol
_atom_site_label
_atom_site_fract_x
_atom_site_fract_y
_atom_site_fract_z
Si Si1 0.484279 0.590815 0.571896
Si Si2 0.794713 0.372992 0.926098
Si Si3 0.953466 0.557984 0.429314
Si Si4 0.203802 0.017320 0.573746
Si Si5 0.625610 0.527430 0.427234
Si Si6 0.040398 0.815206 0.570295
Si Si7 0.355597 0.684163 0.927639
O O1 0.499304 0.589674 0.750000
O O2 0.564632 0.578626 0.484856
O O3 0.422041 0.535748 0.540601
O O4 0.437720 0.651988 0.529992
O O5 0.779657 0.362782 0.750000
O O6 0.813984 0.444687 0.944897
O O7 0.869282 0.331869 0.971301
O O8 0.717336 0.356438 0.017076
O O9 0.958435 0.552805 0.250000
O O10 0.863862 0.553208 0.485862
O O11 0.000000 0.500000 0.500000
O O12 0.990420 0.624112 0.472115
O O13 0.200676 0.030910 0.750000
O O14 0.291195 0.028719 0.510624
O O15 0.637842 0.531122 0.250000
O O16 0.017117 0.750000 0.500000
O O17 0.036860 0.810204 0.750000
O O18 0.352919 0.688104 0.750000
O O19 0.347692 0.750000 0.000000
#
# Coordination Sequence:
#
# PCOD9435776 Si02
#       7
#     8   8   8   8   8   8   8
#     4   9  19  34  51  75 106 140 179 219 263 318
#     4  10  20  35  53  78 112 147 184 223 270 327
#     4  11  22  38  58  83 114 147 189 234 281 336
#     4  11  21  35  56  83 115 146 181 228 280 329
#     4  10  19  33  54  80 106 137 177 219 270 321
#     4  10  22  39  56  80 111 147 189 231 276 332
#     4  11  22  35  51  76 110 147 186 221 266 324
#
# _framework density 16.903835999999998
#
# number of rings (size 3 to 8) (size 9 to 14) (size 15 to 20)
#    0.000    1.714    2.857    2.143    0.000    5.143 
#    0.000    0.000    0.000    0.857    0.000    6.000 
#    0.000    0.000    0.000    0.000    0.000    0.000 
#
# Total GULP energy -312591.793403 kJ/mol
# GULP energy per Si atom -5581.996311 kJ/mol
# Density = 1.686536 g / cm^3
# Si number density = 16.903836 Si / 1000 Ang^3
#
#
#
# Elastic Constant Matrix: (Units=GPa)
#
#
# Indices 1 2 3 4 5 6 
#
# 1 90.5208 37.7290 37.3358 0.0000 0.0000 0.0000
# 2 37.7290 78.5710 37.7031 0.0000 0.0000 0.0000
# 3 37.3358 37.7031 48.3186 0.0000 0.0000 0.0000
# 4 0.0000 0.0000 0.0000 22.3654 0.0000 0.0000
# 5 0.0000 0.0000 0.0000 0.0000 31.6090 0.0000
# 6 0.0000 0.0000 0.0000 0.0000 0.0000 19.2418
#
#
#
# Elastic Compliance Matrix: (Units=1/GPa)
#
#
# Indices 1 2 3 4 5 6 
#
# 1 0.016620 -0.002907 -0.010574 0.000000 0.000000 0.000000
# 2 -0.002907 0.020854 -0.014026 0.000000 0.000000 0.000000
# 3 -0.010574 -0.014026 0.039811 0.000000 0.000000 0.000000
# 4 0.000000 0.000000 0.000000 0.044712 0.000000 0.000000
# 5 0.000000 0.000000 0.000000 0.000000 0.031637 0.000000
# 6 0.000000 0.000000 0.000000 0.000000 0.000000 0.051970
#
#
# Mechanical properties :
#
#
# Convention : Reuss Voigt Hill
#
# Bulk Modulus (GPa) = 44.90163 49.21622 47.05892
# Shear Modulus (GPa) = 18.65381 21.61942 20.13662
#
# Velocity S-wave (km/s) = 3.32554 3.58014 3.45519
# Velocity P-wave (km/s) = 6.43166 6.80210 6.61947
#
# Compressibility (1/GPa) = 0.02227091
#
# Stress axis : x y z
#
# Youngs Moduli (GPa) = 60.16821 47.95319 25.11844
#
# Poissons Ratio (x) = 0.13938 0.26561
# Poissons Ratio (y) = 0.17488 0.35232
# Poissons Ratio (z) = 0.63624 0.67260
#
# Static dielectric constant tensor:
#      x y z
#    x 1.562820 0.000000 0.000000 
#    y 0.000000 1.570190 0.000000 
#    z 0.000000 0.000000 1.561570 
# 
# From -- ./inp_files/5157.got.cif
#   From: 2010.05.17/outbox.cif.g08.bks.cpg/sg57_3_cif.got.tgz:5157.got - 2010.06.03 13:58:18.
