data_PCOD9435978
_publ_section_title
;
Structure prediction by ZEFSAII (Michael W. Deem and Ramdas Pophale) SiO2 
 PCOD9435978
Probable space group: P B C M
;
_chemical_formula_sum "Si O2"
_cell_formula_units_Z 64
_cell_length_a 15.756021
_cell_length_b 8.908013
_cell_length_c 26.150341
_cell_angle_alpha 90.000000
_cell_angle_beta 90.000000
_cell_angle_gamma 90.000000
_cell_volume 3670.326924
_symmetry_space_group_name_H-M "P B C M"
_symmetry_group_IT_number 57
_symmetry_cell_setting 'orthorhombic'
loop_
_space_group_symop_operation_xyz
x,y,z
-x,-y,1/2+z
x,1/2-y,-z
-x,1/2+y,1/2-z
-x,-y,-z
x,y,1/2-z
-x,1/2+y,z
x,1/2-y,1/2+z
loop_
_atom_site_type_symbol
_atom_site_label
_atom_site_fract_x
_atom_site_fract_y
_atom_site_fract_z
Si Si1 0.569231 0.800671 0.811906
Si Si2 0.227907 0.710593 0.157684
Si Si3 0.743212 0.547847 0.190191
Si Si4 0.871754 0.264627 0.561037
Si Si5 0.396271 0.542081 0.312089
Si Si6 0.065554 0.981609 0.689691
Si Si7 0.906151 0.693521 0.141502
Si Si8 0.983998 0.977866 0.559880
O O1 0.565835 0.803020 0.750000
O O2 0.648716 0.904647 0.826463
O O3 0.588040 0.630189 0.827066
O O4 0.478109 0.861785 0.828858
O O5 0.208257 0.739868 0.097907
O O6 0.309296 0.607245 0.166292
O O7 0.144535 0.630725 0.180954
O O8 0.243440 0.870869 0.183688
O O9 0.752954 0.588802 0.250000
O O10 0.814692 0.634899 0.158575
O O11 0.856427 0.250000 0.500000
O O12 0.922773 0.417029 0.574518
O O13 0.935249 0.128356 0.576454
O O14 0.390510 0.548447 0.250000
O O15 0.058024 0.014066 0.750000
O O16 0.081450 0.137044 0.659855
O O17 0.978716 0.905567 0.669890
O O18 0.923226 0.654413 0.081776
O O19 0.000000 0.000000 0.500000
#
# Coordination Sequence:
#
# PCOD9435978 Si02
#       8
#     8   8   8   8   8   8   8   8
#     4   9  19  35  55  81 113 148 188 228 269 322
#     4  12  22  35  54  79 111 146 188 231 277 339
#     4  11  21  34  52  77 110 148 186 226 271 326
#     4  10  21  38  58  80 106 139 189 243 296 329
#     4  10  19  34  55  81 112 146 182 224 271 325
#     4  12  24  35  49  74 111 154 190 220 264 334
#     4  12  22  37  52  75 109 149 189 228 279 327
#     4  10  20  38  58  77 103 138 186 241 285 328
#
# _framework density 17.437139999999999
#
# number of rings (size 3 to 8) (size 9 to 14) (size 15 to 20)
#    0.000    1.250    2.500    5.250    0.000    3.000 
#    0.000    0.000    0.000    0.000    0.000    3.500 
#    0.000    0.000    0.000    0.000    0.000    0.000 
#
# Total GULP energy -357068.712153 kJ/mol
# GULP energy per Si atom -5579.198627 kJ/mol
# Density = 1.739745 g / cm^3
# Si number density = 17.437140 Si / 1000 Ang^3
#
#
#
# Elastic Constant Matrix: (Units=GPa)
#
#
# Indices 1 2 3 4 5 6 
#
# 1 87.5455 14.0925 18.9313 0.0000 0.0000 0.0000
# 2 14.0925 87.9309 12.0019 0.0000 0.0000 0.0000
# 3 18.9313 12.0019 69.2274 0.0000 0.0000 0.0000
# 4 0.0000 0.0000 0.0000 21.9981 0.0000 0.0000
# 5 0.0000 0.0000 0.0000 0.0000 18.2782 0.0000
# 6 0.0000 0.0000 0.0000 0.0000 0.0000 36.5144
#
#
#
# Elastic Compliance Matrix: (Units=1/GPa)
#
#
# Indices 1 2 3 4 5 6 
#
# 1 0.012345 -0.001554 -0.003106 0.000000 0.000000 0.000000
# 2 -0.001554 0.011844 -0.001628 0.000000 0.000000 0.000000
# 3 -0.003106 -0.001628 0.015577 0.000000 0.000000 0.000000
# 4 0.000000 0.000000 0.000000 0.045458 0.000000 0.000000
# 5 0.000000 0.000000 0.000000 0.000000 0.054710 0.000000
# 6 0.000000 0.000000 0.000000 0.000000 0.000000 0.027386
#
#
# Mechanical properties :
#
#
# Convention : Reuss Voigt Hill
#
# Bulk Modulus (GPa) = 36.78185 37.19503 36.98844
# Shear Modulus (GPa) = 26.46049 28.67002 27.56525
#
# Velocity S-wave (km/s) = 3.89971 4.05926 3.98029
# Velocity P-wave (km/s) = 6.43558 6.58387 6.51015
#
# Compressibility (1/GPa) = 0.02718732
#
# Stress axis : x y z
#
# Youngs Moduli (GPa) = 81.00719 84.43139 64.19755
#
# Poissons Ratio (x) = 0.13124 0.19942
# Poissons Ratio (y) = 0.12592 0.10453
# Poissons Ratio (z) = 0.25163 0.13748
#
# Static dielectric constant tensor:
#      x y z
#    x 1.574090 0.000000 0.000000 
#    y 0.000000 1.623560 0.000000 
#    z 0.000000 0.000000 1.644560 
# 
# From -- ./inp_files/27470.got.cif
#   From: 2010.05.17/outbox.cif.g08.bks.cpg/sg57_14_cif.got.tgz:27470.got - 2010.06.03 13:58:18.
