data_PCOD9435784
_publ_section_title
;
Structure prediction by ZEFSAII (Michael W. Deem and Ramdas Pophale) SiO2 
 PCOD9435784
Probable space group: P B C M
;
_chemical_formula_sum "Si O2"
_cell_formula_units_Z 64
_cell_length_a 21.224814
_cell_length_b 19.444924
_cell_length_c 8.725959
_cell_angle_alpha 90.000000
_cell_angle_beta 90.000000
_cell_angle_gamma 90.000000
_cell_volume 3601.333254
_symmetry_space_group_name_H-M "P B C M"
_symmetry_group_IT_number 57
_symmetry_cell_setting 'orthorhombic'
loop_
_space_group_symop_operation_xyz
x,y,z
-x,-y,1/2+z
x,1/2-y,-z
-x,1/2+y,1/2-z
-x,-y,-z
x,y,1/2-z
-x,1/2+y,z
x,1/2-y,1/2+z
loop_
_atom_site_type_symbol
_atom_site_label
_atom_site_fract_x
_atom_site_fract_y
_atom_site_fract_z
Si Si1 0.498625 0.673563 0.933281
Si Si2 0.138237 0.672634 0.565467
Si Si3 0.862353 0.672615 0.934569
Si Si4 0.383445 0.419919 0.435063
Si Si5 0.755089 0.425416 0.566255
Si Si6 0.389727 0.920766 0.566291
Si Si7 0.999747 0.172990 0.565920
Si Si8 0.246726 0.422535 0.567268
O O1 0.498734 0.677356 0.750000
O O2 0.561270 0.631687 0.981448
O O3 0.497685 0.750000 0.000000
O O4 0.438664 0.629636 0.987380
O O5 0.142489 0.750000 0.500000
O O6 0.142455 0.674809 0.750000
O O7 0.193760 0.626876 0.498013
O O8 0.068530 0.643375 0.521465
O O9 0.858142 0.674734 0.750000
O O10 0.932038 0.643243 0.978506
O O11 0.858378 0.750000 0.000000
O O12 0.806467 0.627430 0.001686
O O13 0.376765 0.418484 0.250000
O O14 0.399929 0.499024 0.476974
O O15 0.316298 0.402287 0.508309
O O16 0.759481 0.430046 0.750000
O O17 0.683085 0.404251 0.528572
O O18 0.764984 0.500706 0.495504
O O19 0.397216 0.915610 0.750000
O O20 0.999730 0.250000 0.500000
O O21 0.999719 0.176749 0.750000
O O22 0.245511 0.422257 0.750000
#
# Coordination Sequence:
#
# PCOD9435784 Si02
#       8
#     8   8   8   8   8   8   8   8
#     4  11  23  37  56  82 112 141 173 215 263 310
#     4  10  19  33  54  81 109 140 180 224 269 321
#     4  10  19  34  55  79 108 142 179 222 269 319
#     4   9  20  39  59  79 105 141 179 217 261 315
#     4  10  21  38  57  79 108 143 180 223 270 317
#     4   9  19  37  59  79 103 136 177 219 263 315
#     4   8  16  30  50  75 104 138 177 219 265 317
#     4  11  22  36  56  82 109 141 179 221 267 320
#
# _framework density 17.771197000000001
#
# number of rings (size 3 to 8) (size 9 to 14) (size 15 to 20)
#    0.000    2.250    0.000    3.750    0.000    5.500 
#    0.000    1.875    0.000    0.000    0.000    0.000 
#    0.000    0.000    0.000    0.000    0.000    0.000 
#
# Total GULP energy -357018.844021 kJ/mol
# GULP energy per Si atom -5578.419438 kJ/mol
# Density = 1.773075 g / cm^3
# Si number density = 17.771197 Si / 1000 Ang^3
#
#
#
# Elastic Constant Matrix: (Units=GPa)
#
#
# Indices 1 2 3 4 5 6 
#
# 1 187.4355 109.1793 68.8323 0.0000 0.0000 0.0000
# 2 109.1793 89.9007 45.8515 0.0000 0.0000 0.0000
# 3 68.8323 45.8515 61.7695 0.0000 0.0000 0.0000
# 4 0.0000 0.0000 0.0000 25.8496 0.0000 0.0000
# 5 0.0000 0.0000 0.0000 0.0000 98.6496 0.0000
# 6 0.0000 0.0000 0.0000 0.0000 0.0000 39.6215
#
#
#
# Elastic Compliance Matrix: (Units=1/GPa)
#
#
# Indices 1 2 3 4 5 6 
#
# 1 0.019865 -0.020654 -0.006805 0.000000 0.000000 0.000000
# 2 -0.020654 0.039376 -0.006212 0.000000 0.000000 0.000000
# 3 -0.006805 -0.006212 0.028383 0.000000 0.000000 0.000000
# 4 0.000000 0.000000 0.000000 0.038685 0.000000 0.000000
# 5 0.000000 0.000000 0.000000 0.000000 0.010137 0.000000
# 6 0.000000 0.000000 0.000000 0.000000 0.000000 0.025239
#
#
# Mechanical properties :
#
#
# Convention : Reuss Voigt Hill
#
# Bulk Modulus (GPa) = 49.30725 87.42577 68.36651
# Shear Modulus (GPa) = 21.20547 40.50698 30.85622
#
# Velocity S-wave (km/s) = 3.45809 4.77944 4.17142
# Velocity P-wave (km/s) = 6.61441 8.93082 7.85843
#
# Compressibility (1/GPa) = 0.02028100
#
# Stress axis : x y z
#
# Youngs Moduli (GPa) = 50.33962 25.39647 35.23200
#
# Poissons Ratio (x) = 0.52455 0.23974
# Poissons Ratio (y) = 1.03974 0.21887
# Poissons Ratio (z) = 0.34254 0.15777
#
# Static dielectric constant tensor:
#      x y z
#    x 1.624800 0.000000 0.000000 
#    y 0.000000 1.570470 0.000000 
#    z 0.000000 0.000000 1.596040 
# 
# From -- ./inp_files/7205.got.cif
#   From: 2010.05.17/outbox.cif.g08.bks.cpg/sg57_4_cif.got.tgz:7205.got - 2010.06.03 13:58:18.
