data_PCOD9435435
_publ_section_title
;
Structure prediction by ZEFSAII (Michael W. Deem and Ramdas Pophale) SiO2 
 PCOD9435435
Probable space group: P B C M
;
_chemical_formula_sum "Si O2"
_cell_formula_units_Z 40
_cell_length_a 13.622257
_cell_length_b 19.513086
_cell_length_c 8.333602
_cell_angle_alpha 90.000000
_cell_angle_beta 90.000000
_cell_angle_gamma 90.000000
_cell_volume 2215.173685
_symmetry_space_group_name_H-M "P B C M"
_symmetry_group_IT_number 57
_symmetry_cell_setting 'orthorhombic'
loop_
_space_group_symop_operation_xyz
x,y,z
-x,-y,1/2+z
x,1/2-y,-z
-x,1/2+y,1/2-z
-x,-y,-z
x,y,1/2-z
-x,1/2+y,z
x,1/2-y,1/2+z
loop_
_atom_site_type_symbol
_atom_site_label
_atom_site_fract_x
_atom_site_fract_y
_atom_site_fract_z
Si Si1 0.608708 0.578308 0.556459
Si Si2 0.395289 0.579144 0.058291
Si Si3 0.783372 0.171412 0.557531
Si Si4 0.211614 0.328608 0.444418
Si Si5 0.002584 0.671191 0.556550
O O1 0.611646 0.577983 0.750000
O O2 0.618645 0.499451 0.500477
O O3 0.501296 0.603389 0.504227
O O4 0.698006 0.625321 0.498051
O O5 0.398769 0.578176 0.250000
O O6 0.305964 0.626226 0.004196
O O7 0.774162 0.250000 0.500000
O O8 0.781813 0.171394 0.750000
O O9 0.891126 0.143774 0.502646
O O10 0.221474 0.250000 0.500000
O O11 0.212818 0.328724 0.250000
O O12 0.103813 0.356251 0.496909
O O13 0.002335 0.750000 0.500000
O O14 0.002781 0.669135 0.750000
#
# Coordination Sequence:
#
# PCOD9435435 Si02
#       5
#     8   8   8   8   8
#     4   9  19  35  52  69  95 131 165 199 242 291
#     4  10  20  34  51  70  95 129 166 202 242 287
#     4  10  19  32  51  74  99 126 159 198 239 285
#     4   9  17  31  51  74  98 124 157 196 238 284
#     4   8  15  28  47  70  96 125 154 189 235 284
#
# _framework density 18.057276000000002
#
# number of rings (size 3 to 8) (size 9 to 14) (size 15 to 20)
#    0.000    2.800    0.000    1.200    0.000    3.200 
#    0.000    3.000    0.000    0.000    0.000    0.000 
#    0.000    0.000    0.000    0.000    0.000    0.000 
#
# Total GULP energy -222781.472643 kJ/mol
# GULP energy per Si atom -5569.536816 kJ/mol
# Density = 1.801618 g / cm^3
# Si number density = 18.057276 Si / 1000 Ang^3
#
#
#
# Elastic Constant Matrix: (Units=GPa)
#
#
# Indices 1 2 3 4 5 6 
#
# 1 232.4249 81.3163 17.1676 0.0000 0.0000 0.0000
# 2 81.3163 49.5800 6.2400 0.0000 0.0000 0.0000
# 3 17.1676 6.2400 9.2896 0.0000 0.0000 0.0000
# 4 0.0000 0.0000 0.0000 20.0679 0.0000 0.0000
# 5 0.0000 0.0000 0.0000 0.0000 -49.9515 0.0000
# 6 0.0000 0.0000 0.0000 0.0000 0.0000 -39.1003
#
#
#
# Elastic Compliance Matrix: (Units=1/GPa)
#
#
# Indices 1 2 3 4 5 6 
#
# 1 0.010706 -0.016460 -0.008728 0.000000 0.000000 0.000000
# 2 -0.016460 0.047340 -0.001379 0.000000 0.000000 0.000000
# 3 -0.008728 -0.001379 0.124704 0.000000 0.000000 0.000000
# 4 0.000000 0.000000 0.000000 0.049831 0.000000 0.000000
# 5 0.000000 0.000000 0.000000 0.000000 -0.020019 0.000000
# 6 0.000000 0.000000 0.000000 0.000000 0.000000 -0.025575
#
#
# Mechanical properties :
#
#
# Convention : Reuss Voigt Hill
#
# Bulk Modulus (GPa) = 7.71525 55.63804 31.67664
# Shear Modulus (GPa) = 17.64741 -1.35873 8.14434
#
# Velocity S-wave (km/s) = 3.12957 -0.86838 2.12605
# Velocity P-wave (km/s) = 4.16424 5.46566 4.85872
#
# Compressibility (1/GPa) = 0.12961349
#
# Stress axis : x y z
#
# Youngs Moduli (GPa) = 93.40524 21.12383 8.01897
#
# Poissons Ratio (x) = 0.34771 0.06999
# Poissons Ratio (y) = 1.53749 0.01106
# Poissons Ratio (z) = 0.81528 0.02914
#
# Static dielectric constant tensor:
#      x y z
#    x 1.663040 0.000000 0.000000 
#    y 0.000000 1.582750 0.000000 
#    z 0.000000 0.000000 1.617310 
# 
# From -- ./inp_files/2682.got.cif
#   From: 2010.05.17/outbox.cif.g08.bks.cpg/sg57_2_cif.got.tgz:2682.got - 2010.06.03 13:58:18.
