data_PCOD9435857
_publ_section_title
;
Structure prediction by ZEFSAII (Michael W. Deem and Ramdas Pophale) SiO2 
 PCOD9435857
Probable space group: P B C M
;
_chemical_formula_sum "Si O2"
_cell_formula_units_Z 64
_cell_length_a 19.531932
_cell_length_b 9.542258
_cell_length_c 17.016422
_cell_angle_alpha 90.000000
_cell_angle_beta 90.000000
_cell_angle_gamma 90.000000
_cell_volume 3171.499196
_symmetry_space_group_name_H-M "P B C M"
_symmetry_group_IT_number 57
_symmetry_cell_setting 'orthorhombic'
loop_
_space_group_symop_operation_xyz
x,y,z
-x,-y,1/2+z
x,1/2-y,-z
-x,1/2+y,1/2-z
-x,-y,-z
x,y,1/2-z
-x,1/2+y,z
x,1/2-y,1/2+z
loop_
_atom_site_type_symbol
_atom_site_label
_atom_site_fract_x
_atom_site_fract_y
_atom_site_fract_z
Si Si1 0.161462 0.460836 0.343760
Si Si2 0.463284 0.017035 0.087111
Si Si3 0.824025 0.675423 0.416230
Si Si4 0.421642 0.718377 0.094478
Si Si5 0.683455 0.005328 0.343478
Si Si6 0.949930 0.315012 0.657344
Si Si7 0.048720 0.514942 0.922742
Si Si8 0.670407 0.708211 0.090191
O O1 0.161772 0.468704 0.250000
O O2 0.142805 0.301579 0.365379
O O3 0.238347 0.489791 0.372224
O O4 0.111477 0.583240 0.370846
O O5 0.520817 0.112001 0.125713
O O6 0.392262 0.100986 0.088848
O O7 0.444546 0.869489 0.124968
O O8 0.500000 0.000000 0.000000
O O9 0.818595 0.750000 0.500000
O O10 0.873748 0.543566 0.428777
O O11 0.746031 0.651033 0.385316
O O12 0.352679 0.637898 0.116770
O O13 0.420555 0.750000 0.000000
O O14 0.682301 0.024095 0.250000
O O15 0.652532 0.852427 0.364482
O O16 0.942595 0.282996 0.750000
O O17 0.015204 0.412179 0.641664
O O18 0.952887 0.173525 0.607483
O O19 0.000000 0.500000 0.000000
O O20 0.677317 0.750000 0.000000
#
# Coordination Sequence:
#
# PCOD9435857 Si02
#       8
#     8   8   8   8   8   8   8   8
#     4   9  20  39  61  84 117 155 192 234 287 344
#     4  10  19  33  56  86 115 147 193 246 285 326
#     4  10  21  36  58  85 113 149 190 234 286 345
#     4  10  19  33  56  82 111 152 195 236 285 342
#     4  10  21  39  60  87 122 155 185 235 299 348
#     4  11  23  39  60  84 111 153 199 236 277 341
#     4  12  24  39  58  86 121 151 185 240 298 339
#     4  10  19  36  61  86 113 150 195 235 280 345
#
# _framework density 20.179731
#
# number of rings (size 3 to 8) (size 9 to 14) (size 15 to 20)
#    0.000    1.750    0.000    6.375    0.000    3.000 
#    0.000    4.375    0.000    0.000    0.000    0.000 
#    0.000    0.000    0.000    0.000    0.000    0.000 
#
# Total GULP energy -356672.724333 kJ/mol
# GULP energy per Si atom -5573.011318 kJ/mol
# Density = 2.013380 g / cm^3
# Si number density = 20.179731 Si / 1000 Ang^3
#
#
#
# Elastic Constant Matrix: (Units=GPa)
#
#
# Indices 1 2 3 4 5 6 
#
# 1 81.2221 45.0653 14.9443 0.0000 0.0000 0.0000
# 2 45.0653 96.8026 25.9432 0.0000 0.0000 0.0000
# 3 14.9443 25.9432 36.6850 0.0000 0.0000 0.0000
# 4 0.0000 0.0000 0.0000 31.4613 0.0000 0.0000
# 5 0.0000 0.0000 0.0000 0.0000 8.9660 0.0000
# 6 0.0000 0.0000 0.0000 0.0000 0.0000 70.2327
#
#
#
# Elastic Compliance Matrix: (Units=1/GPa)
#
#
# Indices 1 2 3 4 5 6 
#
# 1 0.016676 -0.007332 -0.001608 0.000000 0.000000 0.000000
# 2 -0.007332 0.015970 -0.008307 0.000000 0.000000 0.000000
# 3 -0.001608 -0.008307 0.033789 0.000000 0.000000 0.000000
# 4 0.000000 0.000000 0.000000 0.031785 0.000000 0.000000
# 5 0.000000 0.000000 0.000000 0.000000 0.111532 0.000000
# 6 0.000000 0.000000 0.000000 0.000000 0.000000 0.014238
#
#
# Mechanical properties :
#
#
# Convention : Reuss Voigt Hill
#
# Bulk Modulus (GPa) = 31.30831 42.95726 37.13278
# Shear Modulus (GPa) = 18.57829 30.71581 24.64705
#
# Velocity S-wave (km/s) = 3.03750 3.90566 3.49861
# Velocity P-wave (km/s) = 5.27734 6.45542 5.89588
#
# Compressibility (1/GPa) = 0.03194040
#
# Stress axis : x y z
#
# Youngs Moduli (GPa) = 59.96608 62.61711 29.59581
#
# Poissons Ratio (x) = 0.45914 0.04759
# Poissons Ratio (y) = 0.43970 0.24585
# Poissons Ratio (z) = 0.09642 0.52015
#
# Static dielectric constant tensor:
#      x y z
#    x 1.826380 0.000000 0.000000 
#    y 0.000000 1.557110 0.000000 
#    z 0.000000 0.000000 1.738850 
# 
# From -- ./inp_files/25601.got.cif
#   From: 2010.05.17/outbox.cif.g08.bks.cpg/sg57_13_cif.got.tgz:25601.got - 2010.06.03 13:58:18.
