data_PCOD9435443
_publ_section_title
;
Structure prediction by ZEFSAII (Michael W. Deem and Ramdas Pophale) SiO2 
 PCOD9435443
Probable space group: P B C M
;
_chemical_formula_sum "Si O2"
_cell_formula_units_Z 56
_cell_length_a 17.107718
_cell_length_b 21.851257
_cell_length_c 8.917946
_cell_angle_alpha 90.000000
_cell_angle_beta 90.000000
_cell_angle_gamma 90.000000
_cell_volume 3333.752436
_symmetry_space_group_name_H-M "P B C M"
_symmetry_group_IT_number 57
_symmetry_cell_setting 'orthorhombic'
loop_
_space_group_symop_operation_xyz
x,y,z
-x,-y,1/2+z
x,1/2-y,-z
-x,1/2+y,1/2-z
-x,-y,-z
x,y,1/2-z
-x,1/2+y,z
x,1/2-y,1/2+z
loop_
_atom_site_type_symbol
_atom_site_label
_atom_site_fract_x
_atom_site_fract_y
_atom_site_fract_z
Si Si1 0.545815 0.184518 0.069805
Si Si2 0.703166 0.507992 0.428780
Si Si3 0.141906 0.683917 0.927507
Si Si4 0.291685 0.622777 0.428521
Si Si5 0.882039 0.519538 0.428362
Si Si6 0.540275 0.939742 0.570039
Si Si7 0.030465 0.594827 0.426893
O O1 0.538612 0.188771 0.250000
O O2 0.635874 0.167140 0.034933
O O3 0.495889 0.125044 0.019275
O O4 0.524998 0.250000 0.000000
O O5 0.700529 0.494541 0.250000
O O6 0.688266 0.445525 0.518354
O O7 0.791193 0.529875 0.463104
O O8 0.632792 0.554393 0.460977
O O9 0.145113 0.687479 0.750000
O O10 0.149578 0.750000 0.000000
O O11 0.213822 0.643538 0.987661
O O12 0.062552 0.651911 0.981931
O O13 0.279269 0.623907 0.250000
O O14 0.888213 0.504601 0.250000
O O15 0.916945 0.462975 0.521325
O O16 0.940914 0.575671 0.455821
O O17 0.528411 0.942903 0.750000
O O18 0.500000 0.000000 0.500000
O O19 0.040987 0.604975 0.250000
#
# Coordination Sequence:
#
# PCOD9435443 Si02
#       7
#     8   8   8   8   8   8   8
#     4  10  22  37  53  76 107 142 183 223 266 322
#     4  10  19  32  54  80 108 141 175 218 269 319
#     4  12  24  37  52  74 106 142 181 216 261 318
#     4  11  21  34  52  78 110 141 176 216 265 322
#     4   9  18  32  51  77 104 134 171 212 261 313
#     4  10  20  35  54  79 108 141 181 226 273 321
#     4  10  19  32  51  75 104 136 172 214 260 307
#
# _framework density 16.797888
#
# number of rings (size 3 to 8) (size 9 to 14) (size 15 to 20)
#    0.000    1.714    2.857    2.571    0.000    3.429 
#    0.000    0.000    0.000    0.857    0.000    2.000 
#    0.000    0.000    0.000    0.000    0.000    0.000 
#
# Total GULP energy -312523.441705 kJ/mol
# GULP energy per Si atom -5580.775745 kJ/mol
# Density = 1.675966 g / cm^3
# Si number density = 16.797888 Si / 1000 Ang^3
#
#
#
# Elastic Constant Matrix: (Units=GPa)
#
#
# Indices 1 2 3 4 5 6 
#
# 1 96.5076 41.2182 34.6722 0.0000 0.0000 0.0000
# 2 41.2182 93.7507 34.7717 0.0000 0.0000 0.0000
# 3 34.6722 34.7717 50.6059 0.0000 0.0000 0.0000
# 4 0.0000 0.0000 0.0000 30.0039 0.0000 0.0000
# 5 0.0000 0.0000 0.0000 0.0000 14.0254 0.0000
# 6 0.0000 0.0000 0.0000 0.0000 0.0000 9.5551
#
#
#
# Elastic Compliance Matrix: (Units=1/GPa)
#
#
# Indices 1 2 3 4 5 6 
#
# 1 0.014615 -0.003639 -0.007513 0.000000 0.000000 0.000000
# 2 -0.003639 0.015221 -0.007965 0.000000 0.000000 0.000000
# 3 -0.007513 -0.007965 0.030381 0.000000 0.000000 0.000000
# 4 0.000000 0.000000 0.000000 0.033329 0.000000 0.000000
# 5 0.000000 0.000000 0.000000 0.000000 0.071299 0.000000
# 6 0.000000 0.000000 0.000000 0.000000 0.000000 0.104656
#
#
# Mechanical properties :
#
#
# Convention : Reuss Voigt Hill
#
# Bulk Modulus (GPa) = 45.49062 51.35427 48.42244
# Shear Modulus (GPa) = 15.86983 19.39702 17.63342
#
# Velocity S-wave (km/s) = 3.07702 3.40182 3.24348
# Velocity P-wave (km/s) = 6.30587 6.78734 6.55103
#
# Compressibility (1/GPa) = 0.02198255
#
# Stress axis : x y z
#
# Youngs Moduli (GPa) = 68.42096 65.69979 32.91547
#
# Poissons Ratio (x) = 0.23910 0.24730
# Poissons Ratio (y) = 0.24900 0.26217
# Poissons Ratio (z) = 0.51405 0.52329
#
# Static dielectric constant tensor:
#      x y z
#    x 1.587120 0.000000 0.000000 
#    y 0.000000 1.569960 0.000000 
#    z 0.000000 0.000000 1.561490 
# 
# From -- ./inp_files/7078.got.cif
#   From: 2010.05.17/outbox.cif.g08.bks.cpg/sg57_4_cif.got.tgz:7078.got - 2010.06.03 13:58:18.
