data_PCOD9435261
_publ_section_title
;
Structure prediction by ZEFSAII (Michael W. Deem and Ramdas Pophale) SiO2 
 PCOD9435261
Probable space group: P B C M
;
_chemical_formula_sum "Si O2"
_cell_formula_units_Z 44
_cell_length_a 11.421411
_cell_length_b 8.317114
_cell_length_c 25.966506
_cell_angle_alpha 90.000000
_cell_angle_beta 90.000000
_cell_angle_gamma 90.000000
_cell_volume 2466.640909
_symmetry_space_group_name_H-M "P B C M"
_symmetry_group_IT_number 57
_symmetry_cell_setting 'orthorhombic'
loop_
_space_group_symop_operation_xyz
x,y,z
-x,-y,1/2+z
x,1/2-y,-z
-x,1/2+y,1/2-z
-x,-y,-z
x,y,1/2-z
-x,1/2+y,z
x,1/2-y,1/2+z
loop_
_atom_site_type_symbol
_atom_site_label
_atom_site_fract_x
_atom_site_fract_y
_atom_site_fract_z
Si Si1 0.917491 0.471262 0.363976
Si Si2 0.668551 0.021546 0.042888
Si Si3 0.169110 0.601931 0.250000
Si Si4 0.878510 0.928969 0.522724
Si Si5 0.826678 0.102815 0.138291
Si Si6 0.915944 0.030100 0.750000
Si Si7 0.472964 0.250000 0.000000
O O1 0.876801 0.562897 0.415364
O O2 0.875332 0.285881 0.367877
O O3 0.879134 0.534297 0.306809
O O4 0.058470 0.489882 0.365488
O O5 0.734646 0.060923 0.094939
O O6 0.560141 0.136642 0.031401
O O7 0.768662 0.029144 0.998962
O O8 0.610891 0.846482 0.038399
O O9 0.228638 0.583001 0.304957
O O10 0.118281 0.783353 0.250000
O O11 0.055750 0.487888 0.250000
O O12 0.869893 0.750000 0.500000
O O13 0.000000 0.000000 0.500000
#
# Coordination Sequence:
#
# PCOD9435261 Si02
#       7
#     8   8   4   8   8   4   4
#     4  10  19  31  50  81 116 149 176 213 274 340
#     4  11  22  39  56  77 106 145 184 230 273 325
#     4   8  16  30  48  78 106 145 179 215 263 323
#     4  12  23  33  52  85 117 141 174 226 286 341
#     4  10  19  32  55  79 114 145 180 220 271 334
#     4   8  16  30  46  70 112 153 179 203 253 341
#     4  10  24  40  56  74 100 144 196 226 268 324
#
# _framework density 17.838024999999998
#
# number of rings (size 3 to 8) (size 9 to 14) (size 15 to 20)
#    0.000    1.818    2.727    2.182    1.273    0.000 
#    0.000    0.000    0.000    1.091    0.000    5.091 
#    0.000    0.000    0.000    0.000    0.000    0.000 
#
# Total GULP energy -245195.064576 kJ/mol
# GULP energy per Si atom -5572.615104 kJ/mol
# Density = 1.779743 g / cm^3
# Si number density = 17.838025 Si / 1000 Ang^3
#
#
#
# Elastic Constant Matrix: (Units=GPa)
#
#
# Indices 1 2 3 4 5 6 
#
# 1 72.5116 24.8960 49.1569 0.0000 0.0000 0.0000
# 2 24.8960 57.1109 46.6943 0.0000 0.0000 0.0000
# 3 49.1569 46.6943 205.5270 0.0000 0.0000 0.0000
# 4 0.0000 0.0000 0.0000 25.1164 0.0000 0.0000
# 5 0.0000 0.0000 0.0000 0.0000 15.2643 0.0000
# 6 0.0000 0.0000 0.0000 0.0000 0.0000 27.8745
#
#
#
# Elastic Compliance Matrix: (Units=1/GPa)
#
#
# Indices 1 2 3 4 5 6 
#
# 1 0.017636 -0.005206 -0.003035 0.000000 0.000000 0.000000
# 2 -0.005206 0.023041 -0.003990 0.000000 0.000000 0.000000
# 3 -0.003035 -0.003990 0.006498 0.000000 0.000000 0.000000
# 4 0.000000 0.000000 0.000000 0.039815 0.000000 0.000000
# 5 0.000000 0.000000 0.000000 0.000000 0.065512 0.000000
# 6 0.000000 0.000000 0.000000 0.000000 0.000000 0.035875
#
#
# Mechanical properties :
#
#
# Convention : Reuss Voigt Hill
#
# Bulk Modulus (GPa) = 44.02784 64.07154 54.04969
# Shear Modulus (GPa) = 22.68491 27.94451 25.31471
#
# Velocity S-wave (km/s) = 3.56998 3.96229 3.77124
# Velocity P-wave (km/s) = 6.45977 7.54516 7.02346
#
# Compressibility (1/GPa) = 0.02271290
#
# Stress axis : x y z
#
# Youngs Moduli (GPa) = 56.70190 43.40036 153.89568
#
# Poissons Ratio (x) = 0.22596 0.46711
# Poissons Ratio (y) = 0.29521 0.61398
# Poissons Ratio (z) = 0.17211 0.17315
#
# Static dielectric constant tensor:
#      x y z
#    x 1.567130 0.000000 0.000000 
#    y 0.000000 1.670310 0.000000 
#    z 0.000000 0.000000 1.655380 
# 
# From -- ./inp_files/27061.got.cif
#   From: 2010.05.17/outbox.cif.g08.bks.cpg/sg57_14_cif.got.tgz:27061.got - 2010.06.03 13:58:18.
