data_PCOD9435221
_publ_section_title
;
Structure prediction by ZEFSAII (Michael W. Deem and Ramdas Pophale) SiO2 
 PCOD9435221
Probable space group: P B C M
;
_chemical_formula_sum "Si O2"
_cell_formula_units_Z 56
_cell_length_a 17.307460
_cell_length_b 22.907218
_cell_length_c 8.470593
_cell_angle_alpha 90.000000
_cell_angle_beta 90.000000
_cell_angle_gamma 90.000000
_cell_volume 3358.300085
_symmetry_space_group_name_H-M "P B C M"
_symmetry_group_IT_number 57
_symmetry_cell_setting 'orthorhombic'
loop_
_space_group_symop_operation_xyz
x,y,z
-x,-y,1/2+z
x,1/2-y,-z
-x,1/2+y,1/2-z
-x,-y,-z
x,y,1/2-z
-x,1/2+y,z
x,1/2-y,1/2+z
loop_
_atom_site_type_symbol
_atom_site_label
_atom_site_fract_x
_atom_site_fract_y
_atom_site_fract_z
Si Si1 0.081952 0.313719 0.059353
Si Si2 0.745902 0.664141 0.433775
Si Si3 0.507620 0.921314 0.565974
Si Si4 0.232711 0.459810 0.064211
Si Si5 0.584720 0.810285 0.066618
Si Si6 0.371078 0.520174 0.563140
Si Si7 0.052981 0.446982 0.437823
O O1 0.082201 0.312842 0.250000
O O2 0.045653 0.377814 0.009378
O O3 0.051003 0.250000 0.000000
O O4 0.169973 0.317740 0.996008
O O5 0.736628 0.679569 0.250000
O O6 0.740603 0.594395 0.457633
O O7 0.676761 0.688582 0.538325
O O8 0.494796 0.933465 0.750000
O O9 0.547423 0.860318 0.537445
O O10 0.425825 0.925656 0.478156
O O11 0.571723 0.967852 0.506873
O O12 0.240544 0.444752 0.250000
O O13 0.141859 0.465967 0.031337
O O14 0.289519 0.512807 0.022898
O O15 0.568270 0.819268 0.250000
O O16 0.554295 0.750000 0.000000
O O17 0.359251 0.515767 0.750000
O O18 0.041871 0.444872 0.250000
O O19 0.000000 0.500000 0.500000
#
# Coordination Sequence:
#
# PCOD9435221 Si02
#       7
#     8   8   8   8   8   8   8
#     4  10  20  34  50  73 101 134 172 209 249 301
#     4  11  20  31  46  68  97 131 169 205 243 292
#     4  10  20  33  48  69  97 126 164 206 247 289
#     4  10  19  32  50  73 101 132 166 207 251 298
#     4  12  23  34  47  64  93 130 168 208 249 295
#     4  10  19  31  50  73  97 127 163 202 247 293
#     4   9  20  35  52  76 106 137 171 210 257 308
#
# _framework density 16.675103
#
# number of rings (size 3 to 8) (size 9 to 14) (size 15 to 20)
#    0.000    1.714    1.429    5.571    0.000    4.571 
#    0.000    0.000    0.000    0.000    0.000    1.000 
#    0.000    4.571    0.000    0.000    0.000    0.000 
#
# Total GULP energy -312052.259341 kJ/mol
# GULP energy per Si atom -5572.361774 kJ/mol
# Density = 1.663715 g / cm^3
# Si number density = 16.675103 Si / 1000 Ang^3
#
#
#
# Elastic Constant Matrix: (Units=GPa)
#
#
# Indices 1 2 3 4 5 6 
#
# 1 53.3948 35.4017 14.7624 0.0000 0.0000 0.0000
# 2 35.4017 79.6960 2.1973 0.0000 0.0000 0.0000
# 3 14.7624 2.1973 49.1260 0.0000 0.0000 0.0000
# 4 0.0000 0.0000 0.0000 26.3720 0.0000 0.0000
# 5 0.0000 0.0000 0.0000 0.0000 24.7133 0.0000
# 6 0.0000 0.0000 0.0000 0.0000 0.0000 22.7588
#
#
#
# Elastic Compliance Matrix: (Units=1/GPa)
#
#
# Indices 1 2 3 4 5 6 
#
# 1 0.029590 -0.012915 -0.008314 0.000000 0.000000 0.000000
# 2 -0.012915 0.018200 0.003067 0.000000 0.000000 0.000000
# 3 -0.008314 0.003067 0.022717 0.000000 0.000000 0.000000
# 4 0.000000 0.000000 0.000000 0.037919 0.000000 0.000000
# 5 0.000000 0.000000 0.000000 0.000000 0.040464 0.000000
# 6 0.000000 0.000000 0.000000 0.000000 0.000000 0.043939
#
#
# Mechanical properties :
#
#
# Convention : Reuss Voigt Hill
#
# Bulk Modulus (GPa) = 29.25457 31.88219 30.56838
# Shear Modulus (GPa) = 20.78593 23.42587 22.10590
#
# Velocity S-wave (km/s) = 3.53445 3.75219 3.64494
# Velocity P-wave (km/s) = 5.85136 6.15898 6.00714
#
# Compressibility (1/GPa) = 0.03418270
#
# Stress axis : x y z
#
# Youngs Moduli (GPa) = 33.79533 54.94498 44.01985
#
# Poissons Ratio (x) = 0.70961 0.36599
# Poissons Ratio (y) = 0.43646 -0.13500
# Poissons Ratio (z) = 0.28098 -0.16851
#
# Static dielectric constant tensor:
#      x y z
#    x 1.564330 0.000000 0.000000 
#    y 0.000000 1.614670 0.000000 
#    z 0.000000 0.000000 1.557230 
# 
# From -- ./inp_files/7057.got.cif
#   From: 2010.05.17/outbox.cif.g08.bks.cpg/sg57_4_cif.got.tgz:7057.got - 2010.06.03 13:58:18.
