data_PCOD9435180
_publ_section_title
;
Structure prediction by ZEFSAII (Michael W. Deem and Ramdas Pophale) SiO2 
 PCOD9435180
Probable space group: P B C M
;
_chemical_formula_sum "Si O2"
_cell_formula_units_Z 48
_cell_length_a 12.859034
_cell_length_b 17.845958
_cell_length_c 9.434587
_cell_angle_alpha 90.000000
_cell_angle_beta 90.000000
_cell_angle_gamma 90.000000
_cell_volume 2165.065825
_symmetry_space_group_name_H-M "P B C M"
_symmetry_group_IT_number 57
_symmetry_cell_setting 'orthorhombic'
loop_
_space_group_symop_operation_xyz
x,y,z
-x,-y,1/2+z
x,1/2-y,-z
-x,1/2+y,1/2-z
-x,-y,-z
x,y,1/2-z
-x,1/2+y,z
x,1/2-y,1/2+z
loop_
_atom_site_type_symbol
_atom_site_label
_atom_site_fract_x
_atom_site_fract_y
_atom_site_fract_z
Si Si1 0.659981 0.142026 0.912276
Si Si2 0.598213 0.521594 0.090336
Si Si3 0.095695 0.173254 0.081048
Si Si4 0.100261 0.472934 0.086782
Si Si5 0.552351 0.678822 0.418607
Si Si6 0.151825 0.856970 0.906863
O O1 0.639962 0.165454 0.750000
O O2 0.669114 0.051070 0.911696
O O3 0.562128 0.163244 0.012126
O O4 0.768470 0.169772 0.974526
O O5 0.559394 0.528524 0.250000
O O6 0.624250 0.606358 0.051275
O O7 0.500000 0.500000 0.000000
O O8 0.121240 0.173671 0.250000
O O9 0.968816 0.164505 0.070897
O O10 0.123975 0.250000 0.000000
O O11 0.138816 0.099236 0.000705
O O12 0.077100 0.450415 0.250000
O O13 0.160260 0.551886 0.096722
O O14 0.000000 0.500000 0.000000
O O15 0.595280 0.750000 0.500000
O O16 0.544714 0.691535 0.250000
O O17 0.182794 0.830022 0.750000
#
# Coordination Sequence:
#
# PCOD9435180 Si02
#       6
#     8   8   8   8   8   8
#     4  10  19  31  49  72  96 124 158 194 235 281
#     4   8  16  30  47  67  90 119 156 194 230 272
#     4  10  20  33  50  72  98 127 160 197 238 284
#     4   9  17  31  50  70  94 124 161 199 235 280
#     4  10  19  32  49  69  96 125 155 193 235 281
#     4   9  19  33  48  70  99 129 159 193 235 282
#
# _framework density 22.170226
#
# number of rings (size 3 to 8) (size 9 to 14) (size 15 to 20)
#    0.000    2.667    0.000    3.000    0.000    6.000 
#    0.000    1.667    0.000    1.000    0.000    4.667 
#    0.000    0.000    0.000    0.000    0.000    0.000 
#
# Total GULP energy -267471.660730 kJ/mol
# GULP energy per Si atom -5572.326265 kJ/mol
# Density = 2.211977 g / cm^3
# Si number density = 22.170226 Si / 1000 Ang^3
#
#
#
# Elastic Constant Matrix: (Units=GPa)
#
#
# Indices 1 2 3 4 5 6 
#
# 1 44.5070 -9.9127 36.3362 0.0000 0.0000 0.0000
# 2 -9.9127 166.3819 59.9588 0.0000 0.0000 0.0000
# 3 36.3362 59.9588 136.7777 0.0000 0.0000 0.0000
# 4 0.0000 0.0000 0.0000 38.6268 0.0000 0.0000
# 5 0.0000 0.0000 0.0000 0.0000 13.3698 0.0000
# 6 0.0000 0.0000 0.0000 0.0000 0.0000 -0.7872
#
#
#
# Elastic Compliance Matrix: (Units=1/GPa)
#
#
# Indices 1 2 3 4 5 6 
#
# 1 0.033236 0.006130 -0.011517 0.000000 0.000000 0.000000
# 2 0.006130 0.008269 -0.005253 0.000000 0.000000 0.000000
# 3 -0.011517 -0.005253 0.012674 0.000000 0.000000 0.000000
# 4 0.000000 0.000000 0.000000 0.025889 0.000000 0.000000
# 5 0.000000 0.000000 0.000000 0.000000 0.074796 0.000000
# 6 0.000000 0.000000 0.000000 0.000000 0.000000 -1.270294
#
#
# Mechanical properties :
#
#
# Convention : Reuss Voigt Hill
#
# Bulk Modulus (GPa) = 30.39597 57.82568 44.11082
# Shear Modulus (GPa) = -4.61602 27.66083 11.52240
#
# Velocity S-wave (km/s) = -1.44451 3.53605 2.28222
# Velocity P-wave (km/s) = 3.31027 6.54299 5.18501
#
# Compressibility (1/GPa) = 0.03289910
#
# Stress axis : x y z
#
# Youngs Moduli (GPa) = 30.08751 120.93880 78.90427
#
# Poissons Ratio (x) = -0.74141 0.90874
# Poissons Ratio (y) = -0.18445 0.41451
# Poissons Ratio (z) = 0.34652 0.63533
#
# Static dielectric constant tensor:
#      x y z
#    x 1.806710 0.000000 0.000000 
#    y 0.000000 1.849620 0.000000 
#    z 0.000000 0.000000 1.810760 
# 
# From -- ./inp_files/6709.got.cif
#   From: 2010.05.17/outbox.cif.g08.bks.cpg/sg57_4_cif.got.tgz:6709.got - 2010.06.03 13:58:18.
