data_PCOD9435606
_publ_section_title
;
Structure prediction by ZEFSAII (Michael W. Deem and Ramdas Pophale) SiO2 
 PCOD9435606
Probable space group: P B C M
;
_chemical_formula_sum "Si O2"
_cell_formula_units_Z 56
_cell_length_a 14.166335
_cell_length_b 14.547848
_cell_length_c 11.738958
_cell_angle_alpha 90.000000
_cell_angle_beta 90.000000
_cell_angle_gamma 90.000000
_cell_volume 2419.278195
_symmetry_space_group_name_H-M "P B C M"
_symmetry_group_IT_number 57
_symmetry_cell_setting 'orthorhombic'
loop_
_space_group_symop_operation_xyz
x,y,z
-x,-y,1/2+z
x,1/2-y,-z
-x,1/2+y,1/2-z
-x,-y,-z
x,y,1/2-z
-x,1/2+y,z
x,1/2-y,1/2+z
loop_
_atom_site_type_symbol
_atom_site_label
_atom_site_fract_x
_atom_site_fract_y
_atom_site_fract_z
Si Si1 0.843538 0.198152 0.622592
Si Si2 0.617558 0.826969 0.871302
Si Si3 0.555448 0.882323 0.098201
Si Si4 0.105280 0.495631 0.544775
Si Si5 0.723813 0.478805 0.876491
Si Si6 0.361999 0.840291 0.442215
Si Si7 0.158745 0.198170 0.119483
O O1 0.868238 0.250000 0.500000
O O2 0.876067 0.231692 0.750000
O O3 0.729561 0.194334 0.624577
O O4 0.874527 0.092064 0.607357
O O5 0.602234 0.870180 0.750000
O O6 0.583542 0.721865 0.871313
O O7 0.728952 0.819061 0.893503
O O8 0.563293 0.886324 0.962233
O O9 0.445189 0.892217 0.123802
O O10 0.640431 0.946788 0.135272
O O11 0.183347 0.486736 0.443395
O O12 0.114417 0.403001 0.617140
O O13 0.000000 0.500000 0.500000
O O14 0.749296 0.446143 0.750000
O O15 0.679986 0.401714 0.957068
O O16 0.406026 0.750000 0.500000
O O17 0.144463 0.238472 0.250000
O O18 0.129337 0.250000 0.000000
#
# Coordination Sequence:
#
# PCOD9435606 Si02
#       7
#     8   8   8   8   8   8   8
#     4  10  24  47  71 100 136 182 233 288 342 403
#     4  10  19  32  59  90 128 171 212 258 317 384
#     4  11  19  39  58  94 131 169 221 265 326 390
#     4  11  25  46  71 100 131 175 228 289 352 420
#     4  11  24  41  63  92 130 169 219 280 339 397
#     4  10  22  39  61  89 130 176 226 271 319 390
#     4  11  22  42  68 101 140 179 219 276 345 415
#
# _framework density 23.147400999999999
#
# number of rings (size 3 to 8) (size 9 to 14) (size 15 to 20)
#    0.000    1.429    4.286    1.286    0.000   10.286 
#    0.000    1.429    0.000    0.000    0.000    0.000 
#    0.000    0.000    0.000    0.000    0.000    0.000 
#
# Total GULP energy -312352.421043 kJ/mol
# GULP energy per Si atom -5577.721804 kJ/mol
# Density = 2.309472 g / cm^3
# Si number density = 23.147401 Si / 1000 Ang^3
#
#
#
# Elastic Constant Matrix: (Units=GPa)
#
#
# Indices 1 2 3 4 5 6 
#
# 1 99.4562 20.6207 19.2066 0.0000 0.0000 0.0000
# 2 20.6207 70.7222 35.1952 0.0000 0.0000 0.0000
# 3 19.2066 35.1952 196.4592 0.0000 0.0000 0.0000
# 4 0.0000 0.0000 0.0000 -25.0863 0.0000 0.0000
# 5 0.0000 0.0000 0.0000 0.0000 -47.2328 0.0000
# 6 0.0000 0.0000 0.0000 0.0000 0.0000 10.1029
#
#
#
# Elastic Compliance Matrix: (Units=1/GPa)
#
#
# Indices 1 2 3 4 5 6 
#
# 1 0.010753 -0.002868 -0.000538 0.000000 0.000000 0.000000
# 2 -0.002868 0.016289 -0.002638 0.000000 0.000000 0.000000
# 3 -0.000538 -0.002638 0.005615 0.000000 0.000000 0.000000
# 4 0.000000 0.000000 0.000000 -0.039862 0.000000 0.000000
# 5 0.000000 0.000000 0.000000 0.000000 -0.021172 0.000000
# 6 0.000000 0.000000 0.000000 0.000000 0.000000 0.098981
#
#
# Mechanical properties :
#
#
# Convention : Reuss Voigt Hill
#
# Bulk Modulus (GPa) = 48.61239 57.40920 53.01079
# Shear Modulus (GPa) = 55.83642 6.99777 31.41709
#
# Velocity S-wave (km/s) = 4.91675 1.74060 3.68810
# Velocity P-wave (km/s) = 7.29928 5.37541 6.40993
#
# Compressibility (1/GPa) = 0.02057089
#
# Stress axis : x y z
#
# Youngs Moduli (GPa) = 92.99663 61.39236 178.08795
#
# Poissons Ratio (x) = 0.17606 0.09572
# Poissons Ratio (y) = 0.26670 0.46974
# Poissons Ratio (z) = 0.04999 0.16194
#
# Static dielectric constant tensor:
#      x y z
#    x 1.849270 0.000000 0.000000 
#    y 0.000000 1.892700 0.000000 
#    z 0.000000 0.000000 1.915710 
# 
# From -- ./inp_files/13773.got.cif
#   From: 2010.05.17/outbox.cif.g08.bks.cpg/sg57_7_cif.got.tgz:13773.got - 2010.06.03 13:58:18.
