data_PCOD9435658
_publ_section_title
;
Structure prediction by ZEFSAII (Michael W. Deem and Ramdas Pophale) SiO2 
 PCOD9435658
Probable space group: P B C M
;
_chemical_formula_sum "Si O2"
_cell_formula_units_Z 48
_cell_length_a 32.408768
_cell_length_b 9.226630
_cell_length_c 8.579510
_cell_angle_alpha 90.000000
_cell_angle_beta 90.000000
_cell_angle_gamma 90.000000
_cell_volume 2565.476920
_symmetry_space_group_name_H-M "P B C M"
_symmetry_group_IT_number 57
_symmetry_cell_setting 'orthorhombic'
loop_
_space_group_symop_operation_xyz
x,y,z
-x,-y,1/2+z
x,1/2-y,-z
-x,1/2+y,1/2-z
-x,-y,-z
x,y,1/2-z
-x,1/2+y,z
x,1/2-y,1/2+z
loop_
_atom_site_type_symbol
_atom_site_label
_atom_site_fract_x
_atom_site_fract_y
_atom_site_fract_z
Si Si1 0.538963 0.086215 0.562909
Si Si2 0.371440 0.914331 0.062290
Si Si3 0.797175 0.587471 0.937116
Si Si4 0.039406 0.086723 0.937404
Si Si5 0.718966 0.414863 0.437667
Si Si6 0.121374 0.912895 0.938064
O O1 0.537030 0.250000 0.500000
O O2 0.537463 0.088426 0.750000
O O3 0.584056 0.022636 0.513944
O O4 0.500000 0.000000 0.500000
O O5 0.371433 0.911024 0.250000
O O6 0.326633 0.973994 0.014608
O O7 0.371603 0.750000 0.000000
O O8 0.796797 0.590517 0.750000
O O9 0.836949 0.494313 0.988934
O O10 0.800201 0.750000 0.000000
O O11 0.755766 0.510841 0.996731
O O12 0.038084 0.089572 0.750000
O O13 0.081106 0.003532 0.986957
O O14 0.039315 0.250000 0.000000
O O15 0.000000 0.000000 0.000000
O O16 0.722692 0.250000 0.500000
O O17 0.721153 0.411517 0.250000
O O18 0.121508 0.907943 0.750000
O O19 0.119865 0.750000 0.000000
#
# Coordination Sequence:
#
# PCOD9435658 Si02
#       6
#     8   8   8   8   8   8
#     4  10  19  33  52  76 104 137 175 218 265 318
#     4   8  16  30  50  74 102 134 172 215 263 315
#     4  11  23  39  57  81 111 146 183 224 273 326
#     4  11  23  40  61  88 119 154 192 234 280 330
#     4  10  19  34  56  82 108 138 176 221 267 319
#     4  10  23  40  60  85 114 147 187 230 276 326
#
# _framework density 18.709970999999999
#
# number of rings (size 3 to 8) (size 9 to 14) (size 15 to 20)
#    0.000    2.000    0.000    3.500    0.000    6.667 
#    0.000    0.833    0.000    0.000    0.000    0.000 
#    0.000    0.000    0.000    0.000    0.000    0.000 
#
# Total GULP energy -267873.237147 kJ/mol
# GULP energy per Si atom -5580.692441 kJ/mol
# Density = 1.866739 g / cm^3
# Si number density = 18.709971 Si / 1000 Ang^3
#
#
#
# Elastic Constant Matrix: (Units=GPa)
#
#
# Indices 1 2 3 4 5 6 
#
# 1 240.0278 105.2281 49.9422 0.0000 0.0000 0.0000
# 2 105.2281 130.2461 31.6136 0.0000 0.0000 0.0000
# 3 49.9422 31.6136 44.6887 0.0000 0.0000 0.0000
# 4 0.0000 0.0000 0.0000 34.6661 0.0000 0.0000
# 5 0.0000 0.0000 0.0000 0.0000 29.5455 0.0000
# 6 0.0000 0.0000 0.0000 0.0000 0.0000 34.9083
#
#
#
# Elastic Compliance Matrix: (Units=1/GPa)
#
#
# Indices 1 2 3 4 5 6 
#
# 1 0.007198 -0.004664 -0.004745 0.000000 0.000000 0.000000
# 2 -0.004664 0.012291 -0.003483 0.000000 0.000000 0.000000
# 3 -0.004745 -0.003483 0.030144 0.000000 0.000000 0.000000
# 4 0.000000 0.000000 0.000000 0.028847 0.000000 0.000000
# 5 0.000000 0.000000 0.000000 0.000000 0.033846 0.000000
# 6 0.000000 0.000000 0.000000 0.000000 0.000000 0.028646
#
#
# Mechanical properties :
#
#
# Convention : Reuss Voigt Hill
#
# Bulk Modulus (GPa) = 41.92960 87.61450 64.77205
# Shear Modulus (GPa) = 28.61961 35.03589 31.82775
#
# Velocity S-wave (km/s) = 3.91531 4.33202 4.12893
# Velocity P-wave (km/s) = 6.54969 8.48241 7.57792
#
# Compressibility (1/GPa) = 0.02384950
#
# Stress axis : x y z
#
# Youngs Moduli (GPa) = 138.92668 81.36008 33.17429
#
# Poissons Ratio (x) = 0.37944 0.15741
# Poissons Ratio (y) = 0.64791 0.11554
# Poissons Ratio (z) = 0.65921 0.28337
#
# Static dielectric constant tensor:
#      x y z
#    x 1.684640 0.000000 0.000000 
#    y 0.000000 1.591590 0.000000 
#    z 0.000000 0.000000 1.637350 
# 
# From -- ./inp_files/10009.got.cif
#   From: 2010.05.17/outbox.cif.g08.bks.cpg/sg57_6_cif.got.tgz:10009.got - 2010.06.03 13:58:18.
