data_PCOD9435646
_publ_section_title
;
Structure prediction by ZEFSAII (Michael W. Deem and Ramdas Pophale) SiO2 
 PCOD9435646
Probable space group: P B C M
;
_chemical_formula_sum "Si O2"
_cell_formula_units_Z 64
_cell_length_a 19.832402
_cell_length_b 8.212765
_cell_length_c 14.284024
_cell_angle_alpha 90.000000
_cell_angle_beta 90.000000
_cell_angle_gamma 90.000000
_cell_volume 2326.565503
_symmetry_space_group_name_H-M "P B C M"
_symmetry_group_IT_number 57
_symmetry_cell_setting 'orthorhombic'
loop_
_space_group_symop_operation_xyz
x,y,z
-x,-y,1/2+z
x,1/2-y,-z
-x,1/2+y,1/2-z
-x,-y,-z
x,y,1/2-z
-x,1/2+y,z
x,1/2-y,1/2+z
loop_
_atom_site_type_symbol
_atom_site_label
_atom_site_fract_x
_atom_site_fract_y
_atom_site_fract_z
Si Si1 0.521007 0.820946 0.136235
Si Si2 0.353580 0.009375 0.856883
Si Si3 0.395576 0.495685 0.636756
Si Si4 0.980902 0.537005 0.641723
Si Si5 0.140501 0.823450 0.601115
Si Si6 0.222014 0.158185 0.864901
Si Si7 0.727563 0.309721 0.394286
Si Si8 0.101955 0.350349 0.864595
O O1 0.512955 0.808291 0.250000
O O2 0.570610 0.970927 0.108805
O O3 0.564982 0.666238 0.106779
O O4 0.445908 0.860476 0.103693
O O5 0.359878 0.065373 0.750000
O O6 0.297603 0.130037 0.899334
O O7 0.320036 0.832562 0.853256
O O8 0.393463 0.491915 0.750000
O O9 0.318733 0.531303 0.608664
O O10 0.992499 0.575728 0.750000
O O11 0.931581 0.379185 0.640601
O O12 0.939022 0.688628 0.604722
O O13 0.053921 0.494306 0.600255
O O14 0.127997 0.750000 0.500000
O O15 0.196374 0.699672 0.645870
O O16 0.181898 0.994332 0.606062
O O17 0.222226 0.157373 0.750000
O O18 0.178292 0.314431 0.894776
O O19 0.735558 0.250000 0.500000
O O20 0.102436 0.356780 0.750000
#
# Coordination Sequence:
#
# PCOD9435646 Si02
#       8
#     8   8   8   8   8   8   8   8
#     4   9  18  32  52  77 100 124 157 196 235 277
#     4   9  16  30  52  72  91 123 164 198 233 284
#     4  10  19  33  52  73  99 127 155 191 235 282
#     4   9  16  28  45  65  90 120 152 186 227 274
#     4   9  17  29  45  65  90 119 153 193 231 271
#     4   8  14  26  45  65  86 117 154 187 225 278
#     4  10  20  33  49  71  97 125 160 201 242 282
#     4   8  14  25  42  64  88 113 144 182 222 264
#
# _framework density 27.508358999999999
#
# number of rings (size 3 to 8) (size 9 to 14) (size 15 to 20)
#    0.000    3.000    0.000    2.250    0.000    3.500 
#    0.000    6.875    0.000    4.500    0.000    5.250 
#    0.000    0.000    0.000    0.000    0.000    0.000 
#
# Total GULP energy -357568.834672 kJ/mol
# GULP energy per Si atom -5587.013042 kJ/mol
# Density = 2.744575 g / cm^3
# Si number density = 27.508359 Si / 1000 Ang^3
#
#
#
# Elastic Constant Matrix: (Units=GPa)
#
#
# Indices 1 2 3 4 5 6 
#
# 1 158.9888 24.1836 7.5187 0.0000 0.0000 0.0000
# 2 24.1836 83.5076 11.0248 0.0000 0.0000 0.0000
# 3 7.5187 11.0248 91.8422 0.0000 0.0000 0.0000
# 4 0.0000 0.0000 0.0000 25.3745 0.0000 0.0000
# 5 0.0000 0.0000 0.0000 0.0000 49.2869 0.0000
# 6 0.0000 0.0000 0.0000 0.0000 0.0000 42.7869
#
#
#
# Elastic Compliance Matrix: (Units=1/GPa)
#
#
# Indices 1 2 3 4 5 6 
#
# 1 0.006589 -0.001866 -0.000315 0.000000 0.000000 0.000000
# 2 -0.001866 0.012697 -0.001371 0.000000 0.000000 0.000000
# 3 -0.000315 -0.001371 0.011079 0.000000 0.000000 0.000000
# 4 0.000000 0.000000 0.000000 0.039410 0.000000 0.000000
# 5 0.000000 0.000000 0.000000 0.000000 0.020289 0.000000
# 6 0.000000 0.000000 0.000000 0.000000 0.000000 0.023372
#
#
# Mechanical properties :
#
#
# Convention : Reuss Voigt Hill
#
# Bulk Modulus (GPa) = 42.99658 46.64364 44.82011
# Shear Modulus (GPa) = 38.97327 42.93043 40.95185
#
# Velocity S-wave (km/s) = 3.76810 3.95477 3.86256
# Velocity P-wave (km/s) = 5.88181 6.15196 6.01840
#
# Compressibility (1/GPa) = 0.02325766
#
# Stress axis : x y z
#
# Youngs Moduli (GPa) = 151.77828 78.76179 90.26350
#
# Poissons Ratio (x) = 0.14700 0.02846
# Poissons Ratio (y) = 0.28328 0.12378
# Poissons Ratio (z) = 0.04786 0.10801
#
# Static dielectric constant tensor:
#      x y z
#    x 2.152360 0.000000 0.000000 
#    y 0.000000 2.207980 0.000000 
#    z 0.000000 0.000000 2.155570 
# 
# From -- ./inp_files/23134.got.cif
#   From: 2010.05.17/outbox.cif.g08.bks.cpg/sg57_12_cif.got.tgz:23134.got - 2010.06.03 13:58:18.
