data_PCOD9435835
_publ_section_title
;
Structure prediction by ZEFSAII (Michael W. Deem and Ramdas Pophale) SiO2 
 PCOD9435835
Probable space group: P B C M
;
_chemical_formula_sum "Si O2"
_cell_formula_units_Z 56
_cell_length_a 16.885712
_cell_length_b 21.666288
_cell_length_c 8.735319
_cell_angle_alpha 90.000000
_cell_angle_beta 90.000000
_cell_angle_gamma 90.000000
_cell_volume 3195.822565
_symmetry_space_group_name_H-M "P B C M"
_symmetry_group_IT_number 57
_symmetry_cell_setting 'orthorhombic'
loop_
_space_group_symop_operation_xyz
x,y,z
-x,-y,1/2+z
x,1/2-y,-z
-x,1/2+y,1/2-z
-x,-y,-z
x,y,1/2-z
-x,1/2+y,z
x,1/2-y,1/2+z
loop_
_atom_site_type_symbol
_atom_site_label
_atom_site_fract_x
_atom_site_fract_y
_atom_site_fract_z
Si Si1 0.015185 0.409710 0.932642
Si Si2 0.127545 0.526036 0.931671
Si Si3 0.541847 0.438468 0.068148
Si Si4 0.303846 0.127998 0.930947
Si Si5 0.852876 0.817675 0.567082
Si Si6 0.541365 0.816820 0.932288
Si Si7 0.301030 0.982756 0.569363
O O1 0.000905 0.414224 0.750000
O O2 0.077942 0.464104 0.972584
O O3 0.061984 0.347427 0.967507
O O4 0.933563 0.420567 0.019898
O O5 0.141020 0.525353 0.750000
O O6 0.211208 0.528568 0.016165
O O7 0.529638 0.438344 0.250000
O O8 0.500000 0.500000 0.000000
O O9 0.506774 0.375277 0.999170
O O10 0.634075 0.444825 0.024412
O O11 0.309265 0.140847 0.750000
O O12 0.319333 0.055432 0.955119
O O13 0.216838 0.142622 0.992081
O O14 0.368147 0.168683 0.019090
O O15 0.846668 0.750000 0.500000
O O16 0.842517 0.818289 0.750000
O O17 0.534113 0.815593 0.750000
O O18 0.518311 0.750000 0.000000
O O19 0.309152 0.970150 0.750000
#
# Coordination Sequence:
#
# PCOD9435835 Si02
#       7
#     8   8   8   8   8   8   8
#     4   9  19  34  52  76 108 144 183 226 276 332
#     4  10  19  33  55  81 109 141 182 229 281 335
#     4  12  24  40  62  89 120 155 198 245 298 353
#     4  11  22  36  56  83 117 155 196 235 285 348
#     4  11  22  36  53  77 113 152 192 232 280 339
#     4  12  25  42  63  86 119 158 200 246 294 354
#     4  11  22  36  58  86 119 153 191 238 291 346
#
# _framework density 17.522874999999999
#
# number of rings (size 3 to 8) (size 9 to 14) (size 15 to 20)
#    0.000    1.143    2.857    4.714    0.000    2.857 
#    0.000    0.000    0.000    0.857    0.000    4.000 
#    0.000    0.000    0.000    0.000    0.000    0.000 
#
# Total GULP energy -312925.526815 kJ/mol
# GULP energy per Si atom -5587.955836 kJ/mol
# Density = 1.748299 g / cm^3
# Si number density = 17.522875 Si / 1000 Ang^3
#
#
#
# Elastic Constant Matrix: (Units=GPa)
#
#
# Indices 1 2 3 4 5 6 
#
# 1 80.5135 34.7831 38.4027 0.0000 0.0000 0.0000
# 2 34.7831 86.0501 56.8170 0.0000 0.0000 0.0000
# 3 38.4027 56.8170 108.5904 0.0000 0.0000 0.0000
# 4 0.0000 0.0000 0.0000 24.1730 0.0000 0.0000
# 5 0.0000 0.0000 0.0000 0.0000 33.6606 0.0000
# 6 0.0000 0.0000 0.0000 0.0000 0.0000 21.8340
#
#
#
# Elastic Compliance Matrix: (Units=1/GPa)
#
#
# Indices 1 2 3 4 5 6 
#
# 1 0.015848 -0.004133 -0.003442 0.000000 0.000000 0.000000
# 2 -0.004133 0.018833 -0.008392 0.000000 0.000000 0.000000
# 3 -0.003442 -0.008392 0.014817 0.000000 0.000000 0.000000
# 4 0.000000 0.000000 0.000000 0.041368 0.000000 0.000000
# 5 0.000000 0.000000 0.000000 0.000000 0.029708 0.000000
# 6 0.000000 0.000000 0.000000 0.000000 0.000000 0.045800
#
#
# Mechanical properties :
#
#
# Convention : Reuss Voigt Hill
#
# Bulk Modulus (GPa) = 56.93746 59.46220 58.19983
# Shear Modulus (GPa) = 24.49016 25.61027 25.05022
#
# Velocity S-wave (km/s) = 3.74252 3.82715 3.78507
# Velocity P-wave (km/s) = 7.15814 7.31691 7.23796
#
# Compressibility (1/GPa) = 0.01756313
#
# Stress axis : x y z
#
# Youngs Moduli (GPa) = 63.10111 53.09811 67.48978
#
# Poissons Ratio (x) = 0.21947 0.23229
# Poissons Ratio (y) = 0.26082 0.56638
# Poissons Ratio (z) = 0.21718 0.44561
#
# Static dielectric constant tensor:
#      x y z
#    x 1.591300 0.000000 0.000000 
#    y 0.000000 1.584580 0.000000 
#    z 0.000000 0.000000 1.587820 
# 
# From -- ./inp_files/5197.got.cif
#   From: 2010.05.17/outbox.cif.g08.bks.cpg/sg57_3_cif.got.tgz:5197.got - 2010.06.03 13:58:18.
