data_PCOD9435354
_publ_section_title
;
Structure prediction by ZEFSAII (Michael W. Deem and Ramdas Pophale) SiO2 
 PCOD9435354
Probable space group: P B C M
;
_chemical_formula_sum "Si O2"
_cell_formula_units_Z 56
_cell_length_a 16.061929
_cell_length_b 20.654554
_cell_length_c 8.547826
_cell_angle_alpha 90.000000
_cell_angle_beta 90.000000
_cell_angle_gamma 90.000000
_cell_volume 2835.758199
_symmetry_space_group_name_H-M "P B C M"
_symmetry_group_IT_number 57
_symmetry_cell_setting 'orthorhombic'
loop_
_space_group_symop_operation_xyz
x,y,z
-x,-y,1/2+z
x,1/2-y,-z
-x,1/2+y,1/2-z
-x,-y,-z
x,y,1/2-z
-x,1/2+y,z
x,1/2-y,1/2+z
loop_
_atom_site_type_symbol
_atom_site_label
_atom_site_fract_x
_atom_site_fract_y
_atom_site_fract_z
Si Si1 0.838528 0.414922 0.437003
Si Si2 0.496086 0.819931 0.937762
Si Si3 0.025896 0.680697 0.063244
Si Si4 0.759037 0.955079 0.941009
Si Si5 0.302861 0.678734 0.438084
Si Si6 0.572176 0.953653 0.939058
Si Si7 0.167630 0.180936 0.438625
O O1 0.844519 0.414361 0.250000
O O2 0.918091 0.378179 0.505023
O O3 0.822520 0.488647 0.490287
O O4 0.758095 0.373708 0.488719
O O5 0.498161 0.817397 0.750000
O O6 0.399531 0.831950 0.983479
O O7 0.551334 0.880296 0.989443
O O8 0.521955 0.750000 0.000000
O O9 0.028746 0.682657 0.250000
O O10 0.929453 0.674430 0.013388
O O11 0.057337 0.750000 0.000000
O O12 0.759468 0.954465 0.750000
O O13 0.665090 0.971838 0.990949
O O14 0.784208 0.883118 0.992254
O O15 0.279938 0.750000 0.500000
O O16 0.296323 0.677199 0.250000
O O17 0.570413 0.955419 0.750000
O O18 0.500000 0.000000 0.000000
O O19 0.199138 0.250000 0.500000
O O20 0.170400 0.182627 0.250000
#
# Coordination Sequence:
#
# PCOD9435354 Si02
#       7
#     8   8   8   8   8   8   8
#     4  11  21  33  51  76 106 140 177 213 255 311
#     4   9  19  33  51  75 102 133 171 216 262 310
#     4  10  20  35  56  80 107 139 174 214 258 307
#     4   9  20  37  56  78 107 142 174 211 264 317
#     4  10  19  32  49  72 104 139 175 216 261 308
#     4  10  20  36  56  78 106 140 177 216 261 312
#     4   9  19  38  60  81 106 138 176 216 262 313
#
# _framework density 19.747807000000002
#
# number of rings (size 3 to 8) (size 9 to 14) (size 15 to 20)
#    0.000    2.286    0.000    2.571    0.000    2.857 
#    0.000    2.857    0.000    0.000    0.000    0.000 
#    0.000    0.000    0.000    0.000    0.000    0.000 
#
# Total GULP energy -312691.787536 kJ/mol
# GULP energy per Si atom -5583.781920 kJ/mol
# Density = 1.970286 g / cm^3
# Si number density = 19.747807 Si / 1000 Ang^3
#
#
#
# Elastic Constant Matrix: (Units=GPa)
#
#
# Indices 1 2 3 4 5 6 
#
# 1 63.5972 47.8874 12.5519 0.0000 0.0000 0.0000
# 2 47.8874 126.3702 12.4657 0.0000 0.0000 0.0000
# 3 12.5519 12.4657 15.5960 0.0000 0.0000 0.0000
# 4 0.0000 0.0000 0.0000 26.4405 0.0000 0.0000
# 5 0.0000 0.0000 0.0000 0.0000 14.6268 0.0000
# 6 0.0000 0.0000 0.0000 0.0000 0.0000 41.7592
#
#
#
# Elastic Compliance Matrix: (Units=1/GPa)
#
#
# Indices 1 2 3 4 5 6 
#
# 1 0.024281 -0.007896 -0.013230 0.000000 0.000000 0.000000
# 2 -0.007896 0.011158 -0.002564 0.000000 0.000000 0.000000
# 3 -0.013230 -0.002564 0.076816 0.000000 0.000000 0.000000
# 4 0.000000 0.000000 0.000000 0.037821 0.000000 0.000000
# 5 0.000000 0.000000 0.000000 0.000000 0.068368 0.000000
# 6 0.000000 0.000000 0.000000 0.000000 0.000000 0.023947
#
#
# Mechanical properties :
#
#
# Convention : Reuss Voigt Hill
#
# Bulk Modulus (GPa) = 15.41432 39.04149 27.22790
# Shear Modulus (GPa) = 16.05675 25.40920 20.73297
#
# Velocity S-wave (km/s) = 2.85457 3.59093 3.24371
# Velocity P-wave (km/s) = 4.32288 6.08326 5.27699
#
# Compressibility (1/GPa) = 0.06487475
#
# Stress axis : x y z
#
# Youngs Moduli (GPa) = 41.18502 89.61943 13.01809
#
# Poissons Ratio (x) = 0.70763 0.17223
# Poissons Ratio (y) = 0.32519 0.03338
# Poissons Ratio (z) = 0.54489 0.22977
#
# Static dielectric constant tensor:
#      x y z
#    x 1.696940 0.000000 0.000000 
#    y 0.000000 1.618460 0.000000 
#    z 0.000000 0.000000 1.674210 
# 
# From -- ./inp_files/5226.got.cif
#   From: 2010.05.17/outbox.cif.g08.bks.cpg/sg57_3_cif.got.tgz:5226.got - 2010.06.03 13:58:18.
