data_PCOD9435810
_publ_section_title
;
Structure prediction by ZEFSAII (Michael W. Deem and Ramdas Pophale) SiO2 
 PCOD9435810
Probable space group: P B C M
;
_chemical_formula_sum "Si O2"
_cell_formula_units_Z 56
_cell_length_a 21.339764
_cell_length_b 15.672834
_cell_length_c 8.623984
_cell_angle_alpha 90.000000
_cell_angle_beta 90.000000
_cell_angle_gamma 90.000000
_cell_volume 2884.330936
_symmetry_space_group_name_H-M "P B C M"
_symmetry_group_IT_number 57
_symmetry_cell_setting 'orthorhombic'
loop_
_space_group_symop_operation_xyz
x,y,z
-x,-y,1/2+z
x,1/2-y,-z
-x,1/2+y,1/2-z
-x,-y,-z
x,y,1/2-z
-x,1/2+y,z
x,1/2-y,1/2+z
loop_
_atom_site_type_symbol
_atom_site_label
_atom_site_fract_x
_atom_site_fract_y
_atom_site_fract_z
Si Si1 0.855397 0.657622 0.065394
Si Si2 0.527904 0.411984 0.436371
Si Si3 0.116341 0.838320 0.935912
Si Si4 0.345140 0.516689 0.936497
Si Si5 0.209528 0.992237 0.935226
Si Si6 0.011599 0.404990 0.435192
Si Si7 0.400210 0.160940 0.936407
O O1 0.857160 0.660897 0.250000
O O2 0.837179 0.750000 0.000000
O O3 0.809957 0.581895 0.010504
O O4 0.924391 0.633289 0.002206
O O5 0.500000 0.500000 0.500000
O O6 0.528029 0.413585 0.250000
O O7 0.600559 0.415557 0.484922
O O8 0.474205 0.345497 0.482885
O O9 0.110586 0.835100 0.750000
O O10 0.158982 0.919659 0.977257
O O11 0.143617 0.750000 0.000000
O O12 0.048353 0.851291 0.011426
O O13 0.341199 0.515727 0.750000
O O14 0.277982 0.534876 0.008704
O O15 0.367036 0.422819 0.994095
O O16 0.208645 0.001969 0.750000
O O17 0.016062 0.408009 0.250000
O O18 0.000000 0.500000 0.500000
O O19 0.395294 0.158114 0.750000
O O20 0.374453 0.250000 0.000000
#
# Coordination Sequence:
#
# PCOD9435810 Si02
#       7
#     8   8   8   8   8   8   8
#     4  12  25  42  64  90 123 161 201 249 305 364
#     4   8  16  31  52  77 105 138 177 223 271 326
#     4  11  24  42  65  90 120 156 201 252 306 362
#     4  10  20  36  58  82 111 150 193 235 288 348
#     4  11  24  42  62  87 121 160 204 251 300 358
#     4  12  23  39  64  93 124 157 199 248 305 363
#     4  10  19  33  54  83 116 148 187 234 287 342
#
# _framework density 19.415248999999999
#
# number of rings (size 3 to 8) (size 9 to 14) (size 15 to 20)
#    0.000    1.429    1.429    4.714    0.000    3.429 
#    0.000    3.571    0.000    3.429    0.000    0.000 
#    0.000    0.000    0.000    0.000    0.000    0.000 
#
# Total GULP energy -312782.532210 kJ/mol
# GULP energy per Si atom -5585.402361 kJ/mol
# Density = 1.937106 g / cm^3
# Si number density = 19.415249 Si / 1000 Ang^3
#
#
#
# Elastic Constant Matrix: (Units=GPa)
#
#
# Indices 1 2 3 4 5 6 
#
# 1 76.2377 -15.3316 16.6128 0.0000 0.0000 0.0000
# 2 -15.3316 61.9283 18.5499 0.0000 0.0000 0.0000
# 3 16.6128 18.5499 79.9333 0.0000 0.0000 0.0000
# 4 0.0000 0.0000 0.0000 26.0300 0.0000 0.0000
# 5 0.0000 0.0000 0.0000 0.0000 29.5579 0.0000
# 6 0.0000 0.0000 0.0000 0.0000 0.0000 11.4067
#
#
#
# Elastic Compliance Matrix: (Units=1/GPa)
#
#
# Indices 1 2 3 4 5 6 
#
# 1 0.015061 0.005015 -0.004294 0.000000 0.000000 0.000000
# 2 0.005015 0.019024 -0.005457 0.000000 0.000000 0.000000
# 3 -0.004294 -0.005457 0.014669 0.000000 0.000000 0.000000
# 4 0.000000 0.000000 0.000000 0.038417 0.000000 0.000000
# 5 0.000000 0.000000 0.000000 0.000000 0.033832 0.000000
# 6 0.000000 0.000000 0.000000 0.000000 0.000000 0.087668
#
#
# Mechanical properties :
#
#
# Convention : Reuss Voigt Hill
#
# Bulk Modulus (GPa) = 25.45704 28.64015 27.04859
# Shear Modulus (GPa) = 21.62280 26.61682 24.11981
#
# Velocity S-wave (km/s) = 3.34084 3.70661 3.52847
# Velocity P-wave (km/s) = 5.29358 5.75344 5.52829
#
# Compressibility (1/GPa) = 0.03928187
#
# Stress axis : x y z
#
# Youngs Moduli (GPa) = 66.39638 52.56562 68.16977
#
# Poissons Ratio (x) = -0.26361 0.29272
# Poissons Ratio (y) = -0.33297 0.37201
# Poissons Ratio (z) = 0.28510 0.28685
#
# Static dielectric constant tensor:
#      x y z
#    x 1.694780 0.000000 0.000000 
#    y 0.000000 1.607260 0.000000 
#    z 0.000000 0.000000 1.656940 
# 
# From -- ./inp_files/8143.got.cif
#   From: 2010.05.17/outbox.cif.g08.bks.cpg/sg57_5_cif.got.tgz:8143.got - 2010.06.03 13:58:18.
