data_PCOD9435030
_publ_section_title
;
Structure prediction by ZEFSAII (Michael W. Deem and Ramdas Pophale) SiO2 
 PCOD9435030
Probable space group: P B C M
;
_chemical_formula_sum "Si O2"
_cell_formula_units_Z 48
_cell_length_a 23.931485
_cell_length_b 10.820183
_cell_length_c 10.106678
_cell_angle_alpha 90.000000
_cell_angle_beta 90.000000
_cell_angle_gamma 90.000000
_cell_volume 2617.053998
_symmetry_space_group_name_H-M "P B C M"
_symmetry_group_IT_number 57
_symmetry_cell_setting 'orthorhombic'
loop_
_space_group_symop_operation_xyz
x,y,z
-x,-y,1/2+z
x,1/2-y,-z
-x,1/2+y,1/2-z
-x,-y,-z
x,y,1/2-z
-x,1/2+y,z
x,1/2-y,1/2+z
loop_
_atom_site_type_symbol
_atom_site_label
_atom_site_fract_x
_atom_site_fract_y
_atom_site_fract_z
Si Si1 0.033274 0.653140 0.750000
Si Si2 0.679869 0.859719 0.597448
Si Si3 0.121028 0.612153 0.985652
Si Si4 0.813329 0.865497 0.595465
Si Si5 0.413062 0.945695 0.399973
Si Si6 0.506323 0.344682 0.601699
Si Si7 0.051789 0.928009 0.750000
O O1 0.072603 0.630453 0.876657
O O2 0.016625 0.798498 0.750000
O O3 0.984973 0.551344 0.750000
O O4 0.663842 0.750000 0.500000
O O5 0.667946 0.825041 0.750000
O O6 0.746199 0.880002 0.584533
O O7 0.643179 0.980098 0.569371
O O8 0.159001 0.496279 0.943797
O O9 0.148067 0.750000 0.000000
O O10 0.091014 0.577992 0.122186
O O11 0.829597 0.750000 0.500000
O O12 0.826561 0.838234 0.750000
O O13 0.405501 0.892920 0.250000
O O14 0.434940 0.873543 0.529264
O O15 0.465208 0.040074 0.387883
O O16 0.478276 0.250000 0.500000
O O17 0.512380 0.295487 0.750000
#
# Coordination Sequence:
#
# PCOD9435030 Si02
#       7
#     4   8   8   8   8   8   4
#     4  10  20  38  56  84 114 148 184 229 274 327
#     4   9  18  33  53  76 103 133 170 219 270 316
#     4  10  21  38  58  81 115 153 188 227 274 330
#     4  10  21  37  58  84 112 144 186 235 280 328
#     4   9  18  32  49  70  97 131 167 207 260 317
#     4  10  19  30  47  70  98 130 166 208 255 314
#     4  10  22  34  58  84 114 148 186 225 276 325
#
# _framework density 18.341234
#
# number of rings (size 3 to 8) (size 9 to 14) (size 15 to 20)
#    0.000    2.333    0.833    1.500    1.167    2.667 
#    0.000    0.833    0.000    0.000    0.000    0.000 
#    0.000    0.000    0.000    0.000    0.000    0.000 
#
# Total GULP energy -267227.580509 kJ/mol
# GULP energy per Si atom -5567.241261 kJ/mol
# Density = 1.829949 g / cm^3
# Si number density = 18.341234 Si / 1000 Ang^3
#
#
#
# Elastic Constant Matrix: (Units=GPa)
#
#
# Indices 1 2 3 4 5 6 
#
# 1 35.7079 35.6618 24.0058 0.0000 0.0000 0.0000
# 2 35.6618 96.4637 33.6923 0.0000 0.0000 0.0000
# 3 24.0058 33.6923 135.3619 0.0000 0.0000 0.0000
# 4 0.0000 0.0000 0.0000 22.7600 0.0000 0.0000
# 5 0.0000 0.0000 0.0000 0.0000 98.7221 0.0000
# 6 0.0000 0.0000 0.0000 0.0000 0.0000 70.0063
#
#
#
# Elastic Compliance Matrix: (Units=1/GPa)
#
#
# Indices 1 2 3 4 5 6 
#
# 1 0.046632 -0.015717 -0.004358 0.000000 0.000000 0.000000
# 2 -0.015717 0.016651 -0.001357 0.000000 0.000000 0.000000
# 3 -0.004358 -0.001357 0.008498 0.000000 0.000000 0.000000
# 4 0.000000 0.000000 0.000000 0.043937 0.000000 0.000000
# 5 0.000000 0.000000 0.000000 0.000000 0.010129 0.000000
# 6 0.000000 0.000000 0.000000 0.000000 0.000000 0.014284
#
#
# Mechanical properties :
#
#
# Convention : Reuss Voigt Hill
#
# Bulk Modulus (GPa) = 34.58220 50.47260 42.52740
# Shear Modulus (GPa) = 25.95582 49.90926 37.93254
#
# Velocity S-wave (km/s) = 3.76595 5.22212 4.55263
# Velocity P-wave (km/s) = 6.14863 7.99620 7.13249
#
# Compressibility (1/GPa) = 0.02891661
#
# Stress axis : x y z
#
# Youngs Moduli (GPa) = 21.44463 60.05589 117.67121
#
# Poissons Ratio (x) = 0.94391 0.51279
# Poissons Ratio (y) = 0.33705 0.15970
# Poissons Ratio (z) = 0.09345 0.08151
#
# Static dielectric constant tensor:
#      x y z
#    x 1.601160 0.000000 0.000000 
#    y 0.000000 1.702620 0.000000 
#    z 0.000000 0.000000 1.411740 
# 
# From -- ./inp_files/14419.got.cif
#   From: 2010.05.17/outbox.cif.g08.bks.cpg/sg57_8_cif.got.tgz:14419.got - 2010.06.03 13:58:18.
