data_PCOD9435313
_publ_section_title
;
Structure prediction by ZEFSAII (Michael W. Deem and Ramdas Pophale) SiO2 
 PCOD9435313
Probable space group: P B C M
;
_chemical_formula_sum "Si O2"
_cell_formula_units_Z 64
_cell_length_a 20.392329
_cell_length_b 10.053792
_cell_length_c 17.710205
_cell_angle_alpha 90.000000
_cell_angle_beta 90.000000
_cell_angle_gamma 90.000000
_cell_volume 3630.950376
_symmetry_space_group_name_H-M "P B C M"
_symmetry_group_IT_number 57
_symmetry_cell_setting 'orthorhombic'
loop_
_space_group_symop_operation_xyz
x,y,z
-x,-y,1/2+z
x,1/2-y,-z
-x,1/2+y,1/2-z
-x,-y,-z
x,y,1/2-z
-x,1/2+y,z
x,1/2-y,1/2+z
loop_
_atom_site_type_symbol
_atom_site_label
_atom_site_fract_x
_atom_site_fract_y
_atom_site_fract_z
Si Si1 0.045811 0.303149 0.838608
Si Si2 0.693124 0.018388 0.159849
Si Si3 0.810532 0.649634 0.105698
Si Si4 0.580432 0.126642 0.443522
Si Si5 0.037919 0.018576 0.920437
Si Si6 0.188337 0.040622 0.945347
Si Si7 0.434151 0.376860 0.946690
Si Si8 0.326043 0.298815 0.833148
O O1 0.042547 0.270678 0.750000
O O2 0.118000 0.362806 0.857480
O O3 0.034340 0.169484 0.888192
O O4 0.993996 0.414827 0.862683
O O5 0.702292 0.046160 0.250000
O O6 0.758310 0.031054 0.107609
O O7 0.675625 0.860758 0.153910
O O8 0.635343 0.101805 0.119779
O O9 0.810455 0.803354 0.077732
O O10 0.747400 0.645272 0.158599
O O11 0.799956 0.550202 0.035283
O O12 0.592519 0.250000 0.500000
O O13 0.506505 0.131234 0.410047
O O14 0.576051 0.002207 0.499919
O O15 0.114883 0.990033 0.931905
O O16 0.000000 0.000000 0.000000
O O17 0.374393 0.367815 0.890329
O O18 0.430550 0.250000 0.000000
O O19 0.351261 0.321691 0.750000
#
# Coordination Sequence:
#
# PCOD9435313 Si02
#       8
#     8   8   8   8   8   8   8   8
#     4  11  22  36  57  85 118 149 185 240 294 338
#     4  10  20  35  57  84 114 147 187 236 288 337
#     4   9  17  31  54  84 112 139 181 236 283 329
#     4  10  21  36  56  82 110 150 191 227 275 336
#     4  11  21  38  58  84 113 151 196 232 283 351
#     4   9  18  32  57  81 107 147 190 229 273 336
#     4  10  19  35  58  81 109 143 188 234 274 329
#     4  10  19  31  55  87 112 138 181 236 288 330
#
# _framework density 17.626239000000002
#
# number of rings (size 3 to 8) (size 9 to 14) (size 15 to 20)
#    0.000    2.000    2.500    1.875    1.750    4.000 
#    0.000    1.875    0.000    0.000    0.000    0.000 
#    0.000    0.000    0.000    0.000    0.000    0.000 
#
# Total GULP energy -356619.522870 kJ/mol
# GULP energy per Si atom -5572.180045 kJ/mol
# Density = 1.758612 g / cm^3
# Si number density = 17.626239 Si / 1000 Ang^3
#
#
#
# Elastic Constant Matrix: (Units=GPa)
#
#
# Indices 1 2 3 4 5 6 
#
# 1 105.3367 29.4132 52.4296 0.0000 0.0000 0.0000
# 2 29.4132 58.8738 24.3979 0.0000 0.0000 0.0000
# 3 52.4296 24.3979 93.2189 0.0000 0.0000 0.0000
# 4 0.0000 0.0000 0.0000 21.7296 0.0000 0.0000
# 5 0.0000 0.0000 0.0000 0.0000 12.4352 0.0000
# 6 0.0000 0.0000 0.0000 0.0000 0.0000 20.5836
#
#
#
# Elastic Compliance Matrix: (Units=1/GPa)
#
#
# Indices 1 2 3 4 5 6 
#
# 1 0.014053 -0.004201 -0.006805 0.000000 0.000000 0.000000
# 2 -0.004201 0.020308 -0.002952 0.000000 0.000000 0.000000
# 3 -0.006805 -0.002952 0.015327 0.000000 0.000000 0.000000
# 4 0.000000 0.000000 0.000000 0.046020 0.000000 0.000000
# 5 0.000000 0.000000 0.000000 0.000000 0.080417 0.000000
# 6 0.000000 0.000000 0.000000 0.000000 0.000000 0.048582
#
#
# Mechanical properties :
#
#
# Convention : Reuss Voigt Hill
#
# Bulk Modulus (GPa) = 45.92940 52.21230 49.07085
# Shear Modulus (GPa) = 19.23957 21.02893 20.13425
#
# Velocity S-wave (km/s) = 3.30742 3.45780 3.38344
# Velocity P-wave (km/s) = 6.37960 6.75485 6.56991
#
# Compressibility (1/GPa) = 0.02177255
#
# Stress axis : x y z
#
# Youngs Moduli (GPa) = 71.15775 49.24223 65.24345
#
# Poissons Ratio (x) = 0.20687 0.44395
# Poissons Ratio (y) = 0.29894 0.19261
# Poissons Ratio (z) = 0.48419 0.14537
#
# Static dielectric constant tensor:
#      x y z
#    x 1.619760 0.000000 0.000000 
#    y 0.000000 1.582000 0.000000 
#    z 0.000000 0.000000 1.602410 
# 
# From -- ./inp_files/22938.got.cif
#   From: 2010.05.17/outbox.cif.g08.bks.cpg/sg57_12_cif.got.tgz:22938.got - 2010.06.03 13:58:18.
