data_PCOD9435925
_publ_section_title
;
Structure prediction by ZEFSAII (Michael W. Deem and Ramdas Pophale) SiO2 
 PCOD9435925
Probable space group: P B C M
;
_chemical_formula_sum "Si O2"
_cell_formula_units_Z 40
_cell_length_a 9.344604
_cell_length_b 16.120285
_cell_length_c 14.855198
_cell_angle_alpha 90.000000
_cell_angle_beta 90.000000
_cell_angle_gamma 90.000000
_cell_volume 2237.752558
_symmetry_space_group_name_H-M "P B C M"
_symmetry_group_IT_number 57
_symmetry_cell_setting 'orthorhombic'
loop_
_space_group_symop_operation_xyz
x,y,z
-x,-y,1/2+z
x,1/2-y,-z
-x,1/2+y,1/2-z
-x,-y,-z
x,y,1/2-z
-x,1/2+y,z
x,1/2-y,1/2+z
loop_
_atom_site_type_symbol
_atom_site_label
_atom_site_fract_x
_atom_site_fract_y
_atom_site_fract_z
Si Si1 0.769162 0.075072 0.509985
Si Si2 0.002239 0.188965 0.421014
Si Si3 0.235931 0.071817 0.351855
Si Si4 0.429361 0.608568 0.147090
Si Si5 0.725942 0.218864 0.648478
O O1 0.911126 0.114254 0.466007
O O2 0.658369 0.059367 0.428810
O O3 0.708058 0.147933 0.574593
O O4 0.796157 0.996897 0.572994
O O5 0.053803 0.250000 0.500000
O O6 0.883457 0.240594 0.365362
O O7 0.131234 0.149468 0.366536
O O8 0.215295 0.039648 0.250000
O O9 0.401775 0.096846 0.361901
O O10 0.388283 0.585351 0.250000
O O11 0.382405 0.704531 0.135591
O O12 0.711396 0.186904 0.750000
#
# Coordination Sequence:
#
# PCOD9435925 Si02
#       5
#     8   8   8   8   8
#     4  10  19  34  53  75  99 131 168 205 244 293
#     4   9  19  33  51  72 100 135 168 198 241 295
#     4  11  21  33  51  78 105 128 159 208 257 291
#     4   9  19  33  50  71  98 132 169 203 245 295
#     4   9  17  33  54  74  97 132 171 202 237 294
#
# _framework density 17.875076
#
# number of rings (size 3 to 8) (size 9 to 14) (size 15 to 20)
#    0.000    2.400    0.000    4.200    0.000    2.400 
#    0.000    0.000    0.000    2.400    0.000    0.000 
#    0.000    0.000    0.000    0.000    0.000    0.000 
#
# Total GULP energy -223071.344204 kJ/mol
# GULP energy per Si atom -5576.783605 kJ/mol
# Density = 1.783439 g / cm^3
# Si number density = 17.875076 Si / 1000 Ang^3
#
#
#
# Elastic Constant Matrix: (Units=GPa)
#
#
# Indices 1 2 3 4 5 6 
#
# 1 45.2661 10.2912 32.4482 0.0000 0.0000 0.0000
# 2 10.2912 20.1516 12.0233 0.0000 0.0000 0.0000
# 3 32.4482 12.0233 99.4528 0.0000 0.0000 0.0000
# 4 0.0000 0.0000 0.0000 24.6548 0.0000 0.0000
# 5 0.0000 0.0000 0.0000 0.0000 20.6783 0.0000
# 6 0.0000 0.0000 0.0000 0.0000 0.0000 7.7490
#
#
#
# Elastic Compliance Matrix: (Units=1/GPa)
#
#
# Indices 1 2 3 4 5 6 
#
# 1 0.030760 -0.010476 -0.008769 0.000000 0.000000 0.000000
# 2 -0.010476 0.057050 -0.003479 0.000000 0.000000 0.000000
# 3 -0.008769 -0.003479 0.013337 0.000000 0.000000 0.000000
# 4 0.000000 0.000000 0.000000 0.040560 0.000000 0.000000
# 5 0.000000 0.000000 0.000000 0.000000 0.048360 0.000000
# 6 0.000000 0.000000 0.000000 0.000000 0.000000 0.129049
#
#
# Mechanical properties :
#
#
# Convention : Reuss Voigt Hill
#
# Bulk Modulus (GPa) = 17.95434 30.48841 24.22137
# Shear Modulus (GPa) = 13.05040 17.95693 15.50366
#
# Velocity S-wave (km/s) = 2.70495 3.17295 2.94825
# Velocity P-wave (km/s) = 4.45217 5.52421 5.01691
#
# Compressibility (1/GPa) = 0.05569685
#
# Stress axis : x y z
#
# Youngs Moduli (GPa) = 32.51027 17.52856 74.98097
#
# Poissons Ratio (x) = 0.18364 0.65753
# Poissons Ratio (y) = 0.34059 0.26085
# Poissons Ratio (z) = 0.28509 0.06098
#
# Static dielectric constant tensor:
#      x y z
#    x 1.585800 0.000000 0.000000 
#    y 0.000000 1.591260 0.000000 
#    z 0.000000 0.000000 1.636730 
# 
# From -- ./inp_files/11554.got.cif
#   From: 2010.05.17/outbox.cif.g08.bks.cpg/sg57_6_cif.got.tgz:11554.got - 2010.06.03 13:58:18.
