data_PCOD9435706
_publ_section_title
;
Structure prediction by ZEFSAII (Michael W. Deem and Ramdas Pophale) SiO2 
 PCOD9435706
Probable space group: P B C M
;
_chemical_formula_sum "Si O2"
_cell_formula_units_Z 64
_cell_length_a 20.032499
_cell_length_b 8.032188
_cell_length_c 16.955296
_cell_angle_alpha 90.000000
_cell_angle_beta 90.000000
_cell_angle_gamma 90.000000
_cell_volume 2728.188479
_symmetry_space_group_name_H-M "P B C M"
_symmetry_group_IT_number 57
_symmetry_cell_setting 'orthorhombic'
loop_
_space_group_symop_operation_xyz
x,y,z
-x,-y,1/2+z
x,1/2-y,-z
-x,1/2+y,1/2-z
-x,-y,-z
x,y,1/2-z
-x,1/2+y,z
x,1/2-y,1/2+z
loop_
_atom_site_type_symbol
_atom_site_label
_atom_site_fract_x
_atom_site_fract_y
_atom_site_fract_z
Si Si1 0.211982 0.686528 0.912924
Si Si2 0.910044 0.171782 0.339825
Si Si3 0.141619 0.321894 0.912505
Si Si4 0.519227 0.554322 0.341895
Si Si5 0.584750 0.640051 0.581246
Si Si6 0.661467 0.066286 0.657426
Si Si7 0.984203 0.019977 0.591774
Si Si8 0.723875 0.777473 0.094263
O O1 0.167299 0.801944 0.857104
O O2 0.181528 0.499373 0.912393
O O3 0.289035 0.684450 0.889596
O O4 0.202808 0.750000 0.000000
O O5 0.923939 0.212415 0.250000
O O6 0.947512 0.306799 0.394029
O O7 0.946051 0.001137 0.362829
O O8 0.070120 0.381265 0.879831
O O9 0.199978 0.204280 0.875638
O O10 0.127659 0.250000 0.000000
O O11 0.498520 0.540311 0.250000
O O12 0.551618 0.735351 0.355105
O O13 0.462252 0.518447 0.406187
O O14 0.582743 0.433020 0.358056
O O15 0.583245 0.750000 0.500000
O O16 0.662022 0.595382 0.598761
O O17 0.671363 0.091656 0.750000
O O18 0.689672 0.883424 0.634202
O O19 0.000000 0.000000 0.500000
O O20 0.732607 0.750000 0.000000
#
# Coordination Sequence:
#
# PCOD9435706 Si02
#       8
#     8   8   8   8   8   8   8   8
#     4  10  20  34  54  80 106 137 179 221 262 315
#     4  11  22  36  54  79 110 143 178 224 272 315
#     4   9  17  32  53  76 103 134 172 217 260 311
#     4  10  20  34  53  76 106 141 175 216 271 323
#     4  10  19  33  53  78 105 136 179 223 264 316
#     4   9  18  33  52  76 105 139 176 216 264 322
#     4  11  21  35  56  81 108 143 185 223 266 323
#     4   8  16  31  52  76 102 135 176 218 261 313
#
# _framework density 23.458791000000002
#
# number of rings (size 3 to 8) (size 9 to 14) (size 15 to 20)
#    0.000    2.250    0.000    4.125    0.000    1.000 
#    0.000    4.375    0.000    0.000    0.000   28.875 
#    0.000    0.000    0.000    0.000    0.000    0.000 
#
# Total GULP energy -356931.095245 kJ/mol
# GULP energy per Si atom -5577.048363 kJ/mol
# Density = 2.340540 g / cm^3
# Si number density = 23.458791 Si / 1000 Ang^3
#
#
#
# Elastic Constant Matrix: (Units=GPa)
#
#
# Indices 1 2 3 4 5 6 
#
# 1 88.5051 0.6853 -6.0080 0.0000 0.0000 0.0000
# 2 0.6853 45.4233 -6.4019 0.0000 0.0000 0.0000
# 3 -6.0080 -6.4019 59.2323 0.0000 0.0000 0.0000
# 4 0.0000 0.0000 0.0000 6.3928 0.0000 0.0000
# 5 0.0000 0.0000 0.0000 0.0000 50.8573 0.0000
# 6 0.0000 0.0000 0.0000 0.0000 0.0000 26.0788
#
#
#
# Elastic Compliance Matrix: (Units=1/GPa)
#
#
# Indices 1 2 3 4 5 6 
#
# 1 0.011377 -0.000009 0.001153 0.000000 0.000000 0.000000
# 2 -0.000009 0.022356 0.002415 0.000000 0.000000 0.000000
# 3 0.001153 0.002415 0.017261 0.000000 0.000000 0.000000
# 4 0.000000 0.000000 0.000000 0.156427 0.000000 0.000000
# 5 0.000000 0.000000 0.000000 0.000000 0.019663 0.000000
# 6 0.000000 0.000000 0.000000 0.000000 0.000000 0.038345
#
#
# Mechanical properties :
#
#
# Convention : Reuss Voigt Hill
#
# Bulk Modulus (GPa) = 17.20821 18.85683 18.03252
# Shear Modulus (GPa) = 18.00626 30.32479 24.16553
#
# Velocity S-wave (km/s) = 2.77351 3.59929 3.21304
# Velocity P-wave (km/s) = 4.19618 5.03279 4.63340
#
# Compressibility (1/GPa) = 0.05811181
#
# Stress axis : x y z
#
# Youngs Moduli (GPa) = 87.89564 44.73135 57.93514
#
# Poissons Ratio (x) = 0.00041 -0.06680
# Poissons Ratio (y) = 0.00080 -0.13993
# Poissons Ratio (z) = -0.10134 -0.10804
#
# Static dielectric constant tensor:
#      x y z
#    x 1.972660 0.000000 0.000000 
#    y 0.000000 1.986330 0.000000 
#    z 0.000000 0.000000 1.806190 
# 
# From -- ./inp_files/23072.got.cif
#   From: 2010.05.17/outbox.cif.g08.bks.cpg/sg57_12_cif.got.tgz:23072.got - 2010.06.03 13:58:18.
