data_PCOD9435777
_publ_section_title
;
Structure prediction by ZEFSAII (Michael W. Deem and Ramdas Pophale) SiO2 
 PCOD9435777
Probable space group: P B C M
;
_chemical_formula_sum "Si O2"
_cell_formula_units_Z 56
_cell_length_a 21.669843
_cell_length_b 14.427455
_cell_length_c 8.122025
_cell_angle_alpha 90.000000
_cell_angle_beta 90.000000
_cell_angle_gamma 90.000000
_cell_volume 2539.275457
_symmetry_space_group_name_H-M "P B C M"
_symmetry_group_IT_number 57
_symmetry_cell_setting 'orthorhombic'
loop_
_space_group_symop_operation_xyz
x,y,z
-x,-y,1/2+z
x,1/2-y,-z
-x,1/2+y,1/2-z
-x,-y,-z
x,y,1/2-z
-x,1/2+y,z
x,1/2-y,1/2+z
loop_
_atom_site_type_symbol
_atom_site_label
_atom_site_fract_x
_atom_site_fract_y
_atom_site_fract_z
Si Si1 0.886237 0.846346 0.053089
Si Si2 0.401866 0.642784 0.051101
Si Si3 0.279217 0.540517 0.051129
Si Si4 0.464587 0.358453 0.552233
Si Si5 0.669636 0.644420 0.943333
Si Si6 0.147273 0.554008 0.945936
Si Si7 0.017447 0.603855 0.948530
O O1 0.886244 0.848343 0.250000
O O2 0.957211 0.843480 0.986924
O O3 0.854838 0.750000 0.000000
O O4 0.860482 0.945902 0.997558
O O5 0.402568 0.637910 0.250000
O O6 0.340246 0.593064 0.990639
O O7 0.468791 0.603487 0.995349
O O8 0.399154 0.750000 0.000000
O O9 0.281437 0.539042 0.250000
O O10 0.285009 0.434273 0.988570
O O11 0.214512 0.584771 0.002658
O O12 0.466343 0.250000 0.500000
O O13 0.460121 0.364446 0.750000
O O14 0.400173 0.391613 0.477338
O O15 0.678667 0.647767 0.750000
O O16 0.676122 0.750000 0.000000
O O17 0.144857 0.557064 0.750000
O O18 0.088008 0.613034 0.008888
O O19 0.017804 0.613633 0.750000
O O20 0.000000 0.500000 0.000000
#
# Coordination Sequence:
#
# PCOD9435777 Si02
#       7
#     8   8   8   8   8   8   8
#     4  10  19  33  54  80 108 136 168 209 257 307
#     4   9  19  36  56  77 102 133 173 222 273 324
#     4  10  22  38  53  74 107 146 182 217 265 320
#     4   9  16  29  51  76 101 130 168 217 272 323
#     4  10  20  34  52  74 104 139 175 217 264 317
#     4  10  20  35  54  76 103 137 176 214 255 307
#     4   8  16  31  51  73  97 125 159 200 243 288
#
# _framework density 22.053533000000002
#
# number of rings (size 3 to 8) (size 9 to 14) (size 15 to 20)
#    0.000    2.571    0.000    2.571    0.000    4.571 
#    0.000    2.143    0.000    3.429    0.000    0.000 
#    0.000    0.000    0.000    0.000    0.000    0.000 
#
# Total GULP energy -312162.142261 kJ/mol
# GULP energy per Si atom -5574.323969 kJ/mol
# Density = 2.200334 g / cm^3
# Si number density = 22.053533 Si / 1000 Ang^3
#
#
#
# Elastic Constant Matrix: (Units=GPa)
#
#
# Indices 1 2 3 4 5 6 
#
# 1 102.7396 -1.8523 -9.4969 0.0000 0.0000 0.0000
# 2 -1.8523 27.9655 -7.2594 0.0000 0.0000 0.0000
# 3 -9.4969 -7.2594 16.6058 0.0000 0.0000 0.0000
# 4 0.0000 0.0000 0.0000 11.1620 0.0000 0.0000
# 5 0.0000 0.0000 0.0000 0.0000 54.5747 0.0000
# 6 0.0000 0.0000 0.0000 0.0000 0.0000 14.5344
#
#
#
# Elastic Compliance Matrix: (Units=1/GPa)
#
#
# Indices 1 2 3 4 5 6 
#
# 1 0.010433 0.002527 0.007071 0.000000 0.000000 0.000000
# 2 0.002527 0.040948 0.019346 0.000000 0.000000 0.000000
# 3 0.007071 0.019346 0.072721 0.000000 0.000000 0.000000
# 4 0.000000 0.000000 0.000000 0.089590 0.000000 0.000000
# 5 0.000000 0.000000 0.000000 0.000000 0.018324 0.000000
# 6 0.000000 0.000000 0.000000 0.000000 0.000000 0.068802
#
#
# Mechanical properties :
#
#
# Convention : Reuss Voigt Hill
#
# Bulk Modulus (GPa) = 5.49490 12.23262 8.86376
# Shear Modulus (GPa) = 16.46942 27.11553 21.79247
#
# Velocity S-wave (km/s) = 2.73572 3.51027 3.14692
# Velocity P-wave (km/s) = 3.53212 4.68915 4.15115
#
# Compressibility (1/GPa) = 0.18198691
#
# Stress axis : x y z
#
# Youngs Moduli (GPa) = 95.85422 24.42151 13.75119
#
# Poissons Ratio (x) = -0.06170 -0.09723
# Poissons Ratio (y) = -0.24218 -0.26602
# Poissons Ratio (z) = -0.67778 -0.47245
#
# Static dielectric constant tensor:
#      x y z
#    x 1.875990 0.000000 0.000000 
#    y 0.000000 1.806170 0.000000 
#    z 0.000000 0.000000 1.691970 
# 
# From -- ./inp_files/8157.got.cif
#   From: 2010.05.17/outbox.cif.g08.bks.cpg/sg57_5_cif.got.tgz:8157.got - 2010.06.03 13:58:18.
