data_PCOD9435093
_publ_section_title
;
Structure prediction by ZEFSAII (Michael W. Deem and Ramdas Pophale) SiO2 
 PCOD9435093
Probable space group: P B C M
;
_chemical_formula_sum "Si O2"
_cell_formula_units_Z 56
_cell_length_a 17.312745
_cell_length_b 22.454350
_cell_length_c 8.858863
_cell_angle_alpha 90.000000
_cell_angle_beta 90.000000
_cell_angle_gamma 90.000000
_cell_volume 3443.851416
_symmetry_space_group_name_H-M "P B C M"
_symmetry_group_IT_number 57
_symmetry_cell_setting 'orthorhombic'
loop_
_space_group_symop_operation_xyz
x,y,z
-x,-y,1/2+z
x,1/2-y,-z
-x,1/2+y,1/2-z
-x,-y,-z
x,y,1/2-z
-x,1/2+y,z
x,1/2-y,1/2+z
loop_
_atom_site_type_symbol
_atom_site_label
_atom_site_fract_x
_atom_site_fract_y
_atom_site_fract_z
Si Si1 0.124136 0.008355 0.924729
Si Si2 0.088468 0.806178 0.576106
Si Si3 0.585576 0.313463 0.930750
Si Si4 0.981935 0.411308 0.420632
Si Si5 0.275955 0.977054 0.075743
Si Si6 0.559034 0.451242 0.568305
Si Si7 0.750209 0.337015 0.077134
O O1 0.127005 0.986272 0.750000
O O2 0.069607 0.066055 0.923764
O O3 0.076249 0.964254 0.033531
O O4 0.210051 0.013790 0.989232
O O5 0.049478 0.750000 0.500000
O O6 0.102674 0.796830 0.750000
O O7 0.035282 0.861955 0.542731
O O8 0.170352 0.815799 0.494270
O O9 0.580678 0.309398 0.750000
O O10 0.550955 0.379808 0.974729
O O11 0.555885 0.250000 0.000000
O O12 0.674859 0.318395 0.983692
O O13 0.963201 0.391154 0.250000
O O14 0.285673 0.996085 0.250000
O O15 0.246889 0.908656 0.077240
O O16 0.357234 0.972729 0.990426
O O17 0.500000 0.500000 0.500000
O O18 0.555482 0.453167 0.750000
O O19 0.741874 0.316339 0.250000
#
# Coordination Sequence:
#
# PCOD9435093 Si02
#       7
#     8   8   8   8   8   8   8
#     4  10  19  31  50  72  97 127 161 205 249 290
#     4  12  23  33  46  63  91 129 168 209 251 298
#     4  10  20  33  50  73 101 135 172 209 248 302
#     4  10  20  33  47  68  96 126 164 206 248 292
#     4  10  19  31  51  74 101 133 168 207 249 299
#     4  10  21  36  54  77 107 138 173 213 261 312
#     4  10  19  31  46  67  97 131 168 206 242 290
#
# _framework density 16.260863000000001
#
# number of rings (size 3 to 8) (size 9 to 14) (size 15 to 20)
#    0.000    1.714    1.429    4.286    0.000    4.571 
#    0.000    0.000    0.000    0.000    0.000    1.000 
#    0.000    2.286    0.000    0.000    0.000    0.000 
#
# Total GULP energy -312119.626564 kJ/mol
# GULP energy per Si atom -5573.564760 kJ/mol
# Density = 1.622385 g / cm^3
# Si number density = 16.260863 Si / 1000 Ang^3
#
#
#
# Elastic Constant Matrix: (Units=GPa)
#
#
# Indices 1 2 3 4 5 6 
#
# 1 71.9048 38.3561 28.3578 0.0000 0.0000 0.0000
# 2 38.3561 69.5642 24.5164 0.0000 0.0000 0.0000
# 3 28.3578 24.5164 82.7425 0.0000 0.0000 0.0000
# 4 0.0000 0.0000 0.0000 25.7255 0.0000 0.0000
# 5 0.0000 0.0000 0.0000 0.0000 9.9361 0.0000
# 6 0.0000 0.0000 0.0000 0.0000 0.0000 10.2285
#
#
#
# Elastic Compliance Matrix: (Units=1/GPa)
#
#
# Indices 1 2 3 4 5 6 
#
# 1 0.020927 -0.010062 -0.004191 0.000000 0.000000 0.000000
# 2 -0.010062 0.020889 -0.002741 0.000000 0.000000 0.000000
# 3 -0.004191 -0.002741 0.014334 0.000000 0.000000 0.000000
# 4 0.000000 0.000000 0.000000 0.038872 0.000000 0.000000
# 5 0.000000 0.000000 0.000000 0.000000 0.100643 0.000000
# 6 0.000000 0.000000 0.000000 0.000000 0.000000 0.097766
#
#
# Mechanical properties :
#
#
# Convention : Reuss Voigt Hill
#
# Bulk Modulus (GPa) = 45.12016 45.18577 45.15296
# Shear Modulus (GPa) = 14.93399 18.04344 16.48872
#
# Velocity S-wave (km/s) = 3.03380 3.33472 3.18781
# Velocity P-wave (km/s) = 6.33087 6.53265 6.43255
#
# Compressibility (1/GPa) = 0.02216304
#
# Stress axis : x y z
#
# Youngs Moduli (GPa) = 47.78417 47.87190 69.76331
#
# Poissons Ratio (x) = 0.48168 0.29238
# Poissons Ratio (y) = 0.48080 0.19122
# Poissons Ratio (z) = 0.20026 0.13121
#
# Static dielectric constant tensor:
#      x y z
#    x 1.522640 0.000000 0.000000 
#    y 0.000000 1.736070 0.000000 
#    z 0.000000 0.000000 1.532010 
# 
# From -- ./inp_files/7047.got.cif
#   From: 2010.05.17/outbox.cif.g08.bks.cpg/sg57_4_cif.got.tgz:7047.got - 2010.06.03 13:58:18.
