data_PCOD9435360
_publ_section_title
;
Structure prediction by ZEFSAII (Michael W. Deem and Ramdas Pophale) SiO2 
 PCOD9435360
Probable space group: P B C M
;
_chemical_formula_sum "Si O2"
_cell_formula_units_Z 56
_cell_length_a 20.969910
_cell_length_b 14.783614
_cell_length_c 8.797754
_cell_angle_alpha 90.000000
_cell_angle_beta 90.000000
_cell_angle_gamma 90.000000
_cell_volume 2727.401000
_symmetry_space_group_name_H-M "P B C M"
_symmetry_group_IT_number 57
_symmetry_cell_setting 'orthorhombic'
loop_
_space_group_symop_operation_xyz
x,y,z
-x,-y,1/2+z
x,1/2-y,-z
-x,1/2+y,1/2-z
-x,-y,-z
x,y,1/2-z
-x,1/2+y,z
x,1/2-y,1/2+z
loop_
_atom_site_type_symbol
_atom_site_label
_atom_site_fract_x
_atom_site_fract_y
_atom_site_fract_z
Si Si1 0.583052 0.410624 0.921119
Si Si2 0.542871 0.877453 0.422244
Si Si3 0.115136 0.156128 0.067165
Si Si4 0.021380 0.905116 0.568278
Si Si5 0.317033 0.158690 0.933740
Si Si6 0.843917 0.460477 0.933238
Si Si7 0.287344 0.964183 0.430911
O O1 0.596826 0.381206 0.750000
O O2 0.558050 0.514814 0.915478
O O3 0.522182 0.359988 0.989807
O O4 0.648307 0.413408 0.015783
O O5 0.535576 0.844784 0.250000
O O6 0.609019 0.841914 0.487851
O O7 0.123404 0.153205 0.250000
O O8 0.039102 0.155932 0.028843
O O9 0.141354 0.250000 0.000000
O O10 0.142448 0.062711 0.996161
O O11 0.022148 0.909965 0.750000
O O12 0.095365 0.897524 0.522114
O O13 0.000000 0.000000 0.500000
O O14 0.315065 0.156941 0.750000
O O15 0.287542 0.250000 0.000000
O O16 0.289984 0.065409 0.998214
O O17 0.839327 0.465310 0.750000
O O18 0.778272 0.425044 0.003631
O O19 0.285968 0.969624 0.250000
#
# Coordination Sequence:
#
# PCOD9435360 Si02
#       7
#     8   8   8   8   8   8   8
#     4   9  16  27  44  65  87 112 145 185 225 264
#     4   8  15  27  43  63  86 112 144 184 226 265
#     4  10  19  32  49  73  99 125 157 192 232 278
#     4   8  16  30  49  69  92 120 153 193 234 275
#     4  10  20  33  47  65  91 123 157 191 228 274
#     4  10  19  33  50  69  94 126 160 196 237 281
#     4  11  21  32  46  66  93 124 155 189 229 275
#
# _framework density 20.532368000000002
#
# number of rings (size 3 to 8) (size 9 to 14) (size 15 to 20)
#    0.000    2.571    0.000    3.857    0.000    5.714 
#    0.000    2.857    0.000    0.000    0.000    1.000 
#    0.000    4.571    0.000    0.000    0.000    0.000 
#
# Total GULP energy -312073.973801 kJ/mol
# GULP energy per Si atom -5572.749532 kJ/mol
# Density = 2.048564 g / cm^3
# Si number density = 20.532368 Si / 1000 Ang^3
#
#
#
# Elastic Constant Matrix: (Units=GPa)
#
#
# Indices 1 2 3 4 5 6 
#
# 1 166.6312 1.7069 48.6459 0.0000 0.0000 0.0000
# 2 1.7069 16.9655 0.0300 0.0000 0.0000 0.0000
# 3 48.6459 0.0300 59.5872 0.0000 0.0000 0.0000
# 4 0.0000 0.0000 0.0000 8.2294 0.0000 0.0000
# 5 0.0000 0.0000 0.0000 0.0000 32.0381 0.0000
# 6 0.0000 0.0000 0.0000 0.0000 0.0000 -1.5204
#
#
#
# Elastic Compliance Matrix: (Units=1/GPa)
#
#
# Indices 1 2 3 4 5 6 
#
# 1 0.007889 -0.000782 -0.006440 0.000000 0.000000 0.000000
# 2 -0.000782 0.059021 0.000609 0.000000 0.000000 0.000000
# 3 -0.006440 0.000609 0.022040 0.000000 0.000000 0.000000
# 4 0.000000 0.000000 0.000000 0.121515 0.000000 0.000000
# 5 0.000000 0.000000 0.000000 0.000000 0.031213 0.000000
# 6 0.000000 0.000000 0.000000 0.000000 0.000000 -0.657736
#
#
# Mechanical properties :
#
#
# Convention : Reuss Voigt Hill
#
# Bulk Modulus (GPa) = 13.20618 38.21662 25.71140
# Shear Modulus (GPa) = -13.24188 20.60283 3.68048
#
# Velocity S-wave (km/s) = -2.54230 3.17114 1.34030
# Velocity P-wave (km/s) = 1.47372 5.66228 3.86585
#
# Compressibility (1/GPa) = 0.07572212
#
# Stress axis : x y z
#
# Youngs Moduli (GPa) = 126.75083 16.94322 45.37269
#
# Poissons Ratio (x) = 0.01326 0.29222
# Poissons Ratio (y) = 0.09917 -0.02763
# Poissons Ratio (z) = 0.81633 -0.01032
#
# Static dielectric constant tensor:
#      x y z
#    x 1.794230 0.000000 0.000000 
#    y 0.000000 1.686440 0.000000 
#    z 0.000000 0.000000 1.694770 
# 
# From -- ./inp_files/6999.got.cif
#   From: 2010.05.17/outbox.cif.g08.bks.cpg/sg57_4_cif.got.tgz:6999.got - 2010.06.03 13:58:18.
