data_PCOD9435539
_publ_section_title
;
Structure prediction by ZEFSAII (Michael W. Deem and Ramdas Pophale) SiO2 
 PCOD9435539
Probable space group: P B C M
;
_chemical_formula_sum "Si O2"
_cell_formula_units_Z 64
_cell_length_a 21.825733
_cell_length_b 18.937668
_cell_length_c 8.873456
_cell_angle_alpha 90.000000
_cell_angle_beta 90.000000
_cell_angle_gamma 90.000000
_cell_volume 3667.652129
_symmetry_space_group_name_H-M "P B C M"
_symmetry_group_IT_number 57
_symmetry_cell_setting 'orthorhombic'
loop_
_space_group_symop_operation_xyz
x,y,z
-x,-y,1/2+z
x,1/2-y,-z
-x,1/2+y,1/2-z
-x,-y,-z
x,y,1/2-z
-x,1/2+y,z
x,1/2-y,1/2+z
loop_
_atom_site_type_symbol
_atom_site_label
_atom_site_fract_x
_atom_site_fract_y
_atom_site_fract_z
Si Si1 0.813938 0.527998 0.077456
Si Si2 0.888728 0.320619 0.929272
Si Si3 0.063964 0.524071 0.069223
Si Si4 0.485914 0.576951 0.569624
Si Si5 0.306614 0.425555 0.426818
Si Si6 0.235023 0.633605 0.577773
Si Si7 0.644658 0.413031 0.927156
Si Si8 0.407609 0.172320 0.069903
O O1 0.819959 0.552361 0.250000
O O2 0.786919 0.448224 0.081703
O O3 0.879467 0.520849 0.997599
O O4 0.762848 0.571300 0.986712
O O5 0.887387 0.314761 0.750000
O O6 0.922663 0.393670 0.969504
O O7 0.916576 0.250000 0.000000
O O8 0.819666 0.328081 0.991495
O O9 0.063544 0.518023 0.250000
O O10 0.000000 0.500000 0.000000
O O11 0.500000 0.500000 0.500000
O O12 0.491397 0.573910 0.750000
O O13 0.417494 0.597267 0.519180
O O14 0.534711 0.631189 0.501259
O O15 0.308660 0.407559 0.250000
O O16 0.335178 0.504522 0.442404
O O17 0.348026 0.372413 0.521617
O O18 0.240618 0.658489 0.750000
O O19 0.299524 0.633034 0.492284
O O20 0.635213 0.399403 0.750000
O O21 0.413054 0.324943 0.750000
O O22 0.404154 0.250000 0.000000
#
# Coordination Sequence:
#
# PCOD9435539 Si02
#       8
#     8   8   8   8   8   8   8   8
#     4   9  17  30  51  79 109 139 175 218 267 316
#     4  10  20  34  53  78 109 146 187 228 274 329
#     4  10  20  34  54  82 115 150 189 231 277 328
#     4  12  23  37  57  82 110 144 189 236 284 340
#     4  10  19  33  55  81 109 139 178 224 274 326
#     4   9  17  30  49  75 106 138 174 217 266 317
#     4  10  19  32  53  80 109 139 178 226 274 324
#     4  12  25  41  59  80 110 145 185 233 290 349
#
# _framework density 17.449854999999999
#
# number of rings (size 3 to 8) (size 9 to 14) (size 15 to 20)
#    0.000    1.750    1.250    4.500    0.000    5.500 
#    0.000    0.625    0.000    0.750    0.000    3.500 
#    0.000    0.000    0.000    0.000    0.000    0.000 
#
# Total GULP energy -357379.356319 kJ/mol
# GULP energy per Si atom -5584.052442 kJ/mol
# Density = 1.741014 g / cm^3
# Si number density = 17.449855 Si / 1000 Ang^3
#
#
#
# Elastic Constant Matrix: (Units=GPa)
#
#
# Indices 1 2 3 4 5 6 
#
# 1 142.3642 42.4913 70.6659 0.0000 0.0000 0.0000
# 2 42.4913 64.7745 49.8495 0.0000 0.0000 0.0000
# 3 70.6659 49.8495 144.8571 0.0000 0.0000 0.0000
# 4 0.0000 0.0000 0.0000 24.6574 0.0000 0.0000
# 5 0.0000 0.0000 0.0000 0.0000 34.4651 0.0000
# 6 0.0000 0.0000 0.0000 0.0000 0.0000 10.8434
#
#
#
# Elastic Compliance Matrix: (Units=1/GPa)
#
#
# Indices 1 2 3 4 5 6 
#
# 1 0.009905 -0.003780 -0.003531 0.000000 0.000000 0.000000
# 2 -0.003780 0.022442 -0.005879 0.000000 0.000000 0.000000
# 3 -0.003531 -0.005879 0.010649 0.000000 0.000000 0.000000
# 4 0.000000 0.000000 0.000000 0.040556 0.000000 0.000000
# 5 0.000000 0.000000 0.000000 0.000000 0.029015 0.000000
# 6 0.000000 0.000000 0.000000 0.000000 0.000000 0.092222
#
#
# Mechanical properties :
#
#
# Convention : Reuss Voigt Hill
#
# Bulk Modulus (GPa) = 60.18306 75.33438 67.75872
# Shear Modulus (GPa) = 21.12297 26.59243 23.85770
#
# Velocity S-wave (km/s) = 3.48299 3.90799 3.70160
# Velocity P-wave (km/s) = 7.12313 7.97677 7.56201
#
# Compressibility (1/GPa) = 0.01661597
#
# Stress axis : x y z
#
# Youngs Moduli (GPa) = 100.95574 44.55870 93.90432
#
# Poissons Ratio (x) = 0.16844 0.33160
# Poissons Ratio (y) = 0.38163 0.55206
# Poissons Ratio (z) = 0.35650 0.26196
#
# Static dielectric constant tensor:
#      x y z
#    x 1.572490 0.000000 0.000000 
#    y 0.000000 1.596000 0.000000 
#    z 0.000000 0.000000 1.585440 
# 
# From -- ./inp_files/8386.got.cif
#   From: 2010.05.17/outbox.cif.g08.bks.cpg/sg57_5_cif.got.tgz:8386.got - 2010.06.03 13:58:18.
