data_PCOD9435101
_publ_section_title
;
Structure prediction by ZEFSAII (Michael W. Deem and Ramdas Pophale) SiO2 
 PCOD9435101
Probable space group: P B C M
;
_chemical_formula_sum "Si O2"
_cell_formula_units_Z 60
_cell_length_a 22.620520
_cell_length_b 14.157256
_cell_length_c 8.541105
_cell_angle_alpha 90.000000
_cell_angle_beta 90.000000
_cell_angle_gamma 90.000000
_cell_volume 2735.241836
_symmetry_space_group_name_H-M "P B C M"
_symmetry_group_IT_number 57
_symmetry_cell_setting 'orthorhombic'
loop_
_space_group_symop_operation_xyz
x,y,z
-x,-y,1/2+z
x,1/2-y,-z
-x,1/2+y,1/2-z
-x,-y,-z
x,y,1/2-z
-x,1/2+y,z
x,1/2-y,1/2+z
loop_
_atom_site_type_symbol
_atom_site_label
_atom_site_fract_x
_atom_site_fract_y
_atom_site_fract_z
Si Si1 0.839283 0.425684 0.069537
Si Si2 0.535981 0.855076 0.937708
Si Si3 0.943563 0.750000 0.000000
Si Si4 0.028253 0.901511 0.055121
Si Si5 0.413622 0.548557 0.436519
Si Si6 0.289597 0.153526 0.573227
Si Si7 0.290821 0.945963 0.435779
Si Si8 0.844181 0.887513 0.086989
O O1 0.835511 0.397689 0.250000
O O2 0.902584 0.388956 0.012768
O O3 0.773110 0.409464 0.001534
O O4 0.847604 0.539288 0.053658
O O5 0.539876 0.853583 0.750000
O O6 0.469654 0.888030 0.986304
O O7 0.548307 0.750000 0.000000
O O8 0.576163 0.942011 0.998448
O O9 0.897024 0.685562 0.909091
O O10 0.990318 0.671329 0.048197
O O11 0.022324 0.891599 0.250000
O O12 0.000000 0.000000 0.000000
O O13 0.414307 0.542739 0.250000
O O14 0.351369 0.591543 0.491312
O O15 0.313547 0.250000 0.500000
O O16 0.312386 0.139364 0.750000
O O17 0.218486 0.163388 0.584666
O O18 0.294651 0.057951 0.474747
O O19 0.291767 0.933166 0.250000
O O20 0.846035 0.945202 0.250000
#
# Coordination Sequence:
#
# PCOD9435101 Si02
#       8
#     8   8   4   8   8   8   8   8
#     4   9  20  38  58  80 109 146 188 239 295 350
#     4  10  21  38  63  94 129 165 199 238 284 333
#     4  12  22  34  54  84 110 142 182 234 296 362
#     4  11  24  40  59  83 111 145 189 240 298 359
#     4  10  21  38  61  92 126 161 200 241 284 336
#     4  10  19  31  46  70 105 143 183 231 284 349
#     4  10  20  35  56  81 110 150 193 238 289 342
#     4  10  20  33  52  78 106 139 180 228 286 355
#
# _framework density 21.935903
#
# number of rings (size 3 to 8) (size 9 to 14) (size 15 to 20)
#    0.000    1.867    2.000    2.000    0.000    5.333 
#    0.000    2.667    1.467    0.000    0.000    0.000 
#    0.000    0.000    0.000    0.000    0.000    0.000 
#
# Total GULP energy -334105.346308 kJ/mol
# GULP energy per Si atom -5568.422438 kJ/mol
# Density = 2.188598 g / cm^3
# Si number density = 21.935903 Si / 1000 Ang^3
#
#
#
# Elastic Constant Matrix: (Units=GPa)
#
#
# Indices 1 2 3 4 5 6 
#
# 1 196.7465 10.9078 18.7282 0.0000 0.0000 0.0000
# 2 10.9078 30.1396 -7.8495 0.0000 0.0000 0.0000
# 3 18.7282 -7.8495 39.0633 0.0000 0.0000 0.0000
# 4 0.0000 0.0000 0.0000 7.0785 0.0000 0.0000
# 5 0.0000 0.0000 0.0000 0.0000 19.8619 0.0000
# 6 0.0000 0.0000 0.0000 0.0000 0.0000 3.2656
#
#
#
# Elastic Compliance Matrix: (Units=1/GPa)
#
#
# Indices 1 2 3 4 5 6 
#
# 1 0.005548 -0.002850 -0.003233 0.000000 0.000000 0.000000
# 2 -0.002850 0.036475 0.008696 0.000000 0.000000 0.000000
# 3 -0.003233 0.008696 0.028897 0.000000 0.000000 0.000000
# 4 0.000000 0.000000 0.000000 0.141273 0.000000 0.000000
# 5 0.000000 0.000000 0.000000 0.000000 0.050348 0.000000
# 6 0.000000 0.000000 0.000000 0.000000 0.000000 0.306222
#
#
# Mechanical properties :
#
#
# Convention : Reuss Voigt Hill
#
# Bulk Modulus (GPa) = 13.13259 34.39139 23.76199
# Shear Modulus (GPa) = 8.49013 22.31873 15.40443
#
# Velocity S-wave (km/s) = 1.96947 3.19321 2.65287
# Velocity P-wave (km/s) = 3.34239 5.41365 4.49885
#
# Compressibility (1/GPa) = 0.07614641
#
# Stress axis : x y z
#
# Youngs Moduli (GPa) = 180.23171 27.41595 34.60596
#
# Poissons Ratio (x) = 0.07813 0.11187
# Poissons Ratio (y) = 0.51366 -0.30093
# Poissons Ratio (z) = 0.58265 -0.23840
#
# Static dielectric constant tensor:
#      x y z
#    x 1.868800 0.000000 0.000000 
#    y 0.000000 1.730950 0.000000 
#    z 0.000000 0.000000 1.911570 
# 
# From -- ./inp_files/9248.got.cif
#   From: 2010.05.17/outbox.cif.g08.bks.cpg/sg57_5_cif.got.tgz:9248.got - 2010.06.03 13:58:18.
