data_PCOD9435974
_publ_section_title
;
Structure prediction by ZEFSAII (Michael W. Deem and Ramdas Pophale) SiO2 
 PCOD9435974
Probable space group: P B C M
;
_chemical_formula_sum "Si O2"
_cell_formula_units_Z 56
_cell_length_a 16.940349
_cell_length_b 21.756543
_cell_length_c 9.102610
_cell_angle_alpha 90.000000
_cell_angle_beta 90.000000
_cell_angle_gamma 90.000000
_cell_volume 3354.889177
_symmetry_space_group_name_H-M "P B C M"
_symmetry_group_IT_number 57
_symmetry_cell_setting 'orthorhombic'
loop_
_space_group_symop_operation_xyz
x,y,z
-x,-y,1/2+z
x,1/2-y,-z
-x,1/2+y,1/2-z
-x,-y,-z
x,y,1/2-z
-x,1/2+y,z
x,1/2-y,1/2+z
loop_
_atom_site_type_symbol
_atom_site_label
_atom_site_fract_x
_atom_site_fract_y
_atom_site_fract_z
Si Si1 0.192806 0.628651 0.423285
Si Si2 0.954468 0.185644 0.925981
Si Si3 0.378592 0.031046 0.423261
Si Si4 0.635765 0.314900 0.923436
Si Si5 0.520871 0.094096 0.923010
Si Si6 0.957738 0.941083 0.073379
Si Si7 0.211323 0.486360 0.074452
O O1 0.173974 0.636947 0.250000
O O2 0.133529 0.669060 0.518744
O O3 0.283270 0.647575 0.446152
O O4 0.186294 0.556619 0.459719
O O5 0.956550 0.191886 0.750000
O O6 0.005155 0.124845 0.968311
O O7 0.979236 0.250000 0.000000
O O8 0.376237 0.044124 0.250000
O O9 0.436994 0.077353 0.506538
O O10 0.291375 0.029525 0.490443
O O11 0.420995 0.964703 0.442637
O O12 0.623833 0.308207 0.750000
O O13 0.645808 0.250000 0.000000
O O14 0.563300 0.350513 0.995406
O O15 0.512997 0.105356 0.750000
O O16 0.966194 0.947560 0.250000
O O17 0.864564 0.944980 0.038901
O O18 0.000000 0.000000 0.000000
O O19 0.226333 0.483796 0.250000
#
# Coordination Sequence:
#
# PCOD9435974 Si02
#       7
#     8   8   8   8   8   8   8
#     4  10  20  34  54  79 110 147 181 221 272 327
#     4  11  23  37  55  79 109 147 188 229 274 331
#     4  10  20  33  53  80 107 136 174 219 265 317
#     4  11  22  35  51  75 108 145 182 217 262 319
#     4  10  20  34  53  76 105 140 176 216 263 313
#     4  10  21  36  56  81 109 143 184 229 279 332
#     4  10  19  34  55  80 111 142 176 224 279 327
#
# _framework density 16.692056999999998
#
# number of rings (size 3 to 8) (size 9 to 14) (size 15 to 20)
#    0.000    1.714    2.857    2.143    0.000    5.143 
#    0.000    0.000    0.000    0.857    0.000    4.000 
#    0.000    0.000    0.000    0.000    0.000    0.000 
#
# Total GULP energy -312612.181215 kJ/mol
# GULP energy per Si atom -5582.360379 kJ/mol
# Density = 1.665406 g / cm^3
# Si number density = 16.692057 Si / 1000 Ang^3
#
#
#
# Elastic Constant Matrix: (Units=GPa)
#
#
# Indices 1 2 3 4 5 6 
#
# 1 95.0892 37.4165 48.4538 0.0000 0.0000 0.0000
# 2 37.4165 84.7583 40.1896 0.0000 0.0000 0.0000
# 3 48.4538 40.1896 52.4832 0.0000 0.0000 0.0000
# 4 0.0000 0.0000 0.0000 28.0562 0.0000 0.0000
# 5 0.0000 0.0000 0.0000 0.0000 26.5173 0.0000
# 6 0.0000 0.0000 0.0000 0.0000 0.0000 23.3738
#
#
#
# Elastic Compliance Matrix: (Units=1/GPa)
#
#
# Indices 1 2 3 4 5 6 
#
# 1 0.019860 -0.000115 -0.018247 0.000000 0.000000 0.000000
# 2 -0.000115 0.018525 -0.014080 0.000000 0.000000 0.000000
# 3 -0.018247 -0.014080 0.046681 0.000000 0.000000 0.000000
# 4 0.000000 0.000000 0.000000 0.035643 0.000000 0.000000
# 5 0.000000 0.000000 0.000000 0.000000 0.037711 0.000000
# 6 0.000000 0.000000 0.000000 0.000000 0.000000 0.042783
#
#
# Mechanical properties :
#
#
# Convention : Reuss Voigt Hill
#
# Bulk Modulus (GPa) = 49.54646 53.82784 51.68715
# Shear Modulus (GPa) = 18.32754 22.67418 20.50086
#
# Velocity S-wave (km/s) = 3.31717 3.68962 3.50834
# Velocity P-wave (km/s) = 6.66473 7.10413 6.88793
#
# Compressibility (1/GPa) = 0.02018308
#
# Stress axis : x y z
#
# Youngs Moduli (GPa) = 50.35362 53.98078 21.42187
#
# Poissons Ratio (x) = 0.00621 0.39088
# Poissons Ratio (y) = 0.00579 0.30161
# Poissons Ratio (z) = 0.91879 0.76003
#
# Static dielectric constant tensor:
#      x y z
#    x 1.555020 0.000000 0.000000 
#    y 0.000000 2.141500 0.000000 
#    z 0.000000 0.000000 1.555160 
# 
# From -- ./inp_files/5184.got.cif
#   From: 2010.05.17/outbox.cif.g08.bks.cpg/sg57_3_cif.got.tgz:5184.got - 2010.06.03 13:58:18.
