data_PCOD9435614
_publ_section_title
;
Structure prediction by ZEFSAII (Michael W. Deem and Ramdas Pophale) SiO2 
 PCOD9435614
Probable space group: P B C M
;
_chemical_formula_sum "Si O2"
_cell_formula_units_Z 48
_cell_length_a 26.772575
_cell_length_b 5.371146
_cell_length_c 14.558823
_cell_angle_alpha 90.000000
_cell_angle_beta 90.000000
_cell_angle_gamma 90.000000
_cell_volume 2093.550145
_symmetry_space_group_name_H-M "P B C M"
_symmetry_group_IT_number 57
_symmetry_cell_setting 'orthorhombic'
loop_
_space_group_symop_operation_xyz
x,y,z
-x,-y,1/2+z
x,1/2-y,-z
-x,1/2+y,1/2-z
-x,-y,-z
x,y,1/2-z
-x,1/2+y,z
x,1/2-y,1/2+z
loop_
_atom_site_type_symbol
_atom_site_label
_atom_site_fract_x
_atom_site_fract_y
_atom_site_fract_z
Si Si1 0.972081 0.258833 0.611823
Si Si2 0.633165 0.146983 0.361938
Si Si3 0.312492 0.351738 0.640121
Si Si4 0.143061 0.739191 0.112186
Si Si5 0.480663 0.546560 0.396441
Si Si6 0.804280 0.762378 0.608922
O O1 0.972847 0.250000 0.500000
O O2 0.914536 0.290607 0.638945
O O3 0.004378 0.496664 0.641362
O O4 0.633113 0.147647 0.250000
O O5 0.662845 0.392106 0.393760
O O6 0.659879 0.894979 0.394348
O O7 0.576034 0.137011 0.392997
O O8 0.318951 0.355667 0.750000
O O9 0.253860 0.319538 0.622851
O O10 0.176504 0.505058 0.143116
O O11 0.164686 0.002457 0.144547
O O12 0.144474 0.750000 0.000000
O O13 0.500000 0.500000 0.500000
O O14 0.513043 0.771396 0.354371
O O15 0.812896 0.750000 0.500000
#
# Coordination Sequence:
#
# PCOD9435614 Si02
#       6
#     8   8   8   8   8   8
#     4   9  15  23  37  61  93 133 174 208 258 312
#     4  10  21  38  59  80 106 140 175 214 265 310
#     4  10  21  38  57  80 107 136 176 225 262 308
#     4   9  17  28  45  66 103 138 170 219 261 317
#     4  10  21  38  56  81 112 138 171 210 257 304
#     4  10  19  33  49  74 102 136 174 207 270 319
#
# _framework density 22.927564
#
# number of rings (size 3 to 8) (size 9 to 14) (size 15 to 20)
#    0.000    2.333    0.000    3.000    0.000    4.667 
#    9.000    0.000    0.000    0.000    0.000    0.000 
#    0.000   13.333    0.000    0.000    0.000    0.000 
#
# Total GULP energy -268384.186680 kJ/mol
# GULP energy per Si atom -5591.337222 kJ/mol
# Density = 2.287538 g / cm^3
# Si number density = 22.927564 Si / 1000 Ang^3
#
#
#
# Elastic Constant Matrix: (Units=GPa)
#
#
# Indices 1 2 3 4 5 6 
#
# 1 174.6026 102.8280 -2.6612 0.0000 0.0000 0.0000
# 2 102.8280 242.8031 19.9286 0.0000 0.0000 0.0000
# 3 -2.6612 19.9286 85.8787 0.0000 0.0000 0.0000
# 4 0.0000 0.0000 0.0000 -10.5907 0.0000 0.0000
# 5 0.0000 0.0000 0.0000 0.0000 67.1802 0.0000
# 6 0.0000 0.0000 0.0000 0.0000 0.0000 53.5764
#
#
#
# Elastic Compliance Matrix: (Units=1/GPa)
#
#
# Indices 1 2 3 4 5 6 
#
# 1 0.007717 -0.003351 0.001017 0.000000 0.000000 0.000000
# 2 -0.003351 0.005654 -0.001416 0.000000 0.000000 0.000000
# 3 0.001017 -0.001416 0.012004 0.000000 0.000000 0.000000
# 4 0.000000 0.000000 0.000000 -0.094422 0.000000 0.000000
# 5 0.000000 0.000000 0.000000 0.000000 0.014885 0.000000
# 6 0.000000 0.000000 0.000000 0.000000 0.000000 0.018665
#
#
# Mechanical properties :
#
#
# Convention : Reuss Voigt Hill
#
# Bulk Modulus (GPa) = 55.94711 82.60836 69.27774
# Shear Modulus (GPa) = -226.88158 47.57911 -89.65124
#
# Velocity S-wave (km/s) = -9.95845 4.56037 -6.25994
# Velocity P-wave (km/s) = 10.38137 7.98985 4.68696
#
# Compressibility (1/GPa) = 0.01787402
#
# Stress axis : x y z
#
# Youngs Moduli (GPa) = 129.59177 176.86197 83.30270
#
# Poissons Ratio (x) = 0.59274 -0.08470
# Poissons Ratio (y) = 0.43432 0.11795
# Poissons Ratio (z) = -0.13177 0.25042
#
# Static dielectric constant tensor:
#      x y z
#    x 1.793700 0.000000 0.000000 
#    y 0.000000 1.861700 0.000000 
#    z 0.000000 0.000000 1.873970 
# 
# From -- ./inp_files/25704.got.cif
#   From: 2010.05.17/outbox.cif.g08.bks.cpg/sg57_13_cif.got.tgz:25704.got - 2010.06.03 13:58:18.
