data_PCOD9435179
_publ_section_title
;
Structure prediction by ZEFSAII (Michael W. Deem and Ramdas Pophale) SiO2 
 PCOD9435179
Probable space group: P B C M
;
_chemical_formula_sum "Si O2"
_cell_formula_units_Z 40
_cell_length_a 23.741182
_cell_length_b 7.722244
_cell_length_c 10.258821
_cell_angle_alpha 90.000000
_cell_angle_beta 90.000000
_cell_angle_gamma 90.000000
_cell_volume 1880.803002
_symmetry_space_group_name_H-M "P B C M"
_symmetry_group_IT_number 57
_symmetry_cell_setting 'orthorhombic'
loop_
_space_group_symop_operation_xyz
x,y,z
-x,-y,1/2+z
x,1/2-y,-z
-x,1/2+y,1/2-z
-x,-y,-z
x,y,1/2-z
-x,1/2+y,z
x,1/2-y,1/2+z
loop_
_atom_site_type_symbol
_atom_site_label
_atom_site_fract_x
_atom_site_fract_y
_atom_site_fract_z
Si Si1 0.229771 0.036945 0.750000
Si Si2 0.369910 0.041185 0.250000
Si Si3 0.949387 0.080430 0.587987
Si Si4 0.637974 0.965433 0.250000
Si Si5 0.565740 0.958125 0.496759
Si Si6 0.170989 0.454191 0.988008
Si Si7 0.758149 0.962386 0.750000
O O1 0.295907 0.983838 0.750000
O O2 0.192786 0.978070 0.873727
O O3 0.235077 0.250194 0.750000
O O4 0.365220 0.252987 0.250000
O O5 0.403621 0.979014 0.374397
O O6 0.305967 0.984476 0.250000
O O7 0.937563 0.250000 0.500000
O O8 0.959232 0.097636 0.750000
O O9 0.892546 0.973354 0.563450
O O10 0.000000 0.000000 0.500000
O O11 0.601991 0.022095 0.374793
O O12 0.569778 0.750000 0.500000
O O13 0.500000 0.000000 0.500000
O O14 0.180965 0.250000 0.000000
O O15 0.210847 0.528565 0.877237
#
# Coordination Sequence:
#
# PCOD9435179 Si02
#       7
#     4   4   8   4   8   8   4
#     4   9  18  29  57  87 116 150 190 245 294 357
#     4   9  17  29  52  75 105 142 183 235 288 339
#     4  12  27  46  69  95 129 168 211 256 304 362
#     4   9  17  31  48  79 109 140 187 235 290 343
#     4  10  19  31  49  72 103 141 185 236 289 346
#     4  10  20  36  62  92 124 154 196 245 305 360
#     4   9  16  33  53  85 114 148 192 241 292 355
#
# _framework density 21.267512
#
# number of rings (size 3 to 8) (size 9 to 14) (size 15 to 20)
#    0.000    2.000    1.000    3.000    2.800    4.800 
#    0.000    0.000    0.000    7.200    0.000    0.000 
#    0.000    0.000    0.000    0.000    0.000    0.000 
#
# Total GULP energy -222860.003906 kJ/mol
# GULP energy per Si atom -5571.500098 kJ/mol
# Density = 2.121911 g / cm^3
# Si number density = 21.267512 Si / 1000 Ang^3
#
#
#
# Elastic Constant Matrix: (Units=GPa)
#
#
# Indices 1 2 3 4 5 6 
#
# 1 170.4579 -22.7148 108.4768 0.0000 0.0000 0.0000
# 2 -22.7148 18.2559 9.9939 0.0000 0.0000 0.0000
# 3 108.4768 9.9939 258.9698 0.0000 0.0000 0.0000
# 4 0.0000 0.0000 0.0000 -0.6923 0.0000 0.0000
# 5 0.0000 0.0000 0.0000 0.0000 43.4960 0.0000
# 6 0.0000 0.0000 0.0000 0.0000 0.0000 21.8741
#
#
#
# Elastic Compliance Matrix: (Units=1/GPa)
#
#
# Indices 1 2 3 4 5 6 
#
# 1 0.011831 0.017810 -0.005643 0.000000 0.000000 0.000000
# 2 0.017810 0.082769 -0.010654 0.000000 0.000000 0.000000
# 3 -0.005643 -0.010654 0.006636 0.000000 0.000000 0.000000
# 4 0.000000 0.000000 0.000000 -1.444370 0.000000 0.000000
# 5 0.000000 0.000000 0.000000 0.000000 0.022991 0.000000
# 6 0.000000 0.000000 0.000000 0.000000 0.000000 0.045716
#
#
# Mechanical properties :
#
#
# Convention : Reuss Voigt Hill
#
# Bulk Modulus (GPa) = 9.59131 71.02173 40.30652
# Shear Modulus (GPa) = -4.02350 36.39738 16.18694
#
# Velocity S-wave (km/s) = -1.37694 4.14140 2.76182
# Velocity P-wave (km/s) = 1.41127 7.50568 5.40032
#
# Compressibility (1/GPa) = 0.10426101
#
# Stress axis : x y z
#
# Youngs Moduli (GPa) = 84.52400 12.08185 150.68516
#
# Poissons Ratio (x) = -0.21517 0.85032
# Poissons Ratio (y) = -1.50535 1.60544
# Poissons Ratio (z) = 0.47697 0.12872
#
# Static dielectric constant tensor:
#      x y z
#    x 1.686950 0.000000 0.000000 
#    y 0.000000 1.879390 0.000000 
#    z 0.000000 0.000000 1.849840 
# 
# From -- ./inp_files/9020.got.cif
#   From: 2010.05.17/outbox.cif.g08.bks.cpg/sg57_5_cif.got.tgz:9020.got - 2010.06.03 13:58:18.
