data_PCOD9435055
_publ_section_title
;
Structure prediction by ZEFSAII (Michael W. Deem and Ramdas Pophale) SiO2 
 PCOD9435055
Probable space group: P B C M
;
_chemical_formula_sum "Si O2"
_cell_formula_units_Z 64
_cell_length_a 23.420132
_cell_length_b 17.987754
_cell_length_c 8.729157
_cell_angle_alpha 90.000000
_cell_angle_beta 90.000000
_cell_angle_gamma 90.000000
_cell_volume 3677.380618
_symmetry_space_group_name_H-M "P B C M"
_symmetry_group_IT_number 57
_symmetry_cell_setting 'orthorhombic'
loop_
_space_group_symop_operation_xyz
x,y,z
-x,-y,1/2+z
x,1/2-y,-z
-x,1/2+y,1/2-z
-x,-y,-z
x,y,1/2-z
-x,1/2+y,z
x,1/2-y,1/2+z
loop_
_atom_site_type_symbol
_atom_site_label
_atom_site_fract_x
_atom_site_fract_y
_atom_site_fract_z
Si Si1 0.797603 0.826545 0.432138
Si Si2 0.955960 0.171228 0.433377
Si Si3 0.082938 0.126833 0.066817
Si Si4 0.463529 0.068830 0.934175
Si Si5 0.880463 0.040083 0.567885
Si Si6 0.636421 0.031816 0.064269
Si Si7 0.555434 0.168880 0.434196
Si Si8 0.761528 0.990339 0.435639
O O1 0.774200 0.750000 0.500000
O O2 0.795671 0.822320 0.250000
O O3 0.863273 0.835754 0.485359
O O4 0.766772 0.903187 0.480326
O O5 0.937344 0.250000 0.500000
O O6 0.955604 0.172924 0.250000
O O7 0.915397 0.105936 0.491247
O O8 0.021360 0.155737 0.484068
O O9 0.088605 0.138382 0.250000
O O10 0.088431 0.038711 0.036996
O O11 0.468134 0.072114 0.750000
O O12 0.399534 0.042681 0.975179
O O13 0.493703 0.140488 0.005980
O O14 0.500000 0.000000 0.000000
O O15 0.878478 0.050635 0.750000
O O16 0.816627 0.031317 0.503053
O O17 0.637047 0.034707 0.250000
O O18 0.601532 0.105607 0.015341
O O19 0.701477 0.024758 0.012387
O O20 0.568518 0.250000 0.500000
O O21 0.554988 0.170641 0.250000
O O22 0.764313 0.993572 0.250000
#
# Coordination Sequence:
#
# PCOD9435055 Si02
#       8
#     8   8   8   8   8   8   8   8
#     4  10  19  30  49  73  99 129 162 202 252 302
#     4  11  22  35  51  73  99 130 164 204 253 304
#     4   9  19  34  53  75  99 125 160 203 249 303
#     4   9  16  29  50  75 102 132 163 199 243 294
#     4  10  20  35  53  75 101 130 164 206 251 300
#     4   8  16  32  54  75  98 132 174 211 247 293
#     4  10  19  32  51  77 106 136 169 211 258 301
#     4   9  18  35  55  73  96 134 176 210 246 295
#
# _framework density 17.403693000000001
#
# number of rings (size 3 to 8) (size 9 to 14) (size 15 to 20)
#    0.000    2.500    0.000    3.375    0.000    3.000 
#    0.000    5.000    0.000    3.000    0.000    0.000 
#    0.000    0.000    0.000    0.000    0.000    0.000 
#
# Total GULP energy -356823.800326 kJ/mol
# GULP energy per Si atom -5575.371880 kJ/mol
# Density = 1.736408 g / cm^3
# Si number density = 17.403693 Si / 1000 Ang^3
#
#
#
# Elastic Constant Matrix: (Units=GPa)
#
#
# Indices 1 2 3 4 5 6 
#
# 1 70.6959 41.0947 17.7543 0.0000 0.0000 0.0000
# 2 41.0947 97.9801 31.9088 0.0000 0.0000 0.0000
# 3 17.7543 31.9088 36.8942 0.0000 0.0000 0.0000
# 4 0.0000 0.0000 0.0000 29.7670 0.0000 0.0000
# 5 0.0000 0.0000 0.0000 0.0000 19.7122 0.0000
# 6 0.0000 0.0000 0.0000 0.0000 0.0000 13.7930
#
#
#
# Elastic Compliance Matrix: (Units=1/GPa)
#
#
# Indices 1 2 3 4 5 6 
#
# 1 0.018961 -0.006934 -0.003127 0.000000 0.000000 0.000000
# 2 -0.006934 0.016744 -0.011144 0.000000 0.000000 0.000000
# 3 -0.003127 -0.011144 0.038248 0.000000 0.000000 0.000000
# 4 0.000000 0.000000 0.000000 0.033594 0.000000 0.000000
# 5 0.000000 0.000000 0.000000 0.000000 0.050730 0.000000
# 6 0.000000 0.000000 0.000000 0.000000 0.000000 0.072501
#
#
# Mechanical properties :
#
#
# Convention : Reuss Voigt Hill
#
# Bulk Modulus (GPa) = 31.70464 43.00955 37.35709
# Shear Modulus (GPa) = 17.62400 20.30858 18.96629
#
# Velocity S-wave (km/s) = 3.18568 3.41972 3.30477
# Velocity P-wave (km/s) = 5.63810 6.35288 6.00613
#
# Compressibility (1/GPa) = 0.03154113
#
# Stress axis : x y z
#
# Youngs Moduli (GPa) = 52.73904 59.72327 26.14513
#
# Poissons Ratio (x) = 0.41414 0.08176
# Poissons Ratio (y) = 0.36571 0.29137
# Poissons Ratio (z) = 0.16493 0.66558
#
# Static dielectric constant tensor:
#      x y z
#    x 1.587010 0.000000 0.000000 
#    y 0.000000 1.554320 0.000000 
#    z 0.000000 0.000000 1.583940 
# 
# From -- ./inp_files/8576.got.cif
#   From: 2010.05.17/outbox.cif.g08.bks.cpg/sg57_5_cif.got.tgz:8576.got - 2010.06.03 13:58:18.
