data_PCOD9435011
_publ_section_title
;
Structure prediction by ZEFSAII (Michael W. Deem and Ramdas Pophale) SiO2 
 PCOD9435011
Probable space group: P B C M
;
_chemical_formula_sum "Si O2"
_cell_formula_units_Z 64
_cell_length_a 10.768561
_cell_length_b 34.533894
_cell_length_c 9.556242
_cell_angle_alpha 90.000000
_cell_angle_beta 90.000000
_cell_angle_gamma 90.000000
_cell_volume 3553.778563
_symmetry_space_group_name_H-M "P B C M"
_symmetry_group_IT_number 57
_symmetry_cell_setting 'orthorhombic'
loop_
_space_group_symop_operation_xyz
x,y,z
-x,-y,1/2+z
x,1/2-y,-z
-x,1/2+y,1/2-z
-x,-y,-z
x,y,1/2-z
-x,1/2+y,z
x,1/2-y,1/2+z
loop_
_atom_site_type_symbol
_atom_site_label
_atom_site_fract_x
_atom_site_fract_y
_atom_site_fract_z
Si Si1 0.179243 0.870022 0.419348
Si Si2 0.328482 0.128241 0.913389
Si Si3 0.177499 0.481225 0.911364
Si Si4 0.288553 0.788838 0.082550
Si Si5 0.583475 0.787916 0.414892
Si Si6 0.679871 0.053799 0.582625
Si Si7 0.555835 0.938419 0.912297
Si Si8 0.935269 0.585595 0.914076
O O1 0.172356 0.867714 0.250000
O O2 0.215772 0.827160 0.466758
O O3 0.283112 0.902182 0.450601
O O4 0.049707 0.888653 0.467753
O O5 0.367924 0.123952 0.750000
O O6 0.342199 0.173173 0.950510
O O7 0.189569 0.111467 0.924337
O O8 0.412937 0.102015 0.012266
O O9 0.136253 0.479815 0.750000
O O10 0.204980 0.525504 0.952142
O O11 0.316208 0.462559 0.918871
O O12 0.091292 0.454364 0.005742
O O13 0.270233 0.783876 0.250000
O O14 0.436401 0.795249 0.060515
O O15 0.253266 0.750000 0.000000
O O16 0.620549 0.750000 0.500000
O O17 0.599007 0.780533 0.250000
O O18 0.658967 0.049997 0.750000
O O19 0.557530 0.043321 0.497353
O O20 0.522993 0.933862 0.750000
O O21 0.956996 0.576956 0.750000
#
# Coordination Sequence:
#
# PCOD9435011 Si02
#       8
#     8   8   8   8   8   8   8   8
#     4   9  18  33  52  72  94 125 165 202 233 274
#     4   9  17  31  50  69  92 126 162 192 233 289
#     4   9  19  33  48  69  98 129 158 196 246 290
#     4   9  17  31  50  70  94 121 151 189 234 282
#     4   9  17  29  47  71  96 122 152 189 236 289
#     4  10  19  32  50  70  96 130 163 195 239 293
#     4  10  19  30  46  71  99 123 155 201 246 285
#     4   9  18  33  52  70  91 125 167 203 232 273
#
# _framework density 18.009
#
# number of rings (size 3 to 8) (size 9 to 14) (size 15 to 20)
#    0.000    2.750    0.000    1.500    0.000    4.000 
#    0.000    5.000    0.000    0.000    0.000    0.000 
#    0.000    0.000    0.000    0.000    0.000    0.000 
#
# Total GULP energy -356891.991931 kJ/mol
# GULP energy per Si atom -5576.437374 kJ/mol
# Density = 1.796801 g / cm^3
# Si number density = 18.009000 Si / 1000 Ang^3
#
#
#
# Elastic Constant Matrix: (Units=GPa)
#
#
# Indices 1 2 3 4 5 6 
#
# 1 41.3317 10.5369 21.8657 0.0000 0.0000 0.0000
# 2 10.5369 105.3419 31.6630 0.0000 0.0000 0.0000
# 3 21.8657 31.6630 35.6526 0.0000 0.0000 0.0000
# 4 0.0000 0.0000 0.0000 27.7285 0.0000 0.0000
# 5 0.0000 0.0000 0.0000 0.0000 14.3762 0.0000
# 6 0.0000 0.0000 0.0000 0.0000 0.0000 23.5564
#
#
#
# Elastic Compliance Matrix: (Units=1/GPa)
#
#
# Indices 1 2 3 4 5 6 
#
# 1 0.037175 0.004276 -0.026597 0.000000 0.000000 0.000000
# 2 0.004276 0.013441 -0.014560 0.000000 0.000000 0.000000
# 3 -0.026597 -0.014560 0.057290 0.000000 0.000000 0.000000
# 4 0.000000 0.000000 0.000000 0.036064 0.000000 0.000000
# 5 0.000000 0.000000 0.000000 0.000000 0.069559 0.000000
# 6 0.000000 0.000000 0.000000 0.000000 0.000000 0.042451
#
#
# Mechanical properties :
#
#
# Convention : Reuss Voigt Hill
#
# Bulk Modulus (GPa) = 29.28611 34.49524 31.89068
# Shear Modulus (GPa) = 14.65742 21.01627 17.83684
#
# Velocity S-wave (km/s) = 2.85598 3.41982 3.15054
# Velocity P-wave (km/s) = 5.21275 5.89827 5.56607
#
# Compressibility (1/GPa) = 0.03414588
#
# Stress axis : x y z
#
# Youngs Moduli (GPa) = 26.89994 74.39668 17.45493
#
# Poissons Ratio (x) = -0.31810 0.46424
# Poissons Ratio (y) = -0.11502 0.25414
# Poissons Ratio (z) = 0.71545 1.08319
#
# Static dielectric constant tensor:
#      x y z
#    x 1.629900 0.000000 0.000000 
#    y 0.000000 1.625480 0.000000 
#    z 0.000000 0.000000 1.600090 
# 
# From -- ./inp_files/3906.got.cif
#   From: 2010.05.17/outbox.cif.g08.bks.cpg/sg57_2_cif.got.tgz:3906.got - 2010.06.03 13:58:18.
