data_PCOD9435098
_publ_section_title
;
Structure prediction by ZEFSAII (Michael W. Deem and Ramdas Pophale) SiO2 
 PCOD9435098
Probable space group: P B C M
;
_chemical_formula_sum "Si O2"
_cell_formula_units_Z 56
_cell_length_a 15.595960
_cell_length_b 21.243786
_cell_length_c 9.087673
_cell_angle_alpha 90.000000
_cell_angle_beta 90.000000
_cell_angle_gamma 90.000000
_cell_volume 3010.902706
_symmetry_space_group_name_H-M "P B C M"
_symmetry_group_IT_number 57
_symmetry_cell_setting 'orthorhombic'
loop_
_space_group_symop_operation_xyz
x,y,z
-x,-y,1/2+z
x,1/2-y,-z
-x,1/2+y,1/2-z
-x,-y,-z
x,y,1/2-z
-x,1/2+y,z
x,1/2-y,1/2+z
loop_
_atom_site_type_symbol
_atom_site_label
_atom_site_fract_x
_atom_site_fract_y
_atom_site_fract_z
Si Si1 0.550667 0.441247 0.071313
Si Si2 0.555192 0.815350 0.074650
Si Si3 0.151714 0.312646 0.082407
Si Si4 0.945892 0.313668 0.417854
Si Si5 0.923143 0.458215 0.069882
Si Si6 0.729803 0.020064 0.578788
Si Si7 0.285625 0.375429 0.580885
O O1 0.549987 0.449396 0.250000
O O2 0.505049 0.375035 0.038435
O O3 0.649909 0.440334 0.018227
O O4 0.500000 0.500000 0.000000
O O5 0.558067 0.807881 0.250000
O O6 0.528533 0.750000 0.000000
O O7 0.648176 0.835162 0.013083
O O8 0.181679 0.315294 0.250000
O O9 0.049464 0.312061 0.083166
O O10 0.181489 0.250000 0.000000
O O11 0.191411 0.367823 0.986827
O O12 0.916949 0.250000 0.500000
O O13 0.914693 0.310206 0.250000
O O14 0.926769 0.384092 0.473503
O O15 0.931326 0.462314 0.250000
O O16 0.827061 0.478546 0.021347
O O17 0.000000 0.500000 0.000000
O O18 0.739708 0.038589 0.750000
O O19 0.694503 0.948983 0.573512
O O20 0.287308 0.355077 0.750000
#
# Coordination Sequence:
#
# PCOD9435098 Si02
#       7
#     8   8   8   8   8   8   8
#     4  10  20  38  61  84 109 145 188 230 277 332
#     4  11  23  37  56  81 112 148 185 230 282 333
#     4  10  19  31  46  69 102 138 179 223 272 330
#     4   9  19  34  53  75 104 145 188 232 280 332
#     4  10  20  36  57  84 116 149 187 234 285 337
#     4   9  19  35  57  82 109 144 183 225 282 341
#     4  11  20  32  52  77 107 141 179 224 278 340
#
# _framework density 18.599073000000001
#
# number of rings (size 3 to 8) (size 9 to 14) (size 15 to 20)
#    0.000    2.000    1.429    2.571    0.000    1.714 
#    0.000    2.143    0.000    0.000    0.000    0.000 
#    0.000    0.000    0.000    0.000    0.000    0.000 
#
# Total GULP energy -312031.562599 kJ/mol
# GULP energy per Si atom -5571.992189 kJ/mol
# Density = 1.855674 g / cm^3
# Si number density = 18.599073 Si / 1000 Ang^3
#
#
#
# Elastic Constant Matrix: (Units=GPa)
#
#
# Indices 1 2 3 4 5 6 
#
# 1 94.7584 45.6008 23.7184 0.0000 0.0000 0.0000
# 2 45.6008 125.7843 46.6437 0.0000 0.0000 0.0000
# 3 23.7184 46.6437 51.8324 0.0000 0.0000 0.0000
# 4 0.0000 0.0000 0.0000 24.9543 0.0000 0.0000
# 5 0.0000 0.0000 0.0000 0.0000 16.9610 0.0000
# 6 0.0000 0.0000 0.0000 0.0000 0.0000 36.5836
#
#
#
# Elastic Compliance Matrix: (Units=1/GPa)
#
#
# Indices 1 2 3 4 5 6 
#
# 1 0.013007 -0.003764 -0.002564 0.000000 0.000000 0.000000
# 2 -0.003764 0.013021 -0.009995 0.000000 0.000000 0.000000
# 3 -0.002564 -0.009995 0.029461 0.000000 0.000000 0.000000
# 4 0.000000 0.000000 0.000000 0.040073 0.000000 0.000000
# 5 0.000000 0.000000 0.000000 0.000000 0.058959 0.000000
# 6 0.000000 0.000000 0.000000 0.000000 0.000000 0.027335
#
#
# Mechanical properties :
#
#
# Convention : Reuss Voigt Hill
#
# Bulk Modulus (GPa) = 43.78062 56.03343 49.90703
# Shear Modulus (GPa) = 22.51069 26.12727 24.31898
#
# Velocity S-wave (km/s) = 3.48273 3.75208 3.61991
# Velocity P-wave (km/s) = 6.30577 6.99737 6.66056
#
# Compressibility (1/GPa) = 0.02284116
#
# Stress axis : x y z
#
# Youngs Moduli (GPa) = 76.88431 76.79733 33.94327
#
# Poissons Ratio (x) = 0.28910 0.08704
# Poissons Ratio (y) = 0.28943 0.33927
# Poissons Ratio (z) = 0.19715 0.76760
#
# Static dielectric constant tensor:
#      x y z
#    x 1.670800 0.000000 0.000000 
#    y 0.000000 1.658670 0.000000 
#    z 0.000000 0.000000 1.642990 
# 
# From -- ./inp_files/5268.got.cif
#   From: 2010.05.17/outbox.cif.g08.bks.cpg/sg57_3_cif.got.tgz:5268.got - 2010.06.03 13:58:18.
