data_PCOD9435713
_publ_section_title
;
Structure prediction by ZEFSAII (Michael W. Deem and Ramdas Pophale) SiO2 
 PCOD9435713
Probable space group: P B C M
;
_chemical_formula_sum "Si O2"
_cell_formula_units_Z 48
_cell_length_a 6.942394
_cell_length_b 9.375874
_cell_length_c 28.506543
_cell_angle_alpha 90.000000
_cell_angle_beta 90.000000
_cell_angle_gamma 90.000000
_cell_volume 1855.519715
_symmetry_space_group_name_H-M "P B C M"
_symmetry_group_IT_number 57
_symmetry_cell_setting 'orthorhombic'
loop_
_space_group_symop_operation_xyz
x,y,z
-x,-y,1/2+z
x,1/2-y,-z
-x,1/2+y,1/2-z
-x,-y,-z
x,y,1/2-z
-x,1/2+y,z
x,1/2-y,1/2+z
loop_
_atom_site_type_symbol
_atom_site_label
_atom_site_fract_x
_atom_site_fract_y
_atom_site_fract_z
Si Si1 0.500502 0.599889 0.599574
Si Si2 0.039429 0.817188 0.952907
Si Si3 0.593000 0.335387 0.303422
Si Si4 0.781753 0.479517 0.697806
Si Si5 0.040035 0.440067 0.390388
Si Si6 0.482066 0.855265 0.539406
O O1 0.368672 0.586742 0.645982
O O2 0.724022 0.557161 0.605631
O O3 0.507428 0.765806 0.587214
O O4 0.443076 0.510755 0.553031
O O5 0.953324 0.956423 0.929625
O O6 0.253786 0.860437 0.967614
O O7 0.032776 0.710495 0.908811
O O8 0.954244 0.750000 0.000000
O O9 0.660980 0.374799 0.250000
O O10 0.659597 0.169302 0.309962
O O11 0.366225 0.384284 0.301973
O O12 0.859967 0.465784 0.750000
O O13 0.959507 0.506727 0.662801
O O14 0.563338 0.750000 0.500000
#
# Coordination Sequence:
#
# PCOD9435713 Si02
#       6
#     8   8   8   8   8   8
#     4  10  19  33  53  79 106 135 180 231 278 330
#     4  10  21  37  55  77 108 148 190 228 274 333
#     4   9  16  29  52  80 109 138 170 218 278 332
#     4   9  18  34  56  83 114 145 181 227 279 335
#     4  10  21  36  54  78 108 144 185 229 274 328
#     4  10  21  35  52  77 110 144 182 231 282 330
#
# _framework density 25.868763000000001
#
# number of rings (size 3 to 8) (size 9 to 14) (size 15 to 20)
#    0.000    2.333    0.000    4.000    0.000    2.000 
#    0.000    4.167    0.000    2.000    0.000    0.000 
#    0.000    0.000    0.000    0.000    0.000    0.000 
#
# Total GULP energy -267230.953643 kJ/mol
# GULP energy per Si atom -5567.311534 kJ/mol
# Density = 2.580988 g / cm^3
# Si number density = 25.868763 Si / 1000 Ang^3
#
#
#
# Elastic Constant Matrix: (Units=GPa)
#
#
# Indices 1 2 3 4 5 6 
#
# 1 91.2203 28.3078 43.8862 0.0000 0.0000 0.0000
# 2 28.3078 96.2188 21.3933 0.0000 0.0000 0.0000
# 3 43.8862 21.3933 145.0381 0.0000 0.0000 0.0000
# 4 0.0000 0.0000 0.0000 47.8092 0.0000 0.0000
# 5 0.0000 0.0000 0.0000 0.0000 -0.9161 0.0000
# 6 0.0000 0.0000 0.0000 0.0000 0.0000 -33.5612
#
#
#
# Elastic Compliance Matrix: (Units=1/GPa)
#
#
# Indices 1 2 3 4 5 6 
#
# 1 0.013733 -0.003222 -0.003680 0.000000 0.000000 0.000000
# 2 -0.003222 0.011501 -0.000722 0.000000 0.000000 0.000000
# 3 -0.003680 -0.000722 0.008115 0.000000 0.000000 0.000000
# 4 0.000000 0.000000 0.000000 0.020916 0.000000 0.000000
# 5 0.000000 0.000000 0.000000 0.000000 -1.091554 0.000000
# 6 0.000000 0.000000 0.000000 0.000000 0.000000 -0.029796
#
#
# Mechanical properties :
#
#
# Convention : Reuss Voigt Hill
#
# Bulk Modulus (GPa) = 55.24368 57.73908 56.49138
# Shear Modulus (GPa) = -4.78101 18.59238 6.90568
#
# Velocity S-wave (km/s) = -1.36095 2.68380 1.63563
# Velocity P-wave (km/s) = 4.35111 5.65439 5.04501
#
# Compressibility (1/GPa) = 0.01810162
#
# Stress axis : x y z
#
# Youngs Moduli (GPa) = 72.81819 86.94647 123.23317
#
# Poissons Ratio (x) = 0.28014 0.45351
# Poissons Ratio (y) = 0.23462 0.08892
# Poissons Ratio (z) = 0.26798 0.06273
#
# Static dielectric constant tensor:
#      x y z
#    x 2.033480 0.000000 0.000000 
#    y 0.000000 1.981220 0.000000 
#    z 0.000000 0.000000 2.279960 
# 
# From -- ./inp_files/29489.got.cif
#   From: 2010.05.17/outbox.cif.g08.bks.cpg/sg57_15_cif.got.tgz:29489.got - 2010.06.03 13:58:18.
