data_PCOD9435653
_publ_section_title
;
Structure prediction by ZEFSAII (Michael W. Deem and Ramdas Pophale) SiO2 
 PCOD9435653
Probable space group: P B C M
;
_chemical_formula_sum "Si O2"
_cell_formula_units_Z 48
_cell_length_a 9.069533
_cell_length_b 17.844256
_cell_length_c 15.478694
_cell_angle_alpha 90.000000
_cell_angle_beta 90.000000
_cell_angle_gamma 90.000000
_cell_volume 2505.057421
_symmetry_space_group_name_H-M "P B C M"
_symmetry_group_IT_number 57
_symmetry_cell_setting 'orthorhombic'
loop_
_space_group_symop_operation_xyz
x,y,z
-x,-y,1/2+z
x,1/2-y,-z
-x,1/2+y,1/2-z
-x,-y,-z
x,y,1/2-z
-x,1/2+y,z
x,1/2-y,1/2+z
loop_
_atom_site_type_symbol
_atom_site_label
_atom_site_fract_x
_atom_site_fract_y
_atom_site_fract_z
Si Si1 0.300414 0.420087 0.004911
Si Si2 0.661444 0.153454 0.844024
Si Si3 0.644103 0.414726 0.974566
Si Si4 0.852330 0.286090 0.593092
Si Si5 0.843230 0.646684 0.348312
Si Si6 0.677600 0.802093 0.348506
O O1 0.467313 0.408731 0.968726
O O2 0.265865 0.357741 0.077197
O O3 0.303293 0.502025 0.047824
O O4 0.193249 0.411632 0.923685
O O5 0.669339 0.117308 0.750000
O O6 0.677687 0.097763 0.923785
O O7 0.780365 0.218884 0.853470
O O8 0.499669 0.191151 0.853083
O O9 0.729349 0.349603 0.924714
O O10 0.893362 0.250000 0.500000
O O11 0.992965 0.321901 0.637875
O O12 0.823385 0.619894 0.250000
O O13 0.735456 0.718290 0.362514
O O14 0.720969 0.823582 0.250000
#
# Coordination Sequence:
#
# PCOD9435653 Si02
#       6
#     8   8   8   8   8   8
#     4  10  19  36  55  77 108 138 169 214 259 308
#     4   9  17  32  54  77 102 131 170 217 259 308
#     4   9  20  34  54  78 104 138 172 207 261 312
#     4  10  19  33  52  75 102 136 173 213 258 305
#     4  11  22  34  52  77 104 137 176 215 257 305
#     4   9  18  33  54  78 101 133 175 216 261 308
#
# _framework density 19.161238000000001
#
# number of rings (size 3 to 8) (size 9 to 14) (size 15 to 20)
#    0.000    2.333    0.000    3.000    0.000    4.000 
#    0.000    5.000    0.000    4.000    0.000    0.000 
#    0.000    0.000    0.000    0.000    0.000    0.000 
#
# Total GULP energy -267831.658577 kJ/mol
# GULP energy per Si atom -5579.826220 kJ/mol
# Density = 1.911763 g / cm^3
# Si number density = 19.161238 Si / 1000 Ang^3
#
#
#
# Elastic Constant Matrix: (Units=GPa)
#
#
# Indices 1 2 3 4 5 6 
#
# 1 21.3879 -1.2009 2.7222 0.0000 0.0000 0.0000
# 2 -1.2009 20.7657 -6.2923 0.0000 0.0000 0.0000
# 3 2.7222 -6.2923 47.6042 0.0000 0.0000 0.0000
# 4 0.0000 0.0000 0.0000 9.2481 0.0000 0.0000
# 5 0.0000 0.0000 0.0000 0.0000 16.4423 0.0000
# 6 0.0000 0.0000 0.0000 0.0000 0.0000 10.7886
#
#
#
# Elastic Compliance Matrix: (Units=1/GPa)
#
#
# Indices 1 2 3 4 5 6 
#
# 1 0.047177 0.001991 -0.002435 0.000000 0.000000 0.000000
# 2 0.001991 0.050250 0.006528 0.000000 0.000000 0.000000
# 3 -0.002435 0.006528 0.022009 0.000000 0.000000 0.000000
# 4 0.000000 0.000000 0.000000 0.108131 0.000000 0.000000
# 5 0.000000 0.000000 0.000000 0.000000 0.060819 0.000000
# 6 0.000000 0.000000 0.000000 0.000000 0.000000 0.092690
#
#
# Mechanical properties :
#
#
# Convention : Reuss Voigt Hill
#
# Bulk Modulus (GPa) = 7.59859 8.91287 8.25573
# Shear Modulus (GPa) = 12.11315 13.59772 12.85544
#
# Velocity S-wave (km/s) = 2.51703 2.66681 2.59300
# Velocity P-wave (km/s) = 3.52441 3.76087 3.64455
#
# Compressibility (1/GPa) = 0.13160335
#
# Stress axis : x y z
#
# Youngs Moduli (GPa) = 21.19679 19.90066 45.43673
#
# Poissons Ratio (x) = -0.03961 0.11062
# Poissons Ratio (y) = -0.04219 -0.29662
# Poissons Ratio (z) = 0.05161 -0.12991
#
# Static dielectric constant tensor:
#      x y z
#    x 1.659900 0.000000 0.000000 
#    y 0.000000 1.642270 0.000000 
#    z 0.000000 0.000000 1.684010 
# 
# From -- ./inp_files/16343.got.cif
#   From: 2010.05.17/outbox.cif.g08.bks.cpg/sg57_9_cif.got.tgz:16343.got - 2010.06.03 13:58:18.
