data_PCOD9435235
_publ_section_title
;
Structure prediction by ZEFSAII (Michael W. Deem and Ramdas Pophale) SiO2 
 PCOD9435235
Probable space group: P B C M
;
_chemical_formula_sum "Si O2"
_cell_formula_units_Z 40
_cell_length_a 13.119587
_cell_length_b 17.503027
_cell_length_c 9.437685
_cell_angle_alpha 90.000000
_cell_angle_beta 90.000000
_cell_angle_gamma 90.000000
_cell_volume 2167.199064
_symmetry_space_group_name_H-M "P B C M"
_symmetry_group_IT_number 57
_symmetry_cell_setting 'orthorhombic'
loop_
_space_group_symop_operation_xyz
x,y,z
-x,-y,1/2+z
x,1/2-y,-z
-x,1/2+y,1/2-z
-x,-y,-z
x,y,1/2-z
-x,1/2+y,z
x,1/2-y,1/2+z
loop_
_atom_site_type_symbol
_atom_site_label
_atom_site_fract_x
_atom_site_fract_y
_atom_site_fract_z
Si Si1 0.788563 0.896496 0.919056
Si Si2 0.396254 0.586216 0.088848
Si Si3 0.411127 0.100148 0.587155
Si Si4 0.826472 0.446192 0.580676
Si Si5 0.003647 0.675172 0.417707
O O1 0.773672 0.903527 0.750000
O O2 0.885446 0.843009 0.946831
O O3 0.684304 0.871502 0.995105
O O4 0.818391 0.978092 0.987237
O O5 0.419220 0.609668 0.250000
O O6 0.403680 0.493093 0.085029
O O7 0.277922 0.601377 0.056341
O O8 0.480382 0.618577 0.983095
O O9 0.404036 0.124502 0.750000
O O10 0.827486 0.465410 0.750000
O O11 0.925334 0.396798 0.545487
O O12 0.036505 0.750000 0.500000
O O13 0.014932 0.687013 0.250000
#
# Coordination Sequence:
#
# PCOD9435235 Si02
#       5
#     8   8   8   8   8
#     4  10  19  31  50  76 102 129 164 203 243 289
#     4   8  14  25  43  68  98 127 156 195 240 286
#     4   9  16  26  43  69 100 130 160 196 239 287
#     4   9  18  33  52  75 101 129 163 202 244 290
#     4  10  22  37  52  72  99 131 166 204 247 294
#
# _framework density 18.457003
#
# number of rings (size 3 to 8) (size 9 to 14) (size 15 to 20)
#    0.000    2.800    0.000    3.000    0.000    7.200 
#    0.000    0.000    0.000    1.200    0.000    2.800 
#    0.000    0.000    0.000    0.000    0.000    0.000 
#
# Total GULP energy -222993.343371 kJ/mol
# GULP energy per Si atom -5574.833584 kJ/mol
# Density = 1.841499 g / cm^3
# Si number density = 18.457003 Si / 1000 Ang^3
#
#
#
# Elastic Constant Matrix: (Units=GPa)
#
#
# Indices 1 2 3 4 5 6 
#
# 1 74.9783 -1.4926 40.5644 0.0000 0.0000 0.0000
# 2 -1.4926 12.5529 12.5141 0.0000 0.0000 0.0000
# 3 40.5644 12.5141 61.7144 0.0000 0.0000 0.0000
# 4 0.0000 0.0000 0.0000 15.8846 0.0000 0.0000
# 5 0.0000 0.0000 0.0000 0.0000 30.4410 0.0000
# 6 0.0000 0.0000 0.0000 0.0000 0.0000 -0.5121
#
#
#
# Elastic Compliance Matrix: (Units=1/GPa)
#
#
# Indices 1 2 3 4 5 6 
#
# 1 0.025716 0.024952 -0.021963 0.000000 0.000000 0.000000
# 2 0.024952 0.124057 -0.041557 0.000000 0.000000 0.000000
# 3 -0.021963 -0.041557 0.039066 0.000000 0.000000 0.000000
# 4 0.000000 0.000000 0.000000 0.062954 0.000000 0.000000
# 5 0.000000 0.000000 0.000000 0.000000 0.032850 0.000000
# 6 0.000000 0.000000 0.000000 0.000000 0.000000 -1.952828
#
#
# Mechanical properties :
#
#
# Convention : Reuss Voigt Hill
#
# Bulk Modulus (GPa) = 8.95209 28.04637 18.49923
# Shear Modulus (GPa) = -3.21789 15.67337 6.22774
#
# Velocity S-wave (km/s) = -1.32183 2.91724 1.83889
# Velocity P-wave (km/s) = 1.59095 5.15515 3.81488
#
# Compressibility (1/GPa) = 0.11170580
#
# Stress axis : x y z
#
# Youngs Moduli (GPa) = 38.88629 8.06078 25.59764
#
# Poissons Ratio (x) = -0.20113 0.56219
# Poissons Ratio (y) = -0.97030 1.06375
# Poissons Ratio (z) = 0.85404 0.33498
#
# Static dielectric constant tensor:
#      x y z
#    x 1.660070 0.000000 0.000000 
#    y 0.000000 1.618300 0.000000 
#    z 0.000000 0.000000 1.620490 
# 
# From -- ./inp_files/4391.got.cif
#   From: 2010.05.17/outbox.cif.g08.bks.cpg/sg57_3_cif.got.tgz:4391.got - 2010.06.03 13:58:18.
