data_PCOD9435404
_publ_section_title
;
Structure prediction by ZEFSAII (Michael W. Deem and Ramdas Pophale) SiO2 
 PCOD9435404
Probable space group: P B C M
;
_chemical_formula_sum "Si O2"
_cell_formula_units_Z 40
_cell_length_a 11.976253
_cell_length_b 22.218421
_cell_length_c 8.618551
_cell_angle_alpha 90.000000
_cell_angle_beta 90.000000
_cell_angle_gamma 90.000000
_cell_volume 2293.339807
_symmetry_space_group_name_H-M "P B C M"
_symmetry_group_IT_number 57
_symmetry_cell_setting 'orthorhombic'
loop_
_space_group_symop_operation_xyz
x,y,z
-x,-y,1/2+z
x,1/2-y,-z
-x,1/2+y,1/2-z
-x,-y,-z
x,y,1/2-z
-x,1/2+y,z
x,1/2-y,1/2+z
loop_
_atom_site_type_symbol
_atom_site_label
_atom_site_fract_x
_atom_site_fract_y
_atom_site_fract_z
Si Si1 0.018333 0.907296 0.426399
Si Si2 0.828432 0.988281 0.933518
Si Si3 0.639475 0.817652 0.434936
Si Si4 0.118075 0.312868 0.928415
Si Si5 0.411504 0.451054 0.437699
O O1 0.009729 0.885069 0.250000
O O2 0.918246 0.954349 0.459357
O O3 0.985897 0.856140 0.545470
O O4 0.134281 0.942164 0.445523
O O5 0.841866 0.971600 0.750000
O O6 0.706538 0.972158 0.991383
O O7 0.612417 0.750000 0.500000
O O8 0.632942 0.812820 0.250000
O O9 0.768011 0.831276 0.483742
O O10 0.573880 0.879483 0.481005
O O11 0.148328 0.307671 0.750000
O O12 0.085723 0.250000 0.000000
O O13 0.500000 0.500000 0.500000
O O14 0.408663 0.453386 0.250000
#
# Coordination Sequence:
#
# PCOD9435404 Si02
#       5
#     8   8   8   8   8
#     4  10  19  32  50  75 107 138 172 214 259 318
#     4  10  20  33  52  76 104 139 175 213 264 316
#     4  10  20  34  53  78 107 140 176 223 273 325
#     4  11  20  30  49  75 106 142 176 217 267 321
#     4  11  23  37  56  80 111 144 184 231 275 326
#
# _framework density 17.44181
#
# number of rings (size 3 to 8) (size 9 to 14) (size 15 to 20)
#    0.000    1.600    2.000    5.400    0.000    4.800 
#    0.000    0.000    0.000    1.200    0.000    5.600 
#    0.000    0.000    0.000    0.000    0.000    0.000 
#
# Total GULP energy -222756.572003 kJ/mol
# GULP energy per Si atom -5568.914300 kJ/mol
# Density = 1.740211 g / cm^3
# Si number density = 17.441810 Si / 1000 Ang^3
#
#
#
# Elastic Constant Matrix: (Units=GPa)
#
#
# Indices 1 2 3 4 5 6 
#
# 1 52.1104 43.7894 10.3787 0.0000 0.0000 0.0000
# 2 43.7894 119.7999 32.1545 0.0000 0.0000 0.0000
# 3 10.3787 32.1545 56.2722 0.0000 0.0000 0.0000
# 4 0.0000 0.0000 0.0000 29.9985 0.0000 0.0000
# 5 0.0000 0.0000 0.0000 0.0000 21.8166 0.0000
# 6 0.0000 0.0000 0.0000 0.0000 0.0000 29.5663
#
#
#
# Elastic Compliance Matrix: (Units=1/GPa)
#
#
# Indices 1 2 3 4 5 6 
#
# 1 0.027728 -0.010350 0.000800 0.000000 0.000000 0.000000
# 2 -0.010350 0.013723 -0.005932 0.000000 0.000000 0.000000
# 3 0.000800 -0.005932 0.021013 0.000000 0.000000 0.000000
# 4 0.000000 0.000000 0.000000 0.033335 0.000000 0.000000
# 5 0.000000 0.000000 0.000000 0.000000 0.045837 0.000000
# 6 0.000000 0.000000 0.000000 0.000000 0.000000 0.033822
#
#
# Mechanical properties :
#
#
# Convention : Reuss Voigt Hill
#
# Bulk Modulus (GPa) = 31.74704 44.53644 38.14174
# Shear Modulus (GPa) = 23.04980 25.73360 24.39170
#
# Velocity S-wave (km/s) = 3.63922 3.84526 3.74366
# Velocity P-wave (km/s) = 5.99164 6.73085 6.37198
#
# Compressibility (1/GPa) = 0.03149900
#
# Stress axis : x y z
#
# Youngs Moduli (GPa) = 36.06480 72.87257 47.58957
#
# Poissons Ratio (x) = 0.75422 -0.03807
# Poissons Ratio (y) = 0.37326 0.28232
# Poissons Ratio (z) = -0.02885 0.43230
#
# Static dielectric constant tensor:
#      x y z
#    x 1.561030 0.000000 0.000000 
#    y 0.000000 1.683060 0.000000 
#    z 0.000000 0.000000 1.591510 
# 
# From -- ./inp_files/2874.got.cif
#   From: 2010.05.17/outbox.cif.g08.bks.cpg/sg57_2_cif.got.tgz:2874.got - 2010.06.03 13:58:18.
