data_PCOD9435474
_publ_section_title
;
Structure prediction by ZEFSAII (Michael W. Deem and Ramdas Pophale) SiO2 
 PCOD9435474
Probable space group: P B C M
;
_chemical_formula_sum "Si O2"
_cell_formula_units_Z 48
_cell_length_a 11.722830
_cell_length_b 26.899113
_cell_length_c 8.180081
_cell_angle_alpha 90.000000
_cell_angle_beta 90.000000
_cell_angle_gamma 90.000000
_cell_volume 2579.455444
_symmetry_space_group_name_H-M "P B C M"
_symmetry_group_IT_number 57
_symmetry_cell_setting 'orthorhombic'
loop_
_space_group_symop_operation_xyz
x,y,z
-x,-y,1/2+z
x,1/2-y,-z
-x,1/2+y,1/2-z
-x,-y,-z
x,y,1/2-z
-x,1/2+y,z
x,1/2-y,1/2+z
loop_
_atom_site_type_symbol
_atom_site_label
_atom_site_fract_x
_atom_site_fract_y
_atom_site_fract_z
Si Si1 0.262732 0.597361 0.938579
Si Si2 0.366560 0.194838 0.556487
Si Si3 0.739578 0.598502 0.435784
Si Si4 0.869109 0.999726 0.551299
Si Si5 0.517120 0.944960 0.437057
Si Si6 0.629417 0.305989 0.051411
O O1 0.222682 0.602897 0.750000
O O2 0.191600 0.550817 0.009274
O O3 0.393808 0.579613 0.936232
O O4 0.280105 0.652674 0.010475
O O5 0.334871 0.250000 0.500000
O O6 0.376710 0.194535 0.750000
O O7 0.274050 0.153074 0.511393
O O8 0.497366 0.184908 0.494675
O O9 0.777655 0.604650 0.250000
O O10 0.811091 0.552007 0.507731
O O11 0.609580 0.579739 0.447824
O O12 0.856960 0.999735 0.750000
O O13 0.000000 0.000000 0.500000
O O14 0.560582 0.943001 0.250000
O O15 0.500000 0.000000 0.500000
O O16 0.629143 0.309354 0.250000
O O17 0.657973 0.250000 0.000000
#
# Coordination Sequence:
#
# PCOD9435474 Si02
#       6
#     8   8   8   8   8   8
#     4   9  17  33  52  72 105 142 170 208 263 316
#     4  10  19  32  51  78 112 147 178 211 257 317
#     4  11  21  34  53  78 109 142 177 222 270 320
#     4  10  22  39  56  75 102 137 180 229 274 317
#     4  11  19  31  49  76 109 140 173 211 265 327
#     4   9  17  30  48  73 107 142 171 203 250 309
#
# _framework density 18.608578999999999
#
# number of rings (size 3 to 8) (size 9 to 14) (size 15 to 20)
#    0.000    2.000    3.333    1.500    0.000    2.000 
#    0.000    0.833    0.000    1.000    0.000    4.667 
#    0.000    0.000    0.000    0.000    0.000    0.000 
#
# Total GULP energy -267255.174212 kJ/mol
# GULP energy per Si atom -5567.816129 kJ/mol
# Density = 1.856623 g / cm^3
# Si number density = 18.608579 Si / 1000 Ang^3
#
#
#
# Elastic Constant Matrix: (Units=GPa)
#
#
# Indices 1 2 3 4 5 6 
#
# 1 71.1035 58.7528 3.1578 0.0000 0.0000 0.0000
# 2 58.7528 193.4308 16.1589 0.0000 0.0000 0.0000
# 3 3.1578 16.1589 16.4121 0.0000 0.0000 0.0000
# 4 0.0000 0.0000 0.0000 20.5949 0.0000 0.0000
# 5 0.0000 0.0000 0.0000 0.0000 17.9197 0.0000
# 6 0.0000 0.0000 0.0000 0.0000 0.0000 16.0355
#
#
#
# Elastic Compliance Matrix: (Units=1/GPa)
#
#
# Indices 1 2 3 4 5 6 
#
# 1 0.018849 -0.005908 0.002190 0.000000 0.000000 0.000000
# 2 -0.005908 0.007485 -0.006233 0.000000 0.000000 0.000000
# 3 0.002190 -0.006233 0.066646 0.000000 0.000000 0.000000
# 4 0.000000 0.000000 0.000000 0.048556 0.000000 0.000000
# 5 0.000000 0.000000 0.000000 0.000000 0.055804 0.000000
# 6 0.000000 0.000000 0.000000 0.000000 0.000000 0.062362
#
#
# Mechanical properties :
#
#
# Convention : Reuss Voigt Hill
#
# Bulk Modulus (GPa) = 13.68391 48.56504 31.12447
# Shear Modulus (GPa) = 16.44944 24.43516 20.44230
#
# Velocity S-wave (km/s) = 2.97639 3.62762 3.31802
# Velocity P-wave (km/s) = 4.37966 6.61068 5.60725
#
# Compressibility (1/GPa) = 0.07307850
#
# Stress axis : x y z
#
# Youngs Moduli (GPa) = 53.05449 133.60050 15.00466
#
# Poissons Ratio (x) = 0.78932 -0.03287
# Poissons Ratio (y) = 0.31345 0.09352
# Poissons Ratio (z) = -0.11621 0.83270
#
# Static dielectric constant tensor:
#      x y z
#    x 1.611840 0.000000 0.000000 
#    y 0.000000 1.711850 0.000000 
#    z 0.000000 0.000000 1.657700 
# 
# From -- ./inp_files/3283.got.cif
#   From: 2010.05.17/outbox.cif.g08.bks.cpg/sg57_2_cif.got.tgz:3283.got - 2010.06.03 13:58:18.
