data_PCOD9435565
_publ_section_title
;
Structure prediction by ZEFSAII (Michael W. Deem and Ramdas Pophale) SiO2 
 PCOD9435565
Probable space group: P B C M
;
_chemical_formula_sum "Si O2"
_cell_formula_units_Z 48
_cell_length_a 10.102308
_cell_length_b 11.429952
_cell_length_c 18.401092
_cell_angle_alpha 90.000000
_cell_angle_beta 90.000000
_cell_angle_gamma 90.000000
_cell_volume 2124.753770
_symmetry_space_group_name_H-M "P B C M"
_symmetry_group_IT_number 57
_symmetry_cell_setting 'orthorhombic'
loop_
_space_group_symop_operation_xyz
x,y,z
-x,-y,1/2+z
x,1/2-y,-z
-x,1/2+y,1/2-z
-x,-y,-z
x,y,1/2-z
-x,1/2+y,z
x,1/2-y,1/2+z
loop_
_atom_site_type_symbol
_atom_site_label
_atom_site_fract_x
_atom_site_fract_y
_atom_site_fract_z
Si Si1 0.302184 0.632758 0.168780
Si Si2 0.585730 0.721126 0.331811
Si Si3 0.342052 0.502518 0.911830
Si Si4 0.915627 0.053814 0.660639
Si Si5 0.636953 0.580613 0.565934
Si Si6 0.000199 0.206486 0.332834
O O1 0.320401 0.581161 0.250000
O O2 0.426448 0.719210 0.158683
O O3 0.311636 0.531548 0.109658
O O4 0.158880 0.690245 0.168082
O O5 0.615657 0.756995 0.250000
O O6 0.624584 0.587838 0.347478
O O7 0.659881 0.802871 0.388576
O O8 0.220175 0.575446 0.882477
O O9 0.476062 0.569560 0.933504
O O10 0.311270 0.428247 0.984449
O O11 0.904382 0.057702 0.750000
O O12 0.015477 0.159844 0.639234
O O13 0.951253 0.919743 0.638597
O O14 0.051152 0.209241 0.250000
#
# Coordination Sequence:
#
# PCOD9435565 Si02
#       6
#     8   8   8   8   8   8
#     4   9  18  33  54  81 110 145 191 237 285 346
#     4  10  19  32  54  82 111 146 190 240 290 347
#     4  10  21  35  53  81 115 151 189 233 293 358
#     4  10  20  37  60  86 117 156 202 249 297 350
#     4  10  20  34  53  80 116 152 185 232 294 357
#     4   9  19  35  57  84 115 152 197 248 296 343
#
# _framework density 22.590854
#
# number of rings (size 3 to 8) (size 9 to 14) (size 15 to 20)
#    0.000    2.333    0.000    2.500    0.000    4.667 
#    0.000    6.667    0.000    0.000    0.000    0.000 
#    0.000    0.000    0.000    0.000    0.000    0.000 
#
# Total GULP energy -267661.270799 kJ/mol
# GULP energy per Si atom -5576.276475 kJ/mol
# Density = 2.253944 g / cm^3
# Si number density = 22.590854 Si / 1000 Ang^3
#
#
#
# Elastic Constant Matrix: (Units=GPa)
#
#
# Indices 1 2 3 4 5 6 
#
# 1 57.4544 13.9895 4.3310 0.0000 0.0000 0.0000
# 2 13.9895 93.9466 33.2730 0.0000 0.0000 0.0000
# 3 4.3310 33.2730 55.0651 0.0000 0.0000 0.0000
# 4 0.0000 0.0000 0.0000 17.9638 0.0000 0.0000
# 5 0.0000 0.0000 0.0000 0.0000 16.4019 0.0000
# 6 0.0000 0.0000 0.0000 0.0000 0.0000 23.4061
#
#
#
# Elastic Compliance Matrix: (Units=1/GPa)
#
#
# Indices 1 2 3 4 5 6 
#
# 1 0.018063 -0.002782 0.000260 0.000000 0.000000 0.000000
# 2 -0.002782 0.013971 -0.008223 0.000000 0.000000 0.000000
# 3 0.000260 -0.008223 0.023109 0.000000 0.000000 0.000000
# 4 0.000000 0.000000 0.000000 0.055667 0.000000 0.000000
# 5 0.000000 0.000000 0.000000 0.000000 0.060969 0.000000
# 6 0.000000 0.000000 0.000000 0.000000 0.000000 0.042724
#
#
# Mechanical properties :
#
#
# Convention : Reuss Voigt Hill
#
# Bulk Modulus (GPa) = 29.71505 34.40589 32.06047
# Shear Modulus (GPa) = 20.22575 21.87920 21.05248
#
# Velocity S-wave (km/s) = 2.99541 3.11545 3.05602
# Velocity P-wave (km/s) = 5.01453 5.31078 5.16478
#
# Compressibility (1/GPa) = 0.03365299
#
# Stress axis : x y z
#
# Youngs Moduli (GPa) = 55.36219 71.57692 43.27383
#
# Poissons Ratio (x) = 0.19912 -0.01126
# Poissons Ratio (y) = 0.15401 0.35585
# Poissons Ratio (z) = -0.01441 0.58859
#
# Static dielectric constant tensor:
#      x y z
#    x 1.892560 0.000000 0.000000 
#    y 0.000000 1.925200 0.000000 
#    z 0.000000 0.000000 1.809820 
# 
# From -- ./inp_files/21830.got.cif
#   From: 2010.05.17/outbox.cif.g08.bks.cpg/sg57_11_cif.got.tgz:21830.got - 2010.06.03 13:58:18.
