data_PCOD9435631
_publ_section_title
;
Structure prediction by ZEFSAII (Michael W. Deem and Ramdas Pophale) SiO2 
 PCOD9435631
Probable space group: P B C M
;
_chemical_formula_sum "Si O2"
_cell_formula_units_Z 48
_cell_length_a 12.283770
_cell_length_b 26.873299
_cell_length_c 8.552999
_cell_angle_alpha 90.000000
_cell_angle_beta 90.000000
_cell_angle_gamma 90.000000
_cell_volume 2823.391362
_symmetry_space_group_name_H-M "P B C M"
_symmetry_group_IT_number 57
_symmetry_cell_setting 'orthorhombic'
loop_
_space_group_symop_operation_xyz
x,y,z
-x,-y,1/2+z
x,1/2-y,-z
-x,1/2+y,1/2-z
-x,-y,-z
x,y,1/2-z
-x,1/2+y,z
x,1/2-y,1/2+z
loop_
_atom_site_type_symbol
_atom_site_label
_atom_site_fract_x
_atom_site_fract_y
_atom_site_fract_z
Si Si1 0.859499 0.960797 0.067110
Si Si2 0.011948 0.621564 0.435900
Si Si3 0.175226 0.194294 0.437634
Si Si4 0.782921 0.069036 0.058777
Si Si5 0.536259 0.445873 0.562916
Si Si6 0.660021 0.614887 0.932077
O O1 0.892476 0.961749 0.250000
O O2 0.746487 0.930463 0.057940
O O3 0.835846 0.016317 0.011786
O O4 0.946010 0.929181 0.970511
O O5 0.018711 0.628568 0.250000
O O6 0.933801 0.665424 0.497547
O O7 0.134712 0.612412 0.494629
O O8 0.179690 0.250000 0.500000
O O9 0.172844 0.194621 0.250000
O O10 0.278351 0.161562 0.491860
O O11 0.781924 0.069412 0.250000
O O12 0.657753 0.068690 0.007492
O O13 0.500000 0.500000 0.500000
O O14 0.538635 0.449480 0.750000
O O15 0.449118 0.404618 0.511918
O O16 0.640123 0.625154 0.750000
#
# Coordination Sequence:
#
# PCOD9435631 Si02
#       6
#     8   8   8   8   8   8
#     4   9  16  28  45  67  99 134 164 199 248 295
#     4   9  18  31  48  71  97 126 166 207 249 301
#     4  10  20  35  56  80 100 126 163 210 262 310
#     4   9  17  30  46  67 100 138 169 202 247 297
#     4  11  20  32  49  71 103 143 181 213 251 302
#     4  10  19  33  51  75 104 134 170 214 256 300
#
# _framework density 17.000831000000002
#
# number of rings (size 3 to 8) (size 9 to 14) (size 15 to 20)
#    0.000    2.333    1.667    2.000    0.000    1.333 
#    0.000    1.667    0.000    1.000    0.000    2.333 
#    0.000    0.000    0.000    0.000    0.000    0.000 
#
# Total GULP energy -267579.108999 kJ/mol
# GULP energy per Si atom -5574.564771 kJ/mol
# Density = 1.696214 g / cm^3
# Si number density = 17.000831 Si / 1000 Ang^3
#
#
#
# Elastic Constant Matrix: (Units=GPa)
#
#
# Indices 1 2 3 4 5 6 
#
# 1 114.5981 67.8806 13.1885 0.0000 0.0000 0.0000
# 2 67.8806 114.5924 23.7597 0.0000 0.0000 0.0000
# 3 13.1885 23.7597 25.4841 0.0000 0.0000 0.0000
# 4 0.0000 0.0000 0.0000 22.7559 0.0000 0.0000
# 5 0.0000 0.0000 0.0000 0.0000 17.2472 0.0000
# 6 0.0000 0.0000 0.0000 0.0000 0.0000 9.3548
#
#
#
# Elastic Compliance Matrix: (Units=1/GPa)
#
#
# Indices 1 2 3 4 5 6 
#
# 1 0.013450 -0.008087 0.000580 0.000000 0.000000 0.000000
# 2 -0.008087 0.015681 -0.010434 0.000000 0.000000 0.000000
# 3 0.000580 -0.010434 0.048668 0.000000 0.000000 0.000000
# 4 0.000000 0.000000 0.000000 0.043945 0.000000 0.000000
# 5 0.000000 0.000000 0.000000 0.000000 0.057980 0.000000
# 6 0.000000 0.000000 0.000000 0.000000 0.000000 0.106897
#
#
# Mechanical properties :
#
#
# Convention : Reuss Voigt Hill
#
# Bulk Modulus (GPa) = 23.85793 51.59245 37.72519
# Shear Modulus (GPa) = 14.85986 19.86131 17.36058
#
# Velocity S-wave (km/s) = 2.95967 3.42168 3.19903
# Velocity P-wave (km/s) = 5.07379 6.78406 5.99028
#
# Compressibility (1/GPa) = 0.04191479
#
# Stress axis : x y z
#
# Youngs Moduli (GPa) = 74.34982 63.77248 20.54725
#
# Poissons Ratio (x) = 0.51576 -0.01191
# Poissons Ratio (y) = 0.60130 0.21440
# Poissons Ratio (z) = -0.04309 0.66542
#
# Static dielectric constant tensor:
#      x y z
#    x 1.604700 0.000000 0.000000 
#    y 0.000000 1.556220 0.000000 
#    z 0.000000 0.000000 1.582660 
# 
# From -- ./inp_files/3106.got.cif
#   From: 2010.05.17/outbox.cif.g08.bks.cpg/sg57_2_cif.got.tgz:3106.got - 2010.06.03 13:58:18.
