data_PCOD9435663
_publ_section_title
;
Structure prediction by ZEFSAII (Michael W. Deem and Ramdas Pophale) SiO2 
 PCOD9435663
Probable space group: P B C M
;
_chemical_formula_sum "Si O2"
_cell_formula_units_Z 48
_cell_length_a 17.022121
_cell_length_b 18.521767
_cell_length_c 8.656940
_cell_angle_alpha 90.000000
_cell_angle_beta 90.000000
_cell_angle_gamma 90.000000
_cell_volume 2729.357957
_symmetry_space_group_name_H-M "P B C M"
_symmetry_group_IT_number 57
_symmetry_cell_setting 'orthorhombic'
loop_
_space_group_symop_operation_xyz
x,y,z
-x,-y,1/2+z
x,1/2-y,-z
-x,1/2+y,1/2-z
-x,-y,-z
x,y,1/2-z
-x,1/2+y,z
x,1/2-y,1/2+z
loop_
_atom_site_type_symbol
_atom_site_label
_atom_site_fract_x
_atom_site_fract_y
_atom_site_fract_z
Si Si1 0.147253 0.830177 0.436441
Si Si2 0.819356 0.902835 0.063419
Si Si3 0.583789 0.977045 0.435224
Si Si4 0.005800 0.418828 0.063506
Si Si5 0.337868 0.172946 0.564461
Si Si6 0.261876 0.955333 0.435214
O O1 0.152427 0.750000 0.500000
O O2 0.145583 0.827663 0.250000
O O3 0.220400 0.880871 0.482163
O O4 0.067277 0.870275 0.488754
O O5 0.815635 0.909087 0.250000
O O6 0.908944 0.887041 0.019306
O O7 0.751836 0.846362 0.016406
O O8 0.793456 0.979301 0.992507
O O9 0.582622 0.978404 0.250000
O O10 0.609624 0.895824 0.484093
O O11 0.500000 0.000000 0.500000
O O12 0.652905 0.029381 0.494313
O O13 0.002695 0.422734 0.250000
O O14 0.000000 0.500000 0.000000
O O15 0.362450 0.250000 0.500000
O O16 0.339842 0.175922 0.750000
O O17 0.266743 0.957816 0.250000
#
# Coordination Sequence:
#
# PCOD9435663 Si02
#       6
#     8   8   8   8   8   8
#     4  10  22  36  51  76 109 144 186 231 275 321
#     4   9  18  32  52  76 105 141 180 223 269 319
#     4  10  21  38  60  86 111 139 177 218 265 322
#     4  10  19  33  52  76 106 142 186 232 274 319
#     4   9  19  34  52  79 111 141 173 214 265 318
#     4  10  19  34  55  79 106 137 178 222 264 320
#
# _framework density 17.586554
#
# number of rings (size 3 to 8) (size 9 to 14) (size 15 to 20)
#    0.000    2.333    1.667    2.000    0.000    6.000 
#    0.000    0.833    0.000    0.000    0.000    0.000 
#    0.000    0.000    0.000    0.000    0.000    0.000 
#
# Total GULP energy -267748.067871 kJ/mol
# GULP energy per Si atom -5578.084747 kJ/mol
# Density = 1.754653 g / cm^3
# Si number density = 17.586554 Si / 1000 Ang^3
#
#
#
# Elastic Constant Matrix: (Units=GPa)
#
#
# Indices 1 2 3 4 5 6 
#
# 1 165.8005 86.5188 36.8321 0.0000 0.0000 0.0000
# 2 86.5188 137.9939 25.7415 0.0000 0.0000 0.0000
# 3 36.8321 25.7415 17.7246 0.0000 0.0000 0.0000
# 4 0.0000 0.0000 0.0000 31.0775 0.0000 0.0000
# 5 0.0000 0.0000 0.0000 0.0000 25.6882 0.0000
# 6 0.0000 0.0000 0.0000 0.0000 0.0000 18.1808
#
#
#
# Elastic Compliance Matrix: (Units=1/GPa)
#
#
# Indices 1 2 3 4 5 6 
#
# 1 0.012752 -0.004186 -0.020419 0.000000 0.000000 0.000000
# 2 -0.004186 0.011314 -0.007732 0.000000 0.000000 0.000000
# 3 -0.020419 -0.007732 0.110080 0.000000 0.000000 0.000000
# 4 0.000000 0.000000 0.000000 0.032178 0.000000 0.000000
# 5 0.000000 0.000000 0.000000 0.000000 0.038928 0.000000
# 6 0.000000 0.000000 0.000000 0.000000 0.000000 0.055003
#
#
# Mechanical properties :
#
#
# Convention : Reuss Voigt Hill
#
# Bulk Modulus (GPa) = 14.39459 68.85599 41.62529
# Shear Modulus (GPa) = 14.36430 26.48442 20.42436
#
# Velocity S-wave (km/s) = 2.86103 3.88486 3.41157
# Velocity P-wave (km/s) = 4.37227 7.70458 6.26408
#
# Compressibility (1/GPa) = 0.06947052
#
# Stress axis : x y z
#
# Youngs Moduli (GPa) = 78.42051 88.38919 9.08434
#
# Poissons Ratio (x) = 0.37000 0.18549
# Poissons Ratio (y) = 0.32827 0.07024
# Poissons Ratio (z) = 1.60127 0.68343
#
# Static dielectric constant tensor:
#      x y z
#    x 1.609330 0.000000 0.000000 
#    y 0.000000 1.573530 0.000000 
#    z 0.000000 0.000000 1.593260 
# 
# From -- ./inp_files/6683.got.cif
#   From: 2010.05.17/outbox.cif.g08.bks.cpg/sg57_4_cif.got.tgz:6683.got - 2010.06.03 13:58:18.
