data_PCOD9435792
_publ_section_title
;
Structure prediction by ZEFSAII (Michael W. Deem and Ramdas Pophale) SiO2 
 PCOD9435792
Probable space group: P B C M
;
_chemical_formula_sum "Si O2"
_cell_formula_units_Z 64
_cell_length_a 5.232493
_cell_length_b 29.757305
_cell_length_c 20.048202
_cell_angle_alpha 90.000000
_cell_angle_beta 90.000000
_cell_angle_gamma 90.000000
_cell_volume 3121.603089
_symmetry_space_group_name_H-M "P B C M"
_symmetry_group_IT_number 57
_symmetry_cell_setting 'orthorhombic'
loop_
_space_group_symop_operation_xyz
x,y,z
-x,-y,1/2+z
x,1/2-y,-z
-x,1/2+y,1/2-z
-x,-y,-z
x,y,1/2-z
-x,1/2+y,z
x,1/2-y,1/2+z
loop_
_atom_site_type_symbol
_atom_site_label
_atom_site_fract_x
_atom_site_fract_y
_atom_site_fract_z
Si Si1 0.579349 0.959537 0.588640
Si Si2 0.743199 0.538992 0.555450
Si Si3 0.874021 0.592065 0.321907
Si Si4 0.833480 0.770005 0.169713
Si Si5 0.735393 0.127849 0.071365
Si Si6 0.466011 0.318802 0.675033
Si Si7 0.331074 0.821040 0.169395
Si Si8 0.234242 0.900779 0.073360
O O1 0.745631 0.972640 0.523865
O O2 0.728827 0.953318 0.657249
O O3 0.489885 0.908993 0.572367
O O4 0.340482 0.992999 0.591356
O O5 0.498638 0.571564 0.567634
O O6 0.998925 0.564441 0.576234
O O7 0.007015 0.588312 0.250000
O O8 0.682888 0.634354 0.316799
O O9 0.053981 0.604362 0.382908
O O10 0.837705 0.772599 0.250000
O O11 0.731273 0.720194 0.155504
O O12 0.611033 0.804280 0.147094
O O13 0.115127 0.784703 0.148450
O O14 0.656788 0.171658 0.113774
O O15 0.806638 0.129448 0.993799
O O16 0.576430 0.307943 0.750000
O O17 0.331646 0.824295 0.250000
O O18 0.254898 0.867630 0.135616
#
# Coordination Sequence:
#
# PCOD9435792 Si02
#       8
#     8   8   8   8   8   8   8   8
#     4   9  20  35  54  82 112 146 194 231 275 329
#     4  10  21  36  62  84 109 147 195 237 273 336
#     4  10  19  33  54  81 116 151 184 229 284 340
#     4   9  19  36  61  85 108 144 191 234 278 337
#     4  10  20  33  56  80 118 150 185 229 283 343
#     4   9  19  34  55  84 112 149 192 230 273 338
#     4  10  21  39  61  83 110 145 191 243 288 335
#     4  11  22  38  60  85 112 151 191 238 288 336
#
# _framework density 20.502285000000001
#
# number of rings (size 3 to 8) (size 9 to 14) (size 15 to 20)
#    0.000    2.250    1.250    1.125    3.500    2.000 
#    0.000    1.875    0.000    0.000    0.000    0.000 
#    0.000    0.000    0.000    0.000    0.000    0.000 
#
# Total GULP energy -356746.938646 kJ/mol
# GULP energy per Si atom -5574.170916 kJ/mol
# Density = 2.045562 g / cm^3
# Si number density = 20.502285 Si / 1000 Ang^3
#
#
#
# Elastic Constant Matrix: (Units=GPa)
#
#
# Indices 1 2 3 4 5 6 
#
# 1 62.0801 -0.4788 8.8095 0.0000 0.0000 0.0000
# 2 -0.4788 55.5034 14.4042 0.0000 0.0000 0.0000
# 3 8.8095 14.4042 52.4206 0.0000 0.0000 0.0000
# 4 0.0000 0.0000 0.0000 30.3683 0.0000 0.0000
# 5 0.0000 0.0000 0.0000 0.0000 8.6975 0.0000
# 6 0.0000 0.0000 0.0000 0.0000 0.0000 27.7806
#
#
#
# Elastic Compliance Matrix: (Units=1/GPa)
#
#
# Indices 1 2 3 4 5 6 
#
# 1 0.016546 0.000931 -0.003036 0.000000 0.000000 0.000000
# 2 0.000931 0.019453 -0.005502 0.000000 0.000000 0.000000
# 3 -0.003036 -0.005502 0.021099 0.000000 0.000000 0.000000
# 4 0.000000 0.000000 0.000000 0.032929 0.000000 0.000000
# 5 0.000000 0.000000 0.000000 0.000000 0.114975 0.000000
# 6 0.000000 0.000000 0.000000 0.000000 0.000000 0.035996
#
#
# Mechanical properties :
#
#
# Convention : Reuss Voigt Hill
#
# Bulk Modulus (GPa) = 23.87615 23.94157 23.90886
# Shear Modulus (GPa) = 18.50661 23.18723 20.84692
#
# Velocity S-wave (km/s) = 3.00769 3.36662 3.19220
# Velocity P-wave (km/s) = 4.87160 5.17832 5.02730
#
# Compressibility (1/GPa) = 0.04188281
#
# Stress axis : x y z
#
# Youngs Moduli (GPa) = 60.43655 51.40666 47.39671
#
# Poissons Ratio (x) = -0.04785 0.14392
# Poissons Ratio (y) = -0.05625 0.26076
# Poissons Ratio (z) = 0.18351 0.28282
#
# Static dielectric constant tensor:
#      x y z
#    x 1.825570 0.000000 0.000000 
#    y 0.000000 1.743900 0.000000 
#    z 0.000000 0.000000 1.787460 
# 
# From -- ./inp_files/20359.got.cif
#   From: 2010.05.17/outbox.cif.g08.bks.cpg/sg57_11_cif.got.tgz:20359.got - 2010.06.03 13:58:18.
