data_PCOD9435244
_publ_section_title
;
Structure prediction by ZEFSAII (Michael W. Deem and Ramdas Pophale) SiO2 
 PCOD9435244
Probable space group: P B C M
;
_chemical_formula_sum "Si O2"
_cell_formula_units_Z 48
_cell_length_a 13.016712
_cell_length_b 13.695595
_cell_length_c 13.919705
_cell_angle_alpha 90.000000
_cell_angle_beta 90.000000
_cell_angle_gamma 90.000000
_cell_volume 2481.488302
_symmetry_space_group_name_H-M "P B C M"
_symmetry_group_IT_number 57
_symmetry_cell_setting 'orthorhombic'
loop_
_space_group_symop_operation_xyz
x,y,z
-x,-y,1/2+z
x,1/2-y,-z
-x,1/2+y,1/2-z
-x,-y,-z
x,y,1/2-z
-x,1/2+y,z
x,1/2-y,1/2+z
loop_
_atom_site_type_symbol
_atom_site_label
_atom_site_fract_x
_atom_site_fract_y
_atom_site_fract_z
Si Si1 0.570286 0.969575 0.864388
Si Si2 0.811286 0.336675 0.862409
Si Si3 0.211284 0.085318 0.142461
Si Si4 0.607355 0.365118 0.979116
Si Si5 0.114784 0.881461 0.144302
Si Si6 0.012298 0.137095 0.469894
O O1 0.566005 0.988560 0.750000
O O2 0.670512 0.901787 0.883246
O O3 0.471498 0.911088 0.901837
O O4 0.586991 0.068066 0.926816
O O5 0.788595 0.353435 0.750000
O O6 0.721416 0.373361 0.932399
O O7 0.827216 0.219754 0.877257
O O8 0.922377 0.379433 0.891748
O O9 0.190693 0.124822 0.250000
O O10 0.124892 0.119208 0.069448
O O11 0.194981 0.968757 0.147699
O O12 0.590097 0.250000 0.000000
O O13 0.067524 0.869356 0.250000
O O14 0.029080 0.911633 0.067242
O O15 0.008906 0.250000 0.500000
#
# Coordination Sequence:
#
# PCOD9435244 Si02
#       6
#     8   8   8   8   8   8
#     4  10  23  40  58  84 115 148 190 234 282 345
#     4  10  19  33  54  83 112 139 179 228 279 326
#     4  10  19  33  52  73 101 138 175 213 263 324
#     4  11  22  38  61  85 111 146 189 239 289 335
#     4   9  18  31  50  76 105 137 176 221 266 317
#     4  10  19  31  50  76 108 141 176 217 266 324
#
# _framework density 19.343229999999998
#
# number of rings (size 3 to 8) (size 9 to 14) (size 15 to 20)
#    0.000    2.000    0.000    5.000    0.000    4.000 
#    0.000    0.000    0.000    4.000    0.000    0.000 
#    0.000    0.000    0.000    0.000    0.000    0.000 
#
# Total GULP energy -267657.221514 kJ/mol
# GULP energy per Si atom -5576.192115 kJ/mol
# Density = 1.929920 g / cm^3
# Si number density = 19.343230 Si / 1000 Ang^3
#
#
#
# Elastic Constant Matrix: (Units=GPa)
#
#
# Indices 1 2 3 4 5 6 
#
# 1 104.5043 16.1775 56.6035 0.0000 0.0000 0.0000
# 2 16.1775 40.4966 20.8192 0.0000 0.0000 0.0000
# 3 56.6035 20.8192 123.1078 0.0000 0.0000 0.0000
# 4 0.0000 0.0000 0.0000 20.3027 0.0000 0.0000
# 5 0.0000 0.0000 0.0000 0.0000 22.2878 0.0000
# 6 0.0000 0.0000 0.0000 0.0000 0.0000 22.0691
#
#
#
# Elastic Compliance Matrix: (Units=1/GPa)
#
#
# Indices 1 2 3 4 5 6 
#
# 1 0.012937 -0.002311 -0.005557 0.000000 0.000000 0.000000
# 2 -0.002311 0.027458 -0.003581 0.000000 0.000000 0.000000
# 3 -0.005557 -0.003581 0.011284 0.000000 0.000000 0.000000
# 4 0.000000 0.000000 0.000000 0.049255 0.000000 0.000000
# 5 0.000000 0.000000 0.000000 0.000000 0.044868 0.000000
# 6 0.000000 0.000000 0.000000 0.000000 0.000000 0.045312
#
#
# Mechanical properties :
#
#
# Convention : Reuss Voigt Hill
#
# Bulk Modulus (GPa) = 34.74677 50.58992 42.66834
# Shear Modulus (GPa) = 22.36095 24.56583 23.46339
#
# Velocity S-wave (km/s) = 3.40370 3.56757 3.48660
# Velocity P-wave (km/s) = 5.78353 6.57120 6.18990
#
# Compressibility (1/GPa) = 0.02877965
#
# Stress axis : x y z
#
# Youngs Moduli (GPa) = 77.29881 36.41990 88.62295
#
# Poissons Ratio (x) = 0.08416 0.49251
# Poissons Ratio (y) = 0.17863 0.31735
# Poissons Ratio (z) = 0.42958 0.13042
#
# Static dielectric constant tensor:
#      x y z
#    x 1.666990 0.000000 0.000000 
#    y 0.000000 1.714360 0.000000 
#    z 0.000000 0.000000 1.728950 
# 
# From -- ./inp_files/17574.got.cif
#   From: 2010.05.17/outbox.cif.g08.bks.cpg/sg57_9_cif.got.tgz:17574.got - 2010.06.03 13:58:18.
