data_PCOD9435996
_publ_section_title
;
Structure prediction by ZEFSAII (Michael W. Deem and Ramdas Pophale) SiO2 
 PCOD9435996
Probable space group: P B C M
;
_chemical_formula_sum "Si O2"
_cell_formula_units_Z 64
_cell_length_a 8.955896
_cell_length_b 25.257469
_cell_length_c 15.070359
_cell_angle_alpha 90.000000
_cell_angle_beta 90.000000
_cell_angle_gamma 90.000000
_cell_volume 3408.964419
_symmetry_space_group_name_H-M "P B C M"
_symmetry_group_IT_number 57
_symmetry_cell_setting 'orthorhombic'
loop_
_space_group_symop_operation_xyz
x,y,z
-x,-y,1/2+z
x,1/2-y,-z
-x,1/2+y,1/2-z
-x,-y,-z
x,y,1/2-z
-x,1/2+y,z
x,1/2-y,1/2+z
loop_
_atom_site_type_symbol
_atom_site_label
_atom_site_fract_x
_atom_site_fract_y
_atom_site_fract_z
Si Si1 0.422602 0.833635 0.346974
Si Si2 0.615448 0.222820 0.408527
Si Si3 0.134405 0.901433 0.353467
Si Si4 0.513507 0.452720 0.571400
Si Si5 0.065779 0.393389 0.975161
Si Si6 0.776648 0.385907 0.644568
Si Si7 0.629142 0.657312 0.491923
Si Si8 0.217246 0.475709 0.847421
O O1 0.455329 0.855515 0.250000
O O2 0.379823 0.772023 0.343516
O O3 0.278831 0.866372 0.381731
O O4 0.566527 0.834614 0.409439
O O5 0.674043 0.250000 0.500000
O O6 0.697514 0.170371 0.375910
O O7 0.448933 0.201949 0.431943
O O8 0.097537 0.887357 0.250000
O O9 0.003989 0.897171 0.426339
O O10 0.182177 0.962578 0.353936
O O11 0.500000 0.500000 0.500000
O O12 0.675453 0.434548 0.606407
O O13 0.445946 0.398754 0.532209
O O14 0.395232 0.467993 0.647010
O O15 0.195889 0.349498 0.978588
O O16 0.143424 0.445183 0.930562
O O17 0.930648 0.383050 0.908287
O O18 0.793297 0.392308 0.750000
O O19 0.164432 0.456224 0.750000
#
# Coordination Sequence:
#
# PCOD9435996 Si02
#       8
#     8   8   8   8   8   8   8   8
#     4  10  19  36  59  81 103 134 183 241 290 338
#     4   9  18  37  60  80 105 142 190 240 293 344
#     4  10  21  36  58  85 114 149 191 236 285 340
#     4  10  19  34  56  79 107 146 192 235 277 324
#     4  11  21  36  54  79 119 156 184 225 284 351
#     4  11  22  36  57  87 117 152 197 243 290 348
#     4   9  20  34  53  77 104 142 180 221 277 336
#     4  10  20  35  54  80 114 153 191 231 279 337
#
# _framework density 18.77403
#
# number of rings (size 3 to 8) (size 9 to 14) (size 15 to 20)
#    0.000    2.000    0.000    5.250    0.000    1.500 
#    0.000    8.125    0.000    0.750    0.000    0.000 
#    0.000    0.000    0.000    0.000    0.000    0.000 
#
# Total GULP energy -356477.156136 kJ/mol
# GULP energy per Si atom -5569.955565 kJ/mol
# Density = 1.873130 g / cm^3
# Si number density = 18.774030 Si / 1000 Ang^3
#
#
#
# Elastic Constant Matrix: (Units=GPa)
#
#
# Indices 1 2 3 4 5 6 
#
# 1 119.4209 29.8944 50.8985 0.0000 0.0000 0.0000
# 2 29.8944 63.5260 27.9888 0.0000 0.0000 0.0000
# 3 50.8985 27.9888 110.8881 0.0000 0.0000 0.0000
# 4 0.0000 0.0000 0.0000 17.9849 0.0000 0.0000
# 5 0.0000 0.0000 0.0000 0.0000 19.8707 0.0000
# 6 0.0000 0.0000 0.0000 0.0000 0.0000 21.7148
#
#
#
# Elastic Compliance Matrix: (Units=1/GPa)
#
#
# Indices 1 2 3 4 5 6 
#
# 1 0.011000 -0.003321 -0.004211 0.000000 0.000000 0.000000
# 2 -0.003321 0.018714 -0.003199 0.000000 0.000000 0.000000
# 3 -0.004211 -0.003199 0.011758 0.000000 0.000000 0.000000
# 4 0.000000 0.000000 0.000000 0.055602 0.000000 0.000000
# 5 0.000000 0.000000 0.000000 0.000000 0.050325 0.000000
# 6 0.000000 0.000000 0.000000 0.000000 0.000000 0.046052
#
#
# Mechanical properties :
#
#
# Convention : Reuss Voigt Hill
#
# Bulk Modulus (GPa) = 49.97456 56.82205 53.39830
# Shear Modulus (GPa) = 22.56491 24.25097 23.40794
#
# Velocity S-wave (km/s) = 3.47064 3.59796 3.53487
# Velocity P-wave (km/s) = 6.53737 6.89873 6.72048
#
# Compressibility (1/GPa) = 0.02001018
#
# Stress axis : x y z
#
# Youngs Moduli (GPa) = 90.91097 53.43606 85.04624
#
# Poissons Ratio (x) = 0.17747 0.35810
# Poissons Ratio (y) = 0.30193 0.27207
# Poissons Ratio (z) = 0.38280 0.17095
#
# Static dielectric constant tensor:
#      x y z
#    x 1.667410 0.000000 0.000000 
#    y 0.000000 1.650070 0.000000 
#    z 0.000000 0.000000 1.706450 
# 
# From -- ./inp_files/16980.got.cif
#   From: 2010.05.17/outbox.cif.g08.bks.cpg/sg57_9_cif.got.tgz:16980.got - 2010.06.03 13:58:18.
