data_PCOD9435716
_publ_section_title
;
Structure prediction by ZEFSAII (Michael W. Deem and Ramdas Pophale) SiO2 
 PCOD9435716
Probable space group: P B C M
;
_chemical_formula_sum "Si O2"
_cell_formula_units_Z 56
_cell_length_a 9.597511
_cell_length_b 13.966337
_cell_length_c 23.273436
_cell_angle_alpha 90.000000
_cell_angle_beta 90.000000
_cell_angle_gamma 90.000000
_cell_volume 3119.619607
_symmetry_space_group_name_H-M "P B C M"
_symmetry_group_IT_number 57
_symmetry_cell_setting 'orthorhombic'
loop_
_space_group_symop_operation_xyz
x,y,z
-x,-y,1/2+z
x,1/2-y,-z
-x,1/2+y,1/2-z
-x,-y,-z
x,y,1/2-z
-x,1/2+y,z
x,1/2-y,1/2+z
loop_
_atom_site_type_symbol
_atom_site_label
_atom_site_fract_x
_atom_site_fract_y
_atom_site_fract_z
Si Si1 0.659751 0.966403 0.181783
Si Si2 0.154023 0.085587 0.372851
Si Si3 0.158102 0.981089 0.481417
Si Si4 0.844650 0.308797 0.391523
Si Si5 0.169768 0.587352 0.398969
Si Si6 0.655759 0.424919 0.317845
Si Si7 0.125752 0.293460 0.180603
O O1 0.659995 0.980390 0.250000
O O2 0.500913 0.949286 0.163592
O O3 0.758077 0.874449 0.169758
O O4 0.727654 0.057181 0.151298
O O5 0.168393 0.191074 0.346653
O O6 0.988229 0.062211 0.378086
O O7 0.205638 0.065355 0.438357
O O8 0.238409 0.010721 0.334081
O O9 0.159189 0.884796 0.443234
O O10 0.224319 0.965638 0.543648
O O11 0.000000 0.000000 0.500000
O O12 0.838316 0.199875 0.411701
O O13 0.714488 0.333739 0.351245
O O14 0.983312 0.320788 0.352493
O O15 0.656726 0.409179 0.250000
O O16 0.105216 0.285371 0.250000
#
# Coordination Sequence:
#
# PCOD9435716 Si02
#       7
#     8   8   8   8   8   8   8
#     4  10  22  36  52  75 107 143 178 216 266 322
#     4   9  19  33  54  79 102 135 176 218 265 314
#     4   9  17  33  55  80 107 137 172 218 268 316
#     4  10  20  33  54  81 106 137 178 220 267 319
#     4  10  20  35  56  79 106 138 176 221 266 317
#     4  10  20  35  52  75 107 141 174 216 268 325
#     4  10  19  33  53  79 107 137 175 223 267 311
#
# _framework density 17.950906
#
# number of rings (size 3 to 8) (size 9 to 14) (size 15 to 20)
#    0.000    2.286    0.000    3.857    0.000    5.714 
#    0.000    7.857    0.000    3.429    0.000    2.000 
#    0.000    0.000    0.000    0.000    0.000    0.000 
#
# Total GULP energy -312015.304534 kJ/mol
# GULP energy per Si atom -5571.701867 kJ/mol
# Density = 1.791005 g / cm^3
# Si number density = 17.950906 Si / 1000 Ang^3
#
#
#
# Elastic Constant Matrix: (Units=GPa)
#
#
# Indices 1 2 3 4 5 6 
#
# 1 68.4917 5.7155 23.7215 0.0000 0.0000 0.0000
# 2 5.7155 33.1188 9.4774 0.0000 0.0000 0.0000
# 3 23.7215 9.4774 53.9565 0.0000 0.0000 0.0000
# 4 0.0000 0.0000 0.0000 26.7132 0.0000 0.0000
# 5 0.0000 0.0000 0.0000 0.0000 7.5750 0.0000
# 6 0.0000 0.0000 0.0000 0.0000 0.0000 13.3661
#
#
#
# Elastic Compliance Matrix: (Units=1/GPa)
#
#
# Indices 1 2 3 4 5 6 
#
# 1 0.017245 -0.000849 -0.007433 0.000000 0.000000 0.000000
# 2 -0.000849 0.031834 -0.005218 0.000000 0.000000 0.000000
# 3 -0.007433 -0.005218 0.022718 0.000000 0.000000 0.000000
# 4 0.000000 0.000000 0.000000 0.037435 0.000000 0.000000
# 5 0.000000 0.000000 0.000000 0.000000 0.132014 0.000000
# 6 0.000000 0.000000 0.000000 0.000000 0.000000 0.074816
#
#
# Mechanical properties :
#
#
# Convention : Reuss Voigt Hill
#
# Bulk Modulus (GPa) = 22.32290 25.93289 24.12789
# Shear Modulus (GPa) = 13.96671 17.30770 15.63720
#
# Velocity S-wave (km/s) = 2.79238 3.10848 2.95466
# Velocity P-wave (km/s) = 4.78111 5.23081 5.01101
#
# Compressibility (1/GPa) = 0.04479704
#
# Stress axis : x y z
#
# Youngs Moduli (GPa) = 57.98643 31.41276 44.01847
#
# Poissons Ratio (x) = 0.02668 0.32717
# Poissons Ratio (y) = 0.04924 0.22970
# Poissons Ratio (z) = 0.43099 0.16392
#
# Static dielectric constant tensor:
#      x y z
#    x 1.601030 0.000000 0.000000 
#    y 0.000000 1.628790 0.000000 
#    z 0.000000 0.000000 1.637160 
# 
# From -- ./inp_files/24425.got.cif
#   From: 2010.05.17/outbox.cif.g08.bks.cpg/sg57_13_cif.got.tgz:24425.got - 2010.06.03 13:58:18.
