data_PCOD9435455
_publ_section_title
;
Structure prediction by ZEFSAII (Michael W. Deem and Ramdas Pophale) SiO2 
 PCOD9435455
Probable space group: P B C M
;
_chemical_formula_sum "Si O2"
_cell_formula_units_Z 48
_cell_length_a 16.736302
_cell_length_b 19.201117
_cell_length_c 8.371794
_cell_angle_alpha 90.000000
_cell_angle_beta 90.000000
_cell_angle_gamma 90.000000
_cell_volume 2690.323661
_symmetry_space_group_name_H-M "P B C M"
_symmetry_group_IT_number 57
_symmetry_cell_setting 'orthorhombic'
loop_
_space_group_symop_operation_xyz
x,y,z
-x,-y,1/2+z
x,1/2-y,-z
-x,1/2+y,1/2-z
-x,-y,-z
x,y,1/2-z
-x,1/2+y,z
x,1/2-y,1/2+z
loop_
_atom_site_type_symbol
_atom_site_label
_atom_site_fract_x
_atom_site_fract_y
_atom_site_fract_z
Si Si1 0.742659 0.459965 0.057604
Si Si2 0.983181 0.828497 0.057162
Si Si3 0.163511 0.828045 0.443017
Si Si4 0.824712 0.904226 0.056816
Si Si5 0.662137 0.828111 0.058941
Si Si6 0.418219 0.034001 0.058485
O O1 0.739580 0.457581 0.250000
O O2 0.773530 0.385401 0.999675
O O3 0.656314 0.486450 0.000492
O O4 0.804545 0.519655 0.007314
O O5 0.982545 0.829379 0.250000
O O6 0.910209 0.876112 0.000954
O O7 0.073045 0.847627 0.004829
O O8 0.968466 0.750000 0.000000
O O9 0.180089 0.750000 0.500000
O O10 0.164017 0.827880 0.250000
O O11 0.824485 0.905839 0.250000
O O12 0.750872 0.854176 0.006359
O O13 0.660834 0.828065 0.250000
O O14 0.646383 0.750000 0.000000
O O15 0.600940 0.887582 0.999599
O O16 0.417817 0.034780 0.250000
O O17 0.500000 0.000000 0.000000
#
# Coordination Sequence:
#
# PCOD9435455 Si02
#       6
#     8   8   8   8   8   8
#     4   9  19  34  51  71  96 126 160 200 246 295
#     4   9  17  29  45  67  97 131 166 202 238 278
#     4   9  18  33  50  69  95 128 165 203 241 281
#     4   9  18  30  46  71 101 131 163 200 240 285
#     4  10  19  32  51  76 105 134 165 201 243 292
#     4  10  20  36  56  76 100 130 163 202 251 303
#
# _framework density 17.841719000000001
#
# number of rings (size 3 to 8) (size 9 to 14) (size 15 to 20)
#    0.000    2.667    0.000    1.500    0.000    3.333 
#    0.000    0.833    0.000    2.000    0.000    0.000 
#    0.000    0.000    0.000    0.000    0.000    0.000 
#
# Total GULP energy -267628.374552 kJ/mol
# GULP energy per Si atom -5575.591136 kJ/mol
# Density = 1.780111 g / cm^3
# Si number density = 17.841719 Si / 1000 Ang^3
#
#
#
# Elastic Constant Matrix: (Units=GPa)
#
#
# Indices 1 2 3 4 5 6 
#
# 1 100.7755 98.1453 17.7869 0.0000 0.0000 0.0000
# 2 98.1453 151.7356 21.3285 0.0000 0.0000 0.0000
# 3 17.7869 21.3285 14.2435 0.0000 0.0000 0.0000
# 4 0.0000 0.0000 0.0000 28.9330 0.0000 0.0000
# 5 0.0000 0.0000 0.0000 0.0000 17.2119 0.0000
# 6 0.0000 0.0000 0.0000 0.0000 0.0000 25.4002
#
#
#
# Elastic Compliance Matrix: (Units=1/GPa)
#
#
# Indices 1 2 3 4 5 6 
#
# 1 0.027873 -0.016638 -0.009893 0.000000 0.000000 0.000000
# 2 -0.016638 0.018279 -0.006594 0.000000 0.000000 0.000000
# 3 -0.009893 -0.006594 0.092436 0.000000 0.000000 0.000000
# 4 0.000000 0.000000 0.000000 0.034563 0.000000 0.000000
# 5 0.000000 0.000000 0.000000 0.000000 0.058099 0.000000
# 6 0.000000 0.000000 0.000000 0.000000 0.000000 0.039370
#
#
# Mechanical properties :
#
#
# Convention : Reuss Voigt Hill
#
# Bulk Modulus (GPa) = 13.82404 60.14179 36.98292
# Shear Modulus (GPa) = 13.85103 22.94192 18.39648
#
# Velocity S-wave (km/s) = 2.78929 3.58978 3.21455
# Velocity P-wave (km/s) = 4.25893 7.13889 5.87802
#
# Compressibility (1/GPa) = 0.07233775
#
# Stress axis : x y z
#
# Youngs Moduli (GPa) = 35.87675 54.70662 10.81829
#
# Poissons Ratio (x) = 0.91023 0.10702
# Poissons Ratio (y) = 0.59693 0.07134
# Poissons Ratio (z) = 0.35492 0.36076
#
# Static dielectric constant tensor:
#      x y z
#    x 1.621070 0.000000 0.000000 
#    y 0.000000 1.584430 0.000000 
#    z 0.000000 0.000000 1.608160 
# 
# From -- ./inp_files/4659.got.cif
#   From: 2010.05.17/outbox.cif.g08.bks.cpg/sg57_3_cif.got.tgz:4659.got - 2010.06.03 13:58:18.
