data_PCOD9435865
_publ_section_title
;
Structure prediction by ZEFSAII (Michael W. Deem and Ramdas Pophale) SiO2 
 PCOD9435865
Probable space group: P B C M
;
_chemical_formula_sum "Si O2"
_cell_formula_units_Z 48
_cell_length_a 10.511972
_cell_length_b 28.982852
_cell_length_c 8.740363
_cell_angle_alpha 90.000000
_cell_angle_beta 90.000000
_cell_angle_gamma 90.000000
_cell_volume 2662.899551
_symmetry_space_group_name_H-M "P B C M"
_symmetry_group_IT_number 57
_symmetry_cell_setting 'orthorhombic'
loop_
_space_group_symop_operation_xyz
x,y,z
-x,-y,1/2+z
x,1/2-y,-z
-x,1/2+y,1/2-z
-x,-y,-z
x,y,1/2-z
-x,1/2+y,z
x,1/2-y,1/2+z
loop_
_atom_site_type_symbol
_atom_site_label
_atom_site_fract_x
_atom_site_fract_y
_atom_site_fract_z
Si Si1 0.859935 0.299025 0.933581
Si Si2 0.995745 0.448923 0.066862
Si Si3 0.255146 0.395794 0.434086
Si Si4 0.246282 0.604108 0.434349
Si Si5 0.502696 0.948343 0.933558
Si Si6 0.856480 0.799202 0.066083
O O1 0.869398 0.295996 0.750000
O O2 0.770580 0.342074 0.975129
O O3 0.816545 0.250000 0.000000
O O4 0.001506 0.307642 0.000466
O O5 0.989198 0.450606 0.250000
O O6 0.124721 0.422070 0.024485
O O7 0.000000 0.500000 0.000000
O O8 0.873338 0.422651 0.003352
O O9 0.269679 0.398622 0.250000
O O10 0.373533 0.420754 0.511186
O O11 0.233089 0.342210 0.475319
O O12 0.239120 0.601019 0.250000
O O13 0.376977 0.579947 0.482906
O O14 0.502562 0.951312 0.750000
O O15 0.500000 0.000000 0.000000
O O16 0.865507 0.796838 0.250000
O O17 0.813705 0.750000 0.000000
#
# Coordination Sequence:
#
# PCOD9435865 Si02
#       6
#     8   8   8   8   8   8
#     4  10  19  33  56  84 115 147 183 229 282 337
#     4  11  22  36  56  83 113 144 186 238 286 337
#     4  10  22  39  57  82 116 149 188 235 282 336
#     4  10  22  39  57  82 114 148 188 234 282 337
#     4  11  24  41  60  82 113 153 195 236 286 343
#     4  10  19  34  56  85 117 148 185 231 283 337
#
# _framework density 18.025463999999999
#
# number of rings (size 3 to 8) (size 9 to 14) (size 15 to 20)
#    0.000    1.667    1.667    4.000    0.000    8.667 
#    0.000    0.833    0.000    4.000    0.000    0.000 
#    0.000    0.000    0.000    0.000    0.000    0.000 
#
# Total GULP energy -268126.248557 kJ/mol
# GULP energy per Si atom -5585.963512 kJ/mol
# Density = 1.798444 g / cm^3
# Si number density = 18.025464 Si / 1000 Ang^3
#
#
#
# Elastic Constant Matrix: (Units=GPa)
#
#
# Indices 1 2 3 4 5 6 
#
# 1 145.8173 101.4740 43.6850 0.0000 0.0000 0.0000
# 2 101.4740 204.1608 57.0257 0.0000 0.0000 0.0000
# 3 43.6850 57.0257 40.2962 0.0000 0.0000 0.0000
# 4 0.0000 0.0000 0.0000 31.7809 0.0000 0.0000
# 5 0.0000 0.0000 0.0000 0.0000 27.9435 0.0000
# 6 0.0000 0.0000 0.0000 0.0000 0.0000 31.2920
#
#
#
# Elastic Compliance Matrix: (Units=1/GPa)
#
#
# Indices 1 2 3 4 5 6 
#
# 1 0.011665 -0.003747 -0.007344 0.000000 0.000000 0.000000
# 2 -0.003747 0.009303 -0.009104 0.000000 0.000000 0.000000
# 3 -0.007344 -0.009104 0.045662 0.000000 0.000000 0.000000
# 4 0.000000 0.000000 0.000000 0.031465 0.000000 0.000000
# 5 0.000000 0.000000 0.000000 0.000000 0.035786 0.000000
# 6 0.000000 0.000000 0.000000 0.000000 0.000000 0.031957
#
#
# Mechanical properties :
#
#
# Convention : Reuss Voigt Hill
#
# Bulk Modulus (GPa) = 38.10881 88.29374 63.20128
# Shear Modulus (GPa) = 23.25846 30.74259 27.00053
#
# Velocity S-wave (km/s) = 3.59599 4.13426 3.87448
# Velocity P-wave (km/s) = 6.19912 8.47813 7.42656
#
# Compressibility (1/GPa) = 0.02624065
#
# Stress axis : x y z
#
# Youngs Moduli (GPa) = 85.72294 107.49054 21.90027
#
# Poissons Ratio (x) = 0.40273 0.16084
# Poissons Ratio (y) = 0.32118 0.19937
# Poissons Ratio (z) = 0.62958 0.97856
#
# Static dielectric constant tensor:
#      x y z
#    x 1.585100 0.000000 0.000000 
#    y 0.000000 1.624300 0.000000 
#    z 0.000000 0.000000 1.607840 
# 
# From -- ./inp_files/2084.got.cif
#   From: 2010.05.17/outbox.cif.g08.bks.cpg/sg57_2_cif.got.tgz:2084.got - 2010.06.03 13:58:18.
