data_PCOD9435891
_publ_section_title
;
Structure prediction by ZEFSAII (Michael W. Deem and Ramdas Pophale) SiO2 
 PCOD9435891
Probable space group: P B C M
;
_chemical_formula_sum "Si O2"
_cell_formula_units_Z 48
_cell_length_a 20.222406
_cell_length_b 14.346879
_cell_length_c 8.630754
_cell_angle_alpha 90.000000
_cell_angle_beta 90.000000
_cell_angle_gamma 90.000000
_cell_volume 2504.026952
_symmetry_space_group_name_H-M "P B C M"
_symmetry_group_IT_number 57
_symmetry_cell_setting 'orthorhombic'
loop_
_space_group_symop_operation_xyz
x,y,z
-x,-y,1/2+z
x,1/2-y,-z
-x,1/2+y,1/2-z
-x,-y,-z
x,y,1/2-z
-x,1/2+y,z
x,1/2-y,1/2+z
loop_
_atom_site_type_symbol
_atom_site_label
_atom_site_fract_x
_atom_site_fract_y
_atom_site_fract_z
Si Si1 0.472936 0.650373 0.435622
Si Si2 0.378337 0.349335 0.064928
Si Si3 0.031145 0.146132 0.064751
Si Si4 0.227709 0.647260 0.436373
Si Si5 0.901082 0.469466 0.563501
Si Si6 0.647786 0.039995 0.934611
O O1 0.448486 0.750000 0.500000
O O2 0.476473 0.651429 0.250000
O O3 0.546234 0.638845 0.504369
O O4 0.421675 0.573960 0.494089
O O5 0.378232 0.348749 0.250000
O O6 0.354985 0.250000 0.000000
O O7 0.338656 0.436774 0.998886
O O8 0.032133 0.150470 0.250000
O O9 0.960767 0.100155 0.015600
O O10 0.039081 0.250000 0.000000
O O11 0.084758 0.070694 0.007445
O O12 0.213401 0.750000 0.500000
O O13 0.233132 0.650205 0.250000
O O14 0.168143 0.577543 0.479136
O O15 0.295455 0.609269 0.508063
O O16 0.903675 0.477603 0.750000
O O17 0.643154 0.039358 0.750000
#
# Coordination Sequence:
#
# PCOD9435891 Si02
#       6
#     8   8   8   8   8   8
#     4  11  21  36  57  84 114 146 184 230 282 335
#     4  11  22  39  60  84 111 143 183 230 283 337
#     4  10  19  33  57  87 118 151 188 232 279 327
#     4  11  23  40  60  84 114 149 187 229 278 334
#     4   9  20  37  57  83 116 152 190 231 277 330
#     4  12  24  39  57  81 112 148 188 231 279 332
#
# _framework density 19.169122999999999
#
# number of rings (size 3 to 8) (size 9 to 14) (size 15 to 20)
#    0.000    1.333    0.000    8.000    0.000    2.000 
#    0.000    0.833    0.000    4.000    0.000    0.000 
#    0.000    0.000    0.000    0.000    0.000    0.000 
#
# Total GULP energy -268387.424479 kJ/mol
# GULP energy per Si atom -5591.404677 kJ/mol
# Density = 1.912549 g / cm^3
# Si number density = 19.169123 Si / 1000 Ang^3
#
#
#
# Elastic Constant Matrix: (Units=GPa)
#
#
# Indices 1 2 3 4 5 6 
#
# 1 24.2310 14.5807 14.8343 0.0000 0.0000 0.0000
# 2 14.5807 140.0514 32.5232 0.0000 0.0000 0.0000
# 3 14.8343 32.5232 115.5431 0.0000 0.0000 0.0000
# 4 0.0000 0.0000 0.0000 37.5706 0.0000 0.0000
# 5 0.0000 0.0000 0.0000 0.0000 23.3295 0.0000
# 6 0.0000 0.0000 0.0000 0.0000 0.0000 28.3797
#
#
#
# Elastic Compliance Matrix: (Units=1/GPa)
#
#
# Indices 1 2 3 4 5 6 
#
# 1 0.046513 -0.003697 -0.004931 0.000000 0.000000 0.000000
# 2 -0.003697 0.007934 -0.001758 0.000000 0.000000 0.000000
# 3 -0.004931 -0.001758 0.009783 0.000000 0.000000 0.000000
# 4 0.000000 0.000000 0.000000 0.026617 0.000000 0.000000
# 5 0.000000 0.000000 0.000000 0.000000 0.042864 0.000000
# 6 0.000000 0.000000 0.000000 0.000000 0.000000 0.035236
#
#
# Mechanical properties :
#
#
# Convention : Reuss Voigt Hill
#
# Bulk Modulus (GPa) = 23.01184 44.85575 33.93379
# Shear Modulus (GPa) = 24.48513 32.38176 28.43345
#
# Velocity S-wave (km/s) = 3.57784 4.11453 3.85553
# Velocity P-wave (km/s) = 5.39431 6.78404 6.12870
#
# Compressibility (1/GPa) = 0.04345589
#
# Stress axis : x y z
#
# Youngs Moduli (GPa) = 21.49933 126.04749 102.22006
#
# Poissons Ratio (x) = 0.46605 0.50404
# Poissons Ratio (y) = 0.07949 0.17975
# Poissons Ratio (z) = 0.10601 0.22165
#
# Static dielectric constant tensor:
#      x y z
#    x 1.654160 0.000000 0.000000 
#    y 0.000000 1.729340 0.000000 
#    z 0.000000 0.000000 1.635670 
# 
# From -- ./inp_files/7854.got.cif
#   From: 2010.05.17/outbox.cif.g08.bks.cpg/sg57_4_cif.got.tgz:7854.got - 2010.06.03 13:58:18.
