data_PCOD9435233
_publ_section_title
;
Structure prediction by ZEFSAII (Michael W. Deem and Ramdas Pophale) SiO2 
 PCOD9435233
Probable space group: P B C M
;
_chemical_formula_sum "Si O2"
_cell_formula_units_Z 64
_cell_length_a 15.126373
_cell_length_b 30.432137
_cell_length_c 8.668171
_cell_angle_alpha 90.000000
_cell_angle_beta 90.000000
_cell_angle_gamma 90.000000
_cell_volume 3990.200567
_symmetry_space_group_name_H-M "P B C M"
_symmetry_group_IT_number 57
_symmetry_cell_setting 'orthorhombic'
loop_
_space_group_symop_operation_xyz
x,y,z
-x,-y,1/2+z
x,1/2-y,-z
-x,1/2+y,1/2-z
-x,-y,-z
x,y,1/2-z
-x,1/2+y,z
x,1/2-y,1/2+z
loop_
_atom_site_type_symbol
_atom_site_label
_atom_site_fract_x
_atom_site_fract_y
_atom_site_fract_z
Si Si1 0.998063 0.202765 0.935384
Si Si2 0.794855 0.796235 0.064616
Si Si3 0.168852 0.962740 0.435851
Si Si4 0.960617 0.390308 0.934370
Si Si5 0.297691 0.114913 0.564160
Si Si6 0.545211 0.935676 0.934068
Si Si7 0.373339 0.529529 0.935547
Si Si8 0.871445 0.942923 0.435703
O O1 0.992073 0.202661 0.750000
O O2 0.102116 0.198597 0.980183
O O3 0.967329 0.250000 0.000000
O O4 0.952762 0.159364 0.003100
O O5 0.792877 0.795172 0.250000
O O6 0.738823 0.837947 0.012419
O O7 0.762610 0.750000 0.000000
O O8 0.163033 0.961890 0.250000
O O9 0.117731 0.921492 0.505875
O O10 0.272284 0.962864 0.482175
O O11 0.126249 0.008130 0.496434
O O12 0.963967 0.390131 0.750000
O O13 0.050213 0.412497 0.000493
O O14 0.303520 0.114762 0.750000
O O15 0.391555 0.102372 0.494650
O O16 0.222382 0.079284 0.521424
O O17 0.542379 0.935453 0.750000
O O18 0.593255 0.981160 0.985839
O O19 0.446160 0.937188 0.998869
O O20 0.376628 0.530776 0.750000
O O21 0.877998 0.944345 0.250000
#
# Coordination Sequence:
#
# PCOD9435233 Si02
#       8
#     8   8   8   8   8   8   8   8
#     4  10  19  35  54  76 102 132 170 213 260 303
#     4   9  18  32  49  72  99 131 166 205 251 299
#     4  11  22  37  53  72 101 136 177 219 256 304
#     4  12  24  36  51  74 102 139 178 213 257 307
#     4  10  19  32  50  72 102 136 169 205 251 302
#     4  10  19  31  50  75  99 127 166 207 247 297
#     4   9  19  34  50  71  98 130 165 206 254 298
#     4  11  21  35  51  71 102 140 177 214 252 300
#
# _framework density 16.039294000000002
#
# number of rings (size 3 to 8) (size 9 to 14) (size 15 to 20)
#    0.000    1.750    2.500    3.000    0.000    3.000 
#    0.000    0.000    0.000    0.000    0.000    0.875 
#    0.000    4.000    0.000    0.000    0.000    0.000 
#
# Total GULP energy -357272.653454 kJ/mol
# GULP energy per Si atom -5582.385210 kJ/mol
# Density = 1.600279 g / cm^3
# Si number density = 16.039294 Si / 1000 Ang^3
#
#
#
# Elastic Constant Matrix: (Units=GPa)
#
#
# Indices 1 2 3 4 5 6 
#
# 1 61.6667 38.0485 20.5767 0.0000 0.0000 0.0000
# 2 38.0485 131.8414 33.2412 0.0000 0.0000 0.0000
# 3 20.5767 33.2412 43.9695 0.0000 0.0000 0.0000
# 4 0.0000 0.0000 0.0000 27.9185 0.0000 0.0000
# 5 0.0000 0.0000 0.0000 0.0000 20.6487 0.0000
# 6 0.0000 0.0000 0.0000 0.0000 0.0000 23.0505
#
#
#
# Elastic Compliance Matrix: (Units=1/GPa)
#
#
# Indices 1 2 3 4 5 6 
#
# 1 0.021143 -0.004457 -0.006525 0.000000 0.000000 0.000000
# 2 -0.004457 0.010310 -0.005709 0.000000 0.000000 0.000000
# 3 -0.006525 -0.005709 0.030113 0.000000 0.000000 0.000000
# 4 0.000000 0.000000 0.000000 0.035818 0.000000 0.000000
# 5 0.000000 0.000000 0.000000 0.000000 0.048429 0.000000
# 6 0.000000 0.000000 0.000000 0.000000 0.000000 0.043383
#
#
# Mechanical properties :
#
#
# Convention : Reuss Voigt Hill
#
# Bulk Modulus (GPa) = 35.48059 46.80113 41.14086
# Shear Modulus (GPa) = 21.55408 24.03095 22.79251
#
# Velocity S-wave (km/s) = 3.66980 3.87493 3.77376
# Velocity P-wave (km/s) = 6.33448 7.01872 6.68536
#
# Compressibility (1/GPa) = 0.02818442
#
# Stress axis : x y z
#
# Youngs Moduli (GPa) = 47.29640 96.98888 33.20827
#
# Poissons Ratio (x) = 0.43224 0.21670
# Poissons Ratio (y) = 0.21078 0.18959
# Poissons Ratio (z) = 0.30863 0.55373
#
# Static dielectric constant tensor:
#      x y z
#    x 1.526690 0.000000 0.000000 
#    y 0.000000 1.532320 0.000000 
#    z 0.000000 0.000000 1.535080 
# 
# From -- ./inp_files/6032.got.cif
#   From: 2010.05.17/outbox.cif.g08.bks.cpg/sg57_4_cif.got.tgz:6032.got - 2010.06.03 13:58:18.
