data_PCOD9435560
_publ_section_title
;
Structure prediction by ZEFSAII (Michael W. Deem and Ramdas Pophale) SiO2 
 PCOD9435560
Probable space group: P B C M
;
_chemical_formula_sum "Si O2"
_cell_formula_units_Z 40
_cell_length_a 11.380173
_cell_length_b 9.578475
_cell_length_c 14.065396
_cell_angle_alpha 90.000000
_cell_angle_beta 90.000000
_cell_angle_gamma 90.000000
_cell_volume 1533.194308
_symmetry_space_group_name_H-M "P B C M"
_symmetry_group_IT_number 57
_symmetry_cell_setting 'orthorhombic'
loop_
_space_group_symop_operation_xyz
x,y,z
-x,-y,1/2+z
x,1/2-y,-z
-x,1/2+y,1/2-z
-x,-y,-z
x,y,1/2-z
-x,1/2+y,z
x,1/2-y,1/2+z
loop_
_atom_site_type_symbol
_atom_site_label
_atom_site_fract_x
_atom_site_fract_y
_atom_site_fract_z
Si Si1 0.112321 0.037511 0.643935
Si Si2 0.727225 0.795265 0.894564
Si Si3 0.133857 0.929202 0.064682
Si Si4 0.498943 0.526864 0.356872
Si Si5 0.642223 0.229030 0.865811
O O1 0.108094 0.973100 0.750000
O O2 0.212985 0.156387 0.646231
O O3 0.987260 0.107977 0.616760
O O4 0.125068 0.941074 0.549859
O O5 0.612562 0.870733 0.852506
O O6 0.825951 0.916072 0.900955
O O7 0.693294 0.750000 0.000000
O O8 0.236387 0.828490 0.097774
O O9 0.462104 0.492703 0.250000
O O10 0.393780 0.617187 0.398561
O O11 0.543517 0.382644 0.398625
O O12 0.642726 0.227447 0.750000
#
# Coordination Sequence:
#
# PCOD9435560 Si02
#       5
#     8   8   8   8   8
#     4  10  19  32  54  81 108 143 189 236 281 341
#     4   9  18  34  54  76 104 142 185 231 283 343
#     4   9  19  35  53  79 112 147 187 232 290 351
#     4   9  17  31  53  81 112 147 188 233 286 347
#     4   9  17  32  56  84 115 151 191 239 294 350
#
# _framework density 26.089324000000001
#
# number of rings (size 3 to 8) (size 9 to 14) (size 15 to 20)
#    0.000    2.800    0.000    1.200    0.000    2.400 
#    0.000   11.000    0.000   10.800    0.000   12.600 
#    0.000    0.000    0.000    0.000    0.000    0.000 
#
# Total GULP energy -223920.670853 kJ/mol
# GULP energy per Si atom -5598.016771 kJ/mol
# Density = 2.602994 g / cm^3
# Si number density = 26.089324 Si / 1000 Ang^3
#
#
#
# Elastic Constant Matrix: (Units=GPa)
#
#
# Indices 1 2 3 4 5 6 
#
# 1 98.7181 28.4305 11.7832 0.0000 0.0000 0.0000
# 2 28.4305 74.3460 4.8876 0.0000 0.0000 0.0000
# 3 11.7832 4.8876 167.3932 0.0000 0.0000 0.0000
# 4 0.0000 0.0000 0.0000 19.7845 0.0000 0.0000
# 5 0.0000 0.0000 0.0000 0.0000 2.3155 0.0000
# 6 0.0000 0.0000 0.0000 0.0000 0.0000 28.5905
#
#
#
# Elastic Compliance Matrix: (Units=1/GPa)
#
#
# Indices 1 2 3 4 5 6 
#
# 1 0.011460 -0.004338 -0.000680 0.000000 0.000000 0.000000
# 2 -0.004338 0.015118 -0.000136 0.000000 0.000000 0.000000
# 3 -0.000680 -0.000136 0.006026 0.000000 0.000000 0.000000
# 4 0.000000 0.000000 0.000000 0.050545 0.000000 0.000000
# 5 0.000000 0.000000 0.000000 0.000000 0.431870 0.000000
# 6 0.000000 0.000000 0.000000 0.000000 0.000000 0.034977
#
#
# Mechanical properties :
#
#
# Convention : Reuss Voigt Hill
#
# Bulk Modulus (GPa) = 44.84991 47.85111 46.35051
# Shear Modulus (GPa) = 8.80691 29.82850 19.31771
#
# Velocity S-wave (km/s) = 1.83929 3.38497 2.72406
# Velocity P-wave (km/s) = 4.66250 5.80159 5.26295
#
# Compressibility (1/GPa) = 0.02229659
#
# Stress axis : x y z
#
# Youngs Moduli (GPa) = 87.25776 66.14468 165.95300
#
# Poissons Ratio (x) = 0.28692 0.11286
# Poissons Ratio (y) = 0.37851 0.02258
# Poissons Ratio (z) = 0.05934 0.00900
#
# Static dielectric constant tensor:
#      x y z
#    x 2.020980 0.000000 0.000000 
#    y 0.000000 2.038920 0.000000 
#    z 0.000000 0.000000 2.021350 
# 
# From -- ./inp_files/17387.got.cif
#   From: 2010.05.17/outbox.cif.g08.bks.cpg/sg57_9_cif.got.tgz:17387.got - 2010.06.03 13:58:18.
