data_PCOD9435959
_publ_section_title
;
Structure prediction by ZEFSAII (Michael W. Deem and Ramdas Pophale) SiO2 
 PCOD9435959
Probable space group: P B C M
;
_chemical_formula_sum "Si O2"
_cell_formula_units_Z 64
_cell_length_a 20.532775
_cell_length_b 20.492733
_cell_length_c 8.757034
_cell_angle_alpha 90.000000
_cell_angle_beta 90.000000
_cell_angle_gamma 90.000000
_cell_volume 3684.720628
_symmetry_space_group_name_H-M "P B C M"
_symmetry_group_IT_number 57
_symmetry_cell_setting 'orthorhombic'
loop_
_space_group_symop_operation_xyz
x,y,z
-x,-y,1/2+z
x,1/2-y,-z
-x,1/2+y,1/2-z
-x,-y,-z
x,y,1/2-z
-x,1/2+y,z
x,1/2-y,1/2+z
loop_
_atom_site_type_symbol
_atom_site_label
_atom_site_fract_x
_atom_site_fract_y
_atom_site_fract_z
Si Si1 0.907315 0.679379 0.434090
Si Si2 0.305069 0.892897 0.567722
Si Si3 0.326662 0.045612 0.567562
Si Si4 0.811357 0.564849 0.066164
Si Si5 0.427677 0.820668 0.066802
Si Si6 0.528604 0.566974 0.565488
Si Si7 0.941510 0.321102 0.566754
Si Si8 0.833844 0.084488 0.566525
O O1 0.889100 0.750000 0.500000
O O2 0.904188 0.682556 0.250000
O O3 0.860059 0.621438 0.486994
O O4 0.982831 0.666413 0.475318
O O5 0.302197 0.884407 0.750000
O O6 0.358547 0.845705 0.496194
O O7 0.233612 0.885659 0.496176
O O8 0.326590 0.967785 0.535361
O O9 0.320881 0.053317 0.750000
O O10 0.262218 0.074297 0.491194
O O11 0.396096 0.073873 0.516985
O O12 0.811137 0.565333 0.250000
O O13 0.833605 0.491931 0.018648
O O14 0.425424 0.818247 0.250000
O O15 0.482489 0.873261 0.020175
O O16 0.442423 0.750000 0.000000
O O17 0.500000 0.500000 0.500000
O O18 0.528154 0.562459 0.750000
O O19 0.924089 0.250000 0.500000
O O20 0.936475 0.319616 0.750000
O O21 0.894160 0.375717 0.499946
O O22 0.834288 0.087315 0.750000
#
# Coordination Sequence:
#
# PCOD9435959 Si02
#       8
#     8   8   8   8   8   8   8   8
#     4   9  19  36  56  78 105 139 180 223 268 320
#     4  10  19  34  55  77 105 139 176 216 263 316
#     4   9  18  33  54  81 108 135 172 218 262 313
#     4   9  19  35  54  79 110 141 175 219 267 317
#     4  11  23  37  54  78 110 144 180 222 269 319
#     4  10  20  35  57  82 106 138 179 222 267 318
#     4  10  20  35  54  76 104 139 180 222 266 319
#     4  10  20  34  53  79 111 142 176 218 265 317
#
# _framework density 17.369024
#
# number of rings (size 3 to 8) (size 9 to 14) (size 15 to 20)
#    0.000    2.250    1.250    1.500    0.000    4.000 
#    0.000    3.125    0.000    3.000    0.000    0.000 
#    0.000    0.000    0.000    0.000    0.000    0.000 
#
# Total GULP energy -357156.115339 kJ/mol
# GULP energy per Si atom -5580.564302 kJ/mol
# Density = 1.732949 g / cm^3
# Si number density = 17.369024 Si / 1000 Ang^3
#
#
#
# Elastic Constant Matrix: (Units=GPa)
#
#
# Indices 1 2 3 4 5 6 
#
# 1 142.6648 103.3405 35.1649 0.0000 0.0000 0.0000
# 2 103.3405 128.9914 38.1542 0.0000 0.0000 0.0000
# 3 35.1649 38.1542 30.8021 0.0000 0.0000 0.0000
# 4 0.0000 0.0000 0.0000 25.9701 0.0000 0.0000
# 5 0.0000 0.0000 0.0000 0.0000 27.7769 0.0000
# 6 0.0000 0.0000 0.0000 0.0000 0.0000 29.7992
#
#
#
# Elastic Compliance Matrix: (Units=1/GPa)
#
#
# Indices 1 2 3 4 5 6 
#
# 1 0.017009 -0.012442 -0.004007 0.000000 0.000000 0.000000
# 2 -0.012442 0.021336 -0.012225 0.000000 0.000000 0.000000
# 3 -0.004007 -0.012225 0.052183 0.000000 0.000000 0.000000
# 4 0.000000 0.000000 0.000000 0.038506 0.000000 0.000000
# 5 0.000000 0.000000 0.000000 0.000000 0.036001 0.000000
# 6 0.000000 0.000000 0.000000 0.000000 0.000000 0.033558
#
#
# Mechanical properties :
#
#
# Convention : Reuss Voigt Hill
#
# Bulk Modulus (GPa) = 30.13788 72.86417 51.50102
# Shear Modulus (GPa) = 18.72658 25.09583 21.91120
#
# Velocity S-wave (km/s) = 3.28710 3.80526 3.55563
# Velocity P-wave (km/s) = 5.63878 7.83252 6.82438
#
# Compressibility (1/GPa) = 0.03318084
#
# Stress axis : x y z
#
# Youngs Moduli (GPa) = 58.79110 46.86939 19.16344
#
# Poissons Ratio (x) = 0.58313 0.07679
# Poissons Ratio (y) = 0.73146 0.23427
# Poissons Ratio (z) = 0.23559 0.57296
#
# Static dielectric constant tensor:
#      x y z
#    x 1.580680 0.000000 0.000000 
#    y 0.000000 1.570800 0.000000 
#    z 0.000000 0.000000 1.585150 
# 
# From -- ./inp_files/7165.got.cif
#   From: 2010.05.17/outbox.cif.g08.bks.cpg/sg57_4_cif.got.tgz:7165.got - 2010.06.03 13:58:18.
