data_PCOD9435226
_publ_section_title
;
Structure prediction by ZEFSAII (Michael W. Deem and Ramdas Pophale) SiO2 
 PCOD9435226
Probable space group: P B C M
;
_chemical_formula_sum "Si O2"
_cell_formula_units_Z 64
_cell_length_a 20.849401
_cell_length_b 19.941133
_cell_length_c 8.693177
_cell_angle_alpha 90.000000
_cell_angle_beta 90.000000
_cell_angle_gamma 90.000000
_cell_volume 3614.281166
_symmetry_space_group_name_H-M "P B C M"
_symmetry_group_IT_number 57
_symmetry_cell_setting 'orthorhombic'
loop_
_space_group_symop_operation_xyz
x,y,z
-x,-y,1/2+z
x,1/2-y,-z
-x,1/2+y,1/2-z
-x,-y,-z
x,y,1/2-z
-x,1/2+y,z
x,1/2-y,1/2+z
loop_
_atom_site_type_symbol
_atom_site_label
_atom_site_fract_x
_atom_site_fract_y
_atom_site_fract_z
Si Si1 0.848669 0.821970 0.566119
Si Si2 0.384788 0.174235 0.565209
Si Si3 0.767798 0.063546 0.936168
Si Si4 0.525953 0.174790 0.935081
Si Si5 0.729431 0.914879 0.564595
Si Si6 0.333537 0.825319 0.436114
Si Si7 0.909055 0.449802 0.566021
Si Si8 0.961901 0.597226 0.566113
O O1 0.830332 0.750000 0.500000
O O2 0.851651 0.819348 0.750000
O O3 0.794537 0.875822 0.521001
O O4 0.916722 0.845253 0.499961
O O5 0.376683 0.250000 0.500000
O O6 0.381835 0.178360 0.750000
O O7 0.456056 0.147771 0.518282
O O8 0.330137 0.124993 0.505111
O O9 0.771189 0.063861 0.750000
O O10 0.722539 0.124713 0.986306
O O11 0.736907 0.992202 0.982827
O O12 0.839589 0.067396 0.000397
O O13 0.525699 0.176583 0.750000
O O14 0.595571 0.146717 0.981693
O O15 0.526449 0.250000 0.000000
O O16 0.724091 0.912745 0.750000
O O17 0.326408 0.750000 0.500000
O O18 0.332018 0.821722 0.250000
O O19 0.908382 0.446036 0.750000
O O20 0.928558 0.526171 0.521451
O O21 0.966545 0.404516 0.500593
O O22 0.964276 0.600657 0.750000
#
# Coordination Sequence:
#
# PCOD9435226 Si02
#       8
#     8   8   8   8   8   8   8   8
#     4  11  22  36  54  77 109 145 182 223 267 317
#     4  10  19  31  50  74 104 139 180 224 266 312
#     4  10  20  36  56  79 107 142 178 218 266 321
#     4   8  15  29  49  74 100 133 174 217 263 315
#     4  10  21  35  51  74 106 143 182 220 263 317
#     4   9  18  34  57  80 105 135 172 218 270 323
#     4  10  20  34  56  82 107 136 172 218 263 311
#     4  10  20  35  56  80 105 136 176 218 262 312
#
# _framework density 17.707532
#
# number of rings (size 3 to 8) (size 9 to 14) (size 15 to 20)
#    0.000    2.250    1.250    1.875    0.000    4.500 
#    0.000    1.250    0.000    1.500    0.000    0.000 
#    0.000    0.000    0.000    0.000    0.000    0.000 
#
# Total GULP energy -356877.537946 kJ/mol
# GULP energy per Si atom -5576.211530 kJ/mol
# Density = 1.766723 g / cm^3
# Si number density = 17.707532 Si / 1000 Ang^3
#
#
#
# Elastic Constant Matrix: (Units=GPa)
#
#
# Indices 1 2 3 4 5 6 
#
# 1 173.1809 64.9511 34.1374 0.0000 0.0000 0.0000
# 2 64.9511 83.1901 21.7970 0.0000 0.0000 0.0000
# 3 34.1374 21.7970 17.0906 0.0000 0.0000 0.0000
# 4 0.0000 0.0000 0.0000 21.7866 0.0000 0.0000
# 5 0.0000 0.0000 0.0000 0.0000 22.8009 0.0000
# 6 0.0000 0.0000 0.0000 0.0000 0.0000 30.7040
#
#
#
# Elastic Compliance Matrix: (Units=1/GPa)
#
#
# Indices 1 2 3 4 5 6 
#
# 1 0.010340 -0.003997 -0.015555 0.000000 0.000000 0.000000
# 2 -0.003997 0.019599 -0.017012 0.000000 0.000000 0.000000
# 3 -0.015555 -0.017012 0.111278 0.000000 0.000000 0.000000
# 4 0.000000 0.000000 0.000000 0.045900 0.000000 0.000000
# 5 0.000000 0.000000 0.000000 0.000000 0.043858 0.000000
# 6 0.000000 0.000000 0.000000 0.000000 0.000000 0.032569
#
#
# Mechanical properties :
#
#
# Convention : Reuss Voigt Hill
#
# Bulk Modulus (GPa) = 14.68672 57.24806 35.96739
# Shear Modulus (GPa) = 13.91335 25.23004 19.57169
#
# Velocity S-wave (km/s) = 2.80613 3.77877 3.32817
# Velocity P-wave (km/s) = 4.33719 7.17208 5.92664
#
# Compressibility (1/GPa) = 0.06808871
#
# Stress axis : x y z
#
# Youngs Moduli (GPa) = 96.71582 51.02353 8.98650
#
# Poissons Ratio (x) = 0.20395 0.13978
# Poissons Ratio (y) = 0.38658 0.15288
# Poissons Ratio (z) = 1.50440 0.86801
#
# Static dielectric constant tensor:
#      x y z
#    x 1.620850 0.000000 0.000000 
#    y 0.000000 1.580910 0.000000 
#    z 0.000000 0.000000 1.597400 
# 
# From -- ./inp_files/7143.got.cif
#   From: 2010.05.17/outbox.cif.g08.bks.cpg/sg57_4_cif.got.tgz:7143.got - 2010.06.03 13:58:18.
