data_PCOD9435312
_publ_section_title
;
Structure prediction by ZEFSAII (Michael W. Deem and Ramdas Pophale) SiO2 
 PCOD9435312
Probable space group: P B C M
;
_chemical_formula_sum "Si O2"
_cell_formula_units_Z 52
_cell_length_a 16.832486
_cell_length_b 14.956523
_cell_length_c 9.596700
_cell_angle_alpha 90.000000
_cell_angle_beta 90.000000
_cell_angle_gamma 90.000000
_cell_volume 2416.021661
_symmetry_space_group_name_H-M "P B C M"
_symmetry_group_IT_number 57
_symmetry_cell_setting 'orthorhombic'
loop_
_space_group_symop_operation_xyz
x,y,z
-x,-y,1/2+z
x,1/2-y,-z
-x,1/2+y,1/2-z
-x,-y,-z
x,y,1/2-z
-x,1/2+y,z
x,1/2-y,1/2+z
loop_
_atom_site_type_symbol
_atom_site_label
_atom_site_fract_x
_atom_site_fract_y
_atom_site_fract_z
Si Si1 0.088347 0.585538 0.086767
Si Si2 0.775743 0.328724 0.407630
Si Si3 0.870999 0.731390 0.250000
Si Si4 0.542363 0.336523 0.589766
Si Si5 0.362477 0.527919 0.589172
Si Si6 0.908092 0.621707 0.506764
Si Si7 0.349907 0.167639 0.091977
O O1 0.101893 0.603105 0.250000
O O2 0.103946 0.480340 0.057665
O O3 0.146283 0.639381 0.986575
O O4 0.999338 0.616761 0.048741
O O5 0.740986 0.250000 0.500000
O O6 0.792300 0.300417 0.250000
O O7 0.712393 0.407588 0.405339
O O8 0.858621 0.655051 0.373771
O O9 0.893331 0.807372 0.370951
O O10 0.566072 0.250000 0.500000
O O11 0.570913 0.332535 0.750000
O O12 0.573928 0.424153 0.510293
O O13 0.446514 0.333140 0.593568
O O14 0.392817 0.517151 0.750000
O O15 0.332808 0.431426 0.538654
O O16 0.321499 0.180421 0.250000
O O17 0.321776 0.250000 0.000000
#
# Coordination Sequence:
#
# PCOD9435312 Si02
#       7
#     8   8   4   8   8   8   8
#     4  11  23  39  59  86 119 150 192 233 289 337
#     4  11  26  41  61  82 111 153 193 234 283 338
#     4  10  20  36  60  90 120 148 188 224 290 342
#     4  10  19  31  54  86 116 149 185 232 285 340
#     4  10  21  39  57  80 115 151 191 238 283 332
#     4  10  22  36  60  89 119 151 183 237 286 340
#     4   9  19  35  57  84 114 146 188 233 285 340
#
# _framework density 21.522984999999998
#
# number of rings (size 3 to 8) (size 9 to 14) (size 15 to 20)
#    0.000    1.846    1.538    1.846    4.308    3.692 
#    0.000    0.000    3.385    0.000    0.000    0.000 
#    0.000    0.000    0.000    0.000    0.000    0.000 
#
# Total GULP energy -289599.053008 kJ/mol
# GULP energy per Si atom -5569.212558 kJ/mol
# Density = 2.147400 g / cm^3
# Si number density = 21.522985 Si / 1000 Ang^3
#
#
#
# Elastic Constant Matrix: (Units=GPa)
#
#
# Indices 1 2 3 4 5 6 
#
# 1 31.5411 0.8546 16.1334 0.0000 0.0000 0.0000
# 2 0.8546 136.6286 55.5370 0.0000 0.0000 0.0000
# 3 16.1334 55.5370 182.1311 0.0000 0.0000 0.0000
# 4 0.0000 0.0000 0.0000 42.7495 0.0000 0.0000
# 5 0.0000 0.0000 0.0000 0.0000 27.1150 0.0000
# 6 0.0000 0.0000 0.0000 0.0000 0.0000 9.0876
#
#
#
# Elastic Compliance Matrix: (Units=1/GPa)
#
#
# Indices 1 2 3 4 5 6 
#
# 1 0.033362 0.001133 -0.003301 0.000000 0.000000 0.000000
# 2 0.001133 0.008393 -0.002660 0.000000 0.000000 0.000000
# 3 -0.003301 -0.002660 0.006594 0.000000 0.000000 0.000000
# 4 0.000000 0.000000 0.000000 0.023392 0.000000 0.000000
# 5 0.000000 0.000000 0.000000 0.000000 0.036880 0.000000
# 6 0.000000 0.000000 0.000000 0.000000 0.000000 0.110040
#
#
# Mechanical properties :
#
#
# Convention : Reuss Voigt Hill
#
# Bulk Modulus (GPa) = 25.84344 55.03897 40.44120
# Shear Modulus (GPa) = 20.72846 34.30880 27.51863
#
# Velocity S-wave (km/s) = 3.10673 3.99689 3.57959
# Velocity P-wave (km/s) = 4.99023 6.85039 5.99293
#
# Compressibility (1/GPa) = 0.03869455
#
# Stress axis : x y z
#
# Youngs Moduli (GPa) = 29.97397 119.14503 151.65422
#
# Poissons Ratio (x) = -0.13499 0.50057
# Poissons Ratio (y) = -0.03396 0.40335
# Poissons Ratio (z) = 0.09894 0.31689
#
# Static dielectric constant tensor:
#      x y z
#    x 1.832490 0.000000 0.000000 
#    y 0.000000 2.214150 0.000000 
#    z 0.000000 0.000000 1.738170 
# 
# From -- ./inp_files/7907.got.cif
#   From: 2010.05.17/outbox.cif.g08.bks.cpg/sg57_4_cif.got.tgz:7907.got - 2010.06.03 13:58:18.
