data_PCOD9435478
_publ_section_title
;
Structure prediction by ZEFSAII (Michael W. Deem and Ramdas Pophale) SiO2 
 PCOD9435478
Probable space group: P B C M
;
_chemical_formula_sum "Si O2"
_cell_formula_units_Z 56
_cell_length_a 19.867574
_cell_length_b 18.654563
_cell_length_c 8.594839
_cell_angle_alpha 90.000000
_cell_angle_beta 90.000000
_cell_angle_gamma 90.000000
_cell_volume 3185.427059
_symmetry_space_group_name_H-M "P B C M"
_symmetry_group_IT_number 57
_symmetry_cell_setting 'orthorhombic'
loop_
_space_group_symop_operation_xyz
x,y,z
-x,-y,1/2+z
x,1/2-y,-z
-x,1/2+y,1/2-z
-x,-y,-z
x,y,1/2-z
-x,1/2+y,z
x,1/2-y,1/2+z
loop_
_atom_site_type_symbol
_atom_site_label
_atom_site_fract_x
_atom_site_fract_y
_atom_site_fract_z
Si Si1 0.057975 0.668638 0.562270
Si Si2 0.088005 0.168804 0.938259
Si Si3 0.706546 0.453969 0.936669
Si Si4 0.771565 0.896731 0.438282
Si Si5 0.637261 0.672045 0.435449
Si Si6 0.569980 0.970279 0.063005
Si Si7 0.794970 0.169535 0.564116
O O1 0.057410 0.750000 0.500000
O O2 0.057986 0.669459 0.750000
O O3 0.131012 0.639642 0.512317
O O4 0.985289 0.637899 0.512750
O O5 0.088965 0.170941 0.750000
O O6 0.154054 0.126032 0.989318
O O7 0.092952 0.250000 0.000000
O O8 0.707794 0.447779 0.750000
O O9 0.752902 0.521969 0.981111
O O10 0.631164 0.476539 0.983244
O O11 0.736547 0.382428 0.007616
O O12 0.767336 0.891117 0.250000
O O13 0.712984 0.847054 0.508057
O O14 0.618365 0.750000 0.500000
O O15 0.635211 0.672452 0.250000
O O16 0.590298 0.607995 0.499173
O O17 0.568758 0.966610 0.250000
O O18 0.500000 0.000000 0.000000
O O19 0.787945 0.250000 0.500000
O O20 0.794641 0.172938 0.750000
#
# Coordination Sequence:
#
# PCOD9435478 Si02
#       7
#     8   8   8   8   8   8   8
#     4   8  15  27  43  65  92 125 165 210 256 301
#     4   9  16  27  44  66  95 130 169 211 256 301
#     4   9  19  35  53  74 102 132 163 199 246 303
#     4   9  18  32  49  71 101 137 172 210 256 306
#     4  11  21  34  54  80 110 143 178 216 254 298
#     4  10  21  39  61  84 110 140 171 205 251 307
#     4  10  19  32  52  74  97 127 168 215 259 302
#
# _framework density 17.58006
#
# number of rings (size 3 to 8) (size 9 to 14) (size 15 to 20)
#    0.000    2.571    0.000    3.429    0.000    5.143 
#    0.000    1.429    0.000    3.429    0.000    0.000 
#    0.000    0.000    0.000    0.000    0.000    0.000 
#
# Total GULP energy -312076.080324 kJ/mol
# GULP energy per Si atom -5572.787149 kJ/mol
# Density = 1.754005 g / cm^3
# Si number density = 17.580060 Si / 1000 Ang^3
#
#
#
# Elastic Constant Matrix: (Units=GPa)
#
#
# Indices 1 2 3 4 5 6 
#
# 1 159.4587 91.2708 40.3665 0.0000 0.0000 0.0000
# 2 91.2708 95.5471 32.4960 0.0000 0.0000 0.0000
# 3 40.3665 32.4960 37.0729 0.0000 0.0000 0.0000
# 4 0.0000 0.0000 0.0000 25.5306 0.0000 0.0000
# 5 0.0000 0.0000 0.0000 0.0000 11.8425 0.0000
# 6 0.0000 0.0000 0.0000 0.0000 0.0000 22.2743
#
#
#
# Elastic Compliance Matrix: (Units=1/GPa)
#
#
# Indices 1 2 3 4 5 6 
#
# 1 0.014507 -0.012090 -0.005199 0.000000 0.000000 0.000000
# 2 -0.012090 0.024987 -0.008738 0.000000 0.000000 0.000000
# 3 -0.005199 -0.008738 0.040294 0.000000 0.000000 0.000000
# 4 0.000000 0.000000 0.000000 0.039169 0.000000 0.000000
# 5 0.000000 0.000000 0.000000 0.000000 0.084441 0.000000
# 6 0.000000 0.000000 0.000000 0.000000 0.000000 0.044895
#
#
# Mechanical properties :
#
#
# Convention : Reuss Voigt Hill
#
# Bulk Modulus (GPa) = 36.05630 68.92728 52.49179
# Shear Modulus (GPa) = 16.15036 20.45916 18.30476
#
# Velocity S-wave (km/s) = 3.03425 3.41511 3.23030
# Velocity P-wave (km/s) = 5.72974 7.40563 6.62092
#
# Compressibility (1/GPa) = 0.02773440
#
# Stress axis : x y z
#
# Youngs Moduli (GPa) = 68.93106 40.02146 24.81774
#
# Poissons Ratio (x) = 0.48385 0.12902
# Poissons Ratio (y) = 0.83336 0.21686
# Poissons Ratio (z) = 0.35836 0.34971
#
# Static dielectric constant tensor:
#      x y z
#    x 1.628660 0.000000 0.000000 
#    y 0.000000 1.556750 0.000000 
#    z 0.000000 0.000000 1.590360 
# 
# From -- ./inp_files/8048.got.cif
#   From: 2010.05.17/outbox.cif.g08.bks.cpg/sg57_5_cif.got.tgz:8048.got - 2010.06.03 13:58:18.
