data_PCOD9435836
_publ_section_title
;
Structure prediction by ZEFSAII (Michael W. Deem and Ramdas Pophale) SiO2 
 PCOD9435836
Probable space group: P B C M
;
_chemical_formula_sum "Si O2"
_cell_formula_units_Z 40
_cell_length_a 16.885437
_cell_length_b 11.182591
_cell_length_c 10.038858
_cell_angle_alpha 90.000000
_cell_angle_beta 90.000000
_cell_angle_gamma 90.000000
_cell_volume 1895.566640
_symmetry_space_group_name_H-M "P B C M"
_symmetry_group_IT_number 57
_symmetry_cell_setting 'orthorhombic'
loop_
_space_group_symop_operation_xyz
x,y,z
-x,-y,1/2+z
x,1/2-y,-z
-x,1/2+y,1/2-z
-x,-y,-z
x,y,1/2-z
-x,1/2+y,z
x,1/2-y,1/2+z
loop_
_atom_site_type_symbol
_atom_site_label
_atom_site_fract_x
_atom_site_fract_y
_atom_site_fract_z
Si Si1 0.664664 0.382493 0.485476
Si Si2 0.093521 0.392521 0.900917
Si Si3 0.052729 0.654945 0.904716
Si Si4 0.276096 0.354970 0.903060
Si Si5 0.539750 0.158939 0.750000
Si Si6 0.434467 0.922171 0.750000
O O1 0.705694 0.250000 0.500000
O O2 0.707435 0.506784 0.444259
O O3 0.596334 0.359124 0.376937
O O4 0.621609 0.412488 0.622803
O O5 0.061196 0.370619 0.750000
O O6 0.180647 0.340287 0.905291
O O7 0.100941 0.534211 0.910378
O O8 0.032675 0.365162 0.021670
O O9 0.045346 0.685695 0.750000
O O10 0.092886 0.750000 0.000000
O O11 0.302693 0.338619 0.750000
O O12 0.308830 0.250000 0.000000
O O13 0.512928 0.298860 0.750000
O O14 0.478801 0.049006 0.750000
#
# Coordination Sequence:
#
# PCOD9435836 Si02
#       6
#     8   8   8   8   4   4
#     4  10  22  41  63  88 125 164 200 246 296 353
#     4   9  20  37  55  78 111 150 193 245 299 350
#     4  10  19  33  55  81 111 146 190 243 299 357
#     4  11  24  41  61  87 121 160 204 253 302 356
#     4  10  20  40  62  92 124 159 194 247 294 349
#     4  10  22  36  64  94 122 157 200 237 300 353
#
# _framework density 21.101869000000001
#
# number of rings (size 3 to 8) (size 9 to 14) (size 15 to 20)
#    0.000    2.000    1.000    1.800    1.400    5.600 
#    0.000    0.000    0.000    0.000    0.000    0.000 
#    0.000    0.000    0.000    0.000    0.000    0.000 
#
# Total GULP energy -222730.797336 kJ/mol
# GULP energy per Si atom -5568.269933 kJ/mol
# Density = 2.105384 g / cm^3
# Si number density = 21.101869 Si / 1000 Ang^3
#
#
#
# Elastic Constant Matrix: (Units=GPa)
#
#
# Indices 1 2 3 4 5 6 
#
# 1 28.3761 11.5395 19.9225 0.0000 0.0000 0.0000
# 2 11.5395 165.8586 50.8065 0.0000 0.0000 0.0000
# 3 19.9225 50.8065 191.9415 0.0000 0.0000 0.0000
# 4 0.0000 0.0000 0.0000 58.7216 0.0000 0.0000
# 5 0.0000 0.0000 0.0000 0.0000 3.7016 0.0000
# 6 0.0000 0.0000 0.0000 0.0000 0.0000 -84.5259
#
#
#
# Elastic Compliance Matrix: (Units=1/GPa)
#
#
# Indices 1 2 3 4 5 6 
#
# 1 0.038387 -0.001578 -0.003567 0.000000 0.000000 0.000000
# 2 -0.001578 0.006626 -0.001590 0.000000 0.000000 0.000000
# 3 -0.003567 -0.001590 0.006001 0.000000 0.000000 0.000000
# 4 0.000000 0.000000 0.000000 0.017030 0.000000 0.000000
# 5 0.000000 0.000000 0.000000 0.000000 0.270151 0.000000
# 6 0.000000 0.000000 0.000000 0.000000 0.000000 -0.011831
#
#
# Mechanical properties :
#
#
# Convention : Reuss Voigt Hill
#
# Bulk Modulus (GPa) = 26.63536 61.19037 43.91286
# Shear Modulus (GPa) = 14.19050 15.83998 15.01524
#
# Velocity S-wave (km/s) = 2.59603 2.74276 2.67040
# Velocity P-wave (km/s) = 4.65140 6.25227 5.51028
#
# Compressibility (1/GPa) = 0.03754408
#
# Stress axis : x y z
#
# Youngs Moduli (GPa) = 26.05064 150.91776 166.63854
#
# Poissons Ratio (x) = 0.23818 0.59433
# Poissons Ratio (y) = 0.04111 0.26497
# Poissons Ratio (z) = 0.09291 0.23998
#
# Static dielectric constant tensor:
#      x y z
#    x 1.756860 0.000000 0.000000 
#    y 0.000000 1.867640 0.000000 
#    z 0.000000 0.000000 1.726800 
# 
# From -- ./inp_files/6278.got.cif
#   From: 2010.05.17/outbox.cif.g08.bks.cpg/sg57_4_cif.got.tgz:6278.got - 2010.06.03 13:58:18.
