data_PCOD9435104
_publ_section_title
;
Structure prediction by ZEFSAII (Michael W. Deem and Ramdas Pophale) SiO2 
 PCOD9435104
Probable space group: P B C M
;
_chemical_formula_sum "Si O2"
_cell_formula_units_Z 48
_cell_length_a 16.280338
_cell_length_b 20.477617
_cell_length_c 7.450492
_cell_angle_alpha 90.000000
_cell_angle_beta 90.000000
_cell_angle_gamma 90.000000
_cell_volume 2483.863844
_symmetry_space_group_name_H-M "P B C M"
_symmetry_group_IT_number 57
_symmetry_cell_setting 'orthorhombic'
loop_
_space_group_symop_operation_xyz
x,y,z
-x,-y,1/2+z
x,1/2-y,-z
-x,1/2+y,1/2-z
-x,-y,-z
x,y,1/2-z
-x,1/2+y,z
x,1/2-y,1/2+z
loop_
_atom_site_type_symbol
_atom_site_label
_atom_site_fract_x
_atom_site_fract_y
_atom_site_fract_z
Si Si1 0.588339 0.174934 0.464794
Si Si2 0.929848 0.094588 0.457556
Si Si3 0.541808 0.930206 0.965199
Si Si4 0.100148 0.441974 0.530859
Si Si5 0.721671 0.542253 0.034929
Si Si6 0.753169 0.389184 0.534990
O O1 0.570214 0.250000 0.500000
O O2 0.591521 0.165408 0.250000
O O3 0.518148 0.126300 0.534577
O O4 0.678539 0.154630 0.534261
O O5 0.933719 0.115256 0.250000
O O6 0.845434 0.123044 0.537367
O O7 0.022340 0.100845 0.531756
O O8 0.914345 0.016246 0.465868
O O9 0.547084 0.922567 0.750000
O O10 0.635103 0.931450 0.035596
O O11 0.500000 0.000000 0.000000
O O12 0.097709 0.443725 0.750000
O O13 0.192752 0.425255 0.473350
O O14 0.720337 0.549005 0.250000
O O15 0.728830 0.464777 0.997057
O O16 0.758614 0.380960 0.750000
#
# Coordination Sequence:
#
# PCOD9435104 Si02
#       6
#     8   8   8   8   8   8
#     4  10  21  34  46  63  88 116 150 188 224 267
#     4   8  13  21  35  54  80 111 136 162 200 245
#     4  10  19  31  47  67  89 115 148 186 226 269
#     4   8  13  21  33  55  84 109 134 164 201 247
#     4   9  16  25  41  64  88 112 140 175 216 261
#     4   9  16  27  42  61  85 113 143 175 212 257
#
# _framework density 19.324731
#
# number of rings (size 3 to 8) (size 9 to 14) (size 15 to 20)
#    0.000    3.000    1.667    0.000    0.000    1.333 
#    0.000    0.000    0.000    0.000    0.000    1.167 
#    0.000    0.000    0.000    0.000    0.000    0.000 
#
# Total GULP energy -267251.218757 kJ/mol
# GULP energy per Si atom -5567.733724 kJ/mol
# Density = 1.928075 g / cm^3
# Si number density = 19.324731 Si / 1000 Ang^3
#
#
#
# Elastic Constant Matrix: (Units=GPa)
#
#
# Indices 1 2 3 4 5 6 
#
# 1 223.4641 65.5761 5.8341 0.0000 0.0000 0.0000
# 2 65.5761 68.8920 -5.6552 0.0000 0.0000 0.0000
# 3 5.8341 -5.6552 63.0054 0.0000 0.0000 0.0000
# 4 0.0000 0.0000 0.0000 12.3482 0.0000 0.0000
# 5 0.0000 0.0000 0.0000 0.0000 4.1059 0.0000
# 6 0.0000 0.0000 0.0000 0.0000 0.0000 12.7196
#
#
#
# Elastic Compliance Matrix: (Units=1/GPa)
#
#
# Indices 1 2 3 4 5 6 
#
# 1 0.006288 -0.006078 -0.001128 0.000000 0.000000 0.000000
# 2 -0.006078 0.020498 0.002403 0.000000 0.000000 0.000000
# 3 -0.001128 0.002403 0.016192 0.000000 0.000000 0.000000
# 4 0.000000 0.000000 0.000000 0.080984 0.000000 0.000000
# 5 0.000000 0.000000 0.000000 0.000000 0.243550 0.000000
# 6 0.000000 0.000000 0.000000 0.000000 0.000000 0.078619
#
#
# Mechanical properties :
#
#
# Convention : Reuss Voigt Hill
#
# Bulk Modulus (GPa) = 29.96553 54.09686 42.03120
# Shear Modulus (GPa) = 10.70984 25.14185 17.92584
#
# Velocity S-wave (km/s) = 2.35671 3.61088 3.04898
# Velocity P-wave (km/s) = 4.79014 6.74084 5.84741
#
# Compressibility (1/GPa) = 0.03337168
#
# Stress axis : x y z
#
# Youngs Moduli (GPa) = 159.03248 48.78502 61.75988
#
# Poissons Ratio (x) = 0.29651 0.06965
# Poissons Ratio (y) = 0.96659 -0.14839
# Poissons Ratio (z) = 0.17936 -0.11721
#
# Static dielectric constant tensor:
#      x y z
#    x 1.778490 0.000000 0.000000 
#    y 0.000000 1.604410 0.000000 
#    z 0.000000 0.000000 1.717700 
# 
# From -- ./inp_files/6724.got.cif
#   From: 2010.05.17/outbox.cif.g08.bks.cpg/sg57_4_cif.got.tgz:6724.got - 2010.06.03 13:58:18.
