data_PCOD9435876
_publ_section_title
;
Structure prediction by ZEFSAII (Michael W. Deem and Ramdas Pophale) SiO2 
 PCOD9435876
Probable space group: P B C M
;
_chemical_formula_sum "Si O2"
_cell_formula_units_Z 40
_cell_length_a 5.585074
_cell_length_b 24.005082
_cell_length_c 11.620936
_cell_angle_alpha 90.000000
_cell_angle_beta 90.000000
_cell_angle_gamma 90.000000
_cell_volume 1558.020741
_symmetry_space_group_name_H-M "P B C M"
_symmetry_group_IT_number 57
_symmetry_cell_setting 'orthorhombic'
loop_
_space_group_symop_operation_xyz
x,y,z
-x,-y,1/2+z
x,1/2-y,-z
-x,1/2+y,1/2-z
-x,-y,-z
x,y,1/2-z
-x,1/2+y,z
x,1/2-y,1/2+z
loop_
_atom_site_type_symbol
_atom_site_label
_atom_site_fract_x
_atom_site_fract_y
_atom_site_fract_z
Si Si1 0.683907 0.539685 0.435714
Si Si2 0.949825 0.267176 0.622159
Si Si3 0.434925 0.831524 0.123486
Si Si4 0.949169 0.068299 0.626932
Si Si5 0.451358 0.849593 0.624135
O O1 0.500000 0.500000 0.500000
O O2 0.844836 0.494352 0.370966
O O3 0.522565 0.585729 0.374207
O O4 0.862257 0.569768 0.524708
O O5 0.065984 0.250000 0.500000
O O6 0.061814 0.261285 0.750000
O O7 0.729920 0.223192 0.625356
O O8 0.824557 0.328261 0.616270
O O9 0.554475 0.833796 0.250000
O O10 0.262719 0.886340 0.115889
O O11 0.558863 0.830053 0.998365
O O12 0.068170 0.078764 0.750000
O O13 0.529381 0.828137 0.750000
#
# Coordination Sequence:
#
# PCOD9435876 Si02
#       5
#     8   8   8   8   8
#     4  11  22  38  55  85 123 161 205 252 311 361
#     4   8  15  28  52  81 111 147 191 240 296 355
#     4   9  17  34  57  86 118 152 197 248 300 363
#     4  10  22  38  58  86 121 162 209 255 304 367
#     4  10  19  33  56  87 117 155 200 247 305 363
#
# _framework density 25.673597999999998
#
# number of rings (size 3 to 8) (size 9 to 14) (size 15 to 20)
#    0.000    2.400    2.000    0.600    0.000    2.400 
#    0.000    1.000    0.000   10.800    0.000   39.200 
#    0.000    0.000    0.000    0.000    0.000    0.000 
#
# Total GULP energy -222942.800716 kJ/mol
# GULP energy per Si atom -5573.570018 kJ/mol
# Density = 2.561516 g / cm^3
# Si number density = 25.673598 Si / 1000 Ang^3
#
#
#
# Elastic Constant Matrix: (Units=GPa)
#
#
# Indices 1 2 3 4 5 6 
#
# 1 67.4433 59.3193 35.7684 0.0000 0.0000 0.0000
# 2 59.3193 117.5935 41.6679 0.0000 0.0000 0.0000
# 3 35.7684 41.6679 282.8491 0.0000 0.0000 0.0000
# 4 0.0000 0.0000 0.0000 21.6867 0.0000 0.0000
# 5 0.0000 0.0000 0.0000 0.0000 -63.1325 0.0000
# 6 0.0000 0.0000 0.0000 0.0000 0.0000 61.2913
#
#
#
# Elastic Compliance Matrix: (Units=1/GPa)
#
#
# Indices 1 2 3 4 5 6 
#
# 1 0.027242 -0.013211 -0.001499 0.000000 0.000000 0.000000
# 2 -0.013211 0.015379 -0.000595 0.000000 0.000000 0.000000
# 3 -0.001499 -0.000595 0.003813 0.000000 0.000000 0.000000
# 4 0.000000 0.000000 0.000000 0.046111 0.000000 0.000000
# 5 0.000000 0.000000 0.000000 0.000000 -0.015840 0.000000
# 6 0.000000 0.000000 0.000000 0.000000 0.000000 0.016316
#
#
# Mechanical properties :
#
#
# Convention : Reuss Voigt Hill
#
# Bulk Modulus (GPa) = 63.19490 82.37747 72.78618
# Shear Modulus (GPa) = 38.78869 26.04446 32.41657
#
# Velocity S-wave (km/s) = 3.89117 3.18849 3.55722
# Velocity P-wave (km/s) = 6.69749 6.76102 6.72933
#
# Compressibility (1/GPa) = 0.01582406
#
# Stress axis : x y z
#
# Youngs Moduli (GPa) = 36.70859 65.02477 262.28658
#
# Poissons Ratio (x) = 0.85903 0.39311
# Poissons Ratio (y) = 0.48495 0.15604
# Poissons Ratio (z) = 0.05502 0.03868
#
# Static dielectric constant tensor:
#      x y z
#    x 1.949180 0.000000 0.000000 
#    y 0.000000 1.973750 0.000000 
#    z 0.000000 0.000000 2.082000 
# 
# From -- ./inp_files/10940.got.cif
#   From: 2010.05.17/outbox.cif.g08.bks.cpg/sg57_6_cif.got.tgz:10940.got - 2010.06.03 13:58:18.
