data_PCOD9435403
_publ_section_title
;
Structure prediction by ZEFSAII (Michael W. Deem and Ramdas Pophale) SiO2 
 PCOD9435403
Probable space group: P B C M
;
_chemical_formula_sum "Si O2"
_cell_formula_units_Z 52
_cell_length_a 14.310836
_cell_length_b 18.141580
_cell_length_c 9.390123
_cell_angle_alpha 90.000000
_cell_angle_beta 90.000000
_cell_angle_gamma 90.000000
_cell_volume 2437.874778
_symmetry_space_group_name_H-M "P B C M"
_symmetry_group_IT_number 57
_symmetry_cell_setting 'orthorhombic'
loop_
_space_group_symop_operation_xyz
x,y,z
-x,-y,1/2+z
x,1/2-y,-z
-x,1/2+y,1/2-z
-x,-y,-z
x,y,1/2-z
-x,1/2+y,z
x,1/2-y,1/2+z
loop_
_atom_site_type_symbol
_atom_site_label
_atom_site_fract_x
_atom_site_fract_y
_atom_site_fract_z
Si Si1 0.522040 0.250000 0.000000
Si Si2 0.423679 0.103111 0.404163
Si Si3 0.092872 0.479492 0.416582
Si Si4 0.945853 0.678028 0.921008
Si Si5 0.377820 0.979425 0.909782
Si Si6 0.860629 0.360169 0.582283
Si Si7 0.688878 0.347240 0.407734
O O1 0.458703 0.186488 0.069811
O O2 0.596649 0.296551 0.092939
O O3 0.375257 0.098857 0.250000
O O4 0.516949 0.052462 0.393557
O O5 0.372208 0.063373 0.535365
O O6 0.070082 0.478181 0.250000
O O7 0.154914 0.551513 0.438212
O O8 0.000000 0.500000 0.500000
O O9 0.115508 0.395227 0.452820
O O10 0.953195 0.688155 0.750000
O O11 0.908588 0.750000 0.000000
O O12 0.048784 0.663108 0.990550
O O13 0.336024 0.971090 0.750000
O O14 0.342181 0.927278 0.036504
O O15 0.875956 0.345476 0.750000
O O16 0.766459 0.324897 0.523295
O O17 0.730199 0.349306 0.250000
#
# Coordination Sequence:
#
# PCOD9435403 Si02
#       7
#     4   8   8   8   8   8   8
#     4  10  22  34  50  74 108 140 170 202 254 302
#     4   9  17  31  50  71  95 127 167 209 247 293
#     4   8  16  31  50  70  95 130 172 214 252 296
#     4  10  19  32  50  75 104 134 171 213 259 305
#     4   9  18  32  50  71  96 128 167 208 250 295
#     4  10  20  34  51  72 102 139 175 212 256 306
#     4  11  22  35  51  74 105 140 174 208 251 307
#
# _framework density 21.330051999999998
#
# number of rings (size 3 to 8) (size 9 to 14) (size 15 to 20)
#    0.000    2.462    0.000    2.308    1.077    7.385 
#    0.000    0.000    0.000    0.000    2.000    0.000 
#    0.000    0.000    0.000    0.000    0.000    0.000 
#
# Total GULP energy -289550.464382 kJ/mol
# GULP energy per Si atom -5568.278161 kJ/mol
# Density = 2.128150 g / cm^3
# Si number density = 21.330052 Si / 1000 Ang^3
#
#
#
# Elastic Constant Matrix: (Units=GPa)
#
#
# Indices 1 2 3 4 5 6 
#
# 1 5.1708 7.9189 -2.3978 0.0000 0.0000 0.0000
# 2 7.9189 174.4313 52.5662 0.0000 0.0000 0.0000
# 3 -2.3978 52.5662 91.1311 0.0000 0.0000 0.0000
# 4 0.0000 0.0000 0.0000 9.4977 0.0000 0.0000
# 5 0.0000 0.0000 0.0000 0.0000 16.1463 0.0000
# 6 0.0000 0.0000 0.0000 0.0000 0.0000 9.0732
#
#
#
# Elastic Compliance Matrix: (Units=1/GPa)
#
#
# Indices 1 2 3 4 5 6 
#
# 1 0.221862 -0.014321 0.014098 0.000000 0.000000 0.000000
# 2 -0.014321 0.007864 -0.004913 0.000000 0.000000 0.000000
# 3 0.014098 -0.004913 0.014178 0.000000 0.000000 0.000000
# 4 0.000000 0.000000 0.000000 0.105288 0.000000 0.000000
# 5 0.000000 0.000000 0.000000 0.000000 0.061934 0.000000
# 6 0.000000 0.000000 0.000000 0.000000 0.000000 0.110215
#
#
# Mechanical properties :
#
#
# Convention : Reuss Voigt Hill
#
# Bulk Modulus (GPa) = 4.28022 42.98976 23.63499
# Shear Modulus (GPa) = 8.20359 21.11984 14.66171
#
# Velocity S-wave (km/s) = 1.96326 3.15007 2.62463
# Velocity P-wave (km/s) = 2.67398 5.78177 4.50439
#
# Compressibility (1/GPa) = 0.23363300
#
# Stress axis : x y z
#
# Youngs Moduli (GPa) = 4.50730 127.16948 70.53260
#
# Poissons Ratio (x) = 1.82117 -0.99437
# Poissons Ratio (y) = 0.06455 0.34650
# Poissons Ratio (z) = -0.06354 0.62474
#
# Static dielectric constant tensor:
#      x y z
#    x 1.791170 0.000000 0.000000 
#    y 0.000000 1.851580 0.000000 
#    z 0.000000 0.000000 1.783670 
# 
# From -- ./inp_files/6808.got.cif
#   From: 2010.05.17/outbox.cif.g08.bks.cpg/sg57_4_cif.got.tgz:6808.got - 2010.06.03 13:58:18.
