data_PCOD9435919
_publ_section_title
;
Structure prediction by ZEFSAII (Michael W. Deem and Ramdas Pophale) SiO2 
 PCOD9435919
Probable space group: P B C M
;
_chemical_formula_sum "Si O2"
_cell_formula_units_Z 48
_cell_length_a 16.802007
_cell_length_b 6.961173
_cell_length_c 14.844388
_cell_angle_alpha 90.000000
_cell_angle_beta 90.000000
_cell_angle_gamma 90.000000
_cell_volume 1736.224522
_symmetry_space_group_name_H-M "P B C M"
_symmetry_group_IT_number 57
_symmetry_cell_setting 'orthorhombic'
loop_
_space_group_symop_operation_xyz
x,y,z
-x,-y,1/2+z
x,1/2-y,-z
-x,1/2+y,1/2-z
-x,-y,-z
x,y,1/2-z
-x,1/2+y,z
x,1/2-y,1/2+z
loop_
_atom_site_type_symbol
_atom_site_label
_atom_site_fract_x
_atom_site_fract_y
_atom_site_fract_z
Si Si1 0.105920 0.363870 0.092651
Si Si2 0.728352 0.671209 0.858695
Si Si3 0.940709 0.470370 0.150433
Si Si4 0.608501 0.280619 0.353827
Si Si5 0.773796 0.387558 0.360825
Si Si6 0.563045 0.726446 0.145770
O O1 0.193485 0.445397 0.111028
O O2 0.025558 0.484377 0.102088
O O3 0.090980 0.186291 0.159406
O O4 0.105724 0.250000 0.000000
O O5 0.724916 0.660858 0.750000
O O6 0.636687 0.646710 0.891716
O O7 0.751237 0.891282 0.884548
O O8 0.952841 0.387839 0.250000
O O9 0.864869 0.360421 0.107478
O O10 0.612345 0.209732 0.250000
O O11 0.697854 0.261834 0.391042
O O12 0.524968 0.213668 0.395680
O O13 0.594664 0.510325 0.350376
O O14 0.775445 0.375975 0.250000
O O15 0.550463 0.790624 0.250000
#
# Coordination Sequence:
#
# PCOD9435919 Si02
#       6
#     8   8   8   8   8   8
#     4  11  21  33  50  74  99 126 161 205 248 288
#     4   8  14  27  44  63  88 123 158 187 226 284
#     4  10  19  34  53  72  95 128 164 199 240 294
#     4   8  12  20  34  57  84 109 139 182 228 269
#     4   7  12  23  41  61  84 115 151 184 225 281
#     4   8  13  21  37  59  85 113 144 183 229 274
#
# _framework density 27.646194000000001
#
# number of rings (size 3 to 8) (size 9 to 14) (size 15 to 20)
#    0.000    3.333    0.000    5.000    0.000    0.000 
#    0.000    1.667    0.000    6.000    0.000   11.667 
#    0.000    0.000    0.000    0.000    0.000    0.000 
#
# Total GULP energy -267886.035159 kJ/mol
# GULP energy per Si atom -5580.959066 kJ/mol
# Density = 2.758327 g / cm^3
# Si number density = 27.646194 Si / 1000 Ang^3
#
#
#
# Elastic Constant Matrix: (Units=GPa)
#
#
# Indices 1 2 3 4 5 6 
#
# 1 351.6911 60.2394 22.8234 0.0000 0.0000 0.0000
# 2 60.2394 66.5938 -7.3671 0.0000 0.0000 0.0000
# 3 22.8234 -7.3671 72.9997 0.0000 0.0000 0.0000
# 4 0.0000 0.0000 0.0000 -2.2612 0.0000 0.0000
# 5 0.0000 0.0000 0.0000 0.0000 8.2239 0.0000
# 6 0.0000 0.0000 0.0000 0.0000 0.0000 64.8909
#
#
#
# Elastic Compliance Matrix: (Units=1/GPa)
#
#
# Indices 1 2 3 4 5 6 
#
# 1 0.003507 -0.003331 -0.001433 0.000000 0.000000 0.000000
# 2 -0.003331 0.018349 0.002893 0.000000 0.000000 0.000000
# 3 -0.001433 0.002893 0.014439 0.000000 0.000000 0.000000
# 4 0.000000 0.000000 0.000000 -0.442250 0.000000 0.000000
# 5 0.000000 0.000000 0.000000 0.000000 0.121596 0.000000
# 6 0.000000 0.000000 0.000000 0.000000 0.000000 0.015410
#
#
# Mechanical properties :
#
#
# Convention : Reuss Voigt Hill
#
# Bulk Modulus (GPa) = 30.71764 71.40843 51.06304
# Shear Modulus (GPa) = -19.65739 41.87667 11.10964
#
# Velocity S-wave (km/s) = -2.66942 3.89618 2.00680
# Velocity P-wave (km/s) = 1.27831 6.79160 4.88671
#
# Compressibility (1/GPa) = 0.03255458
#
# Stress axis : x y z
#
# Youngs Moduli (GPa) = 285.15407 54.49775 69.25900
#
# Poissons Ratio (x) = 0.18152 0.09922
# Poissons Ratio (y) = 0.94977 -0.20038
# Poissons Ratio (z) = 0.40850 -0.15767
#
# Static dielectric constant tensor:
#      x y z
#    x 2.287210 0.000000 0.000000 
#    y 0.000000 2.243310 0.000000 
#    z 0.000000 0.000000 2.130660 
# 
# From -- ./inp_files/18416.got.cif
#   From: 2010.05.17/outbox.cif.g08.bks.cpg/sg57_10_cif.got.tgz:18416.got - 2010.06.03 13:58:18.
