data_PCOD9435884
_publ_section_title
;
Structure prediction by ZEFSAII (Michael W. Deem and Ramdas Pophale) SiO2 
 PCOD9435884
Probable space group: P B C M
;
_chemical_formula_sum "Si O2"
_cell_formula_units_Z 48
_cell_length_a 9.277452
_cell_length_b 13.554128
_cell_length_c 16.563962
_cell_angle_alpha 90.000000
_cell_angle_beta 90.000000
_cell_angle_gamma 90.000000
_cell_volume 2082.881316
_symmetry_space_group_name_H-M "P B C M"
_symmetry_group_IT_number 57
_symmetry_cell_setting 'orthorhombic'
loop_
_space_group_symop_operation_xyz
x,y,z
-x,-y,1/2+z
x,1/2-y,-z
-x,1/2+y,1/2-z
-x,-y,-z
x,y,1/2-z
-x,1/2+y,z
x,1/2-y,1/2+z
loop_
_atom_site_type_symbol
_atom_site_label
_atom_site_fract_x
_atom_site_fract_y
_atom_site_fract_z
Si Si1 0.925515 0.007410 0.413318
Si Si2 0.812310 0.713186 0.584950
Si Si3 0.495961 0.368020 0.084414
Si Si4 0.169569 0.248273 0.750000
Si Si5 0.459571 0.133593 0.250000
Si Si6 0.977848 0.055891 0.750000
Si Si7 0.374886 0.592803 0.086576
Si Si8 0.655054 0.406576 0.250000
O O1 0.856428 0.899143 0.408215
O O2 0.017660 0.008632 0.331331
O O3 0.797744 0.086510 0.409706
O O4 0.000000 0.000000 0.500000
O O5 0.865106 0.750000 0.500000
O O6 0.638683 0.706721 0.586006
O O7 0.873538 0.776178 0.659341
O O8 0.432646 0.479804 0.084335
O O9 0.587649 0.364297 0.167033
O O10 0.579395 0.360840 0.999250
O O11 0.337095 0.282001 0.750000
O O12 0.113130 0.133386 0.750000
O O13 0.556198 0.135626 0.331305
O O14 0.379433 0.025363 0.250000
O O15 0.825825 0.111562 0.750000
#
# Coordination Sequence:
#
# PCOD9435884 Si02
#       8
#     8   8   8   4   4   4   8   4
#     4  10  20  35  56  83 116 151 189 235 286 345
#     4  10  20  35  56  81 111 149 188 229 286 348
#     4   9  17  30  51  78 104 132 176 228 274 321
#     4  10  21  35  53  79 112 150 186 228 289 352
#     4  10  19  33  57  83 107 139 191 247 278 319
#     4  10  21  35  53  79 115 155 185 219 289 369
#     4   9  17  30  51  80 105 132 179 235 277 319
#     4  10  19  33  57  83 106 140 184 230 278 330
#
# _framework density 23.044999000000001
#
# number of rings (size 3 to 8) (size 9 to 14) (size 15 to 20)
#    0.000    2.333    0.000    3.000    0.000    8.000 
#    0.000    0.000    0.000   25.000    0.000    0.000 
#    0.000    0.000    0.000    0.000    0.000    0.000 
#
# Total GULP energy -267539.475241 kJ/mol
# GULP energy per Si atom -5573.739068 kJ/mol
# Density = 2.299255 g / cm^3
# Si number density = 23.044999 Si / 1000 Ang^3
#
#
#
# Elastic Constant Matrix: (Units=GPa)
#
#
# Indices 1 2 3 4 5 6 
#
# 1 62.6519 23.8812 44.1829 0.0000 0.0000 0.0000
# 2 23.8812 64.6216 19.2555 0.0000 0.0000 0.0000
# 3 44.1829 19.2555 248.4791 0.0000 0.0000 0.0000
# 4 0.0000 0.0000 0.0000 15.7659 0.0000 0.0000
# 5 0.0000 0.0000 0.0000 0.0000 19.4688 0.0000
# 6 0.0000 0.0000 0.0000 0.0000 0.0000 30.5429
#
#
#
# Elastic Compliance Matrix: (Units=1/GPa)
#
#
# Indices 1 2 3 4 5 6 
#
# 1 0.020761 -0.006728 -0.003170 0.000000 0.000000 0.000000
# 2 -0.006728 0.018021 -0.000200 0.000000 0.000000 0.000000
# 3 -0.003170 -0.000200 0.004604 0.000000 0.000000 0.000000
# 4 0.000000 0.000000 0.000000 0.063428 0.000000 0.000000
# 5 0.000000 0.000000 0.000000 0.000000 0.051364 0.000000
# 6 0.000000 0.000000 0.000000 0.000000 0.000000 0.032741
#
#
# Mechanical properties :
#
#
# Convention : Reuss Voigt Hill
#
# Bulk Modulus (GPa) = 43.12353 61.15463 52.13908
# Shear Modulus (GPa) = 22.84721 32.38440 27.61580
#
# Velocity S-wave (km/s) = 3.15209 3.75276 3.46546
# Velocity P-wave (km/s) = 5.65694 6.73589 6.21986
#
# Compressibility (1/GPa) = 0.02318920
#
# Stress axis : x y z
#
# Youngs Moduli (GPa) = 48.16641 55.49191 217.21588
#
# Poissons Ratio (x) = 0.37334 0.68864
# Poissons Ratio (y) = 0.32405 0.04348
# Poissons Ratio (z) = 0.15270 0.01111
#
# Static dielectric constant tensor:
#      x y z
#    x 1.912270 0.000000 0.000000 
#    y 0.000000 1.893290 0.000000 
#    z 0.000000 0.000000 1.941910 
# 
# From -- ./inp_files/16479.got.cif
#   From: 2010.05.17/outbox.cif.g08.bks.cpg/sg57_9_cif.got.tgz:16479.got - 2010.06.03 13:58:18.
