data_PCOD9435348
_publ_section_title
;
Structure prediction by ZEFSAII (Michael W. Deem and Ramdas Pophale) SiO2 
 PCOD9435348
Probable space group: P B C M
;
_chemical_formula_sum "Si O2"
_cell_formula_units_Z 48
_cell_length_a 9.357884
_cell_length_b 16.822499
_cell_length_c 17.221859
_cell_angle_alpha 90.000000
_cell_angle_beta 90.000000
_cell_angle_gamma 90.000000
_cell_volume 2711.116610
_symmetry_space_group_name_H-M "P B C M"
_symmetry_group_IT_number 57
_symmetry_cell_setting 'orthorhombic'
loop_
_space_group_symop_operation_xyz
x,y,z
-x,-y,1/2+z
x,1/2-y,-z
-x,1/2+y,1/2-z
-x,-y,-z
x,y,1/2-z
-x,1/2+y,z
x,1/2-y,1/2+z
loop_
_atom_site_type_symbol
_atom_site_label
_atom_site_fract_x
_atom_site_fract_y
_atom_site_fract_z
Si Si1 0.382984 0.709486 0.842953
Si Si2 0.112905 0.108150 0.156518
Si Si3 0.352292 0.288160 0.580199
Si Si4 0.710446 0.460015 0.158912
Si Si5 0.526043 0.050087 0.422549
Si Si6 0.217905 0.626353 0.343193
O O1 0.398311 0.702004 0.750000
O O2 0.539953 0.727616 0.876819
O O3 0.311543 0.628377 0.874276
O O4 0.282407 0.785682 0.857226
O O5 0.123090 0.107227 0.250000
O O6 0.218031 0.177372 0.127051
O O7 0.948300 0.121315 0.136154
O O8 0.172662 0.022502 0.127249
O O9 0.304137 0.250000 0.500000
O O10 0.451439 0.364969 0.565021
O O11 0.740950 0.450585 0.250000
O O12 0.561499 0.505599 0.145176
O O13 0.685658 0.066346 0.393397
O O14 0.500000 0.000000 0.500000
O O15 0.233569 0.610770 0.250000
#
# Coordination Sequence:
#
# PCOD9435348 Si02
#       6
#     8   8   8   8   8   8
#     4   9  17  31  52  75  97 127 171 218 258 300
#     4   9  18  34  54  75 102 136 172 212 262 316
#     4  10  19  32  49  72 101 133 169 208 252 305
#     4   9  17  31  51  74  99 129 169 217 261 303
#     4  10  19  32  50  72  99 131 168 208 252 304
#     4   9  18  34  55  76 100 134 173 211 256 308
#
# _framework density 17.704882000000001
#
# number of rings (size 3 to 8) (size 9 to 14) (size 15 to 20)
#    0.000    2.667    0.000    2.000    0.000    4.000 
#    0.000   11.667    0.000    8.000    0.000    0.000 
#    0.000    0.000    0.000    0.000    0.000    0.000 
#
# Total GULP energy -267329.583382 kJ/mol
# GULP energy per Si atom -5569.366320 kJ/mol
# Density = 1.766458 g / cm^3
# Si number density = 17.704882 Si / 1000 Ang^3
#
#
#
# Elastic Constant Matrix: (Units=GPa)
#
#
# Indices 1 2 3 4 5 6 
#
# 1 150.4916 49.8349 36.8302 0.0000 0.0000 0.0000
# 2 49.8349 86.2221 26.7677 0.0000 0.0000 0.0000
# 3 36.8302 26.7677 27.6821 0.0000 0.0000 0.0000
# 4 0.0000 0.0000 0.0000 28.5351 0.0000 0.0000
# 5 0.0000 0.0000 0.0000 0.0000 13.7443 0.0000
# 6 0.0000 0.0000 0.0000 0.0000 0.0000 10.2957
#
#
#
# Elastic Compliance Matrix: (Units=1/GPa)
#
#
# Indices 1 2 3 4 5 6 
#
# 1 0.010190 -0.002402 -0.011235 0.000000 0.000000 0.000000
# 2 -0.002402 0.017139 -0.013378 0.000000 0.000000 0.000000
# 3 -0.011235 -0.013378 0.064008 0.000000 0.000000 0.000000
# 4 0.000000 0.000000 0.000000 0.035045 0.000000 0.000000
# 5 0.000000 0.000000 0.000000 0.000000 0.072757 0.000000
# 6 0.000000 0.000000 0.000000 0.000000 0.000000 0.097128
#
#
# Mechanical properties :
#
#
# Convention : Reuss Voigt Hill
#
# Bulk Modulus (GPa) = 26.80362 54.58461 40.69412
# Shear Modulus (GPa) = 13.78432 20.57922 17.18177
#
# Velocity S-wave (km/s) = 2.79330 3.41302 3.11859
# Velocity P-wave (km/s) = 5.05720 6.81387 6.00017
#
# Compressibility (1/GPa) = 0.03730839
#
# Stress axis : x y z
#
# Youngs Moduli (GPa) = 98.13823 58.34578 15.62306
#
# Poissons Ratio (x) = 0.14012 0.17552
# Poissons Ratio (y) = 0.23569 0.20900
# Poissons Ratio (z) = 1.10257 0.78054
#
# Static dielectric constant tensor:
#      x y z
#    x 1.584670 0.000000 0.000000 
#    y 0.000000 1.629070 0.000000 
#    z 0.000000 0.000000 1.621630 
# 
# From -- ./inp_files/20974.got.cif
#   From: 2010.05.17/outbox.cif.g08.bks.cpg/sg57_11_cif.got.tgz:20974.got - 2010.06.03 13:58:18.
