data_PCOD9435328
_publ_section_title
;
Structure prediction by ZEFSAII (Michael W. Deem and Ramdas Pophale) SiO2 
 PCOD9435328
Probable space group: P B C M
;
_chemical_formula_sum "Si O2"
_cell_formula_units_Z 48
_cell_length_a 14.481158
_cell_length_b 7.922967
_cell_length_c 18.879921
_cell_angle_alpha 90.000000
_cell_angle_beta 90.000000
_cell_angle_gamma 90.000000
_cell_volume 2166.163890
_symmetry_space_group_name_H-M "P B C M"
_symmetry_group_IT_number 57
_symmetry_cell_setting 'orthorhombic'
loop_
_space_group_symop_operation_xyz
x,y,z
-x,-y,1/2+z
x,1/2-y,-z
-x,1/2+y,1/2-z
-x,-y,-z
x,y,1/2-z
-x,1/2+y,z
x,1/2-y,1/2+z
loop_
_atom_site_type_symbol
_atom_site_label
_atom_site_fract_x
_atom_site_fract_y
_atom_site_fract_z
Si Si1 0.355359 0.027720 0.163991
Si Si2 0.700338 0.509569 0.668796
Si Si3 0.035233 0.668005 0.422224
Si Si4 0.147597 0.186730 0.922124
Si Si5 0.816093 0.343603 0.330602
Si Si6 0.470488 0.697083 0.336215
O O1 0.346962 0.029035 0.250000
O O2 0.253223 0.983993 0.137515
O O3 0.423195 0.177372 0.141399
O O4 0.419540 0.868155 0.144610
O O5 0.691638 0.570881 0.750000
O O6 0.764507 0.636666 0.625037
O O7 0.755410 0.330080 0.671675
O O8 0.599920 0.451695 0.641570
O O9 0.035232 0.750000 0.500000
O O10 0.086520 0.487824 0.425588
O O11 0.095493 0.790274 0.373687
O O12 0.929165 0.677690 0.396017
O O13 0.176104 0.250000 0.000000
O O14 0.840219 0.388769 0.250000
O O15 0.471261 0.689843 0.250000
#
# Coordination Sequence:
#
# PCOD9435328 Si02
#       6
#     8   8   8   8   8   8
#     4   8  13  23  40  62  87 113 141 173 211 255
#     4   8  15  28  46  67  90 117 147 179 218 261
#     4  10  19  32  49  66  87 116 149 182 218 263
#     4  10  19  32  49  66  87 116 149 182 218 263
#     4   8  15  28  46  67  90 117 147 179 218 261
#     4   8  13  23  40  62  87 113 141 173 211 255
#
# _framework density 22.158988999999998
#
# number of rings (size 3 to 8) (size 9 to 14) (size 15 to 20)
#    0.000    3.333    0.000    4.000    0.000    0.667 
#    0.000    3.333    0.000    8.000    0.000    7.000 
#    0.000    0.000    0.000    0.000    0.000    0.000 
#
# Total GULP energy -267686.224586 kJ/mol
# GULP energy per Si atom -5576.796346 kJ/mol
# Density = 2.210855 g / cm^3
# Si number density = 22.158989 Si / 1000 Ang^3
#
#
#
# Elastic Constant Matrix: (Units=GPa)
#
#
# Indices 1 2 3 4 5 6 
#
# 1 120.6501 -0.2572 24.3985 0.0000 0.0000 0.0000
# 2 -0.2572 94.0876 -4.7951 0.0000 0.0000 0.0000
# 3 24.3985 -4.7951 14.5883 0.0000 0.0000 0.0000
# 4 0.0000 0.0000 0.0000 4.1813 0.0000 0.0000
# 5 0.0000 0.0000 0.0000 0.0000 -48.0503 0.0000
# 6 0.0000 0.0000 0.0000 0.0000 0.0000 35.1216
#
#
#
# Elastic Compliance Matrix: (Units=1/GPa)
#
#
# Indices 1 2 3 4 5 6 
#
# 1 0.012627 -0.001060 -0.021467 0.000000 0.000000 0.000000
# 2 -0.001060 0.010898 0.005354 0.000000 0.000000 0.000000
# 3 -0.021467 0.005354 0.106211 0.000000 0.000000 0.000000
# 4 0.000000 0.000000 0.000000 0.239163 0.000000 0.000000
# 5 0.000000 0.000000 0.000000 0.000000 -0.020812 0.000000
# 6 0.000000 0.000000 0.000000 0.000000 0.000000 0.028473
#
#
# Mechanical properties :
#
#
# Convention : Reuss Voigt Hill
#
# Bulk Modulus (GPa) = 10.48310 29.77984 20.13147
# Shear Modulus (GPa) = 11.29429 12.24917 11.77173
#
# Velocity S-wave (km/s) = 2.26009 2.35369 2.30736
# Velocity P-wave (km/s) = 3.39879 4.56671 4.02533
#
# Compressibility (1/GPa) = 0.09539167
#
# Stress axis : x y z
#
# Youngs Moduli (GPa) = 79.19325 91.75689 9.41526
#
# Poissons Ratio (x) = 0.09722 0.20212
# Poissons Ratio (y) = 0.08391 -0.05041
# Poissons Ratio (z) = 1.70004 -0.49129
#
# Static dielectric constant tensor:
#      x y z
#    x 1.839080 0.000000 0.000000 
#    y 0.000000 1.952100 0.000000 
#    z 0.000000 0.000000 1.759450 
# 
# From -- ./inp_files/25267.got.cif
#   From: 2010.05.17/outbox.cif.g08.bks.cpg/sg57_13_cif.got.tgz:25267.got - 2010.06.03 13:58:18.
