data_PCOD9435070
_publ_section_title
;
Structure prediction by ZEFSAII (Michael W. Deem and Ramdas Pophale) SiO2 
 PCOD9435070
Probable space group: P B C M
;
_chemical_formula_sum "Si O2"
_cell_formula_units_Z 40
_cell_length_a 12.196899
_cell_length_b 13.658380
_cell_length_c 14.151341
_cell_angle_alpha 90.000000
_cell_angle_beta 90.000000
_cell_angle_gamma 90.000000
_cell_volume 2357.470218
_symmetry_space_group_name_H-M "P B C M"
_symmetry_group_IT_number 57
_symmetry_cell_setting 'orthorhombic'
loop_
_space_group_symop_operation_xyz
x,y,z
-x,-y,1/2+z
x,1/2-y,-z
-x,1/2+y,1/2-z
-x,-y,-z
x,y,1/2-z
-x,1/2+y,z
x,1/2-y,1/2+z
loop_
_atom_site_type_symbol
_atom_site_label
_atom_site_fract_x
_atom_site_fract_y
_atom_site_fract_z
Si Si1 0.095164 0.578954 0.000038
Si Si2 0.345600 0.977149 0.990506
Si Si3 0.507205 0.594154 0.861868
Si Si4 0.870847 0.248168 0.641079
Si Si5 0.383036 0.793016 0.641795
O O1 0.215545 0.529781 0.998572
O O2 0.092643 0.652357 0.089598
O O3 0.085425 0.653189 0.912182
O O4 0.000000 0.500000 0.000000
O O5 0.385059 0.880725 0.932115
O O6 0.388099 0.065820 0.925291
O O7 0.409585 0.969803 0.089838
O O8 0.520190 0.574477 0.750000
O O9 0.470590 0.707176 0.871953
O O10 0.900097 0.249151 0.750000
O O11 0.738165 0.245816 0.631903
O O12 0.391591 0.829642 0.750000
#
# Coordination Sequence:
#
# PCOD9435070 Si02
#       5
#     8   8   8   8   8
#     4  10  20  34  56  81 107 141 180 223 271 322
#     4  10  19  32  51  77 105 136 173 219 265 309
#     4  10  19  30  50  77 104 134 172 215 262 313
#     4   9  18  34  55  79 104 135 181 225 264 317
#     4   9  16  30  53  76 100 132 172 215 259 311
#
# _framework density 16.967341000000001
#
# number of rings (size 3 to 8) (size 9 to 14) (size 15 to 20)
#    0.000    2.400    2.000    1.200    0.000    1.600 
#    0.000    0.000   17.600    0.000    0.000    0.000 
#    0.000    0.000    0.000    0.000    0.000    0.000 
#
# Total GULP energy -223038.711824 kJ/mol
# GULP energy per Si atom -5575.967796 kJ/mol
# Density = 1.692872 g / cm^3
# Si number density = 16.967341 Si / 1000 Ang^3
#
#
#
# Elastic Constant Matrix: (Units=GPa)
#
#
# Indices 1 2 3 4 5 6 
#
# 1 91.4710 48.4881 26.2595 0.0000 0.0000 0.0000
# 2 48.4881 62.6697 20.3687 0.0000 0.0000 0.0000
# 3 26.2595 20.3687 88.8675 0.0000 0.0000 0.0000
# 4 0.0000 0.0000 0.0000 15.5201 0.0000 0.0000
# 5 0.0000 0.0000 0.0000 0.0000 16.5386 0.0000
# 6 0.0000 0.0000 0.0000 0.0000 0.0000 35.4675
#
#
#
# Elastic Compliance Matrix: (Units=1/GPa)
#
#
# Indices 1 2 3 4 5 6 
#
# 1 0.019006 -0.013917 -0.002426 0.000000 0.000000 0.000000
# 2 -0.013917 0.027431 -0.002175 0.000000 0.000000 0.000000
# 3 -0.002426 -0.002175 0.012468 0.000000 0.000000 0.000000
# 4 0.000000 0.000000 0.000000 0.064432 0.000000 0.000000
# 5 0.000000 0.000000 0.000000 0.000000 0.060465 0.000000
# 6 0.000000 0.000000 0.000000 0.000000 0.000000 0.028195
#
#
# Mechanical properties :
#
#
# Convention : Reuss Voigt Hill
#
# Bulk Modulus (GPa) = 45.72631 48.13786 46.93209
# Shear Modulus (GPa) = 19.50665 23.36470 21.43568
#
# Velocity S-wave (km/s) = 3.39434 3.71487 3.55822
# Velocity P-wave (km/s) = 6.50924 6.84345 6.67844
#
# Compressibility (1/GPa) = 0.02186925
#
# Stress axis : x y z
#
# Youngs Moduli (GPa) = 52.61483 36.45519 80.20391
#
# Poissons Ratio (x) = 0.50733 0.19461
# Poissons Ratio (y) = 0.73222 0.17445
# Poissons Ratio (z) = 0.12766 0.07929
#
# Static dielectric constant tensor:
#      x y z
#    x 1.559330 0.000000 0.000000 
#    y 0.000000 1.582830 0.000000 
#    z 0.000000 0.000000 1.607770 
# 
# From -- ./inp_files/16114.got.cif
#   From: 2010.05.17/outbox.cif.g08.bks.cpg/sg57_9_cif.got.tgz:16114.got - 2010.06.03 13:58:18.
