data_PCOD9435557
_publ_section_title
;
Structure prediction by ZEFSAII (Michael W. Deem and Ramdas Pophale) SiO2 
 PCOD9435557
Probable space group: P B C M
;
_chemical_formula_sum "Si O2"
_cell_formula_units_Z 56
_cell_length_a 22.581035
_cell_length_b 15.354663
_cell_length_c 7.791701
_cell_angle_alpha 90.000000
_cell_angle_beta 90.000000
_cell_angle_gamma 90.000000
_cell_volume 2701.571160
_symmetry_space_group_name_H-M "P B C M"
_symmetry_group_IT_number 57
_symmetry_cell_setting 'orthorhombic'
loop_
_space_group_symop_operation_xyz
x,y,z
-x,-y,1/2+z
x,1/2-y,-z
-x,1/2+y,1/2-z
-x,-y,-z
x,y,1/2-z
-x,1/2+y,z
x,1/2-y,1/2+z
loop_
_atom_site_type_symbol
_atom_site_label
_atom_site_fract_x
_atom_site_fract_y
_atom_site_fract_z
Si Si1 0.908754 0.001019 0.043285
Si Si2 0.999916 0.852860 0.953881
Si Si3 0.688591 0.653914 0.545997
Si Si4 0.773727 0.999319 0.460482
Si Si5 0.436861 0.886519 0.947370
Si Si6 0.437343 0.415071 0.952713
Si Si7 0.309133 0.655735 0.456148
O O1 0.907281 0.007443 0.250000
O O2 0.841338 0.001119 0.980313
O O3 0.946401 0.084927 0.978370
O O4 0.942300 0.910483 0.002237
O O5 0.004196 0.854337 0.750000
O O6 0.999776 0.750000 0.000000
O O7 0.708128 0.750000 0.500000
O O8 0.683372 0.644165 0.750000
O O9 0.736472 0.584490 0.483742
O O10 0.623151 0.636451 0.473782
O O11 0.775059 0.999469 0.250000
O O12 0.734853 0.081407 0.517976
O O13 0.437665 0.856422 0.750000
O O14 0.502543 0.869015 0.019349
O O15 0.376160 0.852143 0.028215
O O16 0.431126 0.991598 0.955933
O O17 0.446425 0.432668 0.750000
O O18 0.285256 0.750000 0.500000
O O19 0.313448 0.645359 0.250000
#
# Coordination Sequence:
#
# PCOD9435557 Si02
#       7
#     8   8   8   8   8   8   8
#     4   9  19  37  60  85 112 149 191 227 271 322
#     4  10  20  35  58  88 121 151 182 225 270 320
#     4  11  22  38  57  78 107 144 184 231 283 334
#     4   9  19  38  60  78 109 150 184 225 276 326
#     4   9  18  34  54  76 106 142 178 226 283 336
#     4  10  19  32  54  81 105 136 182 229 281 339
#     4  10  20  36  55  78 107 142 182 223 275 328
#
# _framework density 20.728677000000001
#
# number of rings (size 3 to 8) (size 9 to 14) (size 15 to 20)
#    0.000    2.286    1.429    1.286    0.000    3.429 
#    0.000    5.000    0.000    0.000    0.000    0.000 
#    0.000    0.000    0.000    0.000    0.000    0.000 
#
# Total GULP energy -312434.037855 kJ/mol
# GULP energy per Si atom -5579.179247 kJ/mol
# Density = 2.068150 g / cm^3
# Si number density = 20.728677 Si / 1000 Ang^3
#
#
#
# Elastic Constant Matrix: (Units=GPa)
#
#
# Indices 1 2 3 4 5 6 
#
# 1 187.6263 102.2497 9.5659 0.0000 0.0000 0.0000
# 2 102.2497 166.1045 -3.6513 0.0000 0.0000 0.0000
# 3 9.5659 -3.6513 36.5145 0.0000 0.0000 0.0000
# 4 0.0000 0.0000 0.0000 15.7662 0.0000 0.0000
# 5 0.0000 0.0000 0.0000 0.0000 9.9335 0.0000
# 6 0.0000 0.0000 0.0000 0.0000 0.0000 -25.2773
#
#
#
# Elastic Compliance Matrix: (Units=1/GPa)
#
#
# Indices 1 2 3 4 5 6 
#
# 1 0.008274 -0.005153 -0.002683 0.000000 0.000000 0.000000
# 2 -0.005153 0.009242 0.002274 0.000000 0.000000 0.000000
# 3 -0.002683 0.002274 0.028317 0.000000 0.000000 0.000000
# 4 0.000000 0.000000 0.000000 0.063427 0.000000 0.000000
# 5 0.000000 0.000000 0.000000 0.000000 0.100670 0.000000
# 6 0.000000 0.000000 0.000000 0.000000 0.000000 -0.039561
#
#
# Mechanical properties :
#
#
# Convention : Reuss Voigt Hill
#
# Bulk Modulus (GPa) = 28.80997 67.39710 48.10353
# Shear Modulus (GPa) = 25.89846 18.88987 22.39417
#
# Velocity S-wave (km/s) = 3.53852 3.02204 3.29043
# Velocity P-wave (km/s) = 5.53386 6.69040 6.13943
#
# Compressibility (1/GPa) = 0.03471021
#
# Stress axis : x y z
#
# Youngs Moduli (GPa) = 120.85363 108.20101 35.31496
#
# Poissons Ratio (x) = 0.55751 0.09475
# Poissons Ratio (y) = 0.62270 -0.08031
# Poissons Ratio (z) = 0.32424 -0.24605
#
# Static dielectric constant tensor:
#      x y z
#    x 1.751640 0.000000 0.000000 
#    y 0.000000 1.725760 0.000000 
#    z 0.000000 0.000000 1.776380 
# 
# From -- ./inp_files/8204.got.cif
#   From: 2010.05.17/outbox.cif.g08.bks.cpg/sg57_5_cif.got.tgz:8204.got - 2010.06.03 13:58:18.
