data_PCOD9435071
_publ_section_title
;
Structure prediction by ZEFSAII (Michael W. Deem and Ramdas Pophale) SiO2 
 PCOD9435071
Probable space group: P B C M
;
_chemical_formula_sum "Si O2"
_cell_formula_units_Z 64
_cell_length_a 10.972167
_cell_length_b 34.290359
_cell_length_c 8.841646
_cell_angle_alpha 90.000000
_cell_angle_beta 90.000000
_cell_angle_gamma 90.000000
_cell_volume 3326.576872
_symmetry_space_group_name_H-M "P B C M"
_symmetry_group_IT_number 57
_symmetry_cell_setting 'orthorhombic'
loop_
_space_group_symop_operation_xyz
x,y,z
-x,-y,1/2+z
x,1/2-y,-z
-x,1/2+y,1/2-z
-x,-y,-z
x,y,1/2-z
-x,1/2+y,z
x,1/2-y,1/2+z
loop_
_atom_site_type_symbol
_atom_site_label
_atom_site_fract_x
_atom_site_fract_y
_atom_site_fract_z
Si Si1 0.787972 0.791942 0.069272
Si Si2 0.279350 0.370049 0.928416
Si Si3 0.557934 0.558825 0.424894
Si Si4 0.167456 0.870510 0.929166
Si Si5 0.187235 0.013363 0.070193
Si Si6 0.943060 0.582892 0.928849
Si Si7 0.077177 0.708024 0.930186
Si Si8 0.309507 0.935480 0.428963
O O1 0.771758 0.792347 0.250000
O O2 0.932655 0.798714 0.037711
O O3 0.757186 0.750000 0.000000
O O4 0.714374 0.826421 0.989343
O O5 0.246005 0.370896 0.750000
O O6 0.399331 0.396373 0.944741
O O7 0.174563 0.391542 0.024528
O O8 0.522157 0.552547 0.250000
O O9 0.680879 0.534258 0.451842
O O10 0.444554 0.549968 0.530695
O O11 0.166391 0.867361 0.750000
O O12 0.151357 0.827918 0.001175
O O13 0.282501 0.895299 0.986281
O O14 0.053956 0.896527 0.986566
O O15 0.160609 0.015143 0.250000
O O16 0.212404 0.968897 0.025122
O O17 0.089320 0.039078 0.981379
O O18 0.964152 0.584164 0.750000
O O19 0.091460 0.709073 0.750000
O O20 0.109239 0.750000 0.000000
O O21 0.297405 0.930160 0.250000
#
# Coordination Sequence:
#
# PCOD9435071 Si02
#       8
#     8   8   8   8   8   8   8   8
#     4  10  19  30  50  80 114 145 177 220 269 327
#     4  10  19  33  54  79 111 145 178 221 272 328
#     4   9  19  36  57  81 108 141 183 228 277 330
#     4  12  24  38  57  79 113 153 186 227 276 329
#     4   9  20  38  58  81 110 144 182 229 281 332
#     4  11  21  34  54  81 110 143 183 226 276 331
#     4  10  20  35  56  84 115 146 183 224 268 322
#     4  11  23  38  57  81 109 144 189 235 276 323
#
# _framework density 19.238996
#
# number of rings (size 3 to 8) (size 9 to 14) (size 15 to 20)
#    0.000    1.750    1.250    4.875    0.000    5.000 
#    0.000    0.000    0.000    0.750    0.000    1.750 
#    0.000    0.000    0.000    0.000    0.000    0.000 
#
# Total GULP energy -357617.017825 kJ/mol
# GULP energy per Si atom -5587.765904 kJ/mol
# Density = 1.919521 g / cm^3
# Si number density = 19.238996 Si / 1000 Ang^3
#
#
#
# Elastic Constant Matrix: (Units=GPa)
#
#
# Indices 1 2 3 4 5 6 
#
# 1 24.1648 3.3520 9.2684 0.0000 0.0000 0.0000
# 2 3.3520 129.7637 41.7557 0.0000 0.0000 0.0000
# 3 9.2684 41.7557 73.8051 0.0000 0.0000 0.0000
# 4 0.0000 0.0000 0.0000 31.9063 0.0000 0.0000
# 5 0.0000 0.0000 0.0000 0.0000 20.6285 0.0000
# 6 0.0000 0.0000 0.0000 0.0000 0.0000 20.1745
#
#
#
# Elastic Compliance Matrix: (Units=1/GPa)
#
#
# Indices 1 2 3 4 5 6 
#
# 1 0.043540 0.000776 -0.005907 0.000000 0.000000 0.000000
# 2 0.000776 0.009435 -0.005436 0.000000 0.000000 0.000000
# 3 -0.005907 -0.005436 0.017366 0.000000 0.000000 0.000000
# 4 0.000000 0.000000 0.000000 0.031342 0.000000 0.000000
# 5 0.000000 0.000000 0.000000 0.000000 0.048477 0.000000
# 6 0.000000 0.000000 0.000000 0.000000 0.000000 0.049568
#
#
# Mechanical properties :
#
#
# Convention : Reuss Voigt Hill
#
# Bulk Modulus (GPa) = 20.32140 37.38730 28.85435
# Shear Modulus (GPa) = 21.07360 26.09902 23.58631
#
# Velocity S-wave (km/s) = 3.31321 3.68716 3.50518
# Velocity P-wave (km/s) = 5.02215 6.13206 5.60465
#
# Compressibility (1/GPa) = 0.04920921
#
# Stress axis : x y z
#
# Youngs Moduli (GPa) = 22.96717 105.98463 57.58325
#
# Poissons Ratio (x) = -0.08224 0.34013
# Poissons Ratio (y) = -0.01782 0.31300
# Poissons Ratio (z) = 0.13566 0.57608
#
# Static dielectric constant tensor:
#      x y z
#    x 1.681360 0.000000 0.000000 
#    y 0.000000 1.698490 0.000000 
#    z 0.000000 0.000000 1.634940 
# 
# From -- ./inp_files/3790.got.cif
#   From: 2010.05.17/outbox.cif.g08.bks.cpg/sg57_2_cif.got.tgz:3790.got - 2010.06.03 13:58:18.
