data_PCOD9435398
_publ_section_title
;
Structure prediction by ZEFSAII (Michael W. Deem and Ramdas Pophale) SiO2 
 PCOD9435398
Probable space group: P B C M
;
_chemical_formula_sum "Si O2"
_cell_formula_units_Z 48
_cell_length_a 16.442639
_cell_length_b 18.778074
_cell_length_c 8.829373
_cell_angle_alpha 90.000000
_cell_angle_beta 90.000000
_cell_angle_gamma 90.000000
_cell_volume 2726.166848
_symmetry_space_group_name_H-M "P B C M"
_symmetry_group_IT_number 57
_symmetry_cell_setting 'orthorhombic'
loop_
_space_group_symop_operation_xyz
x,y,z
-x,-y,1/2+z
x,1/2-y,-z
-x,1/2+y,1/2-z
-x,-y,-z
x,y,1/2-z
-x,1/2+y,z
x,1/2-y,1/2+z
loop_
_atom_site_type_symbol
_atom_site_label
_atom_site_fract_x
_atom_site_fract_y
_atom_site_fract_z
Si Si1 0.009056 0.328407 0.568176
Si Si2 0.172736 0.088646 0.430962
Si Si3 0.662304 0.672082 0.069064
Si Si4 0.837388 0.172062 0.569975
Si Si5 0.746870 0.454086 0.928978
Si Si6 0.420257 0.035662 0.930767
O O1 0.023919 0.250000 0.500000
O O2 0.001369 0.323446 0.750000
O O3 0.085763 0.377830 0.531877
O O4 0.923993 0.353634 0.497608
O O5 0.175689 0.074704 0.250000
O O6 0.246080 0.143828 0.465356
O O7 0.192271 0.016687 0.519435
O O8 0.653490 0.674759 0.250000
O O9 0.649927 0.750000 0.000000
O O10 0.602240 0.612230 0.001817
O O11 0.823029 0.250000 0.500000
O O12 0.843017 0.177193 0.750000
O O13 0.769248 0.116676 0.518913
O O14 0.754104 0.441298 0.750000
O O15 0.657295 0.484783 0.961889
O O16 0.428093 0.042948 0.750000
O O17 0.500000 0.000000 0.000000
#
# Coordination Sequence:
#
# PCOD9435398 Si02
#       6
#     8   8   8   8   8   8
#     4  10  19  32  50  74 106 142 182 223 263 308
#     4   9  19  33  51  77 108 143 179 217 262 311
#     4  10  19  33  54  81 113 145 179 218 262 314
#     4  11  22  37  56  76 103 139 179 222 266 311
#     4  10  21  37  57  80 105 135 173 215 262 316
#     4  10  21  38  60  84 110 140 174 215 265 320
#
# _framework density 17.607139
#
# number of rings (size 3 to 8) (size 9 to 14) (size 15 to 20)
#    0.000    2.000    0.000    5.000    0.000    4.667 
#    0.000    0.833    0.000    4.000    0.000    0.000 
#    0.000    0.000    0.000    0.000    0.000    0.000 
#
# Total GULP energy -268059.200302 kJ/mol
# GULP energy per Si atom -5584.566673 kJ/mol
# Density = 1.756706 g / cm^3
# Si number density = 17.607139 Si / 1000 Ang^3
#
#
#
# Elastic Constant Matrix: (Units=GPa)
#
#
# Indices 1 2 3 4 5 6 
#
# 1 71.2347 68.7532 58.5520 0.0000 0.0000 0.0000
# 2 68.7532 115.2795 68.6278 0.0000 0.0000 0.0000
# 3 58.5520 68.6278 93.0513 0.0000 0.0000 0.0000
# 4 0.0000 0.0000 0.0000 36.8478 0.0000 0.0000
# 5 0.0000 0.0000 0.0000 0.0000 28.8095 0.0000
# 6 0.0000 0.0000 0.0000 0.0000 0.0000 24.6700
#
#
#
# Elastic Compliance Matrix: (Units=1/GPa)
#
#
# Indices 1 2 3 4 5 6 
#
# 1 0.041185 -0.016285 -0.013905 0.000000 0.000000 0.000000
# 2 -0.016285 0.021904 -0.005907 0.000000 0.000000 0.000000
# 3 -0.013905 -0.005907 0.023853 0.000000 0.000000 0.000000
# 4 0.000000 0.000000 0.000000 0.027139 0.000000 0.000000
# 5 0.000000 0.000000 0.000000 0.000000 0.034711 0.000000
# 6 0.000000 0.000000 0.000000 0.000000 0.000000 0.040535
#
#
# Mechanical properties :
#
#
# Convention : Reuss Voigt Hill
#
# Bulk Modulus (GPa) = 67.80803 74.60350 71.20577
# Shear Modulus (GPa) = 18.76614 23.64094 21.20354
#
# Velocity S-wave (km/s) = 3.26824 3.66825 3.47401
# Velocity P-wave (km/s) = 7.26892 7.77204 7.52468
#
# Compressibility (1/GPa) = 0.01474752
#
# Stress axis : x y z
#
# Youngs Moduli (GPa) = 24.28051 45.65386 41.92355
#
# Poissons Ratio (x) = 0.74349 0.58293
# Poissons Ratio (y) = 0.39542 0.24765
# Poissons Ratio (z) = 0.33761 0.26969
#
# Static dielectric constant tensor:
#      x y z
#    x 1.587410 0.000000 0.000000 
#    y 0.000000 1.575840 0.000000 
#    z 0.000000 0.000000 1.584760 
# 
# From -- ./inp_files/4652.got.cif
#   From: 2010.05.17/outbox.cif.g08.bks.cpg/sg57_3_cif.got.tgz:4652.got - 2010.06.03 13:58:18.
