data_PCOD9435785
_publ_section_title
;
Structure prediction by ZEFSAII (Michael W. Deem and Ramdas Pophale) SiO2 
 PCOD9435785
Probable space group: P B C M
;
_chemical_formula_sum "Si O2"
_cell_formula_units_Z 64
_cell_length_a 24.637245
_cell_length_b 14.191521
_cell_length_c 8.201817
_cell_angle_alpha 90.000000
_cell_angle_beta 90.000000
_cell_angle_gamma 90.000000
_cell_volume 2867.683130
_symmetry_space_group_name_H-M "P B C M"
_symmetry_group_IT_number 57
_symmetry_cell_setting 'orthorhombic'
loop_
_space_group_symop_operation_xyz
x,y,z
-x,-y,1/2+z
x,1/2-y,-z
-x,1/2+y,1/2-z
-x,-y,-z
x,y,1/2-z
-x,1/2+y,z
x,1/2-y,1/2+z
loop_
_atom_site_type_symbol
_atom_site_label
_atom_site_fract_x
_atom_site_fract_y
_atom_site_fract_z
Si Si1 0.527930 0.860176 0.944784
Si Si2 0.014328 0.105480 0.946667
Si Si3 0.101743 0.652793 0.554874
Si Si4 0.871047 0.558307 0.555967
Si Si5 0.707462 0.356914 0.053410
Si Si6 0.244065 0.044346 0.446668
Si Si7 0.413049 0.640742 0.944319
Si Si8 0.645588 0.641545 0.052764
O O1 0.527383 0.862619 0.750000
O O2 0.586694 0.898335 0.001717
O O3 0.527976 0.750000 0.000000
O O4 0.470507 0.901867 0.001715
O O5 0.014300 0.114912 0.750000
O O6 0.960660 0.156744 0.010436
O O7 0.076375 0.117411 0.005719
O O8 0.000000 0.000000 0.000000
O O9 0.129685 0.750000 0.500000
O O10 0.102125 0.651394 0.750000
O O11 0.123302 0.550981 0.499518
O O12 0.873812 0.559364 0.750000
O O13 0.811755 0.590496 0.502351
O O14 0.707181 0.356737 0.250000
O O15 0.750279 0.435204 0.998946
O O16 0.646847 0.390400 0.999357
O O17 0.716796 0.250000 0.000000
O O18 0.244053 0.045440 0.250000
O O19 0.299156 0.093779 0.505391
O O20 0.412848 0.635418 0.750000
O O21 0.414446 0.750000 0.000000
O O22 0.645702 0.635060 0.250000
O O23 0.647019 0.750000 0.000000
#
# Coordination Sequence:
#
# PCOD9435785 Si02
#       8
#     8   8   8   8   8   8   8   8
#     4   9  15  25  44  70  95 123 159 205 260 319
#     4   8  16  31  51  73  99 128 160 197 241 288
#     4  10  19  33  54  81 110 140 171 208 253 304
#     4  10  20  35  54  77 104 137 175 216 257 304
#     4   9  19  34  52  72 100 136 175 215 259 311
#     4  10  21  38  55  74 103 143 183 220 264 316
#     4   9  15  25  43  68  95 126 161 203 255 313
#     4   9  19  35  55  75  99 131 171 218 270 321
#
# _framework density 22.317668999999999
#
# number of rings (size 3 to 8) (size 9 to 14) (size 15 to 20)
#    0.000    2.750    0.000    2.250    0.000    3.500 
#    0.000    2.500    0.000    3.000    0.000    0.000 
#    0.000    0.000    0.000    0.000    0.000    0.000 
#
# Total GULP energy -356707.818674 kJ/mol
# GULP energy per Si atom -5573.559667 kJ/mol
# Density = 2.226687 g / cm^3
# Si number density = 22.317669 Si / 1000 Ang^3
#
#
#
# Elastic Constant Matrix: (Units=GPa)
#
#
# Indices 1 2 3 4 5 6 
#
# 1 139.3432 1.1380 9.6395 0.0000 0.0000 0.0000
# 2 1.1380 31.3971 -11.2611 0.0000 0.0000 0.0000
# 3 9.6395 -11.2611 19.3381 0.0000 0.0000 0.0000
# 4 0.0000 0.0000 0.0000 6.2322 0.0000 0.0000
# 5 0.0000 0.0000 0.0000 0.0000 42.5506 0.0000
# 6 0.0000 0.0000 0.0000 0.0000 0.0000 14.1914
#
#
#
# Elastic Compliance Matrix: (Units=1/GPa)
#
#
# Indices 1 2 3 4 5 6 
#
# 1 0.007536 -0.002048 -0.004949 0.000000 0.000000 0.000000
# 2 -0.002048 0.040815 0.024789 0.000000 0.000000 0.000000
# 3 -0.004949 0.024789 0.068614 0.000000 0.000000 0.000000
# 4 0.000000 0.000000 0.000000 0.160458 0.000000 0.000000
# 5 0.000000 0.000000 0.000000 0.000000 0.023501 0.000000
# 6 0.000000 0.000000 0.000000 0.000000 0.000000 0.070465
#
#
# Mechanical properties :
#
#
# Convention : Reuss Voigt Hill
#
# Bulk Modulus (GPa) = 6.55532 21.01234 13.78383
# Shear Modulus (GPa) = 12.93143 25.29897 19.11520
#
# Velocity S-wave (km/s) = 2.40974 3.37053 2.92979
# Velocity P-wave (km/s) = 3.26896 4.95811 4.19934
#
# Compressibility (1/GPa) = 0.15254774
#
# Stress axis : x y z
#
# Youngs Moduli (GPa) = 132.70326 24.50066 14.57436
#
# Poissons Ratio (x) = 0.05018 0.07213
# Poissons Ratio (y) = 0.27180 -0.36128
# Poissons Ratio (z) = 0.65675 -0.60734
#
# Static dielectric constant tensor:
#      x y z
#    x 1.900720 0.000000 0.000000 
#    y 0.000000 1.848680 0.000000 
#    z 0.000000 0.000000 1.770960 
# 
# From -- ./inp_files/9492.got.cif
#   From: 2010.05.17/outbox.cif.g08.bks.cpg/sg57_5_cif.got.tgz:9492.got - 2010.06.03 13:58:18.
