data_PCOD9435000
_publ_section_title
;
Structure prediction by ZEFSAII (Michael W. Deem and Ramdas Pophale) SiO2 
 PCOD9435000
Probable space group: P B C M
;
_chemical_formula_sum "Si O2"
_cell_formula_units_Z 56
_cell_length_a 14.877846
_cell_length_b 23.295096
_cell_length_c 9.113289
_cell_angle_alpha 90.000000
_cell_angle_beta 90.000000
_cell_angle_gamma 90.000000
_cell_volume 3158.491456
_symmetry_space_group_name_H-M "P B C M"
_symmetry_group_IT_number 57
_symmetry_cell_setting 'orthorhombic'
loop_
_space_group_symop_operation_xyz
x,y,z
-x,-y,1/2+z
x,1/2-y,-z
-x,1/2+y,1/2-z
-x,-y,-z
x,y,1/2-z
-x,1/2+y,z
x,1/2-y,1/2+z
loop_
_atom_site_type_symbol
_atom_site_label
_atom_site_fract_x
_atom_site_fract_y
_atom_site_fract_z
Si Si1 0.487448 0.117333 0.917724
Si Si2 0.266394 0.927460 0.925203
Si Si3 0.306493 0.192345 0.916943
Si Si4 0.792444 0.900980 0.582848
Si Si5 0.356397 0.687984 0.075081
Si Si6 0.612655 0.979700 0.581398
Si Si7 0.096379 0.495763 0.074976
O O1 0.520166 0.112118 0.750000
O O2 0.394535 0.152622 0.912743
O O3 0.555867 0.155104 0.013050
O O4 0.460394 0.055947 0.987453
O O5 0.279637 0.936800 0.750000
O O6 0.278780 0.859738 0.953533
O O7 0.169350 0.954367 0.964250
O O8 0.343761 0.963399 0.009474
O O9 0.278259 0.203227 0.750000
O O10 0.330602 0.250000 0.000000
O O11 0.231203 0.158948 0.008315
O O12 0.824648 0.895557 0.750000
O O13 0.699593 0.937246 0.586435
O O14 0.858803 0.937446 0.482782
O O15 0.364684 0.695884 0.250000
O O16 0.344956 0.750000 0.000000
O O17 0.583380 0.987443 0.750000
O O18 0.087241 0.495849 0.250000
O O19 0.000000 0.500000 0.000000
#
# Coordination Sequence:
#
# PCOD9435000 Si02
#       7
#     8   8   8   8   8   8   8
#     4  10  20  33  50  73 103 140 181 223 263 302
#     4   9  20  37  55  76 105 138 170 209 262 320
#     4  10  19  30  46  69  99 137 176 212 251 295
#     4   9  17  30  48  73 103 132 163 202 249 299
#     4  11  23  38  54  73 100 138 182 223 260 300
#     4   9  17  30  51  77 104 134 171 216 262 307
#     4  10  19  34  57  83 106 127 157 200 254 315
#
# _framework density 17.729983000000001
#
# number of rings (size 3 to 8) (size 9 to 14) (size 15 to 20)
#    0.000    2.286    0.000    3.000    0.000    8.571 
#    0.000    0.000    0.000    0.857    0.000    4.000 
#    0.000    0.000    0.000    0.000    0.000    0.000 
#
# Total GULP energy -312472.695099 kJ/mol
# GULP energy per Si atom -5579.869555 kJ/mol
# Density = 1.768963 g / cm^3
# Si number density = 17.729983 Si / 1000 Ang^3
#
#
#
# Elastic Constant Matrix: (Units=GPa)
#
#
# Indices 1 2 3 4 5 6 
#
# 1 82.5552 31.3945 42.3983 0.0000 0.0000 0.0000
# 2 31.3945 132.5933 67.2865 0.0000 0.0000 0.0000
# 3 42.3983 67.2865 109.6223 0.0000 0.0000 0.0000
# 4 0.0000 0.0000 0.0000 28.3450 0.0000 0.0000
# 5 0.0000 0.0000 0.0000 0.0000 25.6702 0.0000
# 6 0.0000 0.0000 0.0000 0.0000 0.0000 9.8029
#
#
#
# Elastic Compliance Matrix: (Units=1/GPa)
#
#
# Indices 1 2 3 4 5 6 
#
# 1 0.015188 -0.000893 -0.005326 0.000000 0.000000 0.000000
# 2 -0.000893 0.011006 -0.006410 0.000000 0.000000 0.000000
# 3 -0.005326 -0.006410 0.015117 0.000000 0.000000 0.000000
# 4 0.000000 0.000000 0.000000 0.035280 0.000000 0.000000
# 5 0.000000 0.000000 0.000000 0.000000 0.038956 0.000000
# 6 0.000000 0.000000 0.000000 0.000000 0.000000 0.102010
#
#
# Mechanical properties :
#
#
# Convention : Reuss Voigt Hill
#
# Bulk Modulus (GPa) = 62.29685 67.43660 64.86673
# Shear Modulus (GPa) = 20.14780 25.00975 22.57877
#
# Velocity S-wave (km/s) = 3.37466 3.75986 3.57246
# Velocity P-wave (km/s) = 7.09910 7.54762 7.32679
#
# Compressibility (1/GPa) = 0.01605218
#
# Stress axis : x y z
#
# Youngs Moduli (GPa) = 65.84107 90.85670 66.15211
#
# Poissons Ratio (x) = 0.08117 0.35232
# Poissons Ratio (y) = 0.05882 0.42405
# Poissons Ratio (z) = 0.35066 0.58241
#
# Static dielectric constant tensor:
#      x y z
#    x 1.607350 0.000000 0.000000 
#    y 0.000000 1.883180 0.000000 
#    z 0.000000 0.000000 1.605090 
# 
# From -- ./inp_files/5130.got.cif
#   From: 2010.05.17/outbox.cif.g08.bks.cpg/sg57_3_cif.got.tgz:5130.got - 2010.06.03 13:58:18.
