data_PCOD9435609
_publ_section_title
;
Structure prediction by ZEFSAII (Michael W. Deem and Ramdas Pophale) SiO2 
 PCOD9435609
Probable space group: P B C M
;
_chemical_formula_sum "Si O2"
_cell_formula_units_Z 64
_cell_length_a 15.420400
_cell_length_b 30.582931
_cell_length_c 8.802406
_cell_angle_alpha 90.000000
_cell_angle_beta 90.000000
_cell_angle_gamma 90.000000
_cell_volume 4151.223729
_symmetry_space_group_name_H-M "P B C M"
_symmetry_group_IT_number 57
_symmetry_cell_setting 'orthorhombic'
loop_
_space_group_symop_operation_xyz
x,y,z
-x,-y,1/2+z
x,1/2-y,-z
-x,1/2+y,1/2-z
-x,-y,-z
x,y,1/2-z
-x,1/2+y,z
x,1/2-y,1/2+z
loop_
_atom_site_type_symbol
_atom_site_label
_atom_site_fract_x
_atom_site_fract_y
_atom_site_fract_z
Si Si1 0.006691 0.296361 0.932606
Si Si2 0.789264 0.795947 0.931338
Si Si3 0.176413 0.959050 0.433163
Si Si4 0.959608 0.392430 0.933391
Si Si5 0.288969 0.117803 0.568131
Si Si6 0.555031 0.939090 0.067142
Si Si7 0.373512 0.529326 0.933208
Si Si8 0.862085 0.941611 0.566589
O O1 0.000877 0.293758 0.750000
O O2 0.961665 0.341571 0.982636
O O3 0.108788 0.301398 0.972345
O O4 0.976292 0.250000 0.000000
O O5 0.783857 0.795314 0.750000
O O6 0.760069 0.750000 0.000000
O O7 0.736519 0.836210 0.997072
O O8 0.173724 0.955884 0.250000
O O9 0.118925 0.920754 0.502497
O O10 0.277149 0.957693 0.482877
O O11 0.139008 0.007109 0.474380
O O12 0.956701 0.392772 0.750000
O O13 0.049657 0.416623 0.977301
O O14 0.283496 0.120048 0.750000
O O15 0.384856 0.101478 0.523855
O O16 0.219343 0.082532 0.508189
O O17 0.558366 0.943139 0.250000
O O18 0.453767 0.939225 0.023077
O O19 0.599319 0.982188 0.997418
O O20 0.371194 0.526335 0.750000
O O21 0.853252 0.938500 0.750000
#
# Coordination Sequence:
#
# PCOD9435609 Si02
#       8
#     8   8   8   8   8   8   8   8
#     4   9  18  32  49  68  90 119 152 191 235 278
#     4  10  19  33  50  69  96 125 158 194 237 286
#     4  10  20  31  47  68  92 127 167 200 237 279
#     4  10  20  33  47  65  94 128 159 195 239 278
#     4  11  20  29  46  72  98 126 161 195 235 283
#     4   9  18  30  46  69  94 121 156 194 233 279
#     4   9  17  31  48  66  92 123 156 197 238 275
#     4  10  19  33  46  63  95 132 165 196 231 276
#
# _framework density 15.41714
#
# number of rings (size 3 to 8) (size 9 to 14) (size 15 to 20)
#    0.000    2.250    2.500    1.125    0.000    3.000 
#    0.000    0.000    0.000    0.000    0.000    0.875 
#    0.000    2.000    0.000    0.000    0.000    0.000 
#
# Total GULP energy -356815.397272 kJ/mol
# GULP energy per Si atom -5575.240582 kJ/mol
# Density = 1.538205 g / cm^3
# Si number density = 15.417140 Si / 1000 Ang^3
#
#
#
# Elastic Constant Matrix: (Units=GPa)
#
#
# Indices 1 2 3 4 5 6 
#
# 1 89.6459 65.1153 19.9001 0.0000 0.0000 0.0000
# 2 65.1153 145.1918 30.0103 0.0000 0.0000 0.0000
# 3 19.9001 30.0103 9.9521 0.0000 0.0000 0.0000
# 4 0.0000 0.0000 0.0000 26.9110 0.0000 0.0000
# 5 0.0000 0.0000 0.0000 0.0000 15.1989 0.0000
# 6 0.0000 0.0000 0.0000 0.0000 0.0000 21.6660
#
#
#
# Elastic Compliance Matrix: (Units=1/GPa)
#
#
# Indices 1 2 3 4 5 6 
#
# 1 0.020252 -0.001891 -0.034794 0.000000 0.000000 0.000000
# 2 -0.001891 0.018459 -0.051882 0.000000 0.000000 0.000000
# 3 -0.034794 -0.051882 0.326502 0.000000 0.000000 0.000000
# 4 0.000000 0.000000 0.000000 0.037160 0.000000 0.000000
# 5 0.000000 0.000000 0.000000 0.000000 0.065794 0.000000
# 6 0.000000 0.000000 0.000000 0.000000 0.000000 0.046155
#
#
# Mechanical properties :
#
#
# Convention : Reuss Voigt Hill
#
# Bulk Modulus (GPa) = 5.31688 52.76014 29.03851
# Shear Modulus (GPa) = 6.62998 21.40612 14.01805
#
# Velocity S-wave (km/s) = 2.07599 3.73025 3.01865
# Velocity P-wave (km/s) = 3.03356 7.26974 5.57008
#
# Compressibility (1/GPa) = 0.18808014
#
# Stress axis : x y z
#
# Youngs Moduli (GPa) = 49.37702 54.17353 3.06277
#
# Poissons Ratio (x) = 0.10244 0.10657
# Poissons Ratio (y) = 0.09337 0.15890
# Poissons Ratio (z) = 1.71802 2.81062
#
# Static dielectric constant tensor:
#      x y z
#    x 1.514460 0.000000 0.000000 
#    y 0.000000 1.504340 0.000000 
#    z 0.000000 0.000000 1.514520 
# 
# From -- ./inp_files/6027.got.cif
#   From: 2010.05.17/outbox.cif.g08.bks.cpg/sg57_4_cif.got.tgz:6027.got - 2010.06.03 13:58:18.
