data_PCOD9435465
_publ_section_title
;
Structure prediction by ZEFSAII (Michael W. Deem and Ramdas Pophale) SiO2 
 PCOD9435465
Probable space group: P B C M
;
_chemical_formula_sum "Si O2"
_cell_formula_units_Z 40
_cell_length_a 14.650892
_cell_length_b 8.877955
_cell_length_c 17.054354
_cell_angle_alpha 90.000000
_cell_angle_beta 90.000000
_cell_angle_gamma 90.000000
_cell_volume 2218.259141
_symmetry_space_group_name_H-M "P B C M"
_symmetry_group_IT_number 57
_symmetry_cell_setting 'orthorhombic'
loop_
_space_group_symop_operation_xyz
x,y,z
-x,-y,1/2+z
x,1/2-y,-z
-x,1/2+y,1/2-z
-x,-y,-z
x,y,1/2-z
-x,1/2+y,z
x,1/2-y,1/2+z
loop_
_atom_site_type_symbol
_atom_site_label
_atom_site_fract_x
_atom_site_fract_y
_atom_site_fract_z
Si Si1 0.438792 0.669052 0.416069
Si Si2 0.198779 0.564506 0.840533
Si Si3 0.099786 0.429229 0.510547
Si Si4 0.235516 0.639118 0.075655
Si Si5 0.588826 0.476353 0.339261
O O1 0.446313 0.750000 0.500000
O O2 0.339980 0.588077 0.411758
O O3 0.524855 0.566692 0.398104
O O4 0.433457 0.801378 0.352199
O O5 0.174606 0.537115 0.750000
O O6 0.136618 0.481028 0.904128
O O7 0.201472 0.744885 0.857796
O O8 0.303189 0.509524 0.854184
O O9 0.097659 0.250000 0.500000
O O10 0.167688 0.506081 0.447119
O O11 0.000000 0.500000 0.500000
O O12 0.238533 0.750000 0.000000
O O13 0.569857 0.521644 0.250000
#
# Coordination Sequence:
#
# PCOD9435465 Si02
#       5
#     8   8   8   8   8
#     4  10  19  32  51  77 107 143 186 222 257 312
#     4   9  19  37  58  80 110 145 183 226 270 317
#     4  11  22  39  61  83 108 140 177 223 277 332
#     4   8  17  35  56  79 106 141 181 221 269 320
#     4  10  20  33  51  77 111 147 178 218 269 313
#
# _framework density 18.032157999999999
#
# number of rings (size 3 to 8) (size 9 to 14) (size 15 to 20)
#    0.000    2.400    0.000    4.200    0.000    3.200 
#    0.000    5.000    0.000    0.000    0.000    0.000 
#    0.000    0.000    0.000    0.000    0.000    0.000 
#
# Total GULP energy -223058.862981 kJ/mol
# GULP energy per Si atom -5576.471575 kJ/mol
# Density = 1.799112 g / cm^3
# Si number density = 18.032158 Si / 1000 Ang^3
#
#
#
# Elastic Constant Matrix: (Units=GPa)
#
#
# Indices 1 2 3 4 5 6 
#
# 1 127.0009 80.0214 66.7568 0.0000 0.0000 0.0000
# 2 80.0214 97.0768 45.0741 0.0000 0.0000 0.0000
# 3 66.7568 45.0741 89.6753 0.0000 0.0000 0.0000
# 4 0.0000 0.0000 0.0000 21.4111 0.0000 0.0000
# 5 0.0000 0.0000 0.0000 0.0000 13.4685 0.0000
# 6 0.0000 0.0000 0.0000 0.0000 0.0000 27.7275
#
#
#
# Elastic Compliance Matrix: (Units=1/GPa)
#
#
# Indices 1 2 3 4 5 6 
#
# 1 0.020707 -0.012929 -0.008916 0.000000 0.000000 0.000000
# 2 -0.012929 0.021510 -0.001187 0.000000 0.000000 0.000000
# 3 -0.008916 -0.001187 0.018385 0.000000 0.000000 0.000000
# 4 0.000000 0.000000 0.000000 0.046705 0.000000 0.000000
# 5 0.000000 0.000000 0.000000 0.000000 0.074248 0.000000
# 6 0.000000 0.000000 0.000000 0.000000 0.000000 0.036065
#
#
# Mechanical properties :
#
#
# Convention : Reuss Voigt Hill
#
# Bulk Modulus (GPa) = 68.78596 77.49530 73.14063
# Shear Modulus (GPa) = 18.61984 20.64814 19.63399
#
# Velocity S-wave (km/s) = 3.21688 3.38756 3.30333
# Velocity P-wave (km/s) = 7.21296 7.64004 7.42957
#
# Compressibility (1/GPa) = 0.01453785
#
# Stress axis : x y z
#
# Youngs Moduli (GPa) = 48.29219 46.49030 54.39083
#
# Poissons Ratio (x) = 0.60108 0.48497
# Poissons Ratio (y) = 0.62438 0.06455
# Poissons Ratio (z) = 0.43059 0.05517
#
# Static dielectric constant tensor:
#      x y z
#    x 1.618630 0.000000 0.000000 
#    y 0.000000 1.605690 0.000000 
#    z 0.000000 0.000000 1.647050 
# 
# From -- ./inp_files/22308.got.cif
#   From: 2010.05.17/outbox.cif.g08.bks.cpg/sg57_12_cif.got.tgz:22308.got - 2010.06.03 13:58:18.
