data_PCOD9435872
_publ_section_title
;
Structure prediction by ZEFSAII (Michael W. Deem and Ramdas Pophale) SiO2 
 PCOD9435872
Probable space group: P B C M
;
_chemical_formula_sum "Si O2"
_cell_formula_units_Z 64
_cell_length_a 14.209751
_cell_length_b 12.956827
_cell_length_c 17.510546
_cell_angle_alpha 90.000000
_cell_angle_beta 90.000000
_cell_angle_gamma 90.000000
_cell_volume 3223.924154
_symmetry_space_group_name_H-M "P B C M"
_symmetry_group_IT_number 57
_symmetry_cell_setting 'orthorhombic'
loop_
_space_group_symop_operation_xyz
x,y,z
-x,-y,1/2+z
x,1/2-y,-z
-x,1/2+y,1/2-z
-x,-y,-z
x,y,1/2-z
-x,1/2+y,z
x,1/2-y,1/2+z
loop_
_atom_site_type_symbol
_atom_site_label
_atom_site_fract_x
_atom_site_fract_y
_atom_site_fract_z
Si Si1 0.116081 0.426677 0.581429
Si Si2 0.346020 0.375474 0.336034
Si Si3 0.433548 0.168808 0.159173
Si Si4 0.138186 0.279085 0.334107
Si Si5 0.315572 0.523351 0.904299
Si Si6 0.919698 0.976878 0.402849
Si Si7 0.356554 0.745793 0.838065
Si Si8 0.280532 0.569493 0.417755
O O1 0.135301 0.309156 0.603317
O O2 0.207134 0.488811 0.613300
O O3 0.100415 0.442987 0.490841
O O4 0.014316 0.460426 0.611617
O O5 0.384197 0.386286 0.250000
O O6 0.395707 0.277770 0.373897
O O7 0.239186 0.334916 0.333137
O O8 0.346586 0.486040 0.374804
O O9 0.406583 0.159751 0.250000
O O10 0.544240 0.192643 0.156907
O O11 0.385539 0.072145 0.116310
O O12 0.120952 0.234701 0.250000
O O13 0.070604 0.372699 0.354697
O O14 0.353428 0.625916 0.862124
O O15 0.304951 0.549636 0.993989
O O16 0.824574 0.040751 0.389382
O O17 0.325777 0.753152 0.750000
O O18 0.293889 0.812651 0.894954
#
# Coordination Sequence:
#
# PCOD9435872 Si02
#       8
#     8   8   8   8   8   8   8   8
#     4  10  20  38  62  85 117 161 200 243 294 359
#     4   9  18  36  60  85 115 154 198 244 294 355
#     4  10  22  40  62  87 116 157 203 246 298 364
#     4  10  19  33  56  86 116 148 195 253 298 340
#     4  11  23  41  63  91 121 152 206 258 301 349
#     4   9  21  38  59  86 120 161 200 236 295 366
#     4  11  25  42  62  85 121 167 200 241 306 375
#     4  10  22  40  61  89 123 157 198 250 301 353
#
# _framework density 19.851583999999999
#
# number of rings (size 3 to 8) (size 9 to 14) (size 15 to 20)
#    0.000    2.000    1.250    1.500    1.750    3.500 
#    2.250    5.000    0.000    0.000    0.000    0.000 
#    0.000    0.000    0.000    0.000    0.000    0.000 
#
# Total GULP energy -356430.845352 kJ/mol
# GULP energy per Si atom -5569.231959 kJ/mol
# Density = 1.980640 g / cm^3
# Si number density = 19.851584 Si / 1000 Ang^3
#
#
#
# Elastic Constant Matrix: (Units=GPa)
#
#
# Indices 1 2 3 4 5 6 
#
# 1 48.3243 12.1473 12.0775 0.0000 0.0000 0.0000
# 2 12.1473 64.5336 8.3835 0.0000 0.0000 0.0000
# 3 12.0775 8.3835 22.1790 0.0000 0.0000 0.0000
# 4 0.0000 0.0000 0.0000 29.5785 0.0000 0.0000
# 5 0.0000 0.0000 0.0000 0.0000 15.5272 0.0000
# 6 0.0000 0.0000 0.0000 0.0000 0.0000 15.9638
#
#
#
# Elastic Compliance Matrix: (Units=1/GPa)
#
#
# Indices 1 2 3 4 5 6 
#
# 1 0.024503 -0.003028 -0.012199 0.000000 0.000000 0.000000
# 2 -0.003028 0.016670 -0.004653 0.000000 0.000000 0.000000
# 3 -0.012199 -0.004653 0.053489 0.000000 0.000000 0.000000
# 4 0.000000 0.000000 0.000000 0.033808 0.000000 0.000000
# 5 0.000000 0.000000 0.000000 0.000000 0.064403 0.000000
# 6 0.000000 0.000000 0.000000 0.000000 0.000000 0.062642
#
#
# Mechanical properties :
#
#
# Convention : Reuss Voigt Hill
#
# Bulk Modulus (GPa) = 18.21335 22.25039 20.23187
# Shear Modulus (GPa) = 15.94513 19.04247 17.49380
#
# Velocity S-wave (km/s) = 2.83718 3.10052 2.97177
# Velocity P-wave (km/s) = 4.46402 4.90412 4.68923
#
# Compressibility (1/GPa) = 0.05490477
#
# Stress axis : x y z
#
# Youngs Moduli (GPa) = 40.81065 59.98763 18.69532
#
# Poissons Ratio (x) = 0.18162 0.22806
# Poissons Ratio (y) = 0.12356 0.08698
# Poissons Ratio (z) = 0.49785 0.27910
#
# Static dielectric constant tensor:
#      x y z
#    x 1.765650 0.000000 0.000000 
#    y 0.000000 1.683290 0.000000 
#    z 0.000000 0.000000 1.734620 
# 
# From -- ./inp_files/22626.got.cif
#   From: 2010.05.17/outbox.cif.g08.bks.cpg/sg57_12_cif.got.tgz:22626.got - 2010.06.03 13:58:18.
