data_PCOD9435324
_publ_section_title
;
Structure prediction by ZEFSAII (Michael W. Deem and Ramdas Pophale) SiO2 
 PCOD9435324
Probable space group: P B C M
;
_chemical_formula_sum "Si O2"
_cell_formula_units_Z 48
_cell_length_a 13.431814
_cell_length_b 23.860190
_cell_length_c 7.461388
_cell_angle_alpha 90.000000
_cell_angle_beta 90.000000
_cell_angle_gamma 90.000000
_cell_volume 2391.267664
_symmetry_space_group_name_H-M "P B C M"
_symmetry_group_IT_number 57
_symmetry_cell_setting 'orthorhombic'
loop_
_space_group_symop_operation_xyz
x,y,z
-x,-y,1/2+z
x,1/2-y,-z
-x,1/2+y,1/2-z
-x,-y,-z
x,y,1/2-z
-x,1/2+y,z
x,1/2-y,1/2+z
loop_
_atom_site_type_symbol
_atom_site_label
_atom_site_fract_x
_atom_site_fract_y
_atom_site_fract_z
Si Si1 0.193935 0.616704 0.467441
Si Si2 0.000840 0.815785 0.964650
Si Si3 0.615190 0.935853 0.966155
Si Si4 0.804601 0.622698 0.049200
Si Si5 0.884688 0.994698 0.038707
Si Si6 0.609818 0.432939 0.964594
O O1 0.196347 0.622860 0.250000
O O2 0.159051 0.554189 0.512570
O O3 0.308891 0.612537 0.529531
O O4 0.105237 0.657353 0.531752
O O5 0.999443 0.826392 0.750000
O O6 0.897232 0.843115 0.034250
O O7 0.000697 0.750000 0.000000
O O8 0.615825 0.931101 0.750000
O O9 0.696328 0.890772 0.034291
O O10 0.502756 0.926133 0.032962
O O11 0.639022 0.001499 0.004496
O O12 0.788773 0.646089 0.250000
O O13 0.844976 0.559354 0.059992
O O14 0.866317 0.986227 0.250000
O O15 0.000000 0.000000 0.000000
O O16 0.606153 0.427133 0.750000
#
# Coordination Sequence:
#
# PCOD9435324 Si02
#       6
#     8   8   8   8   8   8
#     4   9  17  30  48  68  96 128 153 190 235 281
#     4  10  21  37  51  66  90 122 163 207 247 285
#     4   9  17  27  44  71 101 130 156 186 225 277
#     4  10  19  32  48  70 101 129 156 196 240 284
#     4  11  19  29  46  72 101 129 157 188 237 294
#     4   9  16  28  45  69 100 131 158 182 225 284
#
# _framework density 20.073035999999998
#
# number of rings (size 3 to 8) (size 9 to 14) (size 15 to 20)
#    0.000    2.333    3.333    0.500    0.000    0.667 
#    0.000    0.833    0.000    1.000    0.000    0.000 
#    0.000    0.000    0.000    0.000    0.000    0.000 
#
# Total GULP energy -267311.875471 kJ/mol
# GULP energy per Si atom -5568.997406 kJ/mol
# Density = 2.002735 g / cm^3
# Si number density = 20.073036 Si / 1000 Ang^3
#
#
#
# Elastic Constant Matrix: (Units=GPa)
#
#
# Indices 1 2 3 4 5 6 
#
# 1 200.7952 71.1347 2.6737 0.0000 0.0000 0.0000
# 2 71.1347 89.7573 5.4029 0.0000 0.0000 0.0000
# 3 2.6737 5.4029 57.2774 0.0000 0.0000 0.0000
# 4 0.0000 0.0000 0.0000 14.8280 0.0000 0.0000
# 5 0.0000 0.0000 0.0000 0.0000 -3.0333 0.0000
# 6 0.0000 0.0000 0.0000 0.0000 0.0000 14.0434
#
#
#
# Elastic Compliance Matrix: (Units=1/GPa)
#
#
# Indices 1 2 3 4 5 6 
#
# 1 0.006926 -0.005501 0.000196 0.000000 0.000000 0.000000
# 2 -0.005501 0.015574 -0.001212 0.000000 0.000000 0.000000
# 3 0.000196 -0.001212 0.017564 0.000000 0.000000 0.000000
# 4 0.000000 0.000000 0.000000 0.067440 0.000000 0.000000
# 5 0.000000 0.000000 0.000000 0.000000 -0.329679 0.000000
# 6 0.000000 0.000000 0.000000 0.000000 0.000000 0.071208
#
#
# Mechanical properties :
#
#
# Convention : Reuss Voigt Hill
#
# Bulk Modulus (GPa) = 36.99755 56.25028 46.62391
# Shear Modulus (GPa) = -38.78321 23.07554 -7.85384
#
# Velocity S-wave (km/s) = -4.40034 3.39422 -1.98018
# Velocity P-wave (km/s) = 2.71032 6.59125 4.24846
#
# Compressibility (1/GPa) = 0.02702882
#
# Stress axis : x y z
#
# Youngs Moduli (GPa) = 144.37388 64.20992 56.93430
#
# Poissons Ratio (x) = 0.35323 -0.01114
# Poissons Ratio (y) = 0.79422 0.06902
# Poissons Ratio (z) = -0.02824 0.07784
#
# Static dielectric constant tensor:
#      x y z
#    x 1.822870 0.000000 0.000000 
#    y 0.000000 1.643830 0.000000 
#    z 0.000000 0.000000 1.762140 
# 
# From -- ./inp_files/4927.got.cif
#   From: 2010.05.17/outbox.cif.g08.bks.cpg/sg57_3_cif.got.tgz:4927.got - 2010.06.03 13:58:18.
