data_PCOD9435120
_publ_section_title
;
Structure prediction by ZEFSAII (Michael W. Deem and Ramdas Pophale) SiO2 
 PCOD9435120
Probable space group: P B C M
;
_chemical_formula_sum "Si O2"
_cell_formula_units_Z 56
_cell_length_a 20.861973
_cell_length_b 13.851673
_cell_length_c 8.370364
_cell_angle_alpha 90.000000
_cell_angle_beta 90.000000
_cell_angle_gamma 90.000000
_cell_volume 2418.811106
_symmetry_space_group_name_H-M "P B C M"
_symmetry_group_IT_number 57
_symmetry_cell_setting 'orthorhombic'
loop_
_space_group_symop_operation_xyz
x,y,z
-x,-y,1/2+z
x,1/2-y,-z
-x,1/2+y,1/2-z
-x,-y,-z
x,y,1/2-z
-x,1/2+y,z
x,1/2-y,1/2+z
loop_
_atom_site_type_symbol
_atom_site_label
_atom_site_fract_x
_atom_site_fract_y
_atom_site_fract_z
Si Si1 0.877565 0.650287 0.064621
Si Si2 0.011911 0.608990 0.942884
Si Si3 0.574563 0.387612 0.431773
Si Si4 0.849924 0.433319 0.445265
Si Si5 0.311885 0.147496 0.568770
Si Si6 0.710750 0.434156 0.441522
Si Si7 0.442104 0.119622 0.074255
O O1 0.862903 0.646542 0.250000
O O2 0.857318 0.545335 0.997067
O O3 0.849706 0.750000 0.000000
O O4 0.954016 0.657537 0.036420
O O5 0.004466 0.618942 0.750000
O O6 0.086190 0.626139 0.988870
O O7 0.000000 0.500000 0.000000
O O8 0.572298 0.349545 0.250000
O O9 0.646331 0.381725 0.503002
O O10 0.562780 0.503244 0.420517
O O11 0.514497 0.352647 0.533552
O O12 0.850518 0.436281 0.250000
O O13 0.780104 0.397589 0.497753
O O14 0.290266 0.250000 0.500000
O O15 0.291070 0.137611 0.750000
O O16 0.292390 0.049249 0.477930
O O17 0.389404 0.149237 0.553912
O O18 0.707368 0.424667 0.250000
O O19 0.422786 0.154703 0.250000
#
# Coordination Sequence:
#
# PCOD9435120 Si02
#       7
#     8   8   8   8   8   8   8
#     4  10  19  31  47  69  95 124 158 196 236 277
#     4   9  16  29  48  69  92 120 154 193 235 276
#     4   8  14  24  41  63  85 108 136 174 216 254
#     4   8  16  30  48  68  93 124 156 190 230 276
#     4  11  21  32  44  61  87 118 152 185 221 265
#     4   9  17  31  47  65  90 119 150 181 217 263
#     4   9  16  27  43  61  82 109 142 180 218 253
#
# _framework density 23.151869999999999
#
# number of rings (size 3 to 8) (size 9 to 14) (size 15 to 20)
#    0.000    2.857    0.000    4.286    0.000    4.000 
#    0.000    5.714    0.000    0.000    0.000    1.000 
#    0.000    4.571    0.000    0.000    0.000    0.000 
#
# Total GULP energy -312210.289976 kJ/mol
# GULP energy per Si atom -5575.183750 kJ/mol
# Density = 2.309918 g / cm^3
# Si number density = 23.151870 Si / 1000 Ang^3
#
#
#
# Elastic Constant Matrix: (Units=GPa)
#
#
# Indices 1 2 3 4 5 6 
#
# 1 166.4812 -18.7356 -6.1795 0.0000 0.0000 0.0000
# 2 -18.7356 38.8406 -7.7712 0.0000 0.0000 0.0000
# 3 -6.1795 -7.7712 30.2301 0.0000 0.0000 0.0000
# 4 0.0000 0.0000 0.0000 14.7443 0.0000 0.0000
# 5 0.0000 0.0000 0.0000 0.0000 15.0907 0.0000
# 6 0.0000 0.0000 0.0000 0.0000 0.0000 -12.6269
#
#
#
# Elastic Compliance Matrix: (Units=1/GPa)
#
#
# Indices 1 2 3 4 5 6 
#
# 1 0.006493 0.003582 0.002248 0.000000 0.000000 0.000000
# 2 0.003582 0.029118 0.008218 0.000000 0.000000 0.000000
# 3 0.002248 0.008218 0.035652 0.000000 0.000000 0.000000
# 4 0.000000 0.000000 0.000000 0.067823 0.000000 0.000000
# 5 0.000000 0.000000 0.000000 0.000000 0.066266 0.000000
# 6 0.000000 0.000000 0.000000 0.000000 0.000000 -0.079196
#
#
# Mechanical properties :
#
#
# Convention : Reuss Voigt Hill
#
# Bulk Modulus (GPa) = 10.06457 18.90882 14.48670
# Shear Modulus (GPa) = 38.11567 21.32418 29.71992
#
# Velocity S-wave (km/s) = 4.06190 3.03818 3.58675
# Velocity P-wave (km/s) = 5.13375 4.52686 4.83983
#
# Compressibility (1/GPa) = 0.09935843
#
# Stress axis : x y z
#
# Youngs Moduli (GPa) = 154.00634 34.34273 28.04919
#
# Poissons Ratio (x) = -0.12301 -0.06306
# Poissons Ratio (y) = -0.55164 -0.23050
# Poissons Ratio (z) = -0.34622 -0.28221
#
# Static dielectric constant tensor:
#      x y z
#    x 1.946960 0.000000 0.000000 
#    y 0.000000 1.745700 0.000000 
#    z 0.000000 0.000000 1.807070 
# 
# From -- ./inp_files/8369.got.cif
#   From: 2010.05.17/outbox.cif.g08.bks.cpg/sg57_5_cif.got.tgz:8369.got - 2010.06.03 13:58:18.
