data_PCOD9435400
_publ_section_title
;
Structure prediction by ZEFSAII (Michael W. Deem and Ramdas Pophale) SiO2 
 PCOD9435400
Probable space group: P B C M
;
_chemical_formula_sum "Si O2"
_cell_formula_units_Z 64
_cell_length_a 21.103102
_cell_length_b 9.014154
_cell_length_c 14.071661
_cell_angle_alpha 90.000000
_cell_angle_beta 90.000000
_cell_angle_gamma 90.000000
_cell_volume 2676.804387
_symmetry_space_group_name_H-M "P B C M"
_symmetry_group_IT_number 57
_symmetry_cell_setting 'orthorhombic'
loop_
_space_group_symop_operation_xyz
x,y,z
-x,-y,1/2+z
x,1/2-y,-z
-x,1/2+y,1/2-z
-x,-y,-z
x,y,1/2-z
-x,1/2+y,z
x,1/2-y,1/2+z
loop_
_atom_site_type_symbol
_atom_site_label
_atom_site_fract_x
_atom_site_fract_y
_atom_site_fract_z
Si Si1 0.161909 0.162392 0.133802
Si Si2 0.794701 0.990281 0.134632
Si Si3 0.580122 0.551103 0.132726
Si Si4 0.082756 0.838950 0.866258
Si Si5 0.324287 0.675999 0.398613
Si Si6 0.283787 0.501700 0.856912
Si Si7 0.040083 0.511455 0.866385
Si Si8 0.539029 0.271564 0.861578
O O1 0.157972 0.162192 0.250000
O O2 0.183127 0.326640 0.105022
O O3 0.216480 0.046403 0.102259
O O4 0.093206 0.106624 0.102577
O O5 0.793536 0.990124 0.250000
O O6 0.847852 0.108613 0.103335
O O7 0.725358 0.043783 0.104243
O O8 0.582224 0.549775 0.250000
O O9 0.652326 0.567256 0.098723
O O10 0.557051 0.389177 0.100067
O O11 0.525671 0.661510 0.100433
O O12 0.083775 0.837054 0.750000
O O13 0.061539 0.675178 0.896470
O O14 0.029502 0.958151 0.895193
O O15 0.329781 0.750000 0.500000
O O16 0.395501 0.635899 0.367788
O O17 0.295036 0.821782 0.347196
O O18 0.282096 0.439603 0.750000
O O19 0.039377 0.513634 0.750000
O O20 0.527110 0.250947 0.750000
#
# Coordination Sequence:
#
# PCOD9435400 Si02
#       8
#     8   8   8   8   8   8   8   8
#     4   9  17  28  48  76 103 128 163 208 255 300
#     4  10  19  32  50  74  98 127 168 214 255 297
#     4   8  15  27  48  73  95 120 155 196 241 287
#     4   9  16  25  42  68 103 137 165 200 248 298
#     4  11  22  35  50  71  99 135 172 208 250 301
#     4   9  17  33  53  74 100 131 164 204 251 301
#     4   9  15  24  39  68 105 135 159 196 248 300
#     4   9  17  32  52  74  99 129 164 206 249 294
#
# _framework density 23.909106000000001
#
# number of rings (size 3 to 8) (size 9 to 14) (size 15 to 20)
#    0.000    2.750    0.000    3.375    0.000    6.000 
#    0.000    6.875    0.000    0.000    0.000    7.875 
#    0.000    0.000    0.000    0.000    0.000    0.000 
#
# Total GULP energy -357551.395111 kJ/mol
# GULP energy per Si atom -5586.740549 kJ/mol
# Density = 2.385469 g / cm^3
# Si number density = 23.909106 Si / 1000 Ang^3
#
#
#
# Elastic Constant Matrix: (Units=GPa)
#
#
# Indices 1 2 3 4 5 6 
#
# 1 69.4592 -8.8083 5.3723 0.0000 0.0000 0.0000
# 2 -8.8083 40.2899 8.8360 0.0000 0.0000 0.0000
# 3 5.3723 8.8360 50.9959 0.0000 0.0000 0.0000
# 4 0.0000 0.0000 0.0000 -0.8473 0.0000 0.0000
# 5 0.0000 0.0000 0.0000 0.0000 6.0836 0.0000
# 6 0.0000 0.0000 0.0000 0.0000 0.0000 44.6018
#
#
#
# Elastic Compliance Matrix: (Units=1/GPa)
#
#
# Indices 1 2 3 4 5 6 
#
# 1 0.015050 0.003782 -0.002241 0.000000 0.000000 0.000000
# 2 0.003782 0.026751 -0.005033 0.000000 0.000000 0.000000
# 3 -0.002241 -0.005033 0.020718 0.000000 0.000000 0.000000
# 4 0.000000 0.000000 0.000000 -1.180241 0.000000 0.000000
# 5 0.000000 0.000000 0.000000 0.000000 0.164375 0.000000
# 6 0.000000 0.000000 0.000000 0.000000 0.000000 0.022421
#
#
# Mechanical properties :
#
#
# Convention : Reuss Voigt Hill
#
# Bulk Modulus (GPa) = 18.00726 19.06056 18.53391
# Shear Modulus (GPa) = -5.52223 20.32397 7.40087
#
# Velocity S-wave (km/s) = -1.52141 2.91873 1.76129
# Velocity P-wave (km/s) = 2.11226 4.39864 3.45034
#
# Compressibility (1/GPa) = 0.05553314
#
# Stress axis : x y z
#
# Youngs Moduli (GPa) = 66.44606 37.38210 48.26812
#
# Poissons Ratio (x) = -0.14137 0.10815
# Poissons Ratio (y) = -0.25128 0.24296
# Poissons Ratio (z) = 0.14889 0.18816
#
# Static dielectric constant tensor:
#      x y z
#    x 1.882120 0.000000 0.000000 
#    y 0.000000 1.872910 0.000000 
#    z 0.000000 0.000000 2.228310 
# 
# From -- ./inp_files/23079.got.cif
#   From: 2010.05.17/outbox.cif.g08.bks.cpg/sg57_12_cif.got.tgz:23079.got - 2010.06.03 13:58:18.
