data_PCOD9435018
_publ_section_title
;
Structure prediction by ZEFSAII (Michael W. Deem and Ramdas Pophale) SiO2 
 PCOD9435018
Probable space group: P B C M
;
_chemical_formula_sum "Si O2"
_cell_formula_units_Z 64
_cell_length_a 19.966976
_cell_length_b 23.971412
_cell_length_c 7.914838
_cell_angle_alpha 90.000000
_cell_angle_beta 90.000000
_cell_angle_gamma 90.000000
_cell_volume 3788.331214
_symmetry_space_group_name_H-M "P B C M"
_symmetry_group_IT_number 57
_symmetry_cell_setting 'orthorhombic'
loop_
_space_group_symop_operation_xyz
x,y,z
-x,-y,1/2+z
x,1/2-y,-z
-x,1/2+y,1/2-z
-x,-y,-z
x,y,1/2-z
-x,1/2+y,z
x,1/2-y,1/2+z
loop_
_atom_site_type_symbol
_atom_site_label
_atom_site_fract_x
_atom_site_fract_y
_atom_site_fract_z
Si Si1 0.745348 0.631352 0.047431
Si Si2 0.885537 0.686254 0.951291
Si Si3 0.103718 0.524486 0.546334
Si Si4 0.750567 0.502482 0.042215
Si Si5 0.023980 0.087086 0.546005
Si Si6 0.473833 0.081512 0.950880
Si Si7 0.606700 0.025213 0.948588
Si Si8 0.392739 0.314118 0.951851
O O1 0.739635 0.628711 0.250000
O O2 0.750194 0.567383 0.987445
O O3 0.678863 0.662457 0.982621
O O4 0.812721 0.664646 0.007227
O O5 0.886694 0.682689 0.750000
O O6 0.941992 0.643599 0.018307
O O7 0.896245 0.750000 0.000000
O O8 0.105250 0.527899 0.750000
O O9 0.180203 0.525807 0.486512
O O10 0.072190 0.464513 0.500417
O O11 0.050194 0.570256 0.483973
O O12 0.749924 0.502558 0.250000
O O13 0.681832 0.474129 0.981815
O O14 0.020792 0.089769 0.750000
O O15 0.472729 0.071038 0.750000
O O16 0.547754 0.064929 0.016963
O O17 0.449737 0.143801 0.984673
O O18 0.421801 0.037646 0.031513
O O19 0.612273 0.037766 0.750000
O O20 0.391884 0.317770 0.750000
O O21 0.401976 0.250000 0.000000
#
# Coordination Sequence:
#
# PCOD9435018 Si02
#       8
#     8   8   8   8   8   8   8   8
#     4  10  19  32  48  67  92 124 158 189 221 262
#     4  11  22  33  45  63  91 123 158 193 224 263
#     4   9  16  28  48  67  88 117 148 181 225 274
#     4   9  15  27  48  71  92 120 152 182 221 271
#     4   9  18  30  43  65  91 115 147 190 227 261
#     4  10  19  30  47  69  93 122 155 190 232 274
#     4   9  17  31  48  68  94 121 153 191 228 272
#     4  11  22  35  49  65  92 124 160 196 227 267
#
# _framework density 16.893981
#
# number of rings (size 3 to 8) (size 9 to 14) (size 15 to 20)
#    0.000    2.250    2.500    1.500    0.000    3.000 
#    0.000    0.625    0.000    0.000    0.000    0.875 
#    0.000    2.000    0.000    0.000    0.000    0.250 
#
# Total GULP energy -356887.234979 kJ/mol
# GULP energy per Si atom -5576.363047 kJ/mol
# Density = 1.685553 g / cm^3
# Si number density = 16.893981 Si / 1000 Ang^3
#
#
#
# Elastic Constant Matrix: (Units=GPa)
#
#
# Indices 1 2 3 4 5 6 
#
# 1 167.9982 72.0379 0.9358 0.0000 0.0000 0.0000
# 2 72.0379 92.6813 -2.0123 0.0000 0.0000 0.0000
# 3 0.9358 -2.0123 13.9459 0.0000 0.0000 0.0000
# 4 0.0000 0.0000 0.0000 12.6915 0.0000 0.0000
# 5 0.0000 0.0000 0.0000 0.0000 8.9856 0.0000
# 6 0.0000 0.0000 0.0000 0.0000 0.0000 22.4392
#
#
#
# Elastic Compliance Matrix: (Units=1/GPa)
#
#
# Indices 1 2 3 4 5 6 
#
# 1 0.008964 -0.007002 -0.001612 0.000000 0.000000 0.000000
# 2 -0.007002 0.016294 0.002821 0.000000 0.000000 0.000000
# 3 -0.001612 0.002821 0.072221 0.000000 0.000000 0.000000
# 4 0.000000 0.000000 0.000000 0.078793 0.000000 0.000000
# 5 0.000000 0.000000 0.000000 0.000000 0.111289 0.000000
# 6 0.000000 0.000000 0.000000 0.000000 0.000000 0.044565
#
#
# Mechanical properties :
#
#
# Convention : Reuss Voigt Hill
#
# Bulk Modulus (GPa) = 11.64255 46.28312 28.96284
# Shear Modulus (GPa) = 13.42850 22.40087 17.91468
#
# Velocity S-wave (km/s) = 2.82240 3.64533 3.25994
# Velocity P-wave (km/s) = 4.18662 6.72113 5.59917
#
# Compressibility (1/GPa) = 0.08589183
#
# Stress axis : x y z
#
# Youngs Moduli (GPa) = 111.55618 61.37348 13.84641
#
# Poissons Ratio (x) = 0.42977 0.02232
# Poissons Ratio (y) = 0.78117 -0.03906
# Poissons Ratio (z) = 0.17982 -0.17313
#
# Static dielectric constant tensor:
#      x y z
#    x 1.606170 0.000000 0.000000 
#    y 0.000000 1.551320 0.000000 
#    z 0.000000 0.000000 1.601990 
# 
# From -- ./inp_files/8722.got.cif
#   From: 2010.05.17/outbox.cif.g08.bks.cpg/sg57_5_cif.got.tgz:8722.got - 2010.06.03 13:58:18.
