data_PCOD9435695
_publ_section_title
;
Structure prediction by ZEFSAII (Michael W. Deem and Ramdas Pophale) SiO2 
 PCOD9435695
Probable space group: P B C M
;
_chemical_formula_sum "Si O2"
_cell_formula_units_Z 48
_cell_length_a 9.556700
_cell_length_b 16.793196
_cell_length_c 16.005372
_cell_angle_alpha 90.000000
_cell_angle_beta 90.000000
_cell_angle_gamma 90.000000
_cell_volume 2568.662718
_symmetry_space_group_name_H-M "P B C M"
_symmetry_group_IT_number 57
_symmetry_cell_setting 'orthorhombic'
loop_
_space_group_symop_operation_xyz
x,y,z
-x,-y,1/2+z
x,1/2-y,-z
-x,1/2+y,1/2-z
-x,-y,-z
x,y,1/2-z
-x,1/2+y,z
x,1/2-y,1/2+z
loop_
_atom_site_type_symbol
_atom_site_label
_atom_site_fract_x
_atom_site_fract_y
_atom_site_fract_z
Si Si1 0.315360 0.073993 0.846382
Si Si2 0.652253 0.406949 0.917923
Si Si3 0.425955 0.309269 0.849435
Si Si4 0.409624 0.656160 0.602422
Si Si5 0.832803 0.257793 0.599553
Si Si6 0.850514 0.732725 0.649858
O O1 0.280796 0.055887 0.750000
O O2 0.477293 0.102534 0.850348
O O3 0.219131 0.148235 0.875210
O O4 0.299364 0.996147 0.902287
O O5 0.505684 0.389960 0.870613
O O6 0.763909 0.343379 0.880465
O O7 0.622186 0.385762 0.014313
O O8 0.439167 0.291853 0.750000
O O9 0.508480 0.241006 0.900735
O O10 0.263997 0.300019 0.872840
O O11 0.261135 0.686595 0.638693
O O12 0.814149 0.250000 0.500000
O O13 0.995218 0.249123 0.618049
O O14 0.857797 0.730888 0.750000
#
# Coordination Sequence:
#
# PCOD9435695 Si02
#       6
#     8   8   8   8   8   8
#     4  10  20  34  51  74 101 133 169 207 251 301
#     4  10  19  33  53  77 101 128 167 215 255 290
#     4   9  17  31  51  75  99 130 170 210 249 298
#     4   9  18  33  51  73 100 131 166 201 246 305
#     4   9  19  34  52  75 100 130 169 205 246 300
#     4   9  19  33  49  70 100 134 166 198 247 306
#
# _framework density 18.686765000000001
#
# number of rings (size 3 to 8) (size 9 to 14) (size 15 to 20)
#    0.000    2.667    0.000    4.000    0.000    6.667 
#    0.000    5.000    0.000    2.000    0.000    0.000 
#    0.000    0.000    0.000    0.000    0.000    0.000 
#
# Total GULP energy -267268.941116 kJ/mol
# GULP energy per Si atom -5568.102940 kJ/mol
# Density = 1.864423 g / cm^3
# Si number density = 18.686765 Si / 1000 Ang^3
#
#
#
# Elastic Constant Matrix: (Units=GPa)
#
#
# Indices 1 2 3 4 5 6 
#
# 1 143.7140 31.6343 4.4641 0.0000 0.0000 0.0000
# 2 31.6343 56.0563 0.3334 0.0000 0.0000 0.0000
# 3 4.4641 0.3334 24.1464 0.0000 0.0000 0.0000
# 4 0.0000 0.0000 0.0000 13.3603 0.0000 0.0000
# 5 0.0000 0.0000 0.0000 0.0000 29.7903 0.0000
# 6 0.0000 0.0000 0.0000 0.0000 0.0000 15.9123
#
#
#
# Elastic Compliance Matrix: (Units=1/GPa)
#
#
# Indices 1 2 3 4 5 6 
#
# 1 0.007993 -0.004502 -0.001416 0.000000 0.000000 0.000000
# 2 -0.004502 0.020377 0.000551 0.000000 0.000000 0.000000
# 3 -0.001416 0.000551 0.041668 0.000000 0.000000 0.000000
# 4 0.000000 0.000000 0.000000 0.074849 0.000000 0.000000
# 5 0.000000 0.000000 0.000000 0.000000 0.033568 0.000000
# 6 0.000000 0.000000 0.000000 0.000000 0.000000 0.062845
#
#
# Mechanical properties :
#
#
# Convention : Reuss Voigt Hill
#
# Bulk Modulus (GPa) = 16.86217 32.97560 24.91888
# Shear Modulus (GPa) = 18.39576 24.31157 21.35367
#
# Velocity S-wave (km/s) = 3.14096 3.61086 3.38408
# Velocity P-wave (km/s) = 4.71141 5.92192 5.35101
#
# Compressibility (1/GPa) = 0.05930434
#
# Stress axis : x y z
#
# Youngs Moduli (GPa) = 125.10448 49.07536 23.99911
#
# Poissons Ratio (x) = 0.22096 0.03397
# Poissons Ratio (y) = 0.56328 -0.01323
# Poissons Ratio (z) = 0.17710 -0.02705
#
# Static dielectric constant tensor:
#      x y z
#    x 1.672880 0.000000 0.000000 
#    y 0.000000 1.664360 0.000000 
#    z 0.000000 0.000000 1.687400 
# 
# From -- ./inp_files/16381.got.cif
#   From: 2010.05.17/outbox.cif.g08.bks.cpg/sg57_9_cif.got.tgz:16381.got - 2010.06.03 13:58:18.
