data_PCOD9435329
_publ_section_title
;
Structure prediction by ZEFSAII (Michael W. Deem and Ramdas Pophale) SiO2 
 PCOD9435329
Probable space group: P B C M
;
_chemical_formula_sum "Si O2"
_cell_formula_units_Z 64
_cell_length_a 22.293598
_cell_length_b 20.039199
_cell_length_c 8.970770
_cell_angle_alpha 90.000000
_cell_angle_beta 90.000000
_cell_angle_gamma 90.000000
_cell_volume 4007.654240
_symmetry_space_group_name_H-M "P B C M"
_symmetry_group_IT_number 57
_symmetry_cell_setting 'orthorhombic'
loop_
_space_group_symop_operation_xyz
x,y,z
-x,-y,1/2+z
x,1/2-y,-z
-x,1/2+y,1/2-z
-x,-y,-z
x,y,1/2-z
-x,1/2+y,z
x,1/2-y,1/2+z
loop_
_atom_site_type_symbol
_atom_site_label
_atom_site_fract_x
_atom_site_fract_y
_atom_site_fract_z
Si Si1 0.019973 0.181064 0.072005
Si Si2 0.702311 0.043792 0.426259
Si Si3 0.418907 0.477735 0.073157
Si Si4 0.878496 0.319527 0.572096
Si Si5 0.630028 0.179627 0.071882
Si Si6 0.172557 0.549190 0.572054
Si Si7 0.942807 0.962930 0.930057
Si Si8 0.524206 0.393097 0.074718
O O1 0.024001 0.187168 0.250000
O O2 0.054259 0.114498 0.024335
O O3 0.949291 0.171489 0.035339
O O4 0.040397 0.250000 0.000000
O O5 0.716064 0.047871 0.250000
O O6 0.672096 0.115684 0.468056
O O7 0.761889 0.029209 0.516988
O O8 0.651894 0.986699 0.447131
O O9 0.430553 0.493542 0.250000
O O10 0.454007 0.408816 0.042657
O O11 0.446328 0.535849 0.970341
O O12 0.859050 0.250000 0.500000
O O13 0.872324 0.317544 0.750000
O O14 0.842684 0.380481 0.503580
O O15 0.630335 0.185074 0.250000
O O16 0.648537 0.250000 0.000000
O O17 0.563010 0.160305 0.015902
O O18 0.171409 0.555761 0.750000
O O19 0.119097 0.498763 0.528092
O O20 0.948686 0.965685 0.750000
O O21 0.000000 0.000000 0.000000
O O22 0.531284 0.379728 0.250000
#
# Coordination Sequence:
#
# PCOD9435329 Si02
#       8
#     8   8   8   8   8   8   8   8
#     4   9  18  32  50  72  95 120 151 190 239 294
#     4   9  19  34  48  64  93 130 166 200 235 282
#     4   8  15  28  45  66  91 119 151 189 231 274
#     4  10  19  32  49  67  92 125 160 198 241 292
#     4  10  20  33  48  68  96 131 167 201 235 277
#     4  11  22  33  48  71  98 128 166 207 250 300
#     4  10  20  34  51  73  99 126 158 202 253 302
#     4   9  15  25  45  70  93 118 150 191 235 274
#
# _framework density 15.969441
#
# number of rings (size 3 to 8) (size 9 to 14) (size 15 to 20)
#    0.000    2.500    1.250    2.250    0.000    5.000 
#    0.000    1.250    0.000    0.000    0.000    0.875 
#    0.000    4.000    0.000    0.000    0.000    0.000 
#
# Total GULP energy -356528.333576 kJ/mol
# GULP energy per Si atom -5570.755212 kJ/mol
# Density = 1.593309 g / cm^3
# Si number density = 15.969441 Si / 1000 Ang^3
#
#
#
# Elastic Constant Matrix: (Units=GPa)
#
#
# Indices 1 2 3 4 5 6 
#
# 1 93.2298 37.1620 35.3329 0.0000 0.0000 0.0000
# 2 37.1620 50.9552 16.1304 0.0000 0.0000 0.0000
# 3 35.3329 16.1304 28.7174 0.0000 0.0000 0.0000
# 4 0.0000 0.0000 0.0000 22.7914 0.0000 0.0000
# 5 0.0000 0.0000 0.0000 0.0000 24.1190 0.0000
# 6 0.0000 0.0000 0.0000 0.0000 0.0000 16.0882
#
#
#
# Elastic Compliance Matrix: (Units=1/GPa)
#
#
# Indices 1 2 3 4 5 6 
#
# 1 0.023474 -0.009702 -0.023432 0.000000 0.000000 0.000000
# 2 -0.009702 0.027879 -0.003723 0.000000 0.000000 0.000000
# 3 -0.023432 -0.003723 0.065743 0.000000 0.000000 0.000000
# 4 0.000000 0.000000 0.000000 0.043876 0.000000 0.000000
# 5 0.000000 0.000000 0.000000 0.000000 0.041461 0.000000
# 6 0.000000 0.000000 0.000000 0.000000 0.000000 0.062157
#
#
# Mechanical properties :
#
#
# Convention : Reuss Voigt Hill
#
# Bulk Modulus (GPa) = 23.05047 38.90587 30.97817
# Shear Modulus (GPa) = 14.17375 18.21818 16.19597
#
# Velocity S-wave (km/s) = 2.98242 3.38126 3.18808
# Velocity P-wave (km/s) = 5.13081 6.29758 5.74390
#
# Compressibility (1/GPa) = 0.04338307
#
# Stress axis : x y z
#
# Youngs Moduli (GPa) = 42.60058 35.86894 15.21079
#
# Poissons Ratio (x) = 0.34800 0.35642
# Poissons Ratio (y) = 0.41331 0.05662
# Poissons Ratio (z) = 0.99821 0.13352
#
# Static dielectric constant tensor:
#      x y z
#    x 1.564310 0.000000 0.000000 
#    y 0.000000 1.531820 0.000000 
#    z 0.000000 0.000000 1.544180 
# 
# From -- ./inp_files/8783.got.cif
#   From: 2010.05.17/outbox.cif.g08.bks.cpg/sg57_5_cif.got.tgz:8783.got - 2010.06.03 13:58:18.
