data_PCOD9435775
_publ_section_title
;
Structure prediction by ZEFSAII (Michael W. Deem and Ramdas Pophale) SiO2 
 PCOD9435775
Probable space group: P B C M
;
_chemical_formula_sum "Si O2"
_cell_formula_units_Z 40
_cell_length_a 26.946419
_cell_length_b 9.234721
_cell_length_c 8.693462
_cell_angle_alpha 90.000000
_cell_angle_beta 90.000000
_cell_angle_gamma 90.000000
_cell_volume 2163.304221
_symmetry_space_group_name_H-M "P B C M"
_symmetry_group_IT_number 57
_symmetry_cell_setting 'orthorhombic'
loop_
_space_group_symop_operation_xyz
x,y,z
-x,-y,1/2+z
x,1/2-y,-z
-x,1/2+y,1/2-z
-x,-y,-z
x,y,1/2-z
-x,1/2+y,z
x,1/2-y,1/2+z
loop_
_atom_site_type_symbol
_atom_site_label
_atom_site_fract_x
_atom_site_fract_y
_atom_site_fract_z
Si Si1 0.645109 0.588790 0.435338
Si Si2 0.546711 0.087928 0.564823
Si Si3 0.954044 0.412144 0.565785
Si Si4 0.742761 0.086859 0.934648
Si Si5 0.154972 0.586346 0.065632
O O1 0.642136 0.750000 0.500000
O O2 0.645306 0.596187 0.250000
O O3 0.597239 0.494676 0.481270
O O4 0.695655 0.508156 0.483370
O O5 0.546616 0.250000 0.500000
O O6 0.544204 0.092180 0.750000
O O7 0.500000 0.000000 0.500000
O O8 0.956113 0.250000 0.500000
O O9 0.957040 0.406448 0.750000
O O10 0.899347 0.476019 0.525817
O O11 0.000000 0.500000 0.500000
O O12 0.744257 0.095365 0.750000
O O13 0.737669 0.250000 0.000000
O O14 0.794910 0.022177 0.994791
O O15 0.159549 0.590938 0.250000
O O16 0.153798 0.750000 0.000000
#
# Coordination Sequence:
#
# PCOD9435775 Si02
#       5
#     8   8   8   8   8
#     4  10  23  39  56  80 111 145 182 222 268 319
#     4  11  23  40  61  87 116 148 186 228 273 323
#     4  10  20  34  53  77 106 139 178 221 269 322
#     4  10  19  33  54  80 105 135 175 219 265 316
#     4   9  17  30  50  76 103 135 173 216 264 316
#
# _framework density 18.490231999999999
#
# number of rings (size 3 to 8) (size 9 to 14) (size 15 to 20)
#    0.000    2.000    0.000    4.800    0.000    7.200 
#    0.000    1.000    0.000    2.400    0.000    0.000 
#    0.000    0.000    0.000    0.000    0.000    0.000 
#
# Total GULP energy -223249.251504 kJ/mol
# GULP energy per Si atom -5581.231288 kJ/mol
# Density = 1.844815 g / cm^3
# Si number density = 18.490232 Si / 1000 Ang^3
#
#
#
# Elastic Constant Matrix: (Units=GPa)
#
#
# Indices 1 2 3 4 5 6 
#
# 1 235.2652 95.0677 63.7977 0.0000 0.0000 0.0000
# 2 95.0677 108.5468 33.9267 0.0000 0.0000 0.0000
# 3 63.7977 33.9267 60.9242 0.0000 0.0000 0.0000
# 4 0.0000 0.0000 0.0000 31.1358 0.0000 0.0000
# 5 0.0000 0.0000 0.0000 0.0000 33.0801 0.0000
# 6 0.0000 0.0000 0.0000 0.0000 0.0000 33.0858
#
#
#
# Elastic Compliance Matrix: (Units=1/GPa)
#
#
# Indices 1 2 3 4 5 6 
#
# 1 0.007757 -0.005152 -0.005254 0.000000 0.000000 0.000000
# 2 -0.005152 0.014575 -0.002722 0.000000 0.000000 0.000000
# 3 -0.005254 -0.002722 0.023432 0.000000 0.000000 0.000000
# 4 0.000000 0.000000 0.000000 0.032117 0.000000 0.000000
# 5 0.000000 0.000000 0.000000 0.000000 0.030230 0.000000
# 6 0.000000 0.000000 0.000000 0.000000 0.000000 0.030224
#
#
# Mechanical properties :
#
#
# Convention : Reuss Voigt Hill
#
# Bulk Modulus (GPa) = 51.25967 87.81338 69.53652
# Shear Modulus (GPa) = 29.22385 33.58995 31.40690
#
# Velocity S-wave (km/s) = 3.97987 4.26682 4.12584
# Velocity P-wave (km/s) = 6.99299 8.47757 7.77081
#
# Compressibility (1/GPa) = 0.01950851
#
# Stress axis : x y z
#
# Youngs Moduli (GPa) = 128.91643 68.60975 42.67757
#
# Poissons Ratio (x) = 0.35345 0.22423
# Poissons Ratio (y) = 0.66412 0.11617
# Poissons Ratio (z) = 0.67734 0.18675
#
# Static dielectric constant tensor:
#      x y z
#    x 1.676750 0.000000 0.000000 
#    y 0.000000 1.598170 0.000000 
#    z 0.000000 0.000000 1.622720 
# 
# From -- ./inp_files/8902.got.cif
#   From: 2010.05.17/outbox.cif.g08.bks.cpg/sg57_5_cif.got.tgz:8902.got - 2010.06.03 13:58:18.
