data_PCOD9435664
_publ_section_title
;
Structure prediction by ZEFSAII (Michael W. Deem and Ramdas Pophale) SiO2 
 PCOD9435664
Probable space group: P B C M
;
_chemical_formula_sum "Si O2"
_cell_formula_units_Z 40
_cell_length_a 10.372969
_cell_length_b 23.312196
_cell_length_c 7.904402
_cell_angle_alpha 90.000000
_cell_angle_beta 90.000000
_cell_angle_gamma 90.000000
_cell_volume 1911.416300
_symmetry_space_group_name_H-M "P B C M"
_symmetry_group_IT_number 57
_symmetry_cell_setting 'orthorhombic'
loop_
_space_group_symop_operation_xyz
x,y,z
-x,-y,1/2+z
x,1/2-y,-z
-x,1/2+y,1/2-z
-x,-y,-z
x,y,1/2-z
-x,1/2+y,z
x,1/2-y,1/2+z
loop_
_atom_site_type_symbol
_atom_site_label
_atom_site_fract_x
_atom_site_fract_y
_atom_site_fract_z
Si Si1 0.270408 0.859820 0.042444
Si Si2 0.239536 0.395992 0.454139
Si Si3 0.461578 0.187383 0.952976
Si Si4 0.007218 0.315768 0.045929
Si Si5 0.647680 0.014148 0.549519
O O1 0.267629 0.859647 0.250000
O O2 0.393019 0.822497 0.986133
O O3 0.134500 0.834476 0.984506
O O4 0.300696 0.924720 0.984506
O O5 0.238677 0.393517 0.250000
O O6 0.365539 0.361538 0.516213
O O7 0.259107 0.461849 0.501555
O O8 0.114526 0.361170 0.514709
O O9 0.463975 0.183029 0.750000
O O10 0.413040 0.250000 0.000000
O O11 0.006456 0.318706 0.250000
O O12 0.036463 0.250000 0.000000
O O13 0.646094 0.019284 0.750000
O O14 0.500000 0.000000 0.500000
#
# Coordination Sequence:
#
# PCOD9435664 Si02
#       5
#     8   8   8   8   8
#     4   9  19  36  56  79 112 149 181 229 287 329
#     4  10  21  37  56  81 114 149 184 229 282 330
#     4  10  19  33  52  76 108 142 183 230 275 325
#     4  10  21  38  59  82 115 152 186 229 281 335
#     4  11  21  37  60  84 114 148 189 235 285 337
#
# _framework density 20.92689
#
# number of rings (size 3 to 8) (size 9 to 14) (size 15 to 20)
#    0.000    2.000    2.000    1.800    0.000    2.400 
#    0.000    2.000    0.000    0.000    0.000    0.000 
#    0.000    0.000    0.000    0.000    0.000    0.000 
#
# Total GULP energy -223401.382169 kJ/mol
# GULP energy per Si atom -5585.034554 kJ/mol
# Density = 2.087926 g / cm^3
# Si number density = 20.926890 Si / 1000 Ang^3
#
#
#
# Elastic Constant Matrix: (Units=GPa)
#
#
# Indices 1 2 3 4 5 6 
#
# 1 62.7736 -13.1726 10.3111 0.0000 0.0000 0.0000
# 2 -13.1726 87.5811 -5.0352 0.0000 0.0000 0.0000
# 3 10.3111 -5.0352 16.5778 0.0000 0.0000 0.0000
# 4 0.0000 0.0000 0.0000 27.9420 0.0000 0.0000
# 5 0.0000 0.0000 0.0000 0.0000 4.3033 0.0000
# 6 0.0000 0.0000 0.0000 0.0000 0.0000 38.6033
#
#
#
# Elastic Compliance Matrix: (Units=1/GPa)
#
#
# Indices 1 2 3 4 5 6 
#
# 1 0.018120 0.002114 -0.010628 0.000000 0.000000 0.000000
# 2 0.002114 0.011868 0.002290 0.000000 0.000000 0.000000
# 3 -0.010628 0.002290 0.067627 0.000000 0.000000 0.000000
# 4 0.000000 0.000000 0.000000 0.035788 0.000000 0.000000
# 5 0.000000 0.000000 0.000000 0.000000 0.232382 0.000000
# 6 0.000000 0.000000 0.000000 0.000000 0.000000 0.025905
#
#
# Mechanical properties :
#
#
# Convention : Reuss Voigt Hill
#
# Bulk Modulus (GPa) = 11.74171 16.79323 14.26747
# Shear Modulus (GPa) = 11.55997 25.82497 18.69247
#
# Velocity S-wave (km/s) = 2.35286 3.51673 2.99193
# Velocity P-wave (km/s) = 3.60615 4.95297 4.33222
#
# Compressibility (1/GPa) = 0.08516644
#
# Stress axis : x y z
#
# Youngs Moduli (GPa) = 55.18871 84.26295 14.78690
#
# Poissons Ratio (x) = -0.17815 0.15715
# Poissons Ratio (y) = -0.11668 -0.03386
# Poissons Ratio (z) = 0.58654 -0.19292
#
# Static dielectric constant tensor:
#      x y z
#    x 0.587350 0.000000 0.000000 
#    y 0.000000 1.728190 0.000000 
#    z 0.000000 0.000000 1.750940 
# 
# From -- ./inp_files/1512.got.cif
#   From: 2010.05.17/outbox.cif.g08.bks.cpg/sg57_1_cif.got.tgz:1512.got - 2010.06.03 13:58:18.
