data_PCOD9435842
_publ_section_title
;
Structure prediction by ZEFSAII (Michael W. Deem and Ramdas Pophale) SiO2 
 PCOD9435842
Probable space group: P B C M
;
_chemical_formula_sum "Si O2"
_cell_formula_units_Z 64
_cell_length_a 20.006453
_cell_length_b 5.526379
_cell_length_c 27.246166
_cell_angle_alpha 90.000000
_cell_angle_beta 90.000000
_cell_angle_gamma 90.000000
_cell_volume 3012.424438
_symmetry_space_group_name_H-M "P B C M"
_symmetry_group_IT_number 57
_symmetry_cell_setting 'orthorhombic'
loop_
_space_group_symop_operation_xyz
x,y,z
-x,-y,1/2+z
x,1/2-y,-z
-x,1/2+y,1/2-z
-x,-y,-z
x,y,1/2-z
-x,1/2+y,z
x,1/2-y,1/2+z
loop_
_atom_site_type_symbol
_atom_site_label
_atom_site_fract_x
_atom_site_fract_y
_atom_site_fract_z
Si Si1 0.742252 0.501982 0.475394
Si Si2 0.895557 0.502989 0.985929
Si Si3 0.143812 0.961672 0.624296
Si Si4 0.340215 0.012069 0.694975
Si Si5 0.040858 0.769630 0.192504
Si Si6 0.532477 0.809689 0.690924
Si Si7 0.726019 0.320878 0.371289
Si Si8 0.204147 0.307686 0.695619
O O1 0.717732 0.750000 0.500000
O O2 0.823157 0.503602 0.484773
O O3 0.721215 0.493253 0.418330
O O4 0.718640 0.250000 0.500000
O O5 0.887638 0.510248 0.927757
O O6 0.929749 0.750000 0.000000
O O7 0.926575 0.250000 0.000000
O O8 0.102703 0.766807 0.655756
O O9 0.218597 0.873197 0.611629
O O10 0.151055 0.195240 0.658658
O O11 0.358332 0.918366 0.750000
O O12 0.391085 0.227975 0.682741
O O13 0.337179 0.813314 0.652258
O O14 0.265446 0.116605 0.698285
O O15 0.061139 0.759732 0.250000
O O16 0.996061 0.526171 0.184455
O O17 0.524095 0.822090 0.750000
O O18 0.509709 0.074168 0.672984
O O19 0.760849 0.458315 0.326251
O O20 0.176732 0.342387 0.750000
#
# Coordination Sequence:
#
# PCOD9435842 Si02
#       8
#     8   8   8   8   8   8   8   8
#     4  10  19  34  52  78 110 146 180 225 273 338
#     4  10  19  33  55  84 110 141 177 230 278 335
#     4  11  22  37  60  84 110 151 194 228 289 351
#     4   9  20  34  48  78 120 154 190 238 283 332
#     4  10  24  44  63  84 112 148 193 243 280 325
#     4   9  18  32  52  73 101 152 205 237 270 321
#     4  11  21  33  56  84 115 154 183 232 289 355
#     4  10  21  33  51  81 117 151 183 227 283 349
#
# _framework density 21.245346000000001
#
# number of rings (size 3 to 8) (size 9 to 14) (size 15 to 20)
#    0.000    2.000    2.500    2.250    5.250    1.500 
#    0.000    0.000    0.000    2.250    0.000    0.000 
#    0.000    3.000    0.000    0.000    0.000    0.000 
#
# Total GULP energy -357252.331653 kJ/mol
# GULP energy per Si atom -5582.067682 kJ/mol
# Density = 2.119699 g / cm^3
# Si number density = 21.245346 Si / 1000 Ang^3
#
#
#
# Elastic Constant Matrix: (Units=GPa)
#
#
# Indices 1 2 3 4 5 6 
#
# 1 46.9544 12.3206 15.4955 0.0000 0.0000 0.0000
# 2 12.3206 120.1987 16.2439 0.0000 0.0000 0.0000
# 3 15.4955 16.2439 76.2139 0.0000 0.0000 0.0000
# 4 0.0000 0.0000 0.0000 15.1479 0.0000 0.0000
# 5 0.0000 0.0000 0.0000 0.0000 1.9045 0.0000
# 6 0.0000 0.0000 0.0000 0.0000 0.0000 25.4178
#
#
#
# Elastic Compliance Matrix: (Units=1/GPa)
#
#
# Indices 1 2 3 4 5 6 
#
# 1 0.023198 -0.001792 -0.004335 0.000000 0.000000 0.000000
# 2 -0.001792 0.008705 -0.001491 0.000000 0.000000 0.000000
# 3 -0.004335 -0.001491 0.014320 0.000000 0.000000 0.000000
# 4 0.000000 0.000000 0.000000 0.066016 0.000000 0.000000
# 5 0.000000 0.000000 0.000000 0.000000 0.525066 0.000000
# 6 0.000000 0.000000 0.000000 0.000000 0.000000 0.039342
#
#
# Mechanical properties :
#
#
# Convention : Reuss Voigt Hill
#
# Bulk Modulus (GPa) = 32.27097 36.83188 34.55142
# Shear Modulus (GPa) = 7.12037 21.78118 14.45077
#
# Velocity S-wave (km/s) = 1.83269 3.20538 2.61087
# Velocity P-wave (km/s) = 4.43858 5.57435 5.03857
#
# Compressibility (1/GPa) = 0.03098761
#
# Stress axis : x y z
#
# Youngs Moduli (GPa) = 43.10729 114.88006 69.83228
#
# Poissons Ratio (x) = 0.20587 0.30269
# Poissons Ratio (y) = 0.07725 0.10412
# Poissons Ratio (z) = 0.18685 0.17128
#
# Static dielectric constant tensor:
#      x y z
#    x 1.791200 0.000000 0.000000 
#    y 0.000000 1.832330 0.000000 
#    z 0.000000 0.000000 1.752980 
# 
# From -- ./inp_files/28930.got.cif
#   From: 2010.05.17/outbox.cif.g08.bks.cpg/sg57_15_cif.got.tgz:28930.got - 2010.06.03 13:58:18.
