data_PCOD9435720
_publ_section_title
;
Structure prediction by ZEFSAII (Michael W. Deem and Ramdas Pophale) SiO2 
 PCOD9435720
Probable space group: P B C M
;
_chemical_formula_sum "Si O2"
_cell_formula_units_Z 48
_cell_length_a 32.278170
_cell_length_b 9.244629
_cell_length_c 8.606578
_cell_angle_alpha 90.000000
_cell_angle_beta 90.000000
_cell_angle_gamma 90.000000
_cell_volume 2568.200349
_symmetry_space_group_name_H-M "P B C M"
_symmetry_group_IT_number 57
_symmetry_cell_setting 'orthorhombic'
loop_
_space_group_symop_operation_xyz
x,y,z
-x,-y,1/2+z
x,1/2-y,-z
-x,1/2+y,1/2-z
-x,-y,-z
x,y,1/2-z
-x,1/2+y,z
x,1/2-y,1/2+z
loop_
_atom_site_type_symbol
_atom_site_label
_atom_site_fract_x
_atom_site_fract_y
_atom_site_fract_z
Si Si1 0.879757 0.913154 0.437308
Si Si2 0.960836 0.088093 0.063018
Si Si3 0.460663 0.087352 0.436858
Si Si4 0.297189 0.086253 0.436290
Si Si5 0.788796 0.585698 0.563663
Si Si6 0.378623 0.587986 0.562531
O O1 0.884004 0.750000 0.500000
O O2 0.880471 0.905170 0.250000
O O3 0.834154 0.973563 0.481353
O O4 0.918291 0.009949 0.488240
O O5 0.962027 0.089158 0.250000
O O6 0.962274 0.250000 0.000000
O O7 0.000000 0.000000 0.000000
O O8 0.460922 0.250000 0.500000
O O9 0.462178 0.090458 0.250000
O O10 0.500000 0.000000 0.500000
O O11 0.418625 0.005072 0.485648
O O12 0.301257 0.250000 0.500000
O O13 0.296426 0.093610 0.250000
O O14 0.253384 0.022078 0.494601
O O15 0.336417 0.991762 0.487484
O O16 0.789510 0.750000 0.500000
O O17 0.785583 0.587463 0.750000
O O18 0.381071 0.750000 0.500000
O O19 0.378458 0.592920 0.750000
#
# Coordination Sequence:
#
# PCOD9435720 Si02
#       6
#     8   8   8   8   8   8
#     4   9  19  34  54  79 108 139 176 218 265 318
#     4  11  23  39  57  80 108 141 179 222 269 322
#     4  11  23  40  61  87 115 147 184 226 273 326
#     4  10  19  33  53  80 108 139 179 223 267 317
#     4   9  16  29  50  77 106 139 176 218 264 315
#     4  10  23  39  56  79 110 145 184 225 271 322
#
# _framework density 18.69013
#
# number of rings (size 3 to 8) (size 9 to 14) (size 15 to 20)
#    0.000    2.000    0.000    4.500    0.000    7.333 
#    0.000    0.833    0.000    4.000    0.000    0.000 
#    0.000    0.000    0.000    0.000    0.000    0.000 
#
# Total GULP energy -267958.360066 kJ/mol
# GULP energy per Si atom -5582.465835 kJ/mol
# Density = 1.864759 g / cm^3
# Si number density = 18.690130 Si / 1000 Ang^3
#
#
#
# Elastic Constant Matrix: (Units=GPa)
#
#
# Indices 1 2 3 4 5 6 
#
# 1 235.4162 106.7039 49.9760 0.0000 0.0000 0.0000
# 2 106.7039 130.6914 30.0273 0.0000 0.0000 0.0000
# 3 49.9760 30.0273 45.6069 0.0000 0.0000 0.0000
# 4 0.0000 0.0000 0.0000 29.9515 0.0000 0.0000
# 5 0.0000 0.0000 0.0000 0.0000 29.1227 0.0000
# 6 0.0000 0.0000 0.0000 0.0000 0.0000 25.8627
#
#
#
# Elastic Compliance Matrix: (Units=1/GPa)
#
#
# Indices 1 2 3 4 5 6 
#
# 1 0.007602 -0.005058 -0.005000 0.000000 0.000000 0.000000
# 2 -0.005058 0.012380 -0.002609 0.000000 0.000000 0.000000
# 3 -0.005000 -0.002609 0.029123 0.000000 0.000000 0.000000
# 4 0.000000 0.000000 0.000000 0.033387 0.000000 0.000000
# 5 0.000000 0.000000 0.000000 0.000000 0.034337 0.000000
# 6 0.000000 0.000000 0.000000 0.000000 0.000000 0.038666
#
#
# Mechanical properties :
#
#
# Convention : Reuss Voigt Hill
#
# Bulk Modulus (GPa) = 42.06622 87.23656 64.65139
# Shear Modulus (GPa) = 26.48965 31.98787 29.23876
#
# Velocity S-wave (km/s) = 3.76880 4.14150 3.95954
# Velocity P-wave (km/s) = 6.44162 8.34541 7.45454
#
# Compressibility (1/GPa) = 0.02377204
#
# Stress axis : x y z
#
# Youngs Moduli (GPa) = 131.55075 80.77285 34.33682
#
# Poissons Ratio (x) = 0.40852 0.17168
# Poissons Ratio (y) = 0.66533 0.08959
# Poissons Ratio (z) = 0.65775 0.21074
#
# Static dielectric constant tensor:
#      x y z
#    x 1.682400 0.000000 0.000000 
#    y 0.000000 1.599470 0.000000 
#    z 0.000000 0.000000 1.636190 
# 
# From -- ./inp_files/10067.got.cif
#   From: 2010.05.17/outbox.cif.g08.bks.cpg/sg57_6_cif.got.tgz:10067.got - 2010.06.03 13:58:18.
