data_PCOD9435797
_publ_section_title
;
Structure prediction by ZEFSAII (Michael W. Deem and Ramdas Pophale) SiO2 
 PCOD9435797
Probable space group: P B C M
;
_chemical_formula_sum "Si O2"
_cell_formula_units_Z 48
_cell_length_a 10.059701
_cell_length_b 24.374231
_cell_length_c 8.061308
_cell_angle_alpha 90.000000
_cell_angle_beta 90.000000
_cell_angle_gamma 90.000000
_cell_volume 1976.612375
_symmetry_space_group_name_H-M "P B C M"
_symmetry_group_IT_number 57
_symmetry_cell_setting 'orthorhombic'
loop_
_space_group_symop_operation_xyz
x,y,z
-x,-y,1/2+z
x,1/2-y,-z
-x,1/2+y,1/2-z
-x,-y,-z
x,y,1/2-z
-x,1/2+y,z
x,1/2-y,1/2+z
loop_
_atom_site_type_symbol
_atom_site_label
_atom_site_fract_x
_atom_site_fract_y
_atom_site_fract_z
Si Si1 0.752659 0.067972 0.451789
Si Si2 0.168225 0.455253 0.551356
Si Si3 0.808982 0.309730 0.563855
Si Si4 0.536924 0.923165 0.949852
Si Si5 0.077352 0.340028 0.439024
Si Si6 0.632046 0.692224 0.446377
O O1 0.757860 0.068539 0.250000
O O2 0.777386 0.130176 0.513348
O O3 0.602291 0.053437 0.510949
O O4 0.849597 0.018977 0.507227
O O5 0.160915 0.448776 0.750000
O O6 0.319752 0.442935 0.490080
O O7 0.085347 0.405253 0.475143
O O8 0.767074 0.250000 0.500000
O O9 0.756996 0.313110 0.750000
O O10 0.969698 0.311784 0.556016
O O11 0.537923 0.930067 0.750000
O O12 0.537629 0.858362 0.987391
O O13 0.037377 0.329941 0.250000
O O14 0.224966 0.317197 0.469549
O O15 0.575541 0.750000 0.500000
O O16 0.655188 0.690782 0.250000
#
# Coordination Sequence:
#
# PCOD9435797 Si02
#       6
#     8   8   8   8   8   8
#     4  10  21  38  59  83 114 152 190 227 273 331
#     4  10  20  36  60  89 118 145 181 231 283 333
#     4  11  24  41  60  82 112 150 190 232 276 328
#     4   8  17  34  55  81 114 150 186 228 276 328
#     4  11  22  38  60  83 110 145 187 234 284 337
#     4  10  19  33  54  82 114 146 186 235 285 335
#
# _framework density 24.283973
#
# number of rings (size 3 to 8) (size 9 to 14) (size 15 to 20)
#    0.000    2.000    0.000    5.000    0.000    2.667 
#    0.000    4.167    0.000    0.000    0.000    0.000 
#    0.000    0.000    0.000    0.000    0.000    0.000 
#
# Total GULP energy -268219.732086 kJ/mol
# GULP energy per Si atom -5587.911085 kJ/mol
# Density = 2.422870 g / cm^3
# Si number density = 24.283973 Si / 1000 Ang^3
#
#
#
# Elastic Constant Matrix: (Units=GPa)
#
#
# Indices 1 2 3 4 5 6 
#
# 1 46.1340 3.3253 -13.0004 0.0000 0.0000 0.0000
# 2 3.3253 158.4147 8.3372 0.0000 0.0000 0.0000
# 3 -13.0004 8.3372 46.1695 0.0000 0.0000 0.0000
# 4 0.0000 0.0000 0.0000 36.2880 0.0000 0.0000
# 5 0.0000 0.0000 0.0000 0.0000 9.2628 0.0000
# 6 0.0000 0.0000 0.0000 0.0000 0.0000 23.8374
#
#
#
# Elastic Compliance Matrix: (Units=1/GPa)
#
#
# Indices 1 2 3 4 5 6 
#
# 1 0.023658 -0.000855 0.006816 0.000000 0.000000 0.000000
# 2 -0.000855 0.006404 -0.001397 0.000000 0.000000 0.000000
# 3 0.006816 -0.001397 0.023831 0.000000 0.000000 0.000000
# 4 0.000000 0.000000 0.000000 0.027557 0.000000 0.000000
# 5 0.000000 0.000000 0.000000 0.000000 0.107958 0.000000
# 6 0.000000 0.000000 0.000000 0.000000 0.000000 0.041951
#
#
# Mechanical properties :
#
#
# Convention : Reuss Voigt Hill
#
# Bulk Modulus (GPa) = 15.86786 27.56028 21.71407
# Shear Modulus (GPa) = 20.55585 30.68138 25.61861
#
# Velocity S-wave (km/s) = 2.91259 3.55835 3.25154
# Velocity P-wave (km/s) = 4.22603 5.31566 4.80185
#
# Compressibility (1/GPa) = 0.06302048
#
# Stress axis : x y z
#
# Youngs Moduli (GPa) = 42.26829 156.15153 41.96224
#
# Poissons Ratio (x) = 0.13356 -0.28602
# Poissons Ratio (y) = 0.03615 0.05863
# Poissons Ratio (z) = -0.28811 0.21819
#
# Static dielectric constant tensor:
#      x y z
#    x 1.945900 0.000000 0.000000 
#    y 0.000000 1.988270 0.000000 
#    z 0.000000 0.000000 1.866990 
# 
# From -- ./inp_files/3190.got.cif
#   From: 2010.05.17/outbox.cif.g08.bks.cpg/sg57_2_cif.got.tgz:3190.got - 2010.06.03 13:58:18.
