data_PCOD9435476
_publ_section_title
;
Structure prediction by ZEFSAII (Michael W. Deem and Ramdas Pophale) SiO2 
 PCOD9435476
Probable space group: P B C M
;
_chemical_formula_sum "Si O2"
_cell_formula_units_Z 64
_cell_length_a 25.559847
_cell_length_b 14.931818
_cell_length_c 8.602925
_cell_angle_alpha 90.000000
_cell_angle_beta 90.000000
_cell_angle_gamma 90.000000
_cell_volume 3283.349199
_symmetry_space_group_name_H-M "P B C M"
_symmetry_group_IT_number 57
_symmetry_cell_setting 'orthorhombic'
loop_
_space_group_symop_operation_xyz
x,y,z
-x,-y,1/2+z
x,1/2-y,-z
-x,1/2+y,1/2-z
-x,-y,-z
x,y,1/2-z
-x,1/2+y,z
x,1/2-y,1/2+z
loop_
_atom_site_type_symbol
_atom_site_label
_atom_site_fract_x
_atom_site_fract_y
_atom_site_fract_z
Si Si1 0.631223 0.345914 0.434909
Si Si2 0.415086 0.162127 0.933713
Si Si3 0.669458 0.965977 0.937372
Si Si4 0.519064 0.405063 0.566290
Si Si5 0.771201 0.851264 0.561981
Si Si6 0.093766 0.843247 0.435596
Si Si7 0.986933 0.901610 0.563173
Si Si8 0.124932 0.455382 0.938912
O O1 0.647129 0.250000 0.500000
O O2 0.628699 0.339931 0.250000
O O3 0.669083 0.428800 0.476076
O O4 0.573062 0.370932 0.494113
O O5 0.422579 0.166791 0.750000
O O6 0.386605 0.250000 0.000000
O O7 0.380368 0.077462 0.979511
O O8 0.470112 0.156406 0.021733
O O9 0.662587 0.958131 0.750000
O O10 0.720396 0.909642 0.982372
O O11 0.500000 0.500000 0.500000
O O12 0.525437 0.411053 0.750000
O O13 0.769623 0.750000 0.500000
O O14 0.772326 0.847206 0.750000
O O15 0.822570 0.906076 0.509021
O O16 0.117002 0.750000 0.500000
O O17 0.902868 0.158173 0.750000
O O18 0.117361 0.940158 0.489795
O O19 0.032753 0.844897 0.486007
O O20 0.991529 0.896295 0.750000
O O21 0.925774 0.894659 0.519796
O O22 0.000000 0.000000 0.500000
O O23 0.125617 0.459474 0.750000
#
# Coordination Sequence:
#
# PCOD9435476 Si02
#       8
#     8   8   8   8   8   8   8   8
#     4  11  23  40  61  86 117 153 192 234 282 339
#     4  12  24  38  59  85 117 153 189 233 280 334
#     4  10  22  40  62  84 112 147 188 235 284 340
#     4  12  23  38  59  87 120 155 191 230 279 336
#     4  10  21  40  62  85 110 143 184 233 289 344
#     4  10  19  32  51  78 112 153 193 236 283 340
#     4   9  16  29  49  75 108 148 189 233 278 335
#     4   8  17  34  55  78 110 148 188 231 285 344
#
# _framework density 19.492291999999999
#
# number of rings (size 3 to 8) (size 9 to 14) (size 15 to 20)
#    0.000    1.750    1.250    4.875    0.000    2.500 
#    0.000    5.625    0.000    0.000    0.000    0.000 
#    0.000    0.000    0.000    0.000    0.000    0.000 
#
# Total GULP energy -357091.118346 kJ/mol
# GULP energy per Si atom -5579.548724 kJ/mol
# Density = 1.944793 g / cm^3
# Si number density = 19.492292 Si / 1000 Ang^3
#
#
#
# Elastic Constant Matrix: (Units=GPa)
#
#
# Indices 1 2 3 4 5 6 
#
# 1 99.2902 50.5060 18.6788 0.0000 0.0000 0.0000
# 2 50.5060 165.2015 35.2049 0.0000 0.0000 0.0000
# 3 18.6788 35.2049 45.4620 0.0000 0.0000 0.0000
# 4 0.0000 0.0000 0.0000 34.4407 0.0000 0.0000
# 5 0.0000 0.0000 0.0000 0.0000 15.5136 0.0000
# 6 0.0000 0.0000 0.0000 0.0000 0.0000 23.3972
#
#
#
# Elastic Compliance Matrix: (Units=1/GPa)
#
#
# Indices 1 2 3 4 5 6 
#
# 1 0.012166 -0.003179 -0.002537 0.000000 0.000000 0.000000
# 2 -0.003179 0.008080 -0.004951 0.000000 0.000000 0.000000
# 3 -0.002537 -0.004951 0.026873 0.000000 0.000000 0.000000
# 4 0.000000 0.000000 0.000000 0.029035 0.000000 0.000000
# 5 0.000000 0.000000 0.000000 0.000000 0.064459 0.000000
# 6 0.000000 0.000000 0.000000 0.000000 0.000000 0.042740
#
#
# Mechanical properties :
#
#
# Convention : Reuss Voigt Hill
#
# Bulk Modulus (GPa) = 38.78206 57.63702 48.20954
# Shear Modulus (GPa) = 23.44315 28.37456 25.90885
#
# Velocity S-wave (km/s) = 3.47174 3.81948 3.64975
# Velocity P-wave (km/s) = 6.00083 7.00604 6.52282
#
# Compressibility (1/GPa) = 0.02578512
#
# Stress axis : x y z
#
# Youngs Moduli (GPa) = 82.19855 123.76077 37.21241
#
# Poissons Ratio (x) = 0.39340 0.09441
# Poissons Ratio (y) = 0.26128 0.18424
# Poissons Ratio (z) = 0.20853 0.61275
#
# Static dielectric constant tensor:
#      x y z
#    x 1.596340 0.000000 0.000000 
#    y 0.000000 1.781490 0.000000 
#    z 0.000000 0.000000 1.654590 
# 
# From -- ./inp_files/9342.got.cif
#   From: 2010.05.17/outbox.cif.g08.bks.cpg/sg57_5_cif.got.tgz:9342.got - 2010.06.03 13:58:18.
