data_PCOD9435644
_publ_section_title
;
Structure prediction by ZEFSAII (Michael W. Deem and Ramdas Pophale) SiO2 
 PCOD9435644
Probable space group: P B C M
;
_chemical_formula_sum "Si O2"
_cell_formula_units_Z 64
_cell_length_a 15.162866
_cell_length_b 30.217264
_cell_length_c 8.733197
_cell_angle_alpha 90.000000
_cell_angle_beta 90.000000
_cell_angle_gamma 90.000000
_cell_volume 4001.379039
_symmetry_space_group_name_H-M "P B C M"
_symmetry_group_IT_number 57
_symmetry_cell_setting 'orthorhombic'
loop_
_space_group_symop_operation_xyz
x,y,z
-x,-y,1/2+z
x,1/2-y,-z
-x,1/2+y,1/2-z
-x,-y,-z
x,y,1/2-z
-x,1/2+y,z
x,1/2-y,1/2+z
loop_
_atom_site_type_symbol
_atom_site_label
_atom_site_fract_x
_atom_site_fract_y
_atom_site_fract_z
Si Si1 0.140228 0.940551 0.434370
Si Si2 0.705603 0.381243 0.930799
Si Si3 0.621890 0.533041 0.433094
Si Si4 0.826448 0.958811 0.565559
Si Si5 0.207432 0.796245 0.067730
Si Si6 0.010441 0.797134 0.567089
Si Si7 0.040004 0.388530 0.432894
Si Si8 0.447402 0.933968 0.431278
O O1 0.153479 0.937692 0.250000
O O2 0.223061 0.917733 0.515121
O O3 0.051541 0.913837 0.473448
O O4 0.136148 0.992417 0.474639
O O5 0.712387 0.374735 0.750000
O O6 0.732111 0.336677 0.017840
O O7 0.609649 0.398283 0.978664
O O8 0.613314 0.539081 0.250000
O O9 0.722926 0.541836 0.476020
O O10 0.548602 0.562228 0.517282
O O11 0.596673 0.481932 0.465314
O O12 0.832905 0.954329 0.750000
O O13 0.881617 0.920292 0.486824
O O14 0.198804 0.793865 0.250000
O O15 0.240855 0.750000 0.000000
O O16 0.110112 0.803100 0.996341
O O17 0.978603 0.750000 0.500000
O O18 0.012338 0.794835 0.750000
O O19 0.958796 0.840466 0.510988
O O20 0.040988 0.383026 0.250000
O O21 0.440408 0.926478 0.250000
#
# Coordination Sequence:
#
# PCOD9435644 Si02
#       8
#     8   8   8   8   8   8   8   8
#     4  10  20  35  50  69 103 143 179 218 255 299
#     4  12  22  32  51  77 104 138 177 212 254 312
#     4   9  18  33  51  73 100 133 172 216 259 304
#     4  10  20  35  52  71 103 142 179 220 263 304
#     4  11  21  35  53  75 104 135 170 212 259 308
#     4  11  21  35  54  76 101 133 171 214 262 308
#     4  11  22  34  51  75 104 140 179 217 257 308
#     4  10  19  33  52  73 101 134 168 214 261 305
#
# _framework density 15.994486999999999
#
# number of rings (size 3 to 8) (size 9 to 14) (size 15 to 20)
#    0.000    1.500    2.500    5.250    0.000    2.000 
#    0.000    0.000    0.000    0.000    0.000    0.875 
#    0.000    6.000    0.000    0.000    0.000    0.000 
#
# Total GULP energy -357465.086758 kJ/mol
# GULP energy per Si atom -5585.391981 kJ/mol
# Density = 1.595808 g / cm^3
# Si number density = 15.994487 Si / 1000 Ang^3
#
#
#
# Elastic Constant Matrix: (Units=GPa)
#
#
# Indices 1 2 3 4 5 6 
#
# 1 64.8738 42.9315 32.4550 0.0000 0.0000 0.0000
# 2 42.9315 118.4130 54.0455 0.0000 0.0000 0.0000
# 3 32.4550 54.0455 79.7748 0.0000 0.0000 0.0000
# 4 0.0000 0.0000 0.0000 26.1720 0.0000 0.0000
# 5 0.0000 0.0000 0.0000 0.0000 24.7542 0.0000
# 6 0.0000 0.0000 0.0000 0.0000 0.0000 15.4384
#
#
#
# Elastic Compliance Matrix: (Units=1/GPa)
#
#
# Indices 1 2 3 4 5 6 
#
# 1 0.021595 -0.005529 -0.005040 0.000000 0.000000 0.000000
# 2 -0.005529 0.013641 -0.006992 0.000000 0.000000 0.000000
# 3 -0.005040 -0.006992 0.019322 0.000000 0.000000 0.000000
# 4 0.000000 0.000000 0.000000 0.038209 0.000000 0.000000
# 5 0.000000 0.000000 0.000000 0.000000 0.040397 0.000000
# 6 0.000000 0.000000 0.000000 0.000000 0.000000 0.064773
#
#
# Mechanical properties :
#
#
# Convention : Reuss Voigt Hill
#
# Bulk Modulus (GPa) = 51.44901 57.99173 54.72037
# Shear Modulus (GPa) = 20.87354 22.18158 21.52756
#
# Velocity S-wave (km/s) = 3.61646 3.72805 3.67268
# Velocity P-wave (km/s) = 7.04804 7.40724 7.22987
#
# Compressibility (1/GPa) = 0.01943672
#
# Stress axis : x y z
#
# Youngs Moduli (GPa) = 46.30743 73.30900 51.75342
#
# Poissons Ratio (x) = 0.40534 0.26081
# Poissons Ratio (y) = 0.25604 0.36186
# Poissons Ratio (z) = 0.23337 0.51257
#
# Static dielectric constant tensor:
#      x y z
#    x 1.516070 0.000000 0.000000 
#    y 0.000000 1.538680 0.000000 
#    z 0.000000 0.000000 1.535860 
# 
# From -- ./inp_files/6056.got.cif
#   From: 2010.05.17/outbox.cif.g08.bks.cpg/sg57_4_cif.got.tgz:6056.got - 2010.06.03 13:58:18.
