data_PCOD9435811
_publ_section_title
;
Structure prediction by ZEFSAII (Michael W. Deem and Ramdas Pophale) SiO2 
 PCOD9435811
Probable space group: P B C M
;
_chemical_formula_sum "Si O2"
_cell_formula_units_Z 64
_cell_length_a 12.667991
_cell_length_b 29.399757
_cell_length_c 8.755907
_cell_angle_alpha 90.000000
_cell_angle_beta 90.000000
_cell_angle_gamma 90.000000
_cell_volume 3261.013728
_symmetry_space_group_name_H-M "P B C M"
_symmetry_group_IT_number 57
_symmetry_cell_setting 'orthorhombic'
loop_
_space_group_symop_operation_xyz
x,y,z
-x,-y,1/2+z
x,1/2-y,-z
-x,1/2+y,1/2-z
-x,-y,-z
x,y,1/2-z
-x,1/2+y,z
x,1/2-y,1/2+z
loop_
_atom_site_type_symbol
_atom_site_label
_atom_site_fract_x
_atom_site_fract_y
_atom_site_fract_z
Si Si1 0.346443 0.178302 0.572044
Si Si2 0.410960 0.427648 0.426061
Si Si3 0.051316 0.390743 0.068237
Si Si4 0.120791 0.298543 0.931991
Si Si5 0.208042 0.036966 0.430943
Si Si6 0.852413 0.057940 0.067814
Si Si7 0.431032 0.796120 0.932544
Si Si8 0.373520 0.602273 0.432473
O O1 0.336028 0.191480 0.750000
O O2 0.365887 0.124015 0.565987
O O3 0.241899 0.192309 0.482733
O O4 0.450715 0.199619 0.498637
O O5 0.409395 0.442423 0.250000
O O6 0.330498 0.458164 0.522057
O O7 0.529776 0.423659 0.487440
O O8 0.065923 0.390672 0.250000
O O9 0.054914 0.339783 0.004106
O O10 0.146252 0.418795 0.990499
O O11 0.944620 0.415984 0.019638
O O12 0.112816 0.298774 0.750000
O O13 0.088897 0.250000 0.000000
O O14 0.197364 0.032981 0.250000
O O15 0.156109 0.993879 0.513383
O O16 0.871420 0.060018 0.250000
O O17 0.739392 0.080776 0.033822
O O18 0.434172 0.792988 0.750000
O O19 0.377173 0.844184 0.975318
O O20 0.382453 0.750000 0.000000
O O21 0.391372 0.599824 0.250000
#
# Coordination Sequence:
#
# PCOD9435811 Si02
#       8
#     8   8   8   8   8   8   8   8
#     4  10  19  33  54  84 122 160 197 243 297 358
#     4  10  20  35  60  91 126 161 198 247 303 362
#     4  12  25  44  66  92 125 160 204 256 308 367
#     4  12  24  39  61  90 124 163 202 248 303 365
#     4  12  24  40  65  95 125 160 202 252 312 372
#     4  11  24  44  66  89 119 161 210 259 310 367
#     4  10  19  33  54  83 116 154 201 248 298 357
#     4   9  21  40  61  85 120 162 205 252 304 365
#
# _framework density 19.625798
#
# number of rings (size 3 to 8) (size 9 to 14) (size 15 to 20)
#    0.000    1.250    1.250    5.625    0.000    3.000 
#    0.000    0.625    0.000    1.500    0.000    0.000 
#    0.000    0.000    0.000    0.000    0.000    0.000 
#
# Total GULP energy -358006.777715 kJ/mol
# GULP energy per Si atom -5593.855902 kJ/mol
# Density = 1.958113 g / cm^3
# Si number density = 19.625798 Si / 1000 Ang^3
#
#
#
# Elastic Constant Matrix: (Units=GPa)
#
#
# Indices 1 2 3 4 5 6 
#
# 1 43.7674 1.1484 5.3441 0.0000 0.0000 0.0000
# 2 1.1484 57.4838 -0.5813 0.0000 0.0000 0.0000
# 3 5.3441 -0.5813 47.0230 0.0000 0.0000 0.0000
# 4 0.0000 0.0000 0.0000 31.0459 0.0000 0.0000
# 5 0.0000 0.0000 0.0000 0.0000 126.2300 0.0000
# 6 0.0000 0.0000 0.0000 0.0000 0.0000 20.2733
#
#
#
# Elastic Compliance Matrix: (Units=1/GPa)
#
#
# Indices 1 2 3 4 5 6 
#
# 1 0.023183 -0.000490 -0.002641 0.000000 0.000000 0.000000
# 2 -0.000490 0.017409 0.000271 0.000000 0.000000 0.000000
# 3 -0.002641 0.000271 0.021570 0.000000 0.000000 0.000000
# 4 0.000000 0.000000 0.000000 0.032210 0.000000 0.000000
# 5 0.000000 0.000000 0.000000 0.000000 0.007922 0.000000
# 6 0.000000 0.000000 0.000000 0.000000 0.000000 0.049326
#
#
# Mechanical properties :
#
#
# Convention : Reuss Voigt Hill
#
# Bulk Modulus (GPa) = 17.71724 17.78850 17.75287
# Shear Modulus (GPa) = 28.38430 45.00072 36.69251
#
# Velocity S-wave (km/s) = 3.80712 4.79366 4.32858
# Velocity P-wave (km/s) = 5.32660 6.30257 5.83502
#
# Compressibility (1/GPa) = 0.05644220
#
# Stress axis : x y z
#
# Youngs Moduli (GPa) = 43.13444 57.44248 46.36140
#
# Poissons Ratio (x) = 0.02814 0.12243
# Poissons Ratio (y) = 0.02113 -0.01256
# Poissons Ratio (z) = 0.11391 -0.01556
#
# Static dielectric constant tensor:
#      x y z
#    x 1.661990 0.000000 0.000000 
#    y 0.000000 1.713620 0.000000 
#    z 0.000000 0.000000 1.653700 
# 
# From -- ./inp_files/3867.got.cif
#   From: 2010.05.17/outbox.cif.g08.bks.cpg/sg57_2_cif.got.tgz:3867.got - 2010.06.03 13:58:18.
