data_PCOD9435554
_publ_section_title
;
Structure prediction by ZEFSAII (Michael W. Deem and Ramdas Pophale) SiO2 
 PCOD9435554
Probable space group: P B C M
;
_chemical_formula_sum "Si O2"
_cell_formula_units_Z 64
_cell_length_a 14.673493
_cell_length_b 30.787113
_cell_length_c 8.416901
_cell_angle_alpha 90.000000
_cell_angle_beta 90.000000
_cell_angle_gamma 90.000000
_cell_volume 3802.372794
_symmetry_space_group_name_H-M "P B C M"
_symmetry_group_IT_number 57
_symmetry_cell_setting 'orthorhombic'
loop_
_space_group_symop_operation_xyz
x,y,z
-x,-y,1/2+z
x,1/2-y,-z
-x,1/2+y,1/2-z
-x,-y,-z
x,y,1/2-z
-x,1/2+y,z
x,1/2-y,1/2+z
loop_
_atom_site_type_symbol
_atom_site_label
_atom_site_fract_x
_atom_site_fract_y
_atom_site_fract_z
Si Si1 0.376258 0.623186 0.442127
Si Si2 0.532447 0.938555 0.562569
Si Si3 0.343467 0.140870 0.556935
Si Si4 0.308724 0.490187 0.059741
Si Si5 0.499573 0.798235 0.060730
Si Si6 0.178080 0.409809 0.057635
Si Si7 0.008493 0.950114 0.059554
Si Si8 0.204204 0.576359 0.057643
O O1 0.380297 0.623261 0.250000
O O2 0.436321 0.581155 0.495661
O O3 0.426113 0.666406 0.501214
O O4 0.271130 0.615892 0.488617
O O5 0.524813 0.945416 0.750000
O O6 0.598531 0.897750 0.522118
O O7 0.589162 0.978820 0.493181
O O8 0.349195 0.135808 0.750000
O O9 0.399466 0.183978 0.513591
O O10 0.238281 0.132247 0.510528
O O11 0.311408 0.491899 0.250000
O O12 0.241435 0.450879 0.014042
O O13 0.260010 0.533663 0.004304
O O14 0.495881 0.798071 0.250000
O O15 0.483111 0.750000 0.000000
O O16 0.172748 0.408563 0.250000
O O17 0.077152 0.421211 0.999921
O O18 0.004378 0.952110 0.250000
O O19 0.103189 0.928371 0.008389
O O20 0.000000 0.000000 0.000000
O O21 0.198183 0.575643 0.250000
#
# Coordination Sequence:
#
# PCOD9435554 Si02
#       8
#     8   8   8   8   8   8   8   8
#     4   9  19  34  49  66  95 128 159 198 244 287
#     4   9  16  26  41  64  90 118 156 200 238 276
#     4   8  15  29  47  67  91 124 155 182 226 288
#     4   9  16  28  43  59  85 126 165 196 239 287
#     4  10  19  32  54  79 102 124 151 185 229 289
#     4   8  14  27  45  63  88 122 159 196 238 282
#     4  11  20  31  47  68  93 125 168 215 252 287
#     4  10  20  34  47  62  90 130 169 207 246 282
#
# _framework density 16.831596000000001
#
# number of rings (size 3 to 8) (size 9 to 14) (size 15 to 20)
#    0.000    2.750    1.250    1.875    0.000    2.500 
#    0.000    0.625    0.000    0.000    0.000    0.875 
#    0.000    4.000    0.000    0.000    0.000    0.000 
#
# Total GULP energy -356292.983152 kJ/mol
# GULP energy per Si atom -5567.077862 kJ/mol
# Density = 1.679329 g / cm^3
# Si number density = 16.831596 Si / 1000 Ang^3
#
#
#
# Elastic Constant Matrix: (Units=GPa)
#
#
# Indices 1 2 3 4 5 6 
#
# 1 166.0343 56.0623 23.3152 0.0000 0.0000 0.0000
# 2 56.0623 74.7295 14.8022 0.0000 0.0000 0.0000
# 3 23.3152 14.8022 15.6680 0.0000 0.0000 0.0000
# 4 0.0000 0.0000 0.0000 11.4545 0.0000 0.0000
# 5 0.0000 0.0000 0.0000 0.0000 20.5733 0.0000
# 6 0.0000 0.0000 0.0000 0.0000 0.0000 15.9471
#
#
#
# Elastic Compliance Matrix: (Units=1/GPa)
#
#
# Indices 1 2 3 4 5 6 
#
# 1 0.008907 -0.004991 -0.008540 0.000000 0.000000 0.000000
# 2 -0.004991 0.019258 -0.010768 0.000000 0.000000 0.000000
# 3 -0.008540 -0.010768 0.086705 0.000000 0.000000 0.000000
# 4 0.000000 0.000000 0.000000 0.087302 0.000000 0.000000
# 5 0.000000 0.000000 0.000000 0.000000 0.048607 0.000000
# 6 0.000000 0.000000 0.000000 0.000000 0.000000 0.062707
#
#
# Mechanical properties :
#
#
# Convention : Reuss Voigt Hill
#
# Bulk Modulus (GPa) = 15.08880 49.42122 32.25501
# Shear Modulus (GPa) = 13.01493 20.41179 16.71336
#
# Velocity S-wave (km/s) = 2.78374 3.48617 3.15457
# Velocity P-wave (km/s) = 4.39503 6.75503 5.69854
#
# Compressibility (1/GPa) = 0.06627434
#
# Stress axis : x y z
#
# Youngs Moduli (GPa) = 112.26954 51.92526 11.53336
#
# Poissons Ratio (x) = 0.25914 0.09849
# Poissons Ratio (y) = 0.56030 0.12419
# Poissons Ratio (z) = 0.95874 0.55912
#
# Static dielectric constant tensor:
#      x y z
#    x 1.615640 0.000000 0.000000 
#    y 0.000000 1.577270 0.000000 
#    z 0.000000 0.000000 1.589580 
# 
# From -- ./inp_files/6003.got.cif
#   From: 2010.05.17/outbox.cif.g08.bks.cpg/sg57_4_cif.got.tgz:6003.got - 2010.06.03 13:58:18.
