data_PCOD9435729
_publ_section_title
;
Structure prediction by ZEFSAII (Michael W. Deem and Ramdas Pophale) SiO2 
 PCOD9435729
Probable space group: P B C M
;
_chemical_formula_sum "Si O2"
_cell_formula_units_Z 56
_cell_length_a 15.607485
_cell_length_b 21.556486
_cell_length_c 8.407616
_cell_angle_alpha 90.000000
_cell_angle_beta 90.000000
_cell_angle_gamma 90.000000
_cell_volume 2828.679614
_symmetry_space_group_name_H-M "P B C M"
_symmetry_group_IT_number 57
_symmetry_cell_setting 'orthorhombic'
loop_
_space_group_symop_operation_xyz
x,y,z
-x,-y,1/2+z
x,1/2-y,-z
-x,1/2+y,1/2-z
-x,-y,-z
x,y,1/2-z
-x,1/2+y,z
x,1/2-y,1/2+z
loop_
_atom_site_type_symbol
_atom_site_label
_atom_site_fract_x
_atom_site_fract_y
_atom_site_fract_z
Si Si1 0.943960 0.059167 0.556673
Si Si2 0.793051 0.611365 0.558455
Si Si3 0.440818 0.817236 0.441260
Si Si4 0.765644 0.483546 0.064982
Si Si5 0.580208 0.456748 0.938029
Si Si6 0.958703 0.682513 0.559963
Si Si7 0.635348 0.813892 0.059854
O O1 0.945000 0.056930 0.750000
O O2 0.843728 0.059612 0.506931
O O3 0.987046 0.123408 0.502838
O O4 0.000000 0.000000 0.500000
O O5 0.798095 0.599539 0.750000
O O6 0.810051 0.550044 0.460841
O O7 0.860499 0.664976 0.520773
O O8 0.697607 0.631518 0.514185
O O9 0.404437 0.750000 0.500000
O O10 0.437893 0.815602 0.250000
O O11 0.412019 0.886037 0.494326
O O12 0.539349 0.817968 0.502114
O O13 0.748068 0.471205 0.250000
O O14 0.674635 0.483922 0.976447
O O15 0.568202 0.453139 0.750000
O O16 0.500000 0.500000 0.000000
O O17 0.983255 0.750000 0.500000
O O18 0.965621 0.683431 0.750000
O O19 0.631107 0.812916 0.250000
O O20 0.674024 0.750000 0.000000
#
# Coordination Sequence:
#
# PCOD9435729 Si02
#       7
#     8   8   8   8   8   8   8
#     4  10  21  39  62  88 119 158 204 252 301 361
#     4  10  19  33  53  80 117 155 194 244 303 366
#     4  10  20  37  59  85 119 161 210 258 312 374
#     4  11  23  38  60  89 118 156 205 255 311 374
#     4  12  25  42  64  92 126 164 209 264 323 379
#     4  10  21  36  56  85 121 159 201 252 307 362
#     4   9  18  30  48  75 108 148 188 233 290 355
#
# _framework density 19.797222999999999
#
# number of rings (size 3 to 8) (size 9 to 14) (size 15 to 20)
#    0.000    1.714    1.429    3.429    0.000    4.000 
#    0.000    0.714    0.000    1.714    0.000    0.000 
#    0.000    0.000    0.000    0.000    0.000    0.000 
#
# Total GULP energy -312024.837470 kJ/mol
# GULP energy per Si atom -5571.872098 kJ/mol
# Density = 1.975216 g / cm^3
# Si number density = 19.797223 Si / 1000 Ang^3
#
#
#
# Elastic Constant Matrix: (Units=GPa)
#
#
# Indices 1 2 3 4 5 6 
#
# 1 78.8208 36.7251 13.4506 0.0000 0.0000 0.0000
# 2 36.7251 139.2846 22.9246 0.0000 0.0000 0.0000
# 3 13.4506 22.9246 35.2085 0.0000 0.0000 0.0000
# 4 0.0000 0.0000 0.0000 34.5313 0.0000 0.0000
# 5 0.0000 0.0000 0.0000 0.0000 15.4117 0.0000
# 6 0.0000 0.0000 0.0000 0.0000 0.0000 35.9306
#
#
#
# Elastic Compliance Matrix: (Units=1/GPa)
#
#
# Indices 1 2 3 4 5 6 
#
# 1 0.014838 -0.003337 -0.003496 0.000000 0.000000 0.000000
# 2 -0.003337 0.008792 -0.004450 0.000000 0.000000 0.000000
# 3 -0.003496 -0.004450 0.032635 0.000000 0.000000 0.000000
# 4 0.000000 0.000000 0.000000 0.028959 0.000000 0.000000
# 5 0.000000 0.000000 0.000000 0.000000 0.064886 0.000000
# 6 0.000000 0.000000 0.000000 0.000000 0.000000 0.027831
#
#
# Mechanical properties :
#
#
# Convention : Reuss Voigt Hill
#
# Bulk Modulus (GPa) = 29.67350 44.39049 37.03199
# Shear Modulus (GPa) = 23.61386 29.18894 26.40140
#
# Velocity S-wave (km/s) = 3.45742 3.84395 3.65580
# Velocity P-wave (km/s) = 5.56414 6.49404 6.04699
#
# Compressibility (1/GPa) = 0.03370010
#
# Stress axis : x y z
#
# Youngs Moduli (GPa) = 67.39263 113.74267 30.64204
#
# Poissons Ratio (x) = 0.37957 0.10712
# Poissons Ratio (y) = 0.22489 0.13634
# Poissons Ratio (z) = 0.23560 0.50611
#
# Static dielectric constant tensor:
#      x y z
#    x 1.726320 0.000000 0.000000 
#    y 0.000000 1.766690 0.000000 
#    z 0.000000 0.000000 1.682810 
# 
# From -- ./inp_files/5266.got.cif
#   From: 2010.05.17/outbox.cif.g08.bks.cpg/sg57_3_cif.got.tgz:5266.got - 2010.06.03 13:58:18.
