data_PCOD9435802
_publ_section_title
;
Structure prediction by ZEFSAII (Michael W. Deem and Ramdas Pophale) SiO2 
 PCOD9435802
Probable space group: P B C M
;
_chemical_formula_sum "Si O2"
_cell_formula_units_Z 64
_cell_length_a 12.608567
_cell_length_b 27.976585
_cell_length_c 7.676786
_cell_angle_alpha 90.000000
_cell_angle_beta 90.000000
_cell_angle_gamma 90.000000
_cell_volume 2707.945163
_symmetry_space_group_name_H-M "P B C M"
_symmetry_group_IT_number 57
_symmetry_cell_setting 'orthorhombic'
loop_
_space_group_symop_operation_xyz
x,y,z
-x,-y,1/2+z
x,1/2-y,-z
-x,1/2+y,1/2-z
-x,-y,-z
x,y,1/2-z
-x,1/2+y,z
x,1/2-y,1/2+z
loop_
_atom_site_type_symbol
_atom_site_label
_atom_site_fract_x
_atom_site_fract_y
_atom_site_fract_z
Si Si1 0.589813 0.382246 0.550166
Si Si2 0.043741 0.937700 0.954647
Si Si3 0.187930 0.436950 0.958528
Si Si4 0.981491 0.326630 0.461183
Si Si5 0.248263 0.698013 0.541971
Si Si6 0.273751 0.967097 0.540198
Si Si7 0.441430 0.303518 0.946431
Si Si8 0.210915 0.173053 0.951502
O O1 0.559141 0.394028 0.750000
O O2 0.689098 0.345464 0.544656
O O3 0.634548 0.431806 0.472674
O O4 0.497764 0.349433 0.465176
O O5 0.046512 0.949172 0.750000
O O6 0.158027 0.950960 0.031684
O O7 0.928793 0.955275 0.023474
O O8 0.032038 0.880931 0.977800
O O9 0.181935 0.431308 0.750000
O O10 0.275494 0.476654 0.001127
O O11 0.208441 0.384792 0.036051
O O12 0.985480 0.326097 0.250000
O O13 0.097024 0.309652 0.522593
O O14 0.873959 0.301649 0.519005
O O15 0.294151 0.750000 0.500000
O O16 0.251431 0.690446 0.750000
O O17 0.271839 0.961043 0.750000
O O18 0.479232 0.306711 0.750000
O O19 0.467973 0.250000 0.000000
O O20 0.315460 0.309083 0.955522
O O21 0.220690 0.187196 0.750000
#
# Coordination Sequence:
#
# PCOD9435802 Si02
#       8
#     8   8   8   8   8   8   8   8
#     4  10  22  40  61  85 116 151 193 242 291 344
#     4   9  17  30  51  78 114 156 195 232 278 334
#     4  10  20  33  53  86 121 157 198 240 286 342
#     4   9  19  34  53  81 114 148 186 231 285 342
#     4  11  22  35  54  81 114 149 186 231 287 351
#     4  10  19  33  54  82 117 158 197 235 286 345
#     4  11  24  43  66  90 113 145 192 245 295 349
#     4  10  21  40  63  86 117 153 194 244 295 345
#
# _framework density 23.634157999999999
#
# number of rings (size 3 to 8) (size 9 to 14) (size 15 to 20)
#    0.000    2.000    1.250    2.250    0.000    5.000 
#    0.000    1.875    0.000    0.000    0.000    0.000 
#    0.000    0.000    0.000    0.000    0.000    0.000 
#
# Total GULP energy -357334.912432 kJ/mol
# GULP energy per Si atom -5583.358007 kJ/mol
# Density = 2.358037 g / cm^3
# Si number density = 23.634158 Si / 1000 Ang^3
#
#
#
# Elastic Constant Matrix: (Units=GPa)
#
#
# Indices 1 2 3 4 5 6 
#
# 1 90.8251 0.8074 0.8753 0.0000 0.0000 0.0000
# 2 0.8074 41.6700 -8.2003 0.0000 0.0000 0.0000
# 3 0.8753 -8.2003 51.9912 0.0000 0.0000 0.0000
# 4 0.0000 0.0000 0.0000 17.9100 0.0000 0.0000
# 5 0.0000 0.0000 0.0000 0.0000 13.1359 0.0000
# 6 0.0000 0.0000 0.0000 0.0000 0.0000 31.2993
#
#
#
# Elastic Compliance Matrix: (Units=1/GPa)
#
#
# Indices 1 2 3 4 5 6 
#
# 1 0.011015 -0.000258 -0.000226 0.000000 0.000000 0.000000
# 2 -0.000258 0.024773 0.003912 0.000000 0.000000 0.000000
# 3 -0.000226 0.003912 0.019855 0.000000 0.000000 0.000000
# 4 0.000000 0.000000 0.000000 0.055835 0.000000 0.000000
# 5 0.000000 0.000000 0.000000 0.000000 0.076127 0.000000
# 6 0.000000 0.000000 0.000000 0.000000 0.000000 0.031950
#
#
# Mechanical properties :
#
#
# Convention : Reuss Voigt Hill
#
# Bulk Modulus (GPa) = 16.00063 19.05011 17.52537
# Shear Modulus (GPa) = 21.41046 25.20266 23.30656
#
# Velocity S-wave (km/s) = 3.01310 3.26907 3.14369
# Velocity P-wave (km/s) = 4.34625 4.72514 4.53965
#
# Compressibility (1/GPa) = 0.06249753
#
# Stress axis : x y z
#
# Youngs Moduli (GPa) = 90.78820 40.36674 50.36566
#
# Poissons Ratio (x) = 0.01041 0.01139
# Poissons Ratio (y) = 0.02342 -0.19701
# Poissons Ratio (z) = 0.02053 -0.15790
#
# Static dielectric constant tensor:
#      x y z
#    x 1.938250 0.000000 0.000000 
#    y 0.000000 1.895120 0.000000 
#    z 0.000000 0.000000 1.864220 
# 
# From -- ./inp_files/3857.got.cif
#   From: 2010.05.17/outbox.cif.g08.bks.cpg/sg57_2_cif.got.tgz:3857.got - 2010.06.03 13:58:18.
