data_PCOD9435156
_publ_section_title
;
Structure prediction by ZEFSAII (Michael W. Deem and Ramdas Pophale) SiO2 
 PCOD9435156
Probable space group: P B C M
;
_chemical_formula_sum "Si O2"
_cell_formula_units_Z 64
_cell_length_a 20.655830
_cell_length_b 20.318543
_cell_length_c 7.594820
_cell_angle_alpha 90.000000
_cell_angle_beta 90.000000
_cell_angle_gamma 90.000000
_cell_volume 3187.518385
_symmetry_space_group_name_H-M "P B C M"
_symmetry_group_IT_number 57
_symmetry_cell_setting 'orthorhombic'
loop_
_space_group_symop_operation_xyz
x,y,z
-x,-y,1/2+z
x,1/2-y,-z
-x,1/2+y,1/2-z
-x,-y,-z
x,y,1/2-z
-x,1/2+y,z
x,1/2-y,1/2+z
loop_
_atom_site_type_symbol
_atom_site_label
_atom_site_fract_x
_atom_site_fract_y
_atom_site_fract_z
Si Si1 0.048566 0.413207 0.037005
Si Si2 0.505080 0.173392 0.044213
Si Si3 0.836070 0.825772 0.460497
Si Si4 0.581227 0.554767 0.453122
Si Si5 0.766169 0.431899 0.457420
Si Si6 0.377331 0.588364 0.962561
Si Si7 0.091924 0.561807 0.539620
Si Si8 0.274018 0.421367 0.037317
O O1 0.045399 0.410961 0.250000
O O2 0.098453 0.358995 0.971118
O O3 0.974857 0.406452 0.971284
O O4 0.078674 0.484236 0.990661
O O5 0.491895 0.170119 0.250000
O O6 0.462468 0.112835 0.964284
O O7 0.493457 0.250000 0.000000
O O8 0.578308 0.150217 0.007781
O O9 0.833393 0.750000 0.500000
O O10 0.836638 0.835263 0.250000
O O11 0.772591 0.863545 0.524333
O O12 0.560632 0.545252 0.250000
O O13 0.588757 0.480133 0.528487
O O14 0.654477 0.581132 0.460134
O O15 0.767308 0.415314 0.250000
O O16 0.696917 0.406092 0.528352
O O17 0.837761 0.416342 0.531297
O O18 0.758198 0.510295 0.479264
O O19 0.373820 0.582051 0.750000
O O20 0.094432 0.571932 0.750000
O O21 0.279430 0.421439 0.250000
#
# Coordination Sequence:
#
# PCOD9435156 Si02
#       8
#     8   8   8   8   8   8   8   8
#     4   9  17  30  45  68  99 126 161 205 246 288
#     4  11  23  38  56  78 105 137 174 214 260 312
#     4  10  21  33  45  64  95 134 171 206 242 287
#     4   9  20  37  56  78 105 136 170 212 257 309
#     4   9  17  30  50  77 104 130 161 200 252 306
#     4   9  18  34  55  79 107 135 169 214 258 308
#     4   9  16  27  49  74  97 127 158 198 251 298
#     4  10  19  31  48  72 100 129 163 205 249 292
#
# _framework density 20.078316000000001
#
# number of rings (size 3 to 8) (size 9 to 14) (size 15 to 20)
#    0.000    2.500    1.250    1.875    0.000    5.000 
#    0.000    2.500    0.000    0.750    0.000    1.750 
#    0.000    0.000    0.000    0.000    0.000    0.000 
#
# Total GULP energy -356633.206420 kJ/mol
# GULP energy per Si atom -5572.393850 kJ/mol
# Density = 2.003262 g / cm^3
# Si number density = 20.078316 Si / 1000 Ang^3
#
#
#
# Elastic Constant Matrix: (Units=GPa)
#
#
# Indices 1 2 3 4 5 6 
#
# 1 113.3721 24.2000 -5.3960 0.0000 0.0000 0.0000
# 2 24.2000 51.7961 -0.7420 0.0000 0.0000 0.0000
# 3 -5.3960 -0.7420 47.8460 0.0000 0.0000 0.0000
# 4 0.0000 0.0000 0.0000 11.9337 0.0000 0.0000
# 5 0.0000 0.0000 0.0000 0.0000 10.8481 0.0000
# 6 0.0000 0.0000 0.0000 0.0000 0.0000 17.2082
#
#
#
# Elastic Compliance Matrix: (Units=1/GPa)
#
#
# Indices 1 2 3 4 5 6 
#
# 1 0.009849 -0.004587 0.001040 0.000000 0.000000 0.000000
# 2 -0.004587 0.021447 -0.000185 0.000000 0.000000 0.000000
# 3 0.001040 -0.000185 0.021015 0.000000 0.000000 0.000000
# 4 0.000000 0.000000 0.000000 0.083797 0.000000 0.000000
# 5 0.000000 0.000000 0.000000 0.000000 0.092182 0.000000
# 6 0.000000 0.000000 0.000000 0.000000 0.000000 0.058112
#
#
# Mechanical properties :
#
#
# Convention : Reuss Voigt Hill
#
# Bulk Modulus (GPa) = 22.29801 27.68202 24.99001
# Shear Modulus (GPa) = 16.19098 20.99480 18.59289
#
# Velocity S-wave (km/s) = 2.84278 3.23715 3.04636
# Velocity P-wave (km/s) = 4.68026 5.27154 4.98468
#
# Compressibility (1/GPa) = 0.04484706
#
# Stress axis : x y z
#
# Youngs Moduli (GPa) = 101.53242 46.62692 47.58556
#
# Poissons Ratio (x) = 0.21387 -0.04947
# Poissons Ratio (y) = 0.46571 0.00879
# Poissons Ratio (z) = -0.10556 0.00861
#
# Static dielectric constant tensor:
#      x y z
#    x 1.769120 0.000000 0.000000 
#    y 0.000000 1.656020 0.000000 
#    z 0.000000 0.000000 1.750010 
# 
# From -- ./inp_files/8762.got.cif
#   From: 2010.05.17/outbox.cif.g08.bks.cpg/sg57_5_cif.got.tgz:8762.got - 2010.06.03 13:58:18.
