data_PCOD9435375
_publ_section_title
;
Structure prediction by ZEFSAII (Michael W. Deem and Ramdas Pophale) SiO2 
 PCOD9435375
Probable space group: P B C M
;
_chemical_formula_sum "Si O2"
_cell_formula_units_Z 48
_cell_length_a 32.681481
_cell_length_b 9.250682
_cell_length_c 8.207851
_cell_angle_alpha 90.000000
_cell_angle_beta 90.000000
_cell_angle_gamma 90.000000
_cell_volume 2481.446663
_symmetry_space_group_name_H-M "P B C M"
_symmetry_group_IT_number 57
_symmetry_cell_setting 'orthorhombic'
loop_
_space_group_symop_operation_xyz
x,y,z
-x,-y,1/2+z
x,1/2-y,-z
-x,1/2+y,1/2-z
-x,-y,-z
x,y,1/2-z
-x,1/2+y,z
x,1/2-y,1/2+z
loop_
_atom_site_type_symbol
_atom_site_label
_atom_site_fract_x
_atom_site_fract_y
_atom_site_fract_z
Si Si1 0.797889 0.915360 0.553023
Si Si2 0.878876 0.084144 0.553013
Si Si3 0.371637 0.917756 0.446637
Si Si4 0.959629 0.915659 0.944771
Si Si5 0.717507 0.082914 0.552805
Si Si6 0.539942 0.084058 0.555516
O O1 0.800693 0.750000 0.500000
O O2 0.797657 0.919898 0.750000
O O3 0.837405 0.005624 0.496327
O O4 0.755884 0.989638 0.494299
O O5 0.880134 0.250000 0.500000
O O6 0.878973 0.080397 0.750000
O O7 0.918897 0.997561 0.494346
O O8 0.371780 0.750000 0.500000
O O9 0.371511 0.924919 0.250000
O O10 0.327295 0.973972 0.503089
O O11 0.415743 0.976641 0.503951
O O12 0.958574 0.917741 0.750000
O O13 0.960391 0.750000 0.000000
O O14 0.000000 0.000000 0.000000
O O15 0.721813 0.250000 0.500000
O O16 0.717717 0.080670 0.750000
O O17 0.537097 0.250000 0.500000
O O18 0.540788 0.081215 0.750000
O O19 0.500000 0.000000 0.500000
#
# Coordination Sequence:
#
# PCOD9435375 Si02
#       6
#     8   8   8   8   8   8
#     4  10  21  36  53  76 106 138 171 208 253 305
#     4  10  22  38  57  82 109 139 177 220 263 309
#     4   8  15  28  47  70  96 126 161 204 249 296
#     4  11  23  39  59  84 114 147 184 224 268 316
#     4   9  17  31  52  76 100 127 164 207 250 299
#     4  10  19  32  50  72  99 131 168 209 255 305
#
# _framework density 19.343554999999999
#
# number of rings (size 3 to 8) (size 9 to 14) (size 15 to 20)
#    0.000    2.333    0.000    2.500    0.000    4.667 
#    0.000    0.833    0.000    2.000    0.000    0.000 
#    0.000    0.000    0.000    0.000    0.000    0.000 
#
# Total GULP energy -267726.521378 kJ/mol
# GULP energy per Si atom -5577.635862 kJ/mol
# Density = 1.929953 g / cm^3
# Si number density = 19.343555 Si / 1000 Ang^3
#
#
#
# Elastic Constant Matrix: (Units=GPa)
#
#
# Indices 1 2 3 4 5 6 
#
# 1 256.4855 110.6179 26.2880 0.0000 0.0000 0.0000
# 2 110.6179 127.1124 9.1363 0.0000 0.0000 0.0000
# 3 26.2880 9.1363 15.6038 0.0000 0.0000 0.0000
# 4 0.0000 0.0000 0.0000 31.1702 0.0000 0.0000
# 5 0.0000 0.0000 0.0000 0.0000 18.5908 0.0000
# 6 0.0000 0.0000 0.0000 0.0000 0.0000 33.2504
#
#
#
# Elastic Compliance Matrix: (Units=1/GPa)
#
#
# Indices 1 2 3 4 5 6 
#
# 1 0.007261 -0.005678 -0.008908 0.000000 0.000000 0.000000
# 2 -0.005678 0.012654 0.002158 0.000000 0.000000 0.000000
# 3 -0.008908 0.002158 0.077830 0.000000 0.000000 0.000000
# 4 0.000000 0.000000 0.000000 0.032082 0.000000 0.000000
# 5 0.000000 0.000000 0.000000 0.000000 0.053790 0.000000
# 6 0.000000 0.000000 0.000000 0.000000 0.000000 0.030075
#
#
# Mechanical properties :
#
#
# Convention : Reuss Voigt Hill
#
# Bulk Modulus (GPa) = 13.71967 76.80958 45.26462
# Shear Modulus (GPa) = 19.02266 33.47957 26.25111
#
# Velocity S-wave (km/s) = 3.13934 4.16479 3.68788
# Velocity P-wave (km/s) = 4.49985 7.93231 6.44865
#
# Compressibility (1/GPa) = 0.07288804
#
# Stress axis : x y z
#
# Youngs Moduli (GPa) = 137.72527 79.02935 12.84844
#
# Poissons Ratio (x) = 0.44876 0.11445
# Poissons Ratio (y) = 0.78206 -0.02772
# Poissons Ratio (z) = 1.22681 -0.17052
#
# Static dielectric constant tensor:
#      x y z
#    x 1.735470 0.000000 0.000000 
#    y 0.000000 1.597670 0.000000 
#    z 0.000000 0.000000 1.687990 
# 
# From -- ./inp_files/9944.got.cif
#   From: 2010.05.17/outbox.cif.g08.bks.cpg/sg57_5_cif.got.tgz:9944.got - 2010.06.03 13:58:18.
