data_PCOD9435374
_publ_section_title
;
Structure prediction by ZEFSAII (Michael W. Deem and Ramdas Pophale) SiO2 
 PCOD9435374
Probable space group: P B C M
;
_chemical_formula_sum "Si O2"
_cell_formula_units_Z 48
_cell_length_a 32.525093
_cell_length_b 9.652793
_cell_length_c 8.321191
_cell_angle_alpha 90.000000
_cell_angle_beta 90.000000
_cell_angle_gamma 90.000000
_cell_volume 2612.504401
_symmetry_space_group_name_H-M "P B C M"
_symmetry_group_IT_number 57
_symmetry_cell_setting 'orthorhombic'
loop_
_space_group_symop_operation_xyz
x,y,z
-x,-y,1/2+z
x,1/2-y,-z
-x,1/2+y,1/2-z
-x,-y,-z
x,y,1/2-z
-x,1/2+y,z
x,1/2-y,1/2+z
loop_
_atom_site_type_symbol
_atom_site_label
_atom_site_fract_x
_atom_site_fract_y
_atom_site_fract_z
Si Si1 0.962843 0.906242 0.941816
Si Si2 0.537850 0.908674 0.557608
Si Si3 0.870801 0.592562 0.444277
Si Si4 0.205613 0.592100 0.944497
Si Si5 0.372684 0.409396 0.943798
Si Si6 0.717232 0.909261 0.555467
O O1 0.962365 0.908476 0.750000
O O2 0.916898 0.948324 0.998451
O O3 0.969291 0.750000 0.000000
O O4 0.000000 0.000000 0.000000
O O5 0.533787 0.750000 0.500000
O O6 0.537966 0.907970 0.750000
O O7 0.582843 0.965035 0.501528
O O8 0.500000 0.000000 0.500000
O O9 0.862962 0.750000 0.500000
O O10 0.870430 0.592793 0.250000
O O11 0.835285 0.488972 0.500059
O O12 0.205671 0.590439 0.750000
O O13 0.245612 0.506090 0.000110
O O14 0.206353 0.750000 0.000000
O O15 0.372618 0.414549 0.750000
O O16 0.328022 0.463170 0.998031
O O17 0.372801 0.250000 0.000000
O O18 0.722365 0.750000 0.500000
O O19 0.717681 0.907858 0.750000
#
# Coordination Sequence:
#
# PCOD9435374 Si02
#       6
#     8   8   8   8   8   8
#     4  10  20  35  54  77 105 135 169 208 251 297
#     4  10  19  32  50  72  99 130 165 204 247 294
#     4   9  19  35  54  76 100 129 167 207 244 288
#     4  10  21  35  50  72 102 132 162 198 242 291
#     4   8  15  28  47  70  95 123 157 199 241 284
#     4   9  17  31  52  75  97 123 159 200 241 288
#
# _framework density 18.373176000000001
#
# number of rings (size 3 to 8) (size 9 to 14) (size 15 to 20)
#    0.000    2.667    0.000    1.500    0.000    3.333 
#    0.000    2.500    0.000    2.000    0.000    0.000 
#    0.000    0.000    0.000    0.000    0.000    0.000 
#
# Total GULP energy -267466.832872 kJ/mol
# GULP energy per Si atom -5572.225685 kJ/mol
# Density = 1.833136 g / cm^3
# Si number density = 18.373176 Si / 1000 Ang^3
#
#
#
# Elastic Constant Matrix: (Units=GPa)
#
#
# Indices 1 2 3 4 5 6 
#
# 1 239.7139 114.2602 28.8352 0.0000 0.0000 0.0000
# 2 114.2602 90.7376 12.1985 0.0000 0.0000 0.0000
# 3 28.8352 12.1985 14.1167 0.0000 0.0000 0.0000
# 4 0.0000 0.0000 0.0000 29.9826 0.0000 0.0000
# 5 0.0000 0.0000 0.0000 0.0000 17.8189 0.0000
# 6 0.0000 0.0000 0.0000 0.0000 0.0000 30.3965
#
#
#
# Elastic Compliance Matrix: (Units=1/GPa)
#
#
# Indices 1 2 3 4 5 6 
#
# 1 0.012303 -0.013706 -0.013287 0.000000 0.000000 0.000000
# 2 -0.013706 0.027739 0.004027 0.000000 0.000000 0.000000
# 3 -0.013287 0.004027 0.094498 0.000000 0.000000 0.000000
# 4 0.000000 0.000000 0.000000 0.033353 0.000000 0.000000
# 5 0.000000 0.000000 0.000000 0.000000 0.056120 0.000000
# 6 0.000000 0.000000 0.000000 0.000000 0.000000 0.032899
#
#
# Mechanical properties :
#
#
# Convention : Reuss Voigt Hill
#
# Bulk Modulus (GPa) = 11.28567 72.79511 42.04039
# Shear Modulus (GPa) = 15.04312 28.25790 21.65051
#
# Velocity S-wave (km/s) = 2.86449 3.92599 3.43647
# Velocity P-wave (km/s) = 4.13476 7.76257 6.21907
#
# Compressibility (1/GPa) = 0.08860791
#
# Stress axis : x y z
#
# Youngs Moduli (GPa) = 81.28146 36.05081 10.58227
#
# Poissons Ratio (x) = 0.49412 0.14060
# Poissons Ratio (y) = 1.11405 -0.04262
# Poissons Ratio (z) = 1.07996 -0.14518
#
# Static dielectric constant tensor:
#      x y z
#    x 1.697940 0.000000 0.000000 
#    y 0.000000 1.571000 0.000000 
#    z 0.000000 0.000000 1.658030 
# 
# From -- ./inp_files/9914.got.cif
#   From: 2010.05.17/outbox.cif.g08.bks.cpg/sg57_5_cif.got.tgz:9914.got - 2010.06.03 13:58:18.
