data_PCOD9435849
_publ_section_title
;
Structure prediction by ZEFSAII (Michael W. Deem and Ramdas Pophale) SiO2 
 PCOD9435849
Probable space group: P B C M
;
_chemical_formula_sum "Si O2"
_cell_formula_units_Z 64
_cell_length_a 13.969950
_cell_length_b 12.642476
_cell_length_c 20.174734
_cell_angle_alpha 90.000000
_cell_angle_beta 90.000000
_cell_angle_gamma 90.000000
_cell_volume 3563.155755
_symmetry_space_group_name_H-M "P B C M"
_symmetry_group_IT_number 57
_symmetry_cell_setting 'orthorhombic'
loop_
_space_group_symop_operation_xyz
x,y,z
-x,-y,1/2+z
x,1/2-y,-z
-x,1/2+y,1/2-z
-x,-y,-z
x,y,1/2-z
-x,1/2+y,z
x,1/2-y,1/2+z
loop_
_atom_site_type_symbol
_atom_site_label
_atom_site_fract_x
_atom_site_fract_y
_atom_site_fract_z
Si Si1 0.895258 0.756977 0.674437
Si Si2 0.438257 0.298739 0.429343
Si Si3 0.322040 0.160545 0.174466
Si Si4 0.262708 0.544461 0.596175
Si Si5 0.111609 0.414840 0.063865
Si Si6 0.063407 0.434928 0.921192
Si Si7 0.678261 0.005000 0.054928
Si Si8 0.338562 0.743481 0.424229
O O1 0.924000 0.735501 0.750000
O O2 0.782003 0.783582 0.673524
O O3 0.914050 0.664321 0.622458
O O4 0.941845 0.860571 0.642333
O O5 0.406326 0.250000 0.500000
O O6 0.389144 0.230287 0.372166
O O7 0.404338 0.420455 0.428865
O O8 0.551716 0.282298 0.424454
O O9 0.356259 0.156276 0.250000
O O10 0.306119 0.043123 0.145258
O O11 0.149949 0.518680 0.588720
O O12 0.313342 0.524555 0.524511
O O13 0.281017 0.666413 0.615044
O O14 0.220474 0.451843 0.072720
O O15 0.038507 0.512272 0.067596
O O16 0.096472 0.374197 0.988348
O O17 0.665894 0.118544 0.090532
O O18 0.300959 0.750000 0.500000
#
# Coordination Sequence:
#
# PCOD9435849 Si02
#       8
#     8   8   8   8   8   8   8   8
#     4  10  20  34  53  78 107 141 185 228 272 324
#     4  11  20  32  58  82 106 140 184 232 278 330
#     4  10  20  34  54  79 106 142 184 230 272 322
#     4   9  18  35  54  77 113 143 178 224 276 326
#     4  10  19  34  55  81 110 142 179 229 279 323
#     4   9  20  33  55  82 108 144 185 224 273 331
#     4  10  19  33  55  85 112 139 179 233 283 323
#     4   9  21  32  52  83 112 142 180 225 281 336
#
# _framework density 17.961607000000001
#
# number of rings (size 3 to 8) (size 9 to 14) (size 15 to 20)
#    0.000    2.250    2.500    0.375    1.750    3.000 
#    0.000    4.375    0.000    2.250    0.000    0.000 
#    0.000    0.000    0.000    0.000    0.000    0.000 
#
# Total GULP energy -356679.190031 kJ/mol
# GULP energy per Si atom -5573.112344 kJ/mol
# Density = 1.792073 g / cm^3
# Si number density = 17.961607 Si / 1000 Ang^3
#
#
#
# Elastic Constant Matrix: (Units=GPa)
#
#
# Indices 1 2 3 4 5 6 
#
# 1 17.6306 -3.9533 3.3530 0.0000 0.0000 0.0000
# 2 -3.9533 74.4657 16.8512 0.0000 0.0000 0.0000
# 3 3.3530 16.8512 83.7565 0.0000 0.0000 0.0000
# 4 0.0000 0.0000 0.0000 11.3220 0.0000 0.0000
# 5 0.0000 0.0000 0.0000 0.0000 12.3228 0.0000
# 6 0.0000 0.0000 0.0000 0.0000 0.0000 7.7585
#
#
#
# Elastic Compliance Matrix: (Units=1/GPa)
#
#
# Indices 1 2 3 4 5 6 
#
# 1 0.058156 0.003787 -0.003090 0.000000 0.000000 0.000000
# 2 0.003787 0.014316 -0.003032 0.000000 0.000000 0.000000
# 3 -0.003090 -0.003032 0.012673 0.000000 0.000000 0.000000
# 4 0.000000 0.000000 0.000000 0.088324 0.000000 0.000000
# 5 0.000000 0.000000 0.000000 0.000000 0.081150 0.000000
# 6 0.000000 0.000000 0.000000 0.000000 0.000000 0.128891
#
#
# Mechanical properties :
#
#
# Convention : Reuss Voigt Hill
#
# Bulk Modulus (GPa) = 12.42619 23.15051 17.78835
# Shear Modulus (GPa) = 12.04802 16.92079 14.48441
#
# Velocity S-wave (km/s) = 2.59272 3.07262 2.84282
# Velocity P-wave (km/s) = 3.98700 5.05023 4.54978
#
# Compressibility (1/GPa) = 0.08047521
#
# Stress axis : x y z
#
# Youngs Moduli (GPa) = 17.19500 69.85130 78.90747
#
# Poissons Ratio (x) = -0.26450 0.24382
# Poissons Ratio (y) = -0.06511 0.23924
# Poissons Ratio (z) = 0.05313 0.21178
#
# Static dielectric constant tensor:
#      x y z
#    x 1.612780 0.000000 0.000000 
#    y 0.000000 1.643770 0.000000 
#    z 0.000000 0.000000 1.613940 
# 
# From -- ./inp_files/22643.got.cif
#   From: 2010.05.17/outbox.cif.g08.bks.cpg/sg57_12_cif.got.tgz:22643.got - 2010.06.03 13:58:18.
