data_PCOD9435268
_publ_section_title
;
Structure prediction by ZEFSAII (Michael W. Deem and Ramdas Pophale) SiO2 
 PCOD9435268
Probable space group: P B C M
;
_chemical_formula_sum "Si O2"
_cell_formula_units_Z 64
_cell_length_a 24.005319
_cell_length_b 16.285317
_cell_length_c 8.001211
_cell_angle_alpha 90.000000
_cell_angle_beta 90.000000
_cell_angle_gamma 90.000000
_cell_volume 3127.947258
_symmetry_space_group_name_H-M "P B C M"
_symmetry_group_IT_number 57
_symmetry_cell_setting 'orthorhombic'
loop_
_space_group_symop_operation_xyz
x,y,z
-x,-y,1/2+z
x,1/2-y,-z
-x,1/2+y,1/2-z
-x,-y,-z
x,y,1/2-z
-x,1/2+y,z
x,1/2-y,1/2+z
loop_
_atom_site_type_symbol
_atom_site_label
_atom_site_fract_x
_atom_site_fract_y
_atom_site_fract_z
Si Si1 0.425597 0.840348 0.448900
Si Si2 0.921542 0.431866 0.553042
Si Si3 0.446792 0.158834 0.548051
Si Si4 0.630371 0.989994 0.448688
Si Si5 0.182582 0.839714 0.049889
Si Si6 0.137357 0.093072 0.442038
Si Si7 0.972526 0.838750 0.951473
Si Si8 0.242905 0.005816 0.048612
O O1 0.404225 0.750000 0.500000
O O2 0.428028 0.840928 0.250000
O O3 0.489303 0.848513 0.514313
O O4 0.390707 0.919568 0.501622
O O5 0.923570 0.453686 0.750000
O O6 0.877656 0.357737 0.530647
O O7 0.894731 0.505651 0.449092
O O8 0.982306 0.405201 0.491814
O O9 0.426398 0.250000 0.500000
O O10 0.448043 0.155123 0.750000
O O11 0.409302 0.083281 0.485103
O O12 0.627805 0.985598 0.250000
O O13 0.694014 0.977993 0.501671
O O14 0.177151 0.843423 0.250000
O O15 0.222408 0.914998 0.994792
O O16 0.203290 0.750000 0.000000
O O17 0.145928 0.119194 0.250000
O O18 0.197617 0.072108 0.516965
O O19 0.090081 0.150384 0.520883
O O20 0.970139 0.845327 0.750000
O O21 0.993959 0.750000 0.000000
O O22 0.238502 0.007000 0.250000
#
# Coordination Sequence:
#
# PCOD9435268 Si02
#       8
#     8   8   8   8   8   8   8   8
#     4  10  20  36  58  85 118 152 184 218 264 321
#     4  10  19  31  51  78 103 129 164 204 254 314
#     4   9  20  37  58  85 114 146 184 226 271 320
#     4  11  22  36  56  84 115 145 183 229 272 318
#     4  10  20  34  52  74 103 137 173 214 261 313
#     4   9  19  37  55  71  97 132 170 211 255 303
#     4  10  21  34  50  75 103 130 162 205 256 310
#     4   9  20  37  54  72  99 139 181 219 261 309
#
# _framework density 20.460702999999999
#
# number of rings (size 3 to 8) (size 9 to 14) (size 15 to 20)
#    0.000    2.250    0.000    3.375    0.000    7.000 
#    0.000    1.875    0.000    3.000    0.000    0.000 
#    0.000    0.000    0.000    0.000    0.000    0.000 
#
# Total GULP energy -357053.506930 kJ/mol
# GULP energy per Si atom -5578.961046 kJ/mol
# Density = 2.041413 g / cm^3
# Si number density = 20.460703 Si / 1000 Ang^3
#
#
#
# Elastic Constant Matrix: (Units=GPa)
#
#
# Indices 1 2 3 4 5 6 
#
# 1 105.5500 34.9869 4.2549 0.0000 0.0000 0.0000
# 2 34.9869 57.9996 -7.0661 0.0000 0.0000 0.0000
# 3 4.2549 -7.0661 28.7447 0.0000 0.0000 0.0000
# 4 0.0000 0.0000 0.0000 19.7505 0.0000 0.0000
# 5 0.0000 0.0000 0.0000 0.0000 21.2761 0.0000
# 6 0.0000 0.0000 0.0000 0.0000 0.0000 18.6220
#
#
#
# Elastic Compliance Matrix: (Units=1/GPa)
#
#
# Indices 1 2 3 4 5 6 
#
# 1 0.012218 -0.007825 -0.003732 0.000000 0.000000 0.000000
# 2 -0.007825 0.022785 0.006759 0.000000 0.000000 0.000000
# 3 -0.003732 0.006759 0.037003 0.000000 0.000000 0.000000
# 4 0.000000 0.000000 0.000000 0.050632 0.000000 0.000000
# 5 0.000000 0.000000 0.000000 0.000000 0.047001 0.000000
# 6 0.000000 0.000000 0.000000 0.000000 0.000000 0.053700
#
#
# Mechanical properties :
#
#
# Convention : Reuss Voigt Hill
#
# Bulk Modulus (GPa) = 16.02282 28.51619 22.26950
# Shear Modulus (GPa) = 19.70528 22.60430 21.15479
#
# Velocity S-wave (km/s) = 3.10672 3.32741 3.21896
# Velocity P-wave (km/s) = 4.55159 5.35999 4.97225
#
# Compressibility (1/GPa) = 0.06241099
#
# Stress axis : x y z
#
# Youngs Moduli (GPa) = 81.84330 43.88781 27.02478
#
# Poissons Ratio (x) = 0.34343 0.10086
# Poissons Ratio (y) = 0.64044 -0.18267
# Poissons Ratio (z) = 0.30546 -0.29666
#
# Static dielectric constant tensor:
#      x y z
#    x 1.763760 0.000000 0.000000 
#    y 0.000000 1.713960 0.000000 
#    z 0.000000 0.000000 1.743500 
# 
# From -- ./inp_files/9410.got.cif
#   From: 2010.05.17/outbox.cif.g08.bks.cpg/sg57_5_cif.got.tgz:9410.got - 2010.06.03 13:58:18.
