data_PCOD9435292
_publ_section_title
;
Structure prediction by ZEFSAII (Michael W. Deem and Ramdas Pophale) SiO2 
 PCOD9435292
Probable space group: P B C M
;
_chemical_formula_sum "Si O2"
_cell_formula_units_Z 56
_cell_length_a 22.633353
_cell_length_b 14.839067
_cell_length_c 8.777469
_cell_angle_alpha 90.000000
_cell_angle_beta 90.000000
_cell_angle_gamma 90.000000
_cell_volume 2947.981793
_symmetry_space_group_name_H-M "P B C M"
_symmetry_group_IT_number 57
_symmetry_cell_setting 'orthorhombic'
loop_
_space_group_symop_operation_xyz
x,y,z
-x,-y,1/2+z
x,1/2-y,-z
-x,1/2+y,1/2-z
-x,-y,-z
x,y,1/2-z
-x,1/2+y,z
x,1/2-y,1/2+z
loop_
_atom_site_type_symbol
_atom_site_label
_atom_site_fract_x
_atom_site_fract_y
_atom_site_fract_z
Si Si1 0.108994 0.655722 0.567503
Si Si2 0.484336 0.097284 0.567259
Si Si3 0.752655 0.650215 0.067417
Si Si4 0.643375 0.956818 0.433311
Si Si5 0.970748 0.845902 0.067673
Si Si6 0.602549 0.158643 0.432186
Si Si7 0.868096 0.960033 0.933932
O O1 0.130458 0.750000 0.500000
O O2 0.111516 0.662450 0.750000
O O3 0.141169 0.563997 0.519564
O O4 0.039684 0.643973 0.524656
O O5 0.490954 0.100058 0.750000
O O6 0.414763 0.104237 0.531612
O O7 0.534708 0.156221 0.489917
O O8 0.500000 0.000000 0.500000
O O9 0.751973 0.655573 0.250000
O O10 0.814314 0.603947 0.019100
O O11 0.747105 0.750000 0.000000
O O12 0.699620 0.586766 0.011597
O O13 0.650146 0.956318 0.250000
O O14 0.630894 0.061658 0.478056
O O15 0.966853 0.844421 0.250000
O O16 0.950592 0.750000 0.000000
O O17 0.928883 0.922479 0.001320
O O18 0.630303 0.250000 0.500000
O O19 0.603378 0.162533 0.250000
O O20 0.872463 0.958207 0.750000
#
# Coordination Sequence:
#
# PCOD9435292 Si02
#       7
#     8   8   8   8   8   8   8
#     4   9  19  35  54  79 111 141 175 217 263 318
#     4   9  17  31  52  78 108 141 176 218 266 316
#     4  11  24  40  59  79 103 138 179 223 270 317
#     4   9  20  38  57  79 109 143 182 225 268 315
#     4  10  19  31  52  81 110 143 177 215 265 319
#     4  10  20  34  55  84 115 147 181 220 267 322
#     4  10  21  37  55  78 108 141 179 224 267 313
#
# _framework density 18.996047999999998
#
# number of rings (size 3 to 8) (size 9 to 14) (size 15 to 20)
#    0.000    2.286    0.000    3.429    0.000    7.429 
#    0.000    0.714    0.000    3.429    0.000    0.000 
#    0.000    0.000    0.000    0.000    0.000    0.000 
#
# Total GULP energy -312323.828014 kJ/mol
# GULP energy per Si atom -5577.211215 kJ/mol
# Density = 1.895281 g / cm^3
# Si number density = 18.996048 Si / 1000 Ang^3
#
#
#
# Elastic Constant Matrix: (Units=GPa)
#
#
# Indices 1 2 3 4 5 6 
#
# 1 44.1003 34.4031 21.1823 0.0000 0.0000 0.0000
# 2 34.4031 152.3130 30.4655 0.0000 0.0000 0.0000
# 3 21.1823 30.4655 25.4194 0.0000 0.0000 0.0000
# 4 0.0000 0.0000 0.0000 32.0600 0.0000 0.0000
# 5 0.0000 0.0000 0.0000 0.0000 17.3152 0.0000
# 6 0.0000 0.0000 0.0000 0.0000 0.0000 24.5938
#
#
#
# Elastic Compliance Matrix: (Units=1/GPa)
#
#
# Indices 1 2 3 4 5 6 
#
# 1 0.038840 -0.003024 -0.028741 0.000000 0.000000 0.000000
# 2 -0.003024 0.008871 -0.008112 0.000000 0.000000 0.000000
# 3 -0.028741 -0.008112 0.073013 0.000000 0.000000 0.000000
# 4 0.000000 0.000000 0.000000 0.031191 0.000000 0.000000
# 5 0.000000 0.000000 0.000000 0.000000 0.057753 0.000000
# 6 0.000000 0.000000 0.000000 0.000000 0.000000 0.040661
#
#
# Mechanical properties :
#
#
# Convention : Reuss Voigt Hill
#
# Bulk Modulus (GPa) = 24.40873 43.77048 34.08960
# Shear Modulus (GPa) = 14.54586 23.84593 19.19590
#
# Velocity S-wave (km/s) = 2.77019 3.54688 3.18232
# Velocity P-wave (km/s) = 4.80720 6.31393 5.61137
#
# Compressibility (1/GPa) = 0.04096896
#
# Stress axis : x y z
#
# Youngs Moduli (GPa) = 25.74682 112.72633 13.69613
#
# Poissons Ratio (x) = 0.34088 0.39365
# Poissons Ratio (y) = 0.07786 0.11111
# Poissons Ratio (z) = 0.74000 0.91446
#
# Static dielectric constant tensor:
#      x y z
#    x 1.657820 0.000000 0.000000 
#    y 0.000000 1.688190 0.000000 
#    z 0.000000 0.000000 1.634660 
# 
# From -- ./inp_files/8128.got.cif
#   From: 2010.05.17/outbox.cif.g08.bks.cpg/sg57_5_cif.got.tgz:8128.got - 2010.06.03 13:58:18.
