data_PCOD9435766
_publ_section_title
;
Structure prediction by ZEFSAII (Michael W. Deem and Ramdas Pophale) SiO2 
 PCOD9435766
Probable space group: P B C M
;
_chemical_formula_sum "Si O2"
_cell_formula_units_Z 40
_cell_length_a 13.728206
_cell_length_b 18.532812
_cell_length_c 8.615986
_cell_angle_alpha 90.000000
_cell_angle_beta 90.000000
_cell_angle_gamma 90.000000
_cell_volume 2192.098638
_symmetry_space_group_name_H-M "P B C M"
_symmetry_group_IT_number 57
_symmetry_cell_setting 'orthorhombic'
loop_
_space_group_symop_operation_xyz
x,y,z
-x,-y,1/2+z
x,1/2-y,-z
-x,1/2+y,1/2-z
-x,-y,-z
x,y,1/2-z
-x,1/2+y,z
x,1/2-y,1/2+z
loop_
_atom_site_type_symbol
_atom_site_label
_atom_site_fract_x
_atom_site_fract_y
_atom_site_fract_z
Si Si1 0.899515 0.831753 0.436939
Si Si2 0.109849 0.832302 0.063510
Si Si3 0.496513 0.419494 0.936167
Si Si4 0.688265 0.331377 0.935892
Si Si5 0.686193 0.831758 0.436751
O O1 0.899562 0.750000 0.500000
O O2 0.900308 0.828972 0.250000
O O3 0.793738 0.861785 0.483181
O O4 0.004331 0.864710 0.483435
O O5 0.116306 0.830825 0.250000
O O6 0.108473 0.750000 0.000000
O O7 0.209551 0.863956 0.996258
O O8 0.494088 0.420411 0.750000
O O9 0.594248 0.376832 0.984486
O O10 0.500000 0.500000 0.000000
O O11 0.401596 0.378534 0.998081
O O12 0.692030 0.327946 0.750000
O O13 0.679133 0.250000 0.000000
O O14 0.678376 0.750000 0.500000
O O15 0.681009 0.829862 0.250000
#
# Coordination Sequence:
#
# PCOD9435766 Si02
#       5
#     8   8   8   8   8
#     4   8  15  26  43  71 103 132 161 198 244 290
#     4   9  15  25  44  71 102 132 162 198 242 291
#     4  11  24  39  54  73  99 133 172 214 261 308
#     4  10  20  33  51  76 103 131 165 205 248 295
#     4  10  19  33  54  79 107 136 169 209 250 297
#
# _framework density 18.247354999999999
#
# number of rings (size 3 to 8) (size 9 to 14) (size 15 to 20)
#    0.000    2.400    0.000    4.200    0.000    6.400 
#    0.000    0.000    0.000    1.200    0.000    0.000 
#    0.000    0.000    0.000    0.000    0.000    0.000 
#
# Total GULP energy -222862.837726 kJ/mol
# GULP energy per Si atom -5571.570943 kJ/mol
# Density = 1.820582 g / cm^3
# Si number density = 18.247355 Si / 1000 Ang^3
#
#
#
# Elastic Constant Matrix: (Units=GPa)
#
#
# Indices 1 2 3 4 5 6 
#
# 1 249.9298 68.9555 50.8632 0.0000 0.0000 0.0000
# 2 68.9555 54.3117 18.9256 0.0000 0.0000 0.0000
# 3 50.8632 18.9256 42.3166 0.0000 0.0000 0.0000
# 4 0.0000 0.0000 0.0000 18.5019 0.0000 0.0000
# 5 0.0000 0.0000 0.0000 0.0000 25.9634 0.0000
# 6 0.0000 0.0000 0.0000 0.0000 0.0000 -5.6192
#
#
#
# Elastic Compliance Matrix: (Units=1/GPa)
#
#
# Indices 1 2 3 4 5 6 
#
# 1 0.007031 -0.007086 -0.005282 0.000000 0.000000 0.000000
# 2 -0.007086 0.028954 -0.004431 0.000000 0.000000 0.000000
# 3 -0.005282 -0.004431 0.031962 0.000000 0.000000 0.000000
# 4 0.000000 0.000000 0.000000 0.054048 0.000000 0.000000
# 5 0.000000 0.000000 0.000000 0.000000 0.038516 0.000000
# 6 0.000000 0.000000 0.000000 0.000000 0.000000 -0.177963
#
#
# Mechanical properties :
#
#
# Convention : Reuss Voigt Hill
#
# Bulk Modulus (GPa) = 29.11452 69.33852 49.22652
# Shear Modulus (GPa) = 181.17789 21.62348 101.40068
#
# Velocity S-wave (km/s) = 9.97524 3.44615 7.46262
# Velocity P-wave (km/s) = 12.19279 7.34277 10.06430
#
# Compressibility (1/GPa) = 0.03434712
#
# Stress axis : x y z
#
# Youngs Moduli (GPa) = 142.22327 34.53805 31.28711
#
# Poissons Ratio (x) = 0.24475 0.16526
# Poissons Ratio (y) = 1.00786 0.13865
# Poissons Ratio (z) = 0.75122 0.15305
#
# Static dielectric constant tensor:
#      x y z
#    x 1.708360 0.000000 0.000000 
#    y 0.000000 1.571030 0.000000 
#    z 0.000000 0.000000 1.613280 
# 
# From -- ./inp_files/2912.got.cif
#   From: 2010.05.17/outbox.cif.g08.bks.cpg/sg57_2_cif.got.tgz:2912.got - 2010.06.03 13:58:18.
