data_PCOD9435100
_publ_section_title
;
Structure prediction by ZEFSAII (Michael W. Deem and Ramdas Pophale) SiO2 
 PCOD9435100
Probable space group: P B C M
;
_chemical_formula_sum "Si O2"
_cell_formula_units_Z 64
_cell_length_a 18.080519
_cell_length_b 20.714643
_cell_length_c 7.998943
_cell_angle_alpha 90.000000
_cell_angle_beta 90.000000
_cell_angle_gamma 90.000000
_cell_volume 2995.856091
_symmetry_space_group_name_H-M "P B C M"
_symmetry_group_IT_number 57
_symmetry_cell_setting 'orthorhombic'
loop_
_space_group_symop_operation_xyz
x,y,z
-x,-y,1/2+z
x,1/2-y,-z
-x,1/2+y,1/2-z
-x,-y,-z
x,y,1/2-z
-x,1/2+y,z
x,1/2-y,1/2+z
loop_
_atom_site_type_symbol
_atom_site_label
_atom_site_fract_x
_atom_site_fract_y
_atom_site_fract_z
Si Si1 0.569924 0.958372 0.947031
Si Si2 0.381795 0.176019 0.048267
Si Si3 0.937012 0.882338 0.052236
Si Si4 0.714363 0.462517 0.551647
Si Si5 0.753844 0.180960 0.549939
Si Si6 0.215209 0.176092 0.050649
Si Si7 0.118006 0.984526 0.954688
Si Si8 0.084102 0.657612 0.557881
O O1 0.565131 0.951037 0.750000
O O2 0.570926 0.884760 0.016047
O O3 0.500000 0.000000 0.000000
O O4 0.645498 0.997286 0.983152
O O5 0.381992 0.176453 0.250000
O O6 0.297830 0.158656 0.993856
O O7 0.399621 0.250000 0.000000
O O8 0.952079 0.885943 0.250000
O O9 0.001813 0.835967 0.981518
O O10 0.930474 0.955141 0.986307
O O11 0.854271 0.857948 0.029850
O O12 0.710111 0.466470 0.750000
O O13 0.716159 0.386046 0.505845
O O14 0.794667 0.491254 0.501651
O O15 0.719759 0.250000 0.500000
O O16 0.757899 0.177854 0.750000
O O17 0.838692 0.180778 0.478835
O O18 0.211040 0.167735 0.250000
O O19 0.207747 0.250000 0.000000
O O20 0.113349 0.978164 0.750000
O O21 0.092983 0.919604 0.044599
O O22 0.083770 0.680959 0.750000
#
# Coordination Sequence:
#
# PCOD9435100 Si02
#       8
#     8   8   8   8   8   8   8   8
#     4  11  23  40  62  92 125 155 187 228 277 334
#     4   9  20  38  61  87 117 152 192 231 272 326
#     4  10  19  31  46  70 103 138 177 226 279 332
#     4  10  20  36  58  85 113 146 187 233 284 342
#     4  10  20  36  56  78 105 144 192 244 296 348
#     4  10  20  34  51  73 100 135 176 219 264 315
#     4   9  18  31  50  74 101 134 177 225 274 329
#     4   9  19  32  47  69 101 138 179 228 283 336
#
# _framework density 21.362841
#
# number of rings (size 3 to 8) (size 9 to 14) (size 15 to 20)
#    0.000    2.250    0.000    2.625    0.000    4.000 
#    0.000    1.875    0.000    1.500    0.000    0.000 
#    0.000    0.000    0.000    0.000    0.000    0.000 
#
# Total GULP energy -356855.817557 kJ/mol
# GULP energy per Si atom -5575.872149 kJ/mol
# Density = 2.131422 g / cm^3
# Si number density = 21.362841 Si / 1000 Ang^3
#
#
#
# Elastic Constant Matrix: (Units=GPa)
#
#
# Indices 1 2 3 4 5 6 
#
# 1 78.2604 64.4095 13.2360 0.0000 0.0000 0.0000
# 2 64.4095 98.8987 -2.0920 0.0000 0.0000 0.0000
# 3 13.2360 -2.0920 25.4228 0.0000 0.0000 0.0000
# 4 0.0000 0.0000 0.0000 25.2596 0.0000 0.0000
# 5 0.0000 0.0000 0.0000 0.0000 19.8342 0.0000
# 6 0.0000 0.0000 0.0000 0.0000 0.0000 19.9529
#
#
#
# Elastic Compliance Matrix: (Units=1/GPa)
#
#
# Indices 1 2 3 4 5 6 
#
# 1 0.035823 -0.023766 -0.020606 0.000000 0.000000 0.000000
# 2 -0.023766 0.025896 0.014505 0.000000 0.000000 0.000000
# 3 -0.020606 0.014505 0.051257 0.000000 0.000000 0.000000
# 4 0.000000 0.000000 0.000000 0.039589 0.000000 0.000000
# 5 0.000000 0.000000 0.000000 0.000000 0.050418 0.000000
# 6 0.000000 0.000000 0.000000 0.000000 0.000000 0.050118
#
#
# Mechanical properties :
#
#
# Convention : Reuss Voigt Hill
#
# Bulk Modulus (GPa) = 18.78290 39.29876 29.04083
# Shear Modulus (GPa) = 15.12476 21.47791 18.30133
#
# Velocity S-wave (km/s) = 2.66370 3.17422 2.93010
# Velocity P-wave (km/s) = 4.27455 5.64536 5.00709
#
# Compressibility (1/GPa) = 0.05323992
#
# Stress axis : x y z
#
# Youngs Moduli (GPa) = 27.91503 38.61545 19.50959
#
# Poissons Ratio (x) = 0.91774 0.40202
# Poissons Ratio (y) = 0.66344 -0.28298
# Poissons Ratio (z) = 0.57523 -0.56010
#
# Static dielectric constant tensor:
#      x y z
#    x 4.938990 0.000000 0.000000 
#    y 0.000000 1.808320 0.000000 
#    z 0.000000 0.000000 1.766510 
# 
# From -- ./inp_files/7239.got.cif
#   From: 2010.05.17/outbox.cif.g08.bks.cpg/sg57_4_cif.got.tgz:7239.got - 2010.06.03 13:58:18.
