data_PCOD9435155
_publ_section_title
;
Structure prediction by ZEFSAII (Michael W. Deem and Ramdas Pophale) SiO2 
 PCOD9435155
Probable space group: P B C M
;
_chemical_formula_sum "Si O2"
_cell_formula_units_Z 64
_cell_length_a 16.463640
_cell_length_b 25.291883
_cell_length_c 8.578579
_cell_angle_alpha 90.000000
_cell_angle_beta 90.000000
_cell_angle_gamma 90.000000
_cell_volume 3572.089899
_symmetry_space_group_name_H-M "P B C M"
_symmetry_group_IT_number 57
_symmetry_cell_setting 'orthorhombic'
loop_
_space_group_symop_operation_xyz
x,y,z
-x,-y,1/2+z
x,1/2-y,-z
-x,1/2+y,1/2-z
-x,-y,-z
x,y,1/2-z
-x,1/2+y,z
x,1/2-y,1/2+z
loop_
_atom_site_type_symbol
_atom_site_label
_atom_site_fract_x
_atom_site_fract_y
_atom_site_fract_z
Si Si1 0.450714 0.418956 0.061944
Si Si2 0.370726 0.310126 0.438792
Si Si3 0.047464 0.549387 0.435345
Si Si4 0.845175 0.305015 0.935591
Si Si5 0.988295 0.842180 0.433599
Si Si6 0.617208 0.475262 0.064129
Si Si7 0.225856 0.917605 0.935697
Si Si8 0.812080 0.690918 0.562151
O O1 0.449047 0.418044 0.250000
O O2 0.427541 0.359347 0.010196
O O3 0.539369 0.440185 0.011036
O O4 0.390659 0.465836 0.006673
O O5 0.386397 0.250000 0.500000
O O6 0.374133 0.306879 0.250000
O O7 0.278364 0.326870 0.485427
O O8 0.034495 0.557449 0.250000
O O9 0.144280 0.548097 0.459259
O O10 0.000000 0.500000 0.500000
O O11 0.013980 0.598505 0.531456
O O12 0.841861 0.304917 0.750000
O O13 0.798026 0.358037 0.989773
O O14 0.811721 0.250000 0.000000
O O15 0.939720 0.309687 0.984787
O O16 0.990554 0.829898 0.250000
O O17 0.895963 0.835469 0.491551
O O18 0.612601 0.480191 0.250000
O O19 0.698223 0.444627 0.016593
O O20 0.241253 0.915003 0.750000
O O21 0.817901 0.750000 0.500000
O O22 0.812561 0.689444 0.750000
#
# Coordination Sequence:
#
# PCOD9435155 Si02
#       8
#     8   8   8   8   8   8   8   8
#     4   9  19  36  56  78 107 139 168 207 263 317
#     4   9  18  34  53  74 104 139 171 206 252 306
#     4  10  21  36  52  72 100 134 171 210 256 307
#     4  10  20  34  52  74 100 135 177 218 266 318
#     4  10  19  31  48  71  99 132 171 212 253 301
#     4  10  20  34  56  83 105 131 174 220 258 306
#     4   9  20  37  54  74 104 139 171 211 266 319
#     4   9  18  30  46  69  96 128 164 200 240 289
#
# _framework density 17.916682000000002
#
# number of rings (size 3 to 8) (size 9 to 14) (size 15 to 20)
#    0.000    2.500    0.000    2.625    0.000    7.000 
#    0.000    3.125    0.000    3.000    0.000    0.000 
#    0.000    0.000    0.000    0.000    0.000    0.000 
#
# Total GULP energy -356508.136270 kJ/mol
# GULP energy per Si atom -5570.439629 kJ/mol
# Density = 1.787590 g / cm^3
# Si number density = 17.916682 Si / 1000 Ang^3
#
#
#
# Elastic Constant Matrix: (Units=GPa)
#
#
# Indices 1 2 3 4 5 6 
#
# 1 72.4848 53.0770 14.1387 0.0000 0.0000 0.0000
# 2 53.0770 111.2225 13.2969 0.0000 0.0000 0.0000
# 3 14.1387 13.2969 12.2840 0.0000 0.0000 0.0000
# 4 0.0000 0.0000 0.0000 29.7828 0.0000 0.0000
# 5 0.0000 0.0000 0.0000 0.0000 18.5297 0.0000
# 6 0.0000 0.0000 0.0000 0.0000 0.0000 18.1355
#
#
#
# Elastic Compliance Matrix: (Units=1/GPa)
#
#
# Indices 1 2 3 4 5 6 
#
# 1 0.024110 -0.009405 -0.017569 0.000000 0.000000 0.000000
# 2 -0.009405 0.013996 -0.004325 0.000000 0.000000 0.000000
# 3 -0.017569 -0.004325 0.106311 0.000000 0.000000 0.000000
# 4 0.000000 0.000000 0.000000 0.033576 0.000000 0.000000
# 5 0.000000 0.000000 0.000000 0.000000 0.053967 0.000000
# 6 0.000000 0.000000 0.000000 0.000000 0.000000 0.055140
#
#
# Mechanical properties :
#
#
# Convention : Reuss Voigt Hill
#
# Bulk Modulus (GPa) = 12.22237 39.66849 25.94543
# Shear Modulus (GPa) = 13.26354 20.98820 17.12587
#
# Velocity S-wave (km/s) = 2.72378 3.42633 3.09506
# Velocity P-wave (km/s) = 4.09006 6.15155 5.22351
#
# Compressibility (1/GPa) = 0.08181718
#
# Stress axis : x y z
#
# Youngs Moduli (GPa) = 41.47657 71.44710 9.40640
#
# Poissons Ratio (x) = 0.67197 0.16527
# Poissons Ratio (y) = 0.39009 0.04068
# Poissons Ratio (z) = 0.72872 0.30903
#
# Static dielectric constant tensor:
#      x y z
#    x 1.636430 0.000000 0.000000 
#    y 0.000000 1.620890 0.000000 
#    z 0.000000 0.000000 1.616160 
# 
# From -- ./inp_files/5626.got.cif
#   From: 2010.05.17/outbox.cif.g08.bks.cpg/sg57_3_cif.got.tgz:5626.got - 2010.06.03 13:58:18.
