data_PCOD9435370
_publ_section_title
;
Structure prediction by ZEFSAII (Michael W. Deem and Ramdas Pophale) SiO2 
 PCOD9435370
Probable space group: P B C M
;
_chemical_formula_sum "Si O2"
_cell_formula_units_Z 48
_cell_length_a 10.202712
_cell_length_b 30.747953
_cell_length_c 8.925383
_cell_angle_alpha 90.000000
_cell_angle_beta 90.000000
_cell_angle_gamma 90.000000
_cell_volume 2800.004295
_symmetry_space_group_name_H-M "P B C M"
_symmetry_group_IT_number 57
_symmetry_cell_setting 'orthorhombic'
loop_
_space_group_symop_operation_xyz
x,y,z
-x,-y,1/2+z
x,1/2-y,-z
-x,1/2+y,1/2-z
-x,-y,-z
x,y,1/2-z
-x,1/2+y,z
x,1/2-y,1/2+z
loop_
_atom_site_type_symbol
_atom_site_label
_atom_site_fract_x
_atom_site_fract_y
_atom_site_fract_z
Si Si1 0.976651 0.885396 0.929207
Si Si2 0.886445 0.970783 0.426796
Si Si3 0.712308 0.293923 0.421620
Si Si4 0.732670 0.110725 0.931495
Si Si5 0.968409 0.794733 0.076390
Si Si6 0.619985 0.474562 0.573001
O O1 0.984365 0.886269 0.750000
O O2 0.121888 0.893273 0.998348
O O3 0.931145 0.838239 0.987569
O O4 0.888408 0.924365 0.991801
O O5 0.913238 0.964974 0.250000
O O6 0.750416 0.996168 0.443578
O O7 0.000000 0.000000 0.500000
O O8 0.666240 0.250000 0.500000
O O9 0.671005 0.291706 0.250000
O O10 0.677455 0.341926 0.480177
O O11 0.871856 0.293645 0.426093
O O12 0.743334 0.110579 0.750000
O O13 0.647522 0.070887 0.990215
O O14 0.928885 0.797234 0.250000
O O15 0.923204 0.750000 0.000000
O O16 0.500000 0.500000 0.500000
O O17 0.598744 0.467326 0.750000
#
# Coordination Sequence:
#
# PCOD9435370 Si02
#       6
#     8   8   8   8   8   8
#     4  11  20  30  48  75 104 138 177 217 265 317
#     4  11  22  36  55  79 105 137 178 220 264 316
#     4   8  15  25  40  65  95 130 165 205 254 303
#     4  10  19  32  50  72 103 138 175 218 264 312
#     4   9  16  27  42  65  99 136 171 212 262 315
#     4  11  24  39  56  78 105 140 180 220 271 324
#
# _framework density 17.142831000000001
#
# number of rings (size 3 to 8) (size 9 to 14) (size 15 to 20)
#    0.000    2.000    1.667    4.500    0.000    6.667 
#    0.000    0.000    0.000    0.000    0.000    1.167 
#    0.000    5.333    0.000    0.000    0.000    0.000 
#
# Total GULP energy -267740.669877 kJ/mol
# GULP energy per Si atom -5577.930622 kJ/mol
# Density = 1.710381 g / cm^3
# Si number density = 17.142831 Si / 1000 Ang^3
#
#
#
# Elastic Constant Matrix: (Units=GPa)
#
#
# Indices 1 2 3 4 5 6 
#
# 1 29.8135 25.9039 34.9179 0.0000 0.0000 0.0000
# 2 25.9039 179.2081 82.5916 0.0000 0.0000 0.0000
# 3 34.9179 82.5916 132.3059 0.0000 0.0000 0.0000
# 4 0.0000 0.0000 0.0000 37.0353 0.0000 0.0000
# 5 0.0000 0.0000 0.0000 0.0000 16.7237 0.0000
# 6 0.0000 0.0000 0.0000 0.0000 0.0000 14.2044
#
#
#
# Elastic Compliance Matrix: (Units=1/GPa)
#
#
# Indices 1 2 3 4 5 6 
#
# 1 0.048862 -0.001572 -0.011914 0.000000 0.000000 0.000000
# 2 -0.001572 0.007884 -0.004507 0.000000 0.000000 0.000000
# 3 -0.011914 -0.004507 0.013516 0.000000 0.000000 0.000000
# 4 0.000000 0.000000 0.000000 0.027001 0.000000 0.000000
# 5 0.000000 0.000000 0.000000 0.000000 0.059795 0.000000
# 6 0.000000 0.000000 0.000000 0.000000 0.000000 0.070401
#
#
# Mechanical properties :
#
#
# Convention : Reuss Voigt Hill
#
# Bulk Modulus (GPa) = 29.17495 69.79493 49.48494
# Shear Modulus (GPa) = 18.19037 26.78697 22.48867
#
# Velocity S-wave (km/s) = 3.26100 3.95723 3.62586
# Velocity P-wave (km/s) = 5.58878 7.85377 6.81602
#
# Compressibility (1/GPa) = 0.03427598
#
# Stress axis : x y z
#
# Youngs Moduli (GPa) = 20.46597 126.83190 73.98593
#
# Poissons Ratio (x) = 0.19937 0.88148
# Poissons Ratio (y) = 0.03217 0.33345
# Poissons Ratio (z) = 0.24384 0.57163
#
# Static dielectric constant tensor:
#      x y z
#    x 1.548880 0.000000 0.000000 
#    y 0.000000 1.608380 0.000000 
#    z 0.000000 0.000000 1.581920 
# 
# From -- ./inp_files/3316.got.cif
#   From: 2010.05.17/outbox.cif.g08.bks.cpg/sg57_2_cif.got.tgz:3316.got - 2010.06.03 13:58:18.
