data_PCOD9435245
_publ_section_title
;
Structure prediction by ZEFSAII (Michael W. Deem and Ramdas Pophale) SiO2 
 PCOD9435245
Probable space group: P B C M
;
_chemical_formula_sum "Si O2"
_cell_formula_units_Z 64
_cell_length_a 25.017753
_cell_length_b 15.174600
_cell_length_c 8.468829
_cell_angle_alpha 90.000000
_cell_angle_beta 90.000000
_cell_angle_gamma 90.000000
_cell_volume 3215.058771
_symmetry_space_group_name_H-M "P B C M"
_symmetry_group_IT_number 57
_symmetry_cell_setting 'orthorhombic'
loop_
_space_group_symop_operation_xyz
x,y,z
-x,-y,1/2+z
x,1/2-y,-z
-x,1/2+y,1/2-z
-x,-y,-z
x,y,1/2-z
-x,1/2+y,z
x,1/2-y,1/2+z
loop_
_atom_site_type_symbol
_atom_site_label
_atom_site_fract_x
_atom_site_fract_y
_atom_site_fract_z
Si Si1 0.221794 0.149926 0.441488
Si Si2 0.364084 0.653513 0.558968
Si Si3 0.902292 0.344624 0.059894
Si Si4 0.319794 0.472652 0.941906
Si Si5 0.518004 0.405069 0.062353
Si Si6 0.589715 0.661111 0.438463
Si Si7 0.119931 0.463053 0.559469
Si Si8 0.026686 0.345308 0.438997
O O1 0.225776 0.250000 0.500000
O O2 0.222564 0.152070 0.250000
O O3 0.270479 0.087079 0.495488
O O4 0.167241 0.101711 0.493513
O O5 0.349409 0.750000 0.500000
O O6 0.364569 0.654551 0.750000
O O7 0.325420 0.573760 0.506662
O O8 0.424530 0.628992 0.503902
O O9 0.900959 0.341928 0.250000
O O10 0.874138 0.435179 0.007262
O O11 0.964732 0.353287 0.010563
O O12 0.882166 0.250000 0.000000
O O13 0.317386 0.473625 0.750000
O O14 0.374413 0.422185 0.984564
O O15 0.522159 0.410639 0.250000
O O16 0.500000 0.500000 0.000000
O O17 0.468549 0.344755 0.013685
O O18 0.616935 0.750000 0.500000
O O19 0.585258 0.662598 0.250000
O O20 0.120359 0.463719 0.750000
O O21 0.063999 0.421984 0.504616
O O22 0.046247 0.250000 0.500000
O O23 0.028450 0.346314 0.250000
#
# Coordination Sequence:
#
# PCOD9435245 Si02
#       8
#     8   8   8   8   8   8   8   8
#     4  10  21  38  60  81 106 139 174 219 272 324
#     4  10  21  38  57  79 107 142 178 216 262 314
#     4   9  19  34  51  75 108 144 184 222 265 320
#     4   9  19  38  58  76 105 141 177 218 269 319
#     4  11  21  35  55  80 111 146 179 217 265 320
#     4  11  21  35  54  79 109 141 178 219 264 320
#     4  10  20  34  53  79 108 141 181 225 273 325
#     4  10  19  31  50  76 108 146 181 221 269 322
#
# _framework density 19.906324000000001
#
# number of rings (size 3 to 8) (size 9 to 14) (size 15 to 20)
#    0.000    2.000    1.250    2.625    0.000    4.500 
#    0.000    1.875    0.000    0.000    0.000    0.000 
#    0.000    0.000    0.000    0.000    0.000    0.000 
#
# Total GULP energy -357244.554220 kJ/mol
# GULP energy per Si atom -5581.946160 kJ/mol
# Density = 1.986102 g / cm^3
# Si number density = 19.906324 Si / 1000 Ang^3
#
#
#
# Elastic Constant Matrix: (Units=GPa)
#
#
# Indices 1 2 3 4 5 6 
#
# 1 58.5587 48.3586 11.4447 0.0000 0.0000 0.0000
# 2 48.3586 197.9609 19.4921 0.0000 0.0000 0.0000
# 3 11.4447 19.4921 11.2045 0.0000 0.0000 0.0000
# 4 0.0000 0.0000 0.0000 34.5325 0.0000 0.0000
# 5 0.0000 0.0000 0.0000 0.0000 13.2440 0.0000
# 6 0.0000 0.0000 0.0000 0.0000 0.0000 37.5151
#
#
#
# Elastic Compliance Matrix: (Units=1/GPa)
#
#
# Indices 1 2 3 4 5 6 
#
# 1 0.023846 -0.004135 -0.017164 0.000000 0.000000 0.000000
# 2 -0.004135 0.006813 -0.007628 0.000000 0.000000 0.000000
# 3 -0.017164 -0.007628 0.120051 0.000000 0.000000 0.000000
# 4 0.000000 0.000000 0.000000 0.028958 0.000000 0.000000
# 5 0.000000 0.000000 0.000000 0.000000 0.075506 0.000000
# 6 0.000000 0.000000 0.000000 0.000000 0.000000 0.026656
#
#
# Mechanical properties :
#
#
# Convention : Reuss Voigt Hill
#
# Bulk Modulus (GPa) = 10.76929 47.36834 29.06882
# Shear Modulus (GPa) = 13.49034 29.62025 21.55529
#
# Velocity S-wave (km/s) = 2.60607 3.86162 3.29422
# Velocity P-wave (km/s) = 3.80490 6.61287 5.39478
#
# Compressibility (1/GPa) = 0.09285659
#
# Stress axis : x y z
#
# Youngs Moduli (GPa) = 41.93527 146.78340 8.32978
#
# Poissons Ratio (x) = 0.60699 0.14297
# Poissons Ratio (y) = 0.17341 0.06354
# Poissons Ratio (z) = 0.71976 1.11966
#
# Static dielectric constant tensor:
#      x y z
#    x 1.688550 0.000000 0.000000 
#    y 0.000000 1.733840 0.000000 
#    z 0.000000 0.000000 1.687410 
# 
# From -- ./inp_files/9339.got.cif
#   From: 2010.05.17/outbox.cif.g08.bks.cpg/sg57_5_cif.got.tgz:9339.got - 2010.06.03 13:58:18.
