data_PCOD9435501
_publ_section_title
;
Structure prediction by ZEFSAII (Michael W. Deem and Ramdas Pophale) SiO2 
 PCOD9435501
Probable space group: P B C M
;
_chemical_formula_sum "Si O2"
_cell_formula_units_Z 64
_cell_length_a 22.307780
_cell_length_b 18.097920
_cell_length_c 8.510286
_cell_angle_alpha 90.000000
_cell_angle_beta 90.000000
_cell_angle_gamma 90.000000
_cell_volume 3435.810261
_symmetry_space_group_name_H-M "P B C M"
_symmetry_group_IT_number 57
_symmetry_cell_setting 'orthorhombic'
loop_
_space_group_symop_operation_xyz
x,y,z
-x,-y,1/2+z
x,1/2-y,-z
-x,1/2+y,1/2-z
-x,-y,-z
x,y,1/2-z
-x,1/2+y,z
x,1/2-y,1/2+z
loop_
_atom_site_type_symbol
_atom_site_label
_atom_site_fract_x
_atom_site_fract_y
_atom_site_fract_z
Si Si1 0.186444 0.951707 0.940062
Si Si2 0.604954 0.070420 0.060063
Si Si3 0.501236 0.669476 0.561896
Si Si4 0.935126 0.978762 0.437932
Si Si5 0.241759 0.111028 0.939391
Si Si6 0.120313 0.328894 0.935760
Si Si7 0.720447 0.333163 0.559904
Si Si8 0.375553 0.099420 0.941556
O O1 0.278961 0.832094 0.750000
O O2 0.221598 0.879619 0.996098
O O3 0.118985 0.967821 0.996077
O O4 0.225317 0.025292 0.974157
O O5 0.602778 0.070528 0.250000
O O6 0.661504 0.120726 0.011742
O O7 0.613847 0.985648 0.009570
O O8 0.544944 0.107631 0.996119
O O9 0.483500 0.750000 0.500000
O O10 0.500672 0.670562 0.750000
O O11 0.568332 0.648499 0.507022
O O12 0.935586 0.982072 0.250000
O O13 0.915722 0.896767 0.488889
O O14 0.000000 0.000000 0.500000
O O15 0.237462 0.120003 0.750000
O O16 0.309641 0.125703 0.991557
O O17 0.189906 0.158775 0.017924
O O18 0.113855 0.331763 0.750000
O O19 0.100224 0.250000 0.000000
O O20 0.719043 0.250000 0.500000
O O21 0.815963 0.447040 0.750000
O O22 0.374664 0.099344 0.750000
#
# Coordination Sequence:
#
# PCOD9435501 Si02
#       8
#     8   8   8   8   8   8   8   8
#     4   8  15  31  55  77 103 141 180 214 259 326
#     4  10  19  35  58  78 101 136 181 226 275 332
#     4  11  23  37  51  72 104 140 181 227 280 334
#     4  10  20  37  62  88 115 152 195 235 279 330
#     4   9  16  33  58  81 105 139 181 224 277 336
#     4  11  22  37  57  86 120 153 191 235 283 333
#     4  10  19  32  52  78 105 137 177 219 269 324
#     4   9  18  34  58  81 102 138 182 226 276 339
#
# _framework density 18.627338999999999
#
# number of rings (size 3 to 8) (size 9 to 14) (size 15 to 20)
#    0.000    2.250    1.250    3.375    0.000    2.000 
#    0.000    7.500    0.000    1.500    0.000    0.000 
#    0.000    0.000    0.000    0.000    0.000    0.000 
#
# Total GULP energy -357215.774758 kJ/mol
# GULP energy per Si atom -5581.496481 kJ/mol
# Density = 1.858494 g / cm^3
# Si number density = 18.627339 Si / 1000 Ang^3
#
#
#
# Elastic Constant Matrix: (Units=GPa)
#
#
# Indices 1 2 3 4 5 6 
#
# 1 115.9391 9.1185 17.4888 0.0000 0.0000 0.0000
# 2 9.1185 46.1817 5.6852 0.0000 0.0000 0.0000
# 3 17.4888 5.6852 29.3936 0.0000 0.0000 0.0000
# 4 0.0000 0.0000 0.0000 22.1536 0.0000 0.0000
# 5 0.0000 0.0000 0.0000 0.0000 25.9021 0.0000
# 6 0.0000 0.0000 0.0000 0.0000 0.0000 16.7073
#
#
#
# Elastic Compliance Matrix: (Units=1/GPa)
#
#
# Indices 1 2 3 4 5 6 
#
# 1 0.009542 -0.001214 -0.005442 0.000000 0.000000 0.000000
# 2 -0.001214 0.022336 -0.003598 0.000000 0.000000 0.000000
# 3 -0.005442 -0.003598 0.037955 0.000000 0.000000 0.000000
# 4 0.000000 0.000000 0.000000 0.045139 0.000000 0.000000
# 5 0.000000 0.000000 0.000000 0.000000 0.038607 0.000000
# 6 0.000000 0.000000 0.000000 0.000000 0.000000 0.059854
#
#
# Mechanical properties :
#
#
# Convention : Reuss Voigt Hill
#
# Bulk Modulus (GPa) = 20.27392 28.45548 24.36470
# Shear Modulus (GPa) = 19.96940 23.56740 21.76840
#
# Velocity S-wave (km/s) = 3.27777 3.56083 3.42223
# Velocity P-wave (km/s) = 5.02321 5.67586 5.35948
#
# Compressibility (1/GPa) = 0.04932444
#
# Stress axis : x y z
#
# Youngs Moduli (GPa) = 104.80374 44.77031 26.34701
#
# Poissons Ratio (x) = 0.05435 0.14339
# Poissons Ratio (y) = 0.12723 0.09479
# Poissons Ratio (z) = 0.57038 0.16108
#
# Static dielectric constant tensor:
#      x y z
#    x 1.649480 0.000000 0.000000 
#    y 0.000000 1.620380 0.000000 
#    z 0.000000 0.000000 1.637610 
# 
# From -- ./inp_files/8509.got.cif
#   From: 2010.05.17/outbox.cif.g08.bks.cpg/sg57_5_cif.got.tgz:8509.got - 2010.06.03 13:58:18.
