data_PCOD9435330
_publ_section_title
;
Structure prediction by ZEFSAII (Michael W. Deem and Ramdas Pophale) SiO2 
 PCOD9435330
Probable space group: P B C M
;
_chemical_formula_sum "Si O2"
_cell_formula_units_Z 48
_cell_length_a 28.467253
_cell_length_b 5.213082
_cell_length_c 13.828493
_cell_angle_alpha 90.000000
_cell_angle_beta 90.000000
_cell_angle_gamma 90.000000
_cell_volume 2052.177736
_symmetry_space_group_name_H-M "P B C M"
_symmetry_group_IT_number 57
_symmetry_cell_setting 'orthorhombic'
loop_
_space_group_symop_operation_xyz
x,y,z
-x,-y,1/2+z
x,1/2-y,-z
-x,1/2+y,1/2-z
-x,-y,-z
x,y,1/2-z
-x,1/2+y,z
x,1/2-y,1/2+z
loop_
_atom_site_type_symbol
_atom_site_label
_atom_site_fract_x
_atom_site_fract_y
_atom_site_fract_z
Si Si1 0.128665 0.598410 0.131234
Si Si2 0.177598 0.399313 0.863141
Si Si3 0.973546 0.902818 0.368098
Si Si4 0.618821 0.498984 0.431406
Si Si5 0.278835 0.499541 0.932825
Si Si6 0.523410 0.206194 0.615851
O O1 0.128116 0.612285 0.250000
O O2 0.166919 0.385871 0.099975
O O3 0.077718 0.497333 0.101567
O O4 0.143473 0.879945 0.097376
O O5 0.166525 0.382616 0.750000
O O6 0.231309 0.484859 0.872706
O O7 0.973101 0.899177 0.250000
O O8 0.988589 0.618096 0.397720
O O9 0.610930 0.750000 0.500000
O O10 0.670005 0.514927 0.382108
O O11 0.573521 0.429957 0.367906
O O12 0.622619 0.250000 0.500000
O O13 0.276659 0.750000 0.000000
O O14 0.278279 0.250000 0.000000
O O15 0.519625 0.250000 0.500000
O O16 0.514498 0.495841 0.649050
#
# Coordination Sequence:
#
# PCOD9435330 Si02
#       6
#     8   8   8   8   8   8
#     4   9  17  28  43  65  93 122 149 183 227 269
#     4  10  19  32  49  68  93 123 154 188 227 269
#     4   9  15  23  37  59  89 120 144 171 217 273
#     4   9  16  25  37  55  81 112 141 175 220 262
#     4  10  20  33  48  67  93 122 154 191 229 269
#     4   9  14  20  32  51  76 106 137 168 209 263
#
# _framework density 23.389787999999999
#
# number of rings (size 3 to 8) (size 9 to 14) (size 15 to 20)
#    0.000    2.667    0.000    4.500    0.000    4.000 
#    0.000    0.000    0.000    0.000    0.000    0.000 
#    0.000   48.000    0.000    0.000    0.000   43.667 
#
# Total GULP energy -268010.575551 kJ/mol
# GULP energy per Si atom -5583.553657 kJ/mol
# Density = 2.333655 g / cm^3
# Si number density = 23.389788 Si / 1000 Ang^3
#
#
#
# Elastic Constant Matrix: (Units=GPa)
#
#
# Indices 1 2 3 4 5 6 
#
# 1 119.1170 32.1057 -4.8823 0.0000 0.0000 0.0000
# 2 32.1057 155.3396 12.2496 0.0000 0.0000 0.0000
# 3 -4.8823 12.2496 65.1171 0.0000 0.0000 0.0000
# 4 0.0000 0.0000 0.0000 5.5152 0.0000 0.0000
# 5 0.0000 0.0000 0.0000 0.0000 50.2150 0.0000
# 6 0.0000 0.0000 0.0000 0.0000 0.0000 40.7310
#
#
#
# Elastic Compliance Matrix: (Units=1/GPa)
#
#
# Indices 1 2 3 4 5 6 
#
# 1 0.008959 -0.001933 0.001035 0.000000 0.000000 0.000000
# 2 -0.001933 0.006952 -0.001453 0.000000 0.000000 0.000000
# 3 0.001035 -0.001453 0.015708 0.000000 0.000000 0.000000
# 4 0.000000 0.000000 0.000000 0.181318 0.000000 0.000000
# 5 0.000000 0.000000 0.000000 0.000000 0.019914 0.000000
# 6 0.000000 0.000000 0.000000 0.000000 0.000000 0.024551
#
#
# Mechanical properties :
#
#
# Convention : Reuss Voigt Hill
#
# Bulk Modulus (GPa) = 37.15118 46.50219 41.82669
# Shear Modulus (GPa) = 18.44508 39.29894 28.87201
#
# Velocity S-wave (km/s) = 2.81124 4.10344 3.51719
# Velocity P-wave (km/s) = 5.14348 6.50965 5.86647
#
# Compressibility (1/GPa) = 0.02691704
#
# Stress axis : x y z
#
# Youngs Moduli (GPa) = 111.62447 143.85134 63.66243
#
# Poissons Ratio (x) = 0.27810 -0.06591
# Poissons Ratio (y) = 0.21579 0.09248
# Poissons Ratio (z) = -0.11557 0.20897
#
# Static dielectric constant tensor:
#      x y z
#    x 1.920950 0.000000 0.000000 
#    y 0.000000 1.839440 0.000000 
#    z 0.000000 0.000000 1.941920 
# 
# From -- ./inp_files/25797.got.cif
#   From: 2010.05.17/outbox.cif.g08.bks.cpg/sg57_13_cif.got.tgz:25797.got - 2010.06.03 13:58:18.
