data_PCOD9435786
_publ_section_title
;
Structure prediction by ZEFSAII (Michael W. Deem and Ramdas Pophale) SiO2 
 PCOD9435786
Probable space group: P B C M
;
_chemical_formula_sum "Si O2"
_cell_formula_units_Z 64
_cell_length_a 22.171360
_cell_length_b 18.114707
_cell_length_c 8.800968
_cell_angle_alpha 90.000000
_cell_angle_beta 90.000000
_cell_angle_gamma 90.000000
_cell_volume 3534.712449
_symmetry_space_group_name_H-M "P B C M"
_symmetry_group_IT_number 57
_symmetry_cell_setting 'orthorhombic'
loop_
_space_group_symop_operation_xyz
x,y,z
-x,-y,1/2+z
x,1/2-y,-z
-x,1/2+y,1/2-z
-x,-y,-z
x,y,1/2-z
-x,1/2+y,z
x,1/2-y,1/2+z
loop_
_atom_site_type_symbol
_atom_site_label
_atom_site_fract_x
_atom_site_fract_y
_atom_site_fract_z
Si Si1 0.607126 0.428280 0.065504
Si Si2 0.064480 0.480609 0.068186
Si Si3 0.722669 0.168205 0.566036
Si Si4 0.240995 0.109664 0.068621
Si Si5 0.818723 0.451616 0.431575
Si Si6 0.123182 0.173642 0.930819
Si Si7 0.495117 0.329202 0.067605
Si Si8 0.377799 0.401579 0.934092
O O1 0.608672 0.429384 0.250000
O O2 0.663601 0.378083 0.016848
O O3 0.544781 0.389819 0.019372
O O4 0.613058 0.513082 0.017127
O O5 0.061827 0.482435 0.250000
O O6 0.085297 0.398218 0.019858
O O7 0.117661 0.534517 0.011571
O O8 0.000000 0.500000 0.000000
O O9 0.722534 0.250000 0.500000
O O10 0.721669 0.171741 0.750000
O O11 0.781290 0.120330 0.521281
O O12 0.235768 0.121341 0.250000
O O13 0.310041 0.122079 0.023356
O O14 0.222645 0.024133 0.039601
O O15 0.191478 0.158650 0.985292
O O16 0.828329 0.448474 0.250000
O O17 0.121723 0.177711 0.750000
O O18 0.100836 0.250000 0.000000
O O19 0.494557 0.325377 0.250000
O O20 0.512232 0.250000 0.000000
O O21 0.429965 0.352758 0.006241
O O22 0.381984 0.398563 0.750000
#
# Coordination Sequence:
#
# PCOD9435786 Si02
#       8
#     8   8   8   8   8   8   8   8
#     4   9  18  35  57  78 103 137 181 227 273 329
#     4  10  21  37  59  86 114 146 185 225 265 312
#     4  10  19  33  54  81 110 142 179 222 273 326
#     4   9  17  32  56  80 103 138 177 217 269 324
#     4   9  17  33  56  79 107 142 179 216 262 320
#     4  10  21  36  56  84 116 146 180 224 268 315
#     4  11  23  37  52  73 104 141 180 226 277 329
#     4  10  19  35  58  80 103 136 179 226 276 330
#
# _framework density 18.10614
#
# number of rings (size 3 to 8) (size 9 to 14) (size 15 to 20)
#    0.000    2.250    1.250    1.875    0.000    3.000 
#    0.000    2.500    0.000    0.000    0.000    0.000 
#    0.000    0.000    0.000    0.000    0.000    0.000 
#
# Total GULP energy -357254.676951 kJ/mol
# GULP energy per Si atom -5582.104327 kJ/mol
# Density = 1.806493 g / cm^3
# Si number density = 18.106140 Si / 1000 Ang^3
#
#
#
# Elastic Constant Matrix: (Units=GPa)
#
#
# Indices 1 2 3 4 5 6 
#
# 1 109.1884 6.7696 24.0910 0.0000 0.0000 0.0000
# 2 6.7696 46.9599 10.2393 0.0000 0.0000 0.0000
# 3 24.0910 10.2393 19.4056 0.0000 0.0000 0.0000
# 4 0.0000 0.0000 0.0000 28.7099 0.0000 0.0000
# 5 0.0000 0.0000 0.0000 0.0000 23.6029 0.0000
# 6 0.0000 0.0000 0.0000 0.0000 0.0000 14.3240
#
#
#
# Elastic Compliance Matrix: (Units=1/GPa)
#
#
# Indices 1 2 3 4 5 6 
#
# 1 0.012750 0.001823 -0.016790 0.000000 0.000000 0.000000
# 2 0.001823 0.024324 -0.015098 0.000000 0.000000 0.000000
# 3 -0.016790 -0.015098 0.080342 0.000000 0.000000 0.000000
# 4 0.000000 0.000000 0.000000 0.034831 0.000000 0.000000
# 5 0.000000 0.000000 0.000000 0.000000 0.042368 0.000000
# 6 0.000000 0.000000 0.000000 0.000000 0.000000 0.069813
#
#
# Mechanical properties :
#
#
# Convention : Reuss Voigt Hill
#
# Bulk Modulus (GPa) = 17.45626 28.63929 23.04777
# Shear Modulus (GPa) = 14.54956 22.29095 18.42025
#
# Velocity S-wave (km/s) = 2.83781 3.51255 3.19305
# Velocity P-wave (km/s) = 4.51658 5.68352 5.13332
#
# Compressibility (1/GPa) = 0.05728605
#
# Stress axis : x y z
#
# Youngs Moduli (GPa) = 78.43109 41.11184 12.44678
#
# Poissons Ratio (x) = -0.07495 0.20899
# Poissons Ratio (y) = -0.14298 0.18792
# Poissons Ratio (z) = 1.31689 0.62069
#
# Static dielectric constant tensor:
#      x y z
#    x 1.602680 0.000000 0.000000 
#    y 0.000000 1.613370 0.000000 
#    z 0.000000 0.000000 1.609190 
# 
# From -- ./inp_files/8584.got.cif
#   From: 2010.05.17/outbox.cif.g08.bks.cpg/sg57_5_cif.got.tgz:8584.got - 2010.06.03 13:58:18.
