data_PCOD9435046
_publ_section_title
;
Structure prediction by ZEFSAII (Michael W. Deem and Ramdas Pophale) SiO2 
 PCOD9435046
Probable space group: P B C M
;
_chemical_formula_sum "Si O2"
_cell_formula_units_Z 48
_cell_length_a 20.662089
_cell_length_b 5.253834
_cell_length_c 25.892140
_cell_angle_alpha 90.000000
_cell_angle_beta 90.000000
_cell_angle_gamma 90.000000
_cell_volume 2810.726066
_symmetry_space_group_name_H-M "P B C M"
_symmetry_group_IT_number 57
_symmetry_cell_setting 'orthorhombic'
loop_
_space_group_symop_operation_xyz
x,y,z
-x,-y,1/2+z
x,1/2-y,-z
-x,1/2+y,1/2-z
-x,-y,-z
x,y,1/2-z
-x,1/2+y,z
x,1/2-y,1/2+z
loop_
_atom_site_type_symbol
_atom_site_label
_atom_site_fract_x
_atom_site_fract_y
_atom_site_fract_z
Si Si1 0.248617 0.819678 0.555488
Si Si2 0.687136 0.187988 0.162347
Si Si3 0.975156 0.553727 0.441271
Si Si4 0.830227 0.684553 0.416838
Si Si5 0.537098 0.249959 0.312312
Si Si6 0.767060 0.806300 0.691895
O O1 0.276898 0.750000 0.500000
O O2 0.300148 0.833786 0.601199
O O3 0.201640 0.584368 0.568708
O O4 0.207415 0.080341 0.556764
O O5 0.611750 0.213890 0.173602
O O6 0.725639 0.436722 0.182376
O O7 0.719153 0.935546 0.186605
O O8 0.903807 0.667027 0.435508
O O9 0.000000 0.500000 0.500000
O O10 0.979100 0.271760 0.417510
O O11 0.818498 0.716226 0.355054
O O12 0.534150 0.252592 0.250000
O O13 0.506475 0.514394 0.330812
O O14 0.794125 0.811202 0.750000
#
# Coordination Sequence:
#
# PCOD9435046 Si02
#       6
#     8   8   8   8   8   8
#     4  10  21  33  54  73 102 135 164 216 255 297
#     4  10  20  34  50  78 104 133 171 206 257 306
#     4  10  21  32  48  72  99 134 161 200 248 305
#     4  10  21  34  50  77 102 129 172 206 257 303
#     4  10  19  30  48  73 101 133 164 204 252 299
#     4  10  19  33  54  75 100 134 167 214 257 301
#
# _framework density 17.077435999999999
#
# number of rings (size 3 to 8) (size 9 to 14) (size 15 to 20)
#    0.000    2.000    0.000    4.000    7.000    1.333 
#    0.000    0.000    0.000    2.000    0.000    0.000 
#    0.000    0.000    0.000    0.000    0.000    0.000 
#
# Total GULP energy -267611.719703 kJ/mol
# GULP energy per Si atom -5575.244160 kJ/mol
# Density = 1.703857 g / cm^3
# Si number density = 17.077436 Si / 1000 Ang^3
#
#
#
# Elastic Constant Matrix: (Units=GPa)
#
#
# Indices 1 2 3 4 5 6 
#
# 1 44.4708 7.2055 14.6325 0.0000 0.0000 0.0000
# 2 7.2055 115.6944 5.4021 0.0000 0.0000 0.0000
# 3 14.6325 5.4021 80.1730 0.0000 0.0000 0.0000
# 4 0.0000 0.0000 0.0000 2.6552 0.0000 0.0000
# 5 0.0000 0.0000 0.0000 0.0000 14.5143 0.0000
# 6 0.0000 0.0000 0.0000 0.0000 0.0000 17.6726
#
#
#
# Elastic Compliance Matrix: (Units=1/GPa)
#
#
# Indices 1 2 3 4 5 6 
#
# 1 0.024117 -0.001301 -0.004314 0.000000 0.000000 0.000000
# 2 -0.001301 0.008741 -0.000352 0.000000 0.000000 0.000000
# 3 -0.004314 -0.000352 0.013284 0.000000 0.000000 0.000000
# 4 0.000000 0.000000 0.000000 0.376623 0.000000 0.000000
# 5 0.000000 0.000000 0.000000 0.000000 0.068898 0.000000
# 6 0.000000 0.000000 0.000000 0.000000 0.000000 0.056585
#
#
# Mechanical properties :
#
#
# Convention : Reuss Voigt Hill
#
# Bulk Modulus (GPa) = 29.23163 32.75759 30.99461
# Shear Modulus (GPa) = 8.74765 21.17496 14.96131
#
# Velocity S-wave (km/s) = 2.26571 3.52510 2.96309
# Velocity P-wave (km/s) = 4.89887 5.98263 5.46767
#
# Compressibility (1/GPa) = 0.03420952
#
# Stress axis : x y z
#
# Youngs Moduli (GPa) = 41.46481 114.40494 75.27822
#
# Poissons Ratio (x) = 0.14879 0.32475
# Poissons Ratio (y) = 0.05393 0.02647
# Poissons Ratio (z) = 0.17888 0.04022
#
# Static dielectric constant tensor:
#      x y z
#    x 1.551190 0.000000 0.000000 
#    y 0.000000 1.641310 0.000000 
#    z 0.000000 0.000000 1.634260 
# 
# From -- ./inp_files/27559.got.cif
#   From: 2010.05.17/outbox.cif.g08.bks.cpg/sg57_14_cif.got.tgz:27559.got - 2010.06.03 13:58:18.
