data_PCOD9435001
_publ_section_title
;
Structure prediction by ZEFSAII (Michael W. Deem and Ramdas Pophale) SiO2 
 PCOD9435001
Probable space group: P B C M
;
_chemical_formula_sum "Si O2"
_cell_formula_units_Z 64
_cell_length_a 15.849174
_cell_length_b 9.234769
_cell_length_c 26.119558
_cell_angle_alpha 90.000000
_cell_angle_beta 90.000000
_cell_angle_gamma 90.000000
_cell_volume 3822.948902
_symmetry_space_group_name_H-M "P B C M"
_symmetry_group_IT_number 57
_symmetry_cell_setting 'orthorhombic'
loop_
_space_group_symop_operation_xyz
x,y,z
-x,-y,1/2+z
x,1/2-y,-z
-x,1/2+y,1/2-z
-x,-y,-z
x,y,1/2-z
-x,1/2+y,z
x,1/2-y,1/2+z
loop_
_atom_site_type_symbol
_atom_site_label
_atom_site_fract_x
_atom_site_fract_y
_atom_site_fract_z
Si Si1 0.327610 0.206744 0.309078
Si Si2 0.407004 0.991446 0.693423
Si Si3 0.881075 0.434119 0.688368
Si Si4 0.542791 0.935944 0.611459
Si Si5 0.717594 0.285441 0.852373
Si Si6 0.593711 0.228735 0.939872
Si Si7 0.190917 0.992212 0.310951
Si Si8 0.018960 0.859605 0.188640
O O1 0.350062 0.163368 0.250000
O O2 0.340478 0.378087 0.311022
O O3 0.388296 0.138326 0.351789
O O4 0.233498 0.147600 0.318040
O O5 0.444291 0.995247 0.750000
O O6 0.477356 0.010210 0.650779
O O7 0.357555 0.842674 0.683853
O O8 0.861521 0.437182 0.750000
O O9 0.797772 0.388337 0.657854
O O10 0.948493 0.302913 0.680110
O O11 0.929064 0.579408 0.670983
O O12 0.487584 0.819858 0.579880
O O13 0.580276 0.061329 0.575830
O O14 0.675063 0.284560 0.908056
O O15 0.748749 0.126653 0.836712
O O16 0.603381 0.250000 0.000000
O O17 0.190408 0.961632 0.250000
O O18 0.096174 0.962478 0.329216
O O19 0.013260 0.875617 0.250000
#
# Coordination Sequence:
#
# PCOD9435001 Si02
#       8
#     8   8   8   8   8   8   8   8
#     4  10  19  30  46  70 101 132 160 190 238 295
#     4  10  20  31  45  71 101 130 158 189 235 295
#     4   9  16  28  45  71 100 132 160 187 229 282
#     4  11  20  37  50  70  97 122 163 205 251 297
#     4  10  19  32  50  68  98 126 166 205 244 289
#     4  11  23  37  55  71  90 124 169 220 263 292
#     4   9  16  28  46  69  95 130 162 192 231 282
#     4   8  15  25  40  64  96 126 159 185 217 275
#
# _framework density 16.741002999999999
#
# number of rings (size 3 to 8) (size 9 to 14) (size 15 to 20)
#    0.000    2.250    2.500    2.625    0.000    1.000 
#    0.000    3.750    0.000    0.000    0.000    3.500 
#    0.000    0.000    0.000    0.000    0.000    0.000 
#
# Total GULP energy -356574.991938 kJ/mol
# GULP energy per Si atom -5571.484249 kJ/mol
# Density = 1.670290 g / cm^3
# Si number density = 16.741003 Si / 1000 Ang^3
#
#
#
# Elastic Constant Matrix: (Units=GPa)
#
#
# Indices 1 2 3 4 5 6 
#
# 1 51.1237 16.2043 21.8046 0.0000 0.0000 0.0000
# 2 16.2043 32.1754 21.6542 0.0000 0.0000 0.0000
# 3 21.8046 21.6542 73.8946 0.0000 0.0000 0.0000
# 4 0.0000 0.0000 0.0000 13.7671 0.0000 0.0000
# 5 0.0000 0.0000 0.0000 0.0000 12.5313 0.0000
# 6 0.0000 0.0000 0.0000 0.0000 0.0000 33.5904
#
#
#
# Elastic Compliance Matrix: (Units=1/GPa)
#
#
# Indices 1 2 3 4 5 6 
#
# 1 0.024414 -0.009277 -0.004486 0.000000 0.000000 0.000000
# 2 -0.009277 0.042240 -0.009641 0.000000 0.000000 0.000000
# 3 -0.004486 -0.009641 0.017681 0.000000 0.000000 0.000000
# 4 0.000000 0.000000 0.000000 0.072637 0.000000 0.000000
# 5 0.000000 0.000000 0.000000 0.000000 0.079800 0.000000
# 6 0.000000 0.000000 0.000000 0.000000 0.000000 0.029770
#
#
# Mechanical properties :
#
#
# Convention : Reuss Voigt Hill
#
# Bulk Modulus (GPa) = 26.64573 30.72443 28.68508
# Shear Modulus (GPa) = 15.34408 18.47979 16.91193
#
# Velocity S-wave (km/s) = 3.03075 3.32605 3.18183
# Velocity P-wave (km/s) = 5.31021 5.75698 5.53810
#
# Compressibility (1/GPa) = 0.03752946
#
# Stress axis : x y z
#
# Youngs Moduli (GPa) = 40.96038 23.67430 56.55632
#
# Poissons Ratio (x) = 0.21962 0.25368
# Poissons Ratio (y) = 0.37997 0.54524
# Poissons Ratio (z) = 0.18373 0.22824
#
# Static dielectric constant tensor:
#      x y z
#    x 1.591390 0.000000 0.000000 
#    y 0.000000 1.609850 0.000000 
#    z 0.000000 0.000000 1.523100 
# 
# From -- ./inp_files/27496.got.cif
#   From: 2010.05.17/outbox.cif.g08.bks.cpg/sg57_14_cif.got.tgz:27496.got - 2010.06.03 13:58:18.
