data_PCOD9435183
_publ_section_title
;
Structure prediction by ZEFSAII (Michael W. Deem and Ramdas Pophale) SiO2 
 PCOD9435183
Probable space group: P B C M
;
_chemical_formula_sum "Si O2"
_cell_formula_units_Z 48
_cell_length_a 13.999797
_cell_length_b 24.364932
_cell_length_c 8.855416
_cell_angle_alpha 90.000000
_cell_angle_beta 90.000000
_cell_angle_gamma 90.000000
_cell_volume 3020.618722
_symmetry_space_group_name_H-M "P B C M"
_symmetry_group_IT_number 57
_symmetry_cell_setting 'orthorhombic'
loop_
_space_group_symop_operation_xyz
x,y,z
-x,-y,1/2+z
x,1/2-y,-z
-x,1/2+y,1/2-z
-x,-y,-z
x,y,1/2-z
-x,1/2+y,z
x,1/2-y,1/2+z
loop_
_atom_site_type_symbol
_atom_site_label
_atom_site_fract_x
_atom_site_fract_y
_atom_site_fract_z
Si Si1 0.352583 0.026257 0.430235
Si Si2 0.967231 0.086084 0.430603
Si Si3 0.133720 0.809032 0.431202
Si Si4 0.356546 0.691567 0.568425
Si Si5 0.530473 0.083747 0.568237
Si Si6 0.855737 0.525396 0.930483
O O1 0.343644 0.030215 0.250000
O O2 0.430455 0.069397 0.490745
O O3 0.250134 0.032627 0.506403
O O4 0.397143 0.966304 0.466970
O O5 0.972121 0.091195 0.250000
O O6 0.928751 0.141742 0.503205
O O7 0.069199 0.067334 0.495662
O O8 0.895051 0.035755 0.467331
O O9 0.106910 0.750000 0.500000
O O10 0.126644 0.807448 0.250000
O O11 0.245456 0.818748 0.472339
O O12 0.384976 0.750000 0.500000
O O13 0.360667 0.694868 0.750000
O O14 0.422410 0.640949 0.519948
O O15 0.517968 0.084308 0.750000
O O16 0.857237 0.531477 0.750000
#
# Coordination Sequence:
#
# PCOD9435183 Si02
#       6
#     8   8   8   8   8   8
#     4  10  19  31  49  72  97 126 161 199 238 285
#     4  10  20  33  50  73  99 128 163 200 240 288
#     4  10  19  32  50  73 101 131 163 199 241 286
#     4   9  18  31  48  70  97 128 160 196 236 281
#     4   9  18  32  48  69  98 129 159 194 240 287
#     4  10  20  33  50  72  99 130 161 197 243 292
#
# _framework density 15.890783000000001
#
# number of rings (size 3 to 8) (size 9 to 14) (size 15 to 20)
#    0.000    2.333    0.000    3.000    0.000    5.333 
#    0.000    0.000    0.000    1.000    0.000    4.667 
#    0.000    0.000    0.000    0.000    0.000    0.000 
#
# Total GULP energy -267852.237871 kJ/mol
# GULP energy per Si atom -5580.254956 kJ/mol
# Density = 1.585462 g / cm^3
# Si number density = 15.890783 Si / 1000 Ang^3
#
#
#
# Elastic Constant Matrix: (Units=GPa)
#
#
# Indices 1 2 3 4 5 6 
#
# 1 132.5031 88.1686 52.3990 0.0000 0.0000 0.0000
# 2 88.1686 145.0791 54.6906 0.0000 0.0000 0.0000
# 3 52.3990 54.6906 49.4881 0.0000 0.0000 0.0000
# 4 0.0000 0.0000 0.0000 28.6075 0.0000 0.0000
# 5 0.0000 0.0000 0.0000 0.0000 26.8897 0.0000
# 6 0.0000 0.0000 0.0000 0.0000 0.0000 24.6910
#
#
#
# Elastic Compliance Matrix: (Units=1/GPa)
#
#
# Indices 1 2 3 4 5 6 
#
# 1 0.015105 -0.005401 -0.010025 0.000000 0.000000 0.000000
# 2 -0.005401 0.013746 -0.009473 0.000000 0.000000 0.000000
# 3 -0.010025 -0.009473 0.041290 0.000000 0.000000 0.000000
# 4 0.000000 0.000000 0.000000 0.034956 0.000000 0.000000
# 5 0.000000 0.000000 0.000000 0.000000 0.037189 0.000000
# 6 0.000000 0.000000 0.000000 0.000000 0.000000 0.040501
#
#
# Mechanical properties :
#
#
# Convention : Reuss Voigt Hill
#
# Bulk Modulus (GPa) = 49.15395 79.73186 64.44291
# Shear Modulus (GPa) = 20.88863 24.82512 22.85688
#
# Velocity S-wave (km/s) = 3.62955 3.95680 3.79670
# Velocity P-wave (km/s) = 6.96882 8.43557 7.73703
#
# Compressibility (1/GPa) = 0.02034424
#
# Stress axis : x y z
#
# Youngs Moduli (GPa) = 66.20282 72.74977 24.21882
#
# Poissons Ratio (x) = 0.39289 0.24280
# Poissons Ratio (y) = 0.35753 0.22941
# Poissons Ratio (z) = 0.66370 0.68913
#
# Static dielectric constant tensor:
#      x y z
#    x 1.504960 0.000000 0.000000 
#    y 0.000000 1.512320 0.000000 
#    z 0.000000 0.000000 1.528010 
# 
# From -- ./inp_files/3091.got.cif
#   From: 2010.05.17/outbox.cif.g08.bks.cpg/sg57_2_cif.got.tgz:3091.got - 2010.06.03 13:58:18.
