data_PCOD9435349
_publ_section_title
;
Structure prediction by ZEFSAII (Michael W. Deem and Ramdas Pophale) SiO2 
 PCOD9435349
Probable space group: P B C M
;
_chemical_formula_sum "Si O2"
_cell_formula_units_Z 64
_cell_length_a 14.298374
_cell_length_b 29.506573
_cell_length_c 7.911156
_cell_angle_alpha 90.000000
_cell_angle_beta 90.000000
_cell_angle_gamma 90.000000
_cell_volume 3337.685200
_symmetry_space_group_name_H-M "P B C M"
_symmetry_group_IT_number 57
_symmetry_cell_setting 'orthorhombic'
loop_
_space_group_symop_operation_xyz
x,y,z
-x,-y,1/2+z
x,1/2-y,-z
-x,1/2+y,1/2-z
-x,-y,-z
x,y,1/2-z
-x,1/2+y,z
x,1/2-y,1/2+z
loop_
_atom_site_type_symbol
_atom_site_label
_atom_site_fract_x
_atom_site_fract_y
_atom_site_fract_z
Si Si1 0.365393 0.118128 0.055483
Si Si2 0.604087 0.982532 0.952302
Si Si3 0.023900 0.199368 0.045719
Si Si4 0.716746 0.068655 0.047585
Si Si5 0.732117 0.300635 0.049331
Si Si6 0.760513 0.800147 0.953957
Si Si7 0.121568 0.872297 0.557621
Si Si8 0.563810 0.142557 0.553828
O O1 0.334548 0.112221 0.250000
O O2 0.372687 0.067686 0.978720
O O3 0.299592 0.157353 0.980746
O O4 0.471331 0.136037 0.052105
O O5 0.603521 0.980131 0.750000
O O6 0.500000 0.000000 0.000000
O O7 0.682315 0.018389 0.007950
O O8 0.021131 0.197029 0.250000
O O9 0.131538 0.196882 0.987883
O O10 0.964381 0.156284 0.979946
O O11 0.988078 0.250000 0.000000
O O12 0.716267 0.075047 0.250000
O O13 0.819449 0.085121 0.984618
O O14 0.636617 0.101270 0.971747
O O15 0.746880 0.308521 0.250000
O O16 0.625176 0.313599 0.011119
O O17 0.752868 0.250000 0.000000
O O18 0.798007 0.334026 0.946087
O O19 0.760938 0.802090 0.750000
O O20 0.724326 0.750000 0.000000
O O21 0.094916 0.884335 0.750000
O O22 0.536427 0.143964 0.750000
#
# Coordination Sequence:
#
# PCOD9435349 Si02
#       8
#     8   8   8   8   8   8   8   8
#     4  10  21  35  52  73  99 132 168 206 252 301
#     4  11  21  33  52  76 101 133 173 213 254 296
#     4   9  17  31  52  76 100 128 166 209 253 303
#     4  10  19  32  49  72 102 132 163 203 252 300
#     4  10  20  31  43  64  94 129 164 200 243 296
#     4   9  19  36  55  76 102 132 167 209 254 301
#     4   9  18  31  49  72  98 129 163 202 250 301
#     4  10  20  32  47  67  93 127 167 206 246 295
#
# _framework density 19.174966000000001
#
# number of rings (size 3 to 8) (size 9 to 14) (size 15 to 20)
#    0.000    2.250    1.250    1.875    0.000    5.000 
#    0.000    2.500    0.000    0.750    0.000    0.000 
#    0.000    0.000    0.000    0.000    0.000    0.500 
#
# Total GULP energy -356620.502397 kJ/mol
# GULP energy per Si atom -5572.195350 kJ/mol
# Density = 1.913132 g / cm^3
# Si number density = 19.174966 Si / 1000 Ang^3
#
#
#
# Elastic Constant Matrix: (Units=GPa)
#
#
# Indices 1 2 3 4 5 6 
#
# 1 75.4485 58.0160 0.8570 0.0000 0.0000 0.0000
# 2 58.0160 115.8841 5.2189 0.0000 0.0000 0.0000
# 3 0.8570 5.2189 26.9741 0.0000 0.0000 0.0000
# 4 0.0000 0.0000 0.0000 21.1692 0.0000 0.0000
# 5 0.0000 0.0000 0.0000 0.0000 14.4883 0.0000
# 6 0.0000 0.0000 0.0000 0.0000 0.0000 30.5470
#
#
#
# Elastic Compliance Matrix: (Units=1/GPa)
#
#
# Indices 1 2 3 4 5 6 
#
# 1 0.021604 -0.010880 0.001419 0.000000 0.000000 0.000000
# 2 -0.010880 0.014184 -0.002399 0.000000 0.000000 0.000000
# 3 0.001419 -0.002399 0.037492 0.000000 0.000000 0.000000
# 4 0.000000 0.000000 0.000000 0.047239 0.000000 0.000000
# 5 0.000000 0.000000 0.000000 0.000000 0.069021 0.000000
# 6 0.000000 0.000000 0.000000 0.000000 0.000000 0.032736
#
#
# Mechanical properties :
#
#
# Convention : Reuss Voigt Hill
#
# Bulk Modulus (GPa) = 20.17748 38.49894 29.33821
# Shear Modulus (GPa) = 19.04654 23.52188 21.28421
#
# Velocity S-wave (km/s) = 3.15509 3.50622 3.33528
# Velocity P-wave (km/s) = 4.88042 6.04258 5.49232
#
# Compressibility (1/GPa) = 0.04956020
#
# Stress axis : x y z
#
# Youngs Moduli (GPa) = 46.28823 70.50169 26.67261
#
# Poissons Ratio (x) = 0.76703 -0.03784
# Poissons Ratio (y) = 0.50360 0.06398
# Poissons Ratio (z) = -0.06566 0.16911
#
# Static dielectric constant tensor:
#      x y z
#    x 1.683180 0.000000 0.000000 
#    y 0.000000 1.697960 0.000000 
#    z 0.000000 0.000000 1.713250 
# 
# From -- ./inp_files/6049.got.cif
#   From: 2010.05.17/outbox.cif.g08.bks.cpg/sg57_4_cif.got.tgz:6049.got - 2010.06.03 13:58:18.
