data_PCOD9435302
_publ_section_title
;
Structure prediction by ZEFSAII (Michael W. Deem and Ramdas Pophale) SiO2 
 PCOD9435302
Probable space group: P B C M
;
_chemical_formula_sum "Si O2"
_cell_formula_units_Z 64
_cell_length_a 10.300975
_cell_length_b 22.481393
_cell_length_c 15.296411
_cell_angle_alpha 90.000000
_cell_angle_beta 90.000000
_cell_angle_gamma 90.000000
_cell_volume 3542.346947
_symmetry_space_group_name_H-M "P B C M"
_symmetry_group_IT_number 57
_symmetry_cell_setting 'orthorhombic'
loop_
_space_group_symop_operation_xyz
x,y,z
-x,-y,1/2+z
x,1/2-y,-z
-x,1/2+y,1/2-z
-x,-y,-z
x,y,1/2-z
-x,1/2+y,z
x,1/2-y,1/2+z
loop_
_atom_site_type_symbol
_atom_site_label
_atom_site_fract_x
_atom_site_fract_y
_atom_site_fract_z
Si Si1 0.146624 0.811207 0.535646
Si Si2 0.627555 0.362764 0.649621
Si Si3 0.217427 0.440450 0.521679
Si Si4 0.272254 0.508791 0.149852
Si Si5 0.971768 0.867472 0.403912
Si Si6 0.026122 0.997128 0.153962
Si Si7 0.095981 0.235306 0.351392
Si Si8 0.339662 0.346468 0.645258
O O1 0.203059 0.750000 0.500000
O O2 0.251946 0.841958 0.593950
O O3 0.102775 0.850056 0.453662
O O4 0.016217 0.793495 0.588990
O O5 0.649506 0.345576 0.750000
O O6 0.634192 0.434496 0.645942
O O7 0.489811 0.335549 0.622098
O O8 0.289740 0.470049 0.438344
O O9 0.127486 0.391098 0.476277
O O10 0.121822 0.484317 0.575910
O O11 0.301005 0.405451 0.592513
O O12 0.285370 0.482950 0.250000
O O13 0.117906 0.525668 0.143510
O O14 0.915351 0.806813 0.362819
O O15 0.998925 0.926251 0.347568
O O16 0.076683 0.014729 0.250000
O O17 0.070282 0.221065 0.250000
O O18 0.235405 0.205926 0.373833
O O19 0.335188 0.356669 0.750000
#
# Coordination Sequence:
#
# PCOD9435302 Si02
#       8
#     8   8   8   8   8   8   8   8
#     4  10  19  33  53  81 102 139 185 227 276 330
#     4  10  20  37  54  76 110 145 185 231 274 329
#     4  11  19  33  54  80 113 145 179 231 278 335
#     4   9  19  32  52  78 106 143 183 222 272 333
#     4  10  19  33  53  78 113 140 180 231 282 335
#     4  10  19  31  52  84 113 144 180 225 287 334
#     4  10  20  35  55  80 109 141 185 232 280 332
#     4  10  22  36  54  82 111 147 188 230 282 332
#
# _framework density 18.067117
#
# number of rings (size 3 to 8) (size 9 to 14) (size 15 to 20)
#    0.000    2.000    1.250    4.125    0.000    1.000 
#    2.250    0.000    0.000    0.000    0.000    0.875 
#    0.000    0.000    0.000    0.000    0.000    0.000 
#
# Total GULP energy -356458.519352 kJ/mol
# GULP energy per Si atom -5569.664365 kJ/mol
# Density = 1.802600 g / cm^3
# Si number density = 18.067117 Si / 1000 Ang^3
#
#
#
# Elastic Constant Matrix: (Units=GPa)
#
#
# Indices 1 2 3 4 5 6 
#
# 1 55.8363 31.7450 21.7950 0.0000 0.0000 0.0000
# 2 31.7450 51.0285 26.8192 0.0000 0.0000 0.0000
# 3 21.7950 26.8192 65.0759 0.0000 0.0000 0.0000
# 4 0.0000 0.0000 0.0000 27.8864 0.0000 0.0000
# 5 0.0000 0.0000 0.0000 0.0000 15.5153 0.0000
# 6 0.0000 0.0000 0.0000 0.0000 0.0000 13.6236
#
#
#
# Elastic Compliance Matrix: (Units=1/GPa)
#
#
# Indices 1 2 3 4 5 6 
#
# 1 0.028109 -0.016006 -0.002818 0.000000 0.000000 0.000000
# 2 -0.016006 0.034129 -0.008705 0.000000 0.000000 0.000000
# 3 -0.002818 -0.008705 0.019898 0.000000 0.000000 0.000000
# 4 0.000000 0.000000 0.000000 0.035860 0.000000 0.000000
# 5 0.000000 0.000000 0.000000 0.000000 0.064453 0.000000
# 6 0.000000 0.000000 0.000000 0.000000 0.000000 0.073402
#
#
# Mechanical properties :
#
#
# Convention : Reuss Voigt Hill
#
# Bulk Modulus (GPa) = 36.92859 36.96213 36.94536
# Shear Modulus (GPa) = 15.62818 17.51048 16.56933
#
# Velocity S-wave (km/s) = 2.94429 3.11656 3.03165
# Velocity P-wave (km/s) = 5.66061 5.78388 5.72258
#
# Compressibility (1/GPa) = 0.02707929
#
# Stress axis : x y z
#
# Youngs Moduli (GPa) = 35.57529 29.30036 50.25670
#
# Poissons Ratio (x) = 0.46898 0.14162
# Poissons Ratio (y) = 0.56942 0.43747
# Poissons Ratio (z) = 0.10025 0.25505
#
# Static dielectric constant tensor:
#      x y z
#    x 1.613790 0.000000 0.000000 
#    y 0.000000 1.650420 0.000000 
#    z 0.000000 0.000000 1.645360 
# 
# From -- ./inp_files/16964.got.cif
#   From: 2010.05.17/outbox.cif.g08.bks.cpg/sg57_9_cif.got.tgz:16964.got - 2010.06.03 13:58:18.
