data_PCOD9435621
_publ_section_title
;
Structure prediction by ZEFSAII (Michael W. Deem and Ramdas Pophale) SiO2 
 PCOD9435621
Probable space group: P B C M
;
_chemical_formula_sum "Si O2"
_cell_formula_units_Z 64
_cell_length_a 19.516471
_cell_length_b 23.608175
_cell_length_c 8.903582
_cell_angle_alpha 90.000000
_cell_angle_beta 90.000000
_cell_angle_gamma 90.000000
_cell_volume 4102.309939
_symmetry_space_group_name_H-M "P B C M"
_symmetry_group_IT_number 57
_symmetry_cell_setting 'orthorhombic'
loop_
_space_group_symop_operation_xyz
x,y,z
-x,-y,1/2+z
x,1/2-y,-z
-x,1/2+y,1/2-z
-x,-y,-z
x,y,1/2-z
-x,1/2+y,z
x,1/2-y,1/2+z
loop_
_atom_site_type_symbol
_atom_site_label
_atom_site_fract_x
_atom_site_fract_y
_atom_site_fract_z
Si Si1 0.606173 0.188094 0.929677
Si Si2 0.393700 0.481259 0.571146
Si Si3 0.253187 0.999869 0.929779
Si Si4 0.251669 0.875019 0.069953
Si Si5 0.472374 0.912454 0.929074
Si Si6 0.977622 0.089934 0.429048
Si Si7 0.890029 0.187981 0.570215
Si Si8 0.100605 0.473082 0.429933
O O1 0.600730 0.190971 0.750000
O O2 0.679907 0.159995 0.967035
O O3 0.601674 0.250000 0.000000
O O4 0.549190 0.146084 0.996043
O O5 0.389225 0.489742 0.750000
O O6 0.319142 0.471093 0.503305
O O7 0.449893 0.432683 0.541212
O O8 0.424154 0.538357 0.497351
O O9 0.259321 0.000029 0.750000
O O10 0.180430 0.027824 0.970610
O O11 0.251758 0.935088 0.987256
O O12 0.251422 0.885143 0.250000
O O13 0.183954 0.839350 0.031081
O O14 0.462299 0.910122 0.750000
O O15 0.977519 0.097076 0.250000
O O16 0.946946 0.145042 0.507531
O O17 0.052283 0.071663 0.487371
O O18 0.928938 0.035833 0.465928
O O19 0.896103 0.250000 0.500000
O O20 0.894435 0.191391 0.750000
O O21 0.093882 0.465814 0.250000
#
# Coordination Sequence:
#
# PCOD9435621 Si02
#       8
#     8   8   8   8   8   8   8   8
#     4  11  22  35  51  72 100 136 175 213 250 296
#     4  10  20  33  50  73 102 131 166 208 254 305
#     4  11  20  31  51  76 103 135 168 205 250 302
#     4  10  21  34  48  70 101 137 174 209 246 290
#     4  10  20  34  51  72  98 132 170 211 253 295
#     4  10  19  33  51  72  98 131 169 209 252 297
#     4  11  22  35  51  71 100 137 175 213 250 295
#     4   9  19  33  49  73 101 130 165 206 252 301
#
# _framework density 15.600966
#
# number of rings (size 3 to 8) (size 9 to 14) (size 15 to 20)
#    0.000    1.750    2.500    2.625    0.000    4.000 
#    0.000    0.000    0.000    0.000    0.000    0.875 
#    0.000    2.000    0.000    0.000    0.000    0.000 
#
# Total GULP energy -357360.342943 kJ/mol
# GULP energy per Si atom -5583.755358 kJ/mol
# Density = 1.556546 g / cm^3
# Si number density = 15.600966 Si / 1000 Ang^3
#
#
#
# Elastic Constant Matrix: (Units=GPa)
#
#
# Indices 1 2 3 4 5 6 
#
# 1 138.6999 62.2509 59.0007 0.0000 0.0000 0.0000
# 2 62.2509 88.4497 47.6717 0.0000 0.0000 0.0000
# 3 59.0007 47.6717 58.4195 0.0000 0.0000 0.0000
# 4 0.0000 0.0000 0.0000 27.3287 0.0000 0.0000
# 5 0.0000 0.0000 0.0000 0.0000 25.8933 0.0000
# 6 0.0000 0.0000 0.0000 0.0000 0.0000 17.9748
#
#
#
# Elastic Compliance Matrix: (Units=1/GPa)
#
#
# Indices 1 2 3 4 5 6 
#
# 1 0.013316 -0.003791 -0.010355 0.000000 0.000000 0.000000
# 2 -0.003791 0.021261 -0.013521 0.000000 0.000000 0.000000
# 3 -0.010355 -0.013521 0.038610 0.000000 0.000000 0.000000
# 4 0.000000 0.000000 0.000000 0.036592 0.000000 0.000000
# 5 0.000000 0.000000 0.000000 0.000000 0.038620 0.000000
# 6 0.000000 0.000000 0.000000 0.000000 0.000000 0.055633
#
#
# Mechanical properties :
#
#
# Convention : Reuss Voigt Hill
#
# Bulk Modulus (GPa) = 56.01487 69.26841 62.64164
# Shear Modulus (GPa) = 18.84535 22.01577 20.43056
#
# Velocity S-wave (km/s) = 3.47934 3.76064 3.62272
# Velocity P-wave (km/s) = 7.21968 7.95946 7.59858
#
# Compressibility (1/GPa) = 0.01785240
#
# Stress axis : x y z
#
# Youngs Moduli (GPa) = 75.09704 47.03374 25.90030
#
# Poissons Ratio (x) = 0.17829 0.26820
# Poissons Ratio (y) = 0.28467 0.35021
# Poissons Ratio (z) = 0.77765 0.63596
#
# Static dielectric constant tensor:
#      x y z
#    x 1.526850 0.000000 0.000000 
#    y 0.000000 1.483660 0.000000 
#    z 0.000000 0.000000 1.515810 
# 
# From -- ./inp_files/8714.got.cif
#   From: 2010.05.17/outbox.cif.g08.bks.cpg/sg57_5_cif.got.tgz:8714.got - 2010.06.03 13:58:18.
