data_PCOD9435342
_publ_section_title
;
Structure prediction by ZEFSAII (Michael W. Deem and Ramdas Pophale) SiO2 
 PCOD9435342
Probable space group: P B C M
;
_chemical_formula_sum "Si O2"
_cell_formula_units_Z 64
_cell_length_a 15.413093
_cell_length_b 30.656006
_cell_length_c 8.594337
_cell_angle_alpha 90.000000
_cell_angle_beta 90.000000
_cell_angle_gamma 90.000000
_cell_volume 4060.857505
_symmetry_space_group_name_H-M "P B C M"
_symmetry_group_IT_number 57
_symmetry_cell_setting 'orthorhombic'
loop_
_space_group_symop_operation_xyz
x,y,z
-x,-y,1/2+z
x,1/2-y,-z
-x,1/2+y,1/2-z
-x,-y,-z
x,y,1/2-z
-x,1/2+y,z
x,1/2-y,1/2+z
loop_
_atom_site_type_symbol
_atom_site_label
_atom_site_fract_x
_atom_site_fract_y
_atom_site_fract_z
Si Si1 0.039245 0.608343 0.060391
Si Si2 0.135168 0.056930 0.436871
Si Si3 0.547331 0.562992 0.562790
Si Si4 0.709496 0.884000 0.436555
Si Si5 0.992108 0.703242 0.437253
Si Si6 0.375627 0.969036 0.562883
Si Si7 0.788606 0.703375 0.063829
Si Si8 0.177303 0.962738 0.938651
O O1 0.038981 0.609192 0.250000
O O2 0.038516 0.658774 0.008783
O O3 0.119874 0.578526 0.011178
O O4 0.950283 0.583918 0.013601
O O5 0.136577 0.056113 0.250000
O O6 0.219890 0.082122 0.497464
O O7 0.136735 0.007823 0.500379
O O8 0.541624 0.562450 0.750000
O O9 0.613311 0.600900 0.515151
O O10 0.450710 0.563031 0.495970
O O11 0.593443 0.517486 0.513399
O O12 0.713915 0.885910 0.250000
O O13 0.735240 0.836523 0.495307
O O14 0.023051 0.750000 0.500000
O O15 0.996161 0.704840 0.250000
O O16 0.890303 0.698383 0.481112
O O17 0.375201 0.968444 0.750000
O O18 0.277675 0.960197 0.509772
O O19 0.784389 0.702520 0.250000
O O20 0.759143 0.750000 0.000000
O O21 0.176362 0.964416 0.750000
#
# Coordination Sequence:
#
# PCOD9435342 Si02
#       8
#     8   8   8   8   8   8   8   8
#     4   9  18  32  48  66  94 128 160 194 234 278
#     4  11  20  31  45  67  97 130 164 196 229 275
#     4   9  18  31  46  66  91 120 154 194 237 279
#     4  11  20  32  49  70  96 128 163 196 238 285
#     4   9  17  31  47  67  92 121 155 192 232 274
#     4   9  17  30  46  67  90 118 157 196 235 278
#     4  10  19  32  49  71  98 126 159 195 236 284
#     4  10  19  33  49  66  93 128 162 199 238 281
#
# _framework density 15.760218
#
# number of rings (size 3 to 8) (size 9 to 14) (size 15 to 20)
#    0.000    2.250    2.500    1.500    0.000    2.000 
#    0.000    1.250    0.000    0.000    0.000    0.875 
#    0.000    4.000    0.000    0.000    0.000    0.000 
#
# Total GULP energy -356880.087088 kJ/mol
# GULP energy per Si atom -5576.251361 kJ/mol
# Density = 1.572435 g / cm^3
# Si number density = 15.760218 Si / 1000 Ang^3
#
#
#
# Elastic Constant Matrix: (Units=GPa)
#
#
# Indices 1 2 3 4 5 6 
#
# 1 79.7218 61.5536 15.5814 0.0000 0.0000 0.0000
# 2 61.5536 143.6905 20.8716 0.0000 0.0000 0.0000
# 3 15.5814 20.8716 14.2825 0.0000 0.0000 0.0000
# 4 0.0000 0.0000 0.0000 25.0749 0.0000 0.0000
# 5 0.0000 0.0000 0.0000 0.0000 16.5953 0.0000
# 6 0.0000 0.0000 0.0000 0.0000 0.0000 22.8953
#
#
#
# Elastic Compliance Matrix: (Units=1/GPa)
#
#
# Indices 1 2 3 4 5 6 
#
# 1 0.020229 -0.006931 -0.011940 0.000000 0.000000 0.000000
# 2 -0.006931 0.011210 -0.008820 0.000000 0.000000 0.000000
# 3 -0.011940 -0.008820 0.095930 0.000000 0.000000 0.000000
# 4 0.000000 0.000000 0.000000 0.039880 0.000000 0.000000
# 5 0.000000 0.000000 0.000000 0.000000 0.060258 0.000000
# 6 0.000000 0.000000 0.000000 0.000000 0.000000 0.043677
#
#
# Mechanical properties :
#
#
# Convention : Reuss Voigt Hill
#
# Bulk Modulus (GPa) = 13.89133 48.18978 31.04056
# Shear Modulus (GPa) = 14.26289 22.22567 18.24428
#
# Velocity S-wave (km/s) = 3.01157 3.75939 3.40607
# Velocity P-wave (km/s) = 4.57450 7.03472 5.93352
#
# Compressibility (1/GPa) = 0.07198732
#
# Stress axis : x y z
#
# Youngs Moduli (GPa) = 49.43430 89.20872 10.42431
#
# Poissons Ratio (x) = 0.61833 0.12446
# Poissons Ratio (y) = 0.34264 0.09194
# Poissons Ratio (z) = 0.59023 0.78678
#
# Static dielectric constant tensor:
#      x y z
#    x 1.521800 0.000000 0.000000 
#    y 0.000000 1.518170 0.000000 
#    z 0.000000 0.000000 1.535810 
# 
# From -- ./inp_files/5976.got.cif
#   From: 2010.05.17/outbox.cif.g08.bks.cpg/sg57_3_cif.got.tgz:5976.got - 2010.06.03 13:58:18.
