data_PCOD9435139
_publ_section_title
;
Structure prediction by ZEFSAII (Michael W. Deem and Ramdas Pophale) SiO2 
 PCOD9435139
Probable space group: P B C M
;
_chemical_formula_sum "Si O2"
_cell_formula_units_Z 48
_cell_length_a 32.715016
_cell_length_b 9.846054
_cell_length_c 8.577662
_cell_angle_alpha 90.000000
_cell_angle_beta 90.000000
_cell_angle_gamma 90.000000
_cell_volume 2762.983423
_symmetry_space_group_name_H-M "P B C M"
_symmetry_group_IT_number 57
_symmetry_cell_setting 'orthorhombic'
loop_
_space_group_symop_operation_xyz
x,y,z
-x,-y,1/2+z
x,1/2-y,-z
-x,1/2+y,1/2-z
-x,-y,-z
x,y,1/2-z
-x,1/2+y,z
x,1/2-y,1/2+z
loop_
_atom_site_type_symbol
_atom_site_label
_atom_site_fract_x
_atom_site_fract_y
_atom_site_fract_z
Si Si1 0.534602 0.098637 0.436584
Si Si2 0.213087 0.095459 0.438220
Si Si3 0.874636 0.904422 0.938176
Si Si4 0.035560 0.095847 0.062555
Si Si5 0.302650 0.403783 0.937264
Si Si6 0.372772 0.598165 0.063205
O O1 0.527925 0.250000 0.500000
O O2 0.533003 0.100760 0.250000
O O3 0.580878 0.057527 0.483557
O O4 0.500000 0.000000 0.500000
O O5 0.212903 0.250000 0.500000
O O6 0.213013 0.097939 0.250000
O O7 0.169218 0.033456 0.488629
O O8 0.257531 0.040262 0.486231
O O9 0.874576 0.902164 0.750000
O O10 0.919154 0.958735 0.986162
O O11 0.874334 0.750000 0.000000
O O12 0.033974 0.099826 0.250000
O O13 0.031387 0.250000 0.000000
O O14 0.000000 0.000000 0.000000
O O15 0.304110 0.400090 0.750000
O O16 0.306320 0.250000 0.000000
O O17 0.338926 0.496307 0.999653
O O18 0.370990 0.600752 0.250000
O O19 0.365782 0.750000 0.000000
#
# Coordination Sequence:
#
# PCOD9435139 Si02
#       6
#     8   8   8   8   8   8
#     4  10  21  37  57  79 103 132 166 205 247 291
#     4   8  14  25  42  66  94 122 154 194 239 283
#     4   8  14  25  42  64  90 120 154 193 237 285
#     4  10  19  31  48  70  96 126 160 199 243 291
#     4  10  19  31  50  76 104 132 163 202 244 286
#     4  10  21  37  55  75 101 134 169 203 243 292
#
# _framework density 17.372525
#
# number of rings (size 3 to 8) (size 9 to 14) (size 15 to 20)
#    0.000    2.667    0.000    2.000    0.000    4.000 
#    0.000    0.000    0.000    1.000    0.000    0.000 
#    0.000    0.000    0.000    0.000    0.000    0.000 
#
# Total GULP energy -267213.020922 kJ/mol
# GULP energy per Si atom -5566.937936 kJ/mol
# Density = 1.733298 g / cm^3
# Si number density = 17.372525 Si / 1000 Ang^3
#
#
#
# Elastic Constant Matrix: (Units=GPa)
#
#
# Indices 1 2 3 4 5 6 
#
# 1 232.8858 87.9801 48.6679 0.0000 0.0000 0.0000
# 2 87.9801 50.3417 21.9690 0.0000 0.0000 0.0000
# 3 48.6679 21.9690 38.1145 0.0000 0.0000 0.0000
# 4 0.0000 0.0000 0.0000 26.7888 0.0000 0.0000
# 5 0.0000 0.0000 0.0000 0.0000 20.1591 0.0000
# 6 0.0000 0.0000 0.0000 0.0000 0.0000 -56.1861
#
#
#
# Elastic Compliance Matrix: (Units=1/GPa)
#
#
# Indices 1 2 3 4 5 6 
#
# 1 0.013258 -0.021087 -0.004775 0.000000 0.000000 0.000000
# 2 -0.021087 0.060078 -0.007704 0.000000 0.000000 0.000000
# 3 -0.004775 -0.007704 0.036774 0.000000 0.000000 0.000000
# 4 0.000000 0.000000 0.000000 0.037329 0.000000 0.000000
# 5 0.000000 0.000000 0.000000 0.000000 0.049605 0.000000
# 6 0.000000 0.000000 0.000000 0.000000 0.000000 -0.017798
#
#
# Mechanical properties :
#
#
# Convention : Reuss Voigt Hill
#
# Bulk Modulus (GPa) = 23.26652 70.95289 47.10970
# Shear Modulus (GPa) = 19.17895 9.00069 14.08982
#
# Velocity S-wave (km/s) = 3.32623 2.27865 2.85097
# Velocity P-wave (km/s) = 5.30787 6.91763 6.16552
#
# Compressibility (1/GPa) = 0.04298022
#
# Stress axis : x y z
#
# Youngs Moduli (GPa) = 75.42682 16.64497 27.19340
#
# Poissons Ratio (x) = 0.35099 0.12984
# Poissons Ratio (y) = 1.59050 0.20949
# Poissons Ratio (z) = 0.36013 0.12823
#
# Static dielectric constant tensor:
#      x y z
#    x 1.665810 0.000000 0.000000 
#    y 0.000000 1.522420 0.000000 
#    z 0.000000 0.000000 1.589480 
# 
# From -- ./inp_files/9947.got.cif
#   From: 2010.05.17/outbox.cif.g08.bks.cpg/sg57_5_cif.got.tgz:9947.got - 2010.06.03 13:58:18.
