data_PCOD9435612
_publ_section_title
;
Structure prediction by ZEFSAII (Michael W. Deem and Ramdas Pophale) SiO2 
 PCOD9435612
Probable space group: P B C M
;
_chemical_formula_sum "Si O2"
_cell_formula_units_Z 64
_cell_length_a 21.896556
_cell_length_b 18.901695
_cell_length_c 7.767093
_cell_angle_alpha 90.000000
_cell_angle_beta 90.000000
_cell_angle_gamma 90.000000
_cell_volume 3214.660164
_symmetry_space_group_name_H-M "P B C M"
_symmetry_group_IT_number 57
_symmetry_cell_setting 'orthorhombic'
loop_
_space_group_symop_operation_xyz
x,y,z
-x,-y,1/2+z
x,1/2-y,-z
-x,1/2+y,1/2-z
-x,-y,-z
x,y,1/2-z
-x,1/2+y,z
x,1/2-y,1/2+z
loop_
_atom_site_type_symbol
_atom_site_label
_atom_site_fract_x
_atom_site_fract_y
_atom_site_fract_z
Si Si1 0.998239 0.583418 0.454493
Si Si2 0.868887 0.416708 0.538577
Si Si3 0.750000 0.332254 0.542993
Si Si4 0.368887 0.916708 0.538577
Si Si5 0.635047 0.920417 0.454158
Si Si6 0.750000 0.832189 0.042145
Si Si7 0.864953 0.920417 0.454158
Si Si8 0.501761 0.583418 0.454493
O O1 0.996872 0.590717 0.250000
O O2 0.933076 0.609929 0.520254
O O3 0.000000 0.500000 0.500000
O O4 0.064126 0.611122 0.516746
O O5 0.869214 0.417111 0.750000
O O6 0.811447 0.370942 0.480214
O O7 0.862447 0.498524 0.480342
O O8 0.750000 0.250000 0.500000
O O9 0.750000 0.339514 0.750000
O O10 0.688553 0.370942 0.480214
O O11 0.369214 0.917111 0.750000
O O12 0.435874 0.888878 0.483254
O O13 0.362447 0.998524 0.480342
O O14 0.644250 0.926388 0.250000
O O15 0.689315 0.871975 0.523437
O O16 0.566924 0.890071 0.479746
O O17 0.750000 0.837419 0.250000
O O18 0.810685 0.871975 0.976563
O O19 0.750000 0.750000 0.000000
O O20 0.855750 0.926388 0.250000
O O21 0.500000 0.500000 0.500000
O O22 0.503128 0.590717 0.250000
#
# Coordination Sequence:
#
# PCOD9435612 Si02
#       8
#     8   8   8   8   8   8   8   8
#     4   9  16  28  48  75 101 125 156 200 246 290
#     4   8  15  29  51  72  92 121 158 194 235 282
#     4  10  19  33  49  67  93 126 160 196 234 280
#     4   8  15  29  51  72  92 121 158 194 235 282
#     4   9  17  32  53  75  95 124 164 204 242 287
#     4  10  21  35  51  71  99 130 164 204 248 298
#     4   9  17  32  53  75  95 124 164 204 242 287
#     4   9  16  28  48  75 101 125 156 200 246 290
#
# _framework density 19.908791000000001
#
# number of rings (size 3 to 8) (size 9 to 14) (size 15 to 20)
#    0.000    3.000    0.000    3.000    0.000    4.000 
#    0.000    7.500    0.000    7.500    0.000    0.000 
#    0.000    0.000    0.000    0.000    0.000    0.000 
#
# Total GULP energy -356575.962966 kJ/mol
# GULP energy per Si atom -5571.499421 kJ/mol
# Density = 1.986348 g / cm^3
# Si number density = 19.908791 Si / 1000 Ang^3
#
#
#
# Elastic Constant Matrix: (Units=GPa)
#
#
# Indices 1 2 3 4 5 6 
#
# 1 245.3195 97.4997 1.1827 0.0000 0.0000 0.0000
# 2 97.4997 84.6120 2.8305 0.0000 0.0000 0.0000
# 3 1.1827 2.8305 22.5444 0.0000 0.0000 0.0000
# 4 0.0000 0.0000 0.0000 19.2362 0.0000 0.0000
# 5 0.0000 0.0000 0.0000 0.0000 22.2378 0.0000
# 6 0.0000 0.0000 0.0000 0.0000 0.0000 -3.4628
#
#
#
# Elastic Compliance Matrix: (Units=1/GPa)
#
#
# Indices 1 2 3 4 5 6 
#
# 1 0.007531 -0.008702 0.000697 0.000000 0.000000 0.000000
# 2 -0.008702 0.021923 -0.002296 0.000000 0.000000 0.000000
# 3 0.000697 -0.002296 0.044609 0.000000 0.000000 0.000000
# 4 0.000000 0.000000 0.000000 0.051985 0.000000 0.000000
# 5 0.000000 0.000000 0.000000 0.000000 0.044968 0.000000
# 6 0.000000 0.000000 0.000000 0.000000 0.000000 -0.288781
#
#
# Mechanical properties :
#
#
# Convention : Reuss Voigt Hill
#
# Bulk Modulus (GPa) = 18.70491 61.72241 40.21366
# Shear Modulus (GPa) = -63.01718 24.33312 -19.34203
#
# Velocity S-wave (km/s) = -5.63220 3.49983 -3.12032
# Velocity P-wave (km/s) = 5.73410 6.88489 2.69461
#
# Compressibility (1/GPa) = 0.05346191
#
# Stress axis : x y z
#
# Youngs Moduli (GPa) = 132.77655 45.61451 22.41724
#
# Poissons Ratio (x) = 0.39693 -0.01563
# Poissons Ratio (y) = 1.15541 0.05147
# Poissons Ratio (z) = -0.09261 0.10473
#
# Static dielectric constant tensor:
#      x y z
#    x 1.755100 0.000000 0.000000 
#    y 0.000000 1.649650 0.000000 
#    z 0.000000 0.000000 1.738160 
# 
# From -- ./inp_files/8616.got.cif
#   From: 2010.05.17/outbox.cif.g08.bks.cpg/sg57_5_cif.got.tgz:8616.got - 2010.06.03 13:58:18.
