data_PCOD9435759
_publ_section_title
;
Structure prediction by ZEFSAII (Michael W. Deem and Ramdas Pophale) SiO2 
 PCOD9435759
Probable space group: P B C M
;
_chemical_formula_sum "Si O2"
_cell_formula_units_Z 40
_cell_length_a 18.883521
_cell_length_b 13.681390
_cell_length_c 8.936061
_cell_angle_alpha 90.000000
_cell_angle_beta 90.000000
_cell_angle_gamma 90.000000
_cell_volume 2308.656518
_symmetry_space_group_name_H-M "P B C M"
_symmetry_group_IT_number 57
_symmetry_cell_setting 'orthorhombic'
loop_
_space_group_symop_operation_xyz
x,y,z
-x,-y,1/2+z
x,1/2-y,-z
-x,1/2+y,1/2-z
-x,-y,-z
x,y,1/2-z
-x,1/2+y,z
x,1/2-y,1/2+z
loop_
_atom_site_type_symbol
_atom_site_label
_atom_site_fract_x
_atom_site_fract_y
_atom_site_fract_z
Si Si1 0.893113 0.053416 0.928242
Si Si2 0.537748 0.851379 0.071694
Si Si3 0.030143 0.350757 0.572067
Si Si4 0.245094 0.642394 0.429595
Si Si5 0.600569 0.440808 0.570752
O O1 0.889706 0.069482 0.750000
O O2 0.917350 0.941695 0.955341
O O3 0.819401 0.080172 0.004194
O O4 0.955314 0.119880 0.997871
O O5 0.535554 0.841779 0.250000
O O6 0.585747 0.945637 0.033136
O O7 0.561888 0.750000 0.000000
O O8 0.459569 0.877826 0.010944
O O9 0.055353 0.250000 0.500000
O O10 0.021040 0.340174 0.750000
O O11 0.241732 0.750000 0.500000
O O12 0.239036 0.648323 0.250000
O O13 0.320936 0.594483 0.466946
O O14 0.590637 0.430037 0.750000
#
# Coordination Sequence:
#
# PCOD9435759 Si02
#       5
#     8   8   8   8   8
#     4  10  21  36  54  78 106 136 173 212 253 304
#     4  10  19  33  54  78 104 135 172 213 257 304
#     4  10  20  35  56  79 104 136 172 212 256 302
#     4  11  22  36  54  76 105 137 170 211 258 306
#     4   9  20  36  53  76 104 136 174 213 254 303
#
# _framework density 17.326094999999999
#
# number of rings (size 3 to 8) (size 9 to 14) (size 15 to 20)
#    0.000    2.000    0.000    3.600    0.000    6.400 
#    0.000    1.000    0.000    4.800    0.000    0.000 
#    0.000    0.000    0.000    0.000    0.000    0.000 
#
# Total GULP energy -223396.982091 kJ/mol
# GULP energy per Si atom -5584.924552 kJ/mol
# Density = 1.728666 g / cm^3
# Si number density = 17.326095 Si / 1000 Ang^3
#
#
#
# Elastic Constant Matrix: (Units=GPa)
#
#
# Indices 1 2 3 4 5 6 
#
# 1 107.4612 42.1717 50.7726 0.0000 0.0000 0.0000
# 2 42.1717 106.1635 54.5138 0.0000 0.0000 0.0000
# 3 50.7726 54.5138 65.7933 0.0000 0.0000 0.0000
# 4 0.0000 0.0000 0.0000 34.3164 0.0000 0.0000
# 5 0.0000 0.0000 0.0000 0.0000 25.3084 0.0000
# 6 0.0000 0.0000 0.0000 0.0000 0.0000 10.1413
#
#
#
# Elastic Compliance Matrix: (Units=1/GPa)
#
#
# Indices 1 2 3 4 5 6 
#
# 1 0.014646 -0.000025 -0.011281 0.000000 0.000000 0.000000
# 2 -0.000025 0.016395 -0.013565 0.000000 0.000000 0.000000
# 3 -0.011281 -0.013565 0.035144 0.000000 0.000000 0.000000
# 4 0.000000 0.000000 0.000000 0.029141 0.000000 0.000000
# 5 0.000000 0.000000 0.000000 0.000000 0.039512 0.000000
# 6 0.000000 0.000000 0.000000 0.000000 0.000000 0.098607
#
#
# Mechanical properties :
#
#
# Convention : Reuss Voigt Hill
#
# Bulk Modulus (GPa) = 60.81846 63.81491 62.31668
# Shear Modulus (GPa) = 17.32097 22.75056 20.03577
#
# Velocity S-wave (km/s) = 3.16524 3.62758 3.40427
# Velocity P-wave (km/s) = 6.96683 7.37952 7.17615
#
# Compressibility (1/GPa) = 0.01644238
#
# Stress axis : x y z
#
# Youngs Moduli (GPa) = 68.27985 60.99532 28.45416
#
# Poissons Ratio (x) = 0.00152 0.32100
# Poissons Ratio (y) = 0.00170 0.38598
# Poissons Ratio (z) = 0.77029 0.82739
#
# Static dielectric constant tensor:
#      x y z
#    x 1.553370 0.000000 0.000000 
#    y 0.000000 1.588300 0.000000 
#    z 0.000000 0.000000 1.576690 
# 
# From -- ./inp_files/6236.got.cif
#   From: 2010.05.17/outbox.cif.g08.bks.cpg/sg57_4_cif.got.tgz:6236.got - 2010.06.03 13:58:18.
