data_PCOD9435808
_publ_section_title
;
Structure prediction by ZEFSAII (Michael W. Deem and Ramdas Pophale) SiO2 
 PCOD9435808
Probable space group: P B C M
;
_chemical_formula_sum "Si O2"
_cell_formula_units_Z 56
_cell_length_a 21.604092
_cell_length_b 15.892440
_cell_length_c 8.550553
_cell_angle_alpha 90.000000
_cell_angle_beta 90.000000
_cell_angle_gamma 90.000000
_cell_volume 2935.761710
_symmetry_space_group_name_H-M "P B C M"
_symmetry_group_IT_number 57
_symmetry_cell_setting 'orthorhombic'
loop_
_space_group_symop_operation_xyz
x,y,z
-x,-y,1/2+z
x,1/2-y,-z
-x,1/2+y,1/2-z
-x,-y,-z
x,y,1/2-z
-x,1/2+y,z
x,1/2-y,1/2+z
loop_
_atom_site_type_symbol
_atom_site_label
_atom_site_fract_x
_atom_site_fract_y
_atom_site_fract_z
Si Si1 0.857502 0.841565 0.061297
Si Si2 0.529626 0.413791 0.438223
Si Si3 0.124154 0.839510 0.062922
Si Si4 0.346594 0.511292 0.937868
Si Si5 0.209873 0.988518 0.937316
Si Si6 0.007754 0.405270 0.438914
Si Si7 0.405266 0.161732 0.937793
O O1 0.857158 0.839090 0.250000
O O2 0.813874 0.918994 0.011169
O O3 0.927523 0.864656 0.008712
O O4 0.839394 0.750000 0.000000
O O5 0.500000 0.500000 0.500000
O O6 0.529920 0.414131 0.250000
O O7 0.601151 0.420098 0.488425
O O8 0.478006 0.346414 0.486993
O O9 0.125743 0.839012 0.250000
O O10 0.053055 0.854327 0.010872
O O11 0.146591 0.750000 0.000000
O O12 0.164544 0.917110 0.002280
O O13 0.343628 0.511089 0.750000
O O14 0.279370 0.527218 0.006648
O O15 0.370393 0.419737 0.994737
O O16 0.207222 0.986636 0.750000
O O17 0.008937 0.408022 0.250000
O O18 0.000000 0.500000 0.500000
O O19 0.401349 0.159075 0.750000
O O20 0.380289 0.250000 0.000000
#
# Coordination Sequence:
#
# PCOD9435808 Si02
#       7
#     8   8   8   8   8   8   8
#     4  10  22  38  57  83 115 150 190 236 289 345
#     4   8  16  31  52  76 103 135 173 219 266 319
#     4  11  23  39  62  88 114 149 193 242 298 353
#     4  10  20  36  57  80 109 147 189 231 281 337
#     4  11  23  40  59  82 117 157 199 244 289 345
#     4  10  20  36  59  87 115 147 186 236 294 351
#     4  10  19  33  54  83 114 144 181 225 278 334
#
# _framework density 19.075116999999999
#
# number of rings (size 3 to 8) (size 9 to 14) (size 15 to 20)
#    0.000    2.000    1.429    2.143    0.000    4.000 
#    0.000    2.143    0.000    1.714    0.000    0.000 
#    0.000    0.000    0.000    0.000    0.000    0.000 
#
# Total GULP energy -312442.255581 kJ/mol
# GULP energy per Si atom -5579.325993 kJ/mol
# Density = 1.903170 g / cm^3
# Si number density = 19.075117 Si / 1000 Ang^3
#
#
#
# Elastic Constant Matrix: (Units=GPa)
#
#
# Indices 1 2 3 4 5 6 
#
# 1 90.9532 -1.9937 15.8630 0.0000 0.0000 0.0000
# 2 -1.9937 67.2571 10.6866 0.0000 0.0000 0.0000
# 3 15.8630 10.6866 27.7662 0.0000 0.0000 0.0000
# 4 0.0000 0.0000 0.0000 28.2768 0.0000 0.0000
# 5 0.0000 0.0000 0.0000 0.0000 24.8280 0.0000
# 6 0.0000 0.0000 0.0000 0.0000 0.0000 10.6649
#
#
#
# Elastic Compliance Matrix: (Units=1/GPa)
#
#
# Indices 1 2 3 4 5 6 
#
# 1 0.012368 0.001586 -0.007677 0.000000 0.000000 0.000000
# 2 0.001586 0.016040 -0.007080 0.000000 0.000000 0.000000
# 3 -0.007677 -0.007080 0.043126 0.000000 0.000000 0.000000
# 4 0.000000 0.000000 0.000000 0.035365 0.000000 0.000000
# 5 0.000000 0.000000 0.000000 0.000000 0.040277 0.000000
# 6 0.000000 0.000000 0.000000 0.000000 0.000000 0.093766
#
#
# Mechanical properties :
#
#
# Convention : Reuss Voigt Hill
#
# Bulk Modulus (GPa) = 22.12688 26.12092 24.12390
# Shear Modulus (GPa) = 17.70872 23.51531 20.61201
#
# Velocity S-wave (km/s) = 3.05022 3.51490 3.29077
# Velocity P-wave (km/s) = 4.90206 5.49510 5.20703
#
# Compressibility (1/GPa) = 0.04519390
#
# Stress axis : x y z
#
# Youngs Moduli (GPa) = 80.85174 62.34307 23.18810
#
# Poissons Ratio (x) = -0.09890 0.17801
# Poissons Ratio (y) = -0.12826 0.16417
# Poissons Ratio (z) = 0.62067 0.44138
#
# Static dielectric constant tensor:
#      x y z
#    x 1.686300 0.000000 0.000000 
#    y 0.000000 1.651600 0.000000 
#    z 0.000000 0.000000 1.643150 
# 
# From -- ./inp_files/8145.got.cif
#   From: 2010.05.17/outbox.cif.g08.bks.cpg/sg57_5_cif.got.tgz:8145.got - 2010.06.03 13:58:18.
