data_PCOD9435310
_publ_section_title
;
Structure prediction by ZEFSAII (Michael W. Deem and Ramdas Pophale) SiO2 
 PCOD9435310
Probable space group: P B C M
;
_chemical_formula_sum "Si O2"
_cell_formula_units_Z 64
_cell_length_a 6.979056
_cell_length_b 25.681608
_cell_length_c 15.944467
_cell_angle_alpha 90.000000
_cell_angle_beta 90.000000
_cell_angle_gamma 90.000000
_cell_volume 2857.780719
_symmetry_space_group_name_H-M "P B C M"
_symmetry_group_IT_number 57
_symmetry_cell_setting 'orthorhombic'
loop_
_space_group_symop_operation_xyz
x,y,z
-x,-y,1/2+z
x,1/2-y,-z
-x,1/2+y,1/2-z
-x,-y,-z
x,y,1/2-z
-x,1/2+y,z
x,1/2-y,1/2+z
loop_
_atom_site_type_symbol
_atom_site_label
_atom_site_fract_x
_atom_site_fract_y
_atom_site_fract_z
Si Si1 0.016120 0.571252 0.160418
Si Si2 0.281177 0.311254 0.656476
Si Si3 0.297774 0.354820 0.025103
Si Si4 0.734212 0.173560 0.531931
Si Si5 0.252635 0.818951 0.842889
Si Si6 0.952533 0.702367 0.654336
Si Si7 0.748277 0.444440 0.985518
Si Si8 0.342062 0.451579 0.928306
O O1 0.059513 0.546650 0.250000
O O2 0.786693 0.570531 0.146576
O O3 0.134733 0.625878 0.159351
O O4 0.079674 0.541953 0.076184
O O5 0.223501 0.331136 0.750000
O O6 0.227343 0.334845 0.565930
O O7 0.513959 0.316530 0.657344
O O8 0.175920 0.254999 0.651757
O O9 0.504476 0.328359 0.040103
O O10 0.303917 0.416595 0.011359
O O11 0.164467 0.338616 0.099674
O O12 0.786433 0.196378 0.440177
O O13 0.842842 0.201379 0.607516
O O14 0.783418 0.111729 0.526348
O O15 0.201923 0.794670 0.750000
O O16 0.974405 0.686957 0.750000
O O17 0.567841 0.441242 0.920900
O O18 0.696225 0.488505 0.051821
#
# Coordination Sequence:
#
# PCOD9435310 Si02
#       8
#     8   8   8   8   8   8   8   8
#     4  10  19  31  53  86 122 156 192 244 306 369
#     4   9  19  37  61  87 115 149 190 245 314 378
#     4  10  20  38  62  85 115 153 196 251 308 362
#     4   9  19  37  61  85 117 162 202 244 301 362
#     4   8  15  32  59  90 120 149 187 242 310 371
#     4  11  23  39  59  84 117 158 206 253 296 357
#     4   9  19  37  57  82 121 163 205 252 300 360
#     4  10  20  35  59  86 115 159 207 250 304 367
#
# _framework density 22.395
#
# number of rings (size 3 to 8) (size 9 to 14) (size 15 to 20)
#    0.000    2.500    0.000    3.000    0.000    1.500 
#    0.000   10.625    0.000   14.250    0.000    0.000 
#    0.000    0.000    0.000    0.000    0.000    0.000 
#
# Total GULP energy -356547.239401 kJ/mol
# GULP energy per Si atom -5571.050616 kJ/mol
# Density = 2.234403 g / cm^3
# Si number density = 22.395000 Si / 1000 Ang^3
#
#
#
# Elastic Constant Matrix: (Units=GPa)
#
#
# Indices 1 2 3 4 5 6 
#
# 1 114.6197 31.8431 37.0578 0.0000 0.0000 0.0000
# 2 31.8431 76.1829 37.4053 0.0000 0.0000 0.0000
# 3 37.0578 37.4053 158.5845 0.0000 0.0000 0.0000
# 4 0.0000 0.0000 0.0000 10.6832 0.0000 0.0000
# 5 0.0000 0.0000 0.0000 0.0000 20.4490 0.0000
# 6 0.0000 0.0000 0.0000 0.0000 0.0000 29.2376
#
#
#
# Elastic Compliance Matrix: (Units=1/GPa)
#
#
# Indices 1 2 3 4 5 6 
#
# 1 0.010200 -0.003498 -0.001558 0.000000 0.000000 0.000000
# 2 -0.003498 0.016045 -0.002967 0.000000 0.000000 0.000000
# 3 -0.001558 -0.002967 0.007370 0.000000 0.000000 0.000000
# 4 0.000000 0.000000 0.000000 0.093605 0.000000 0.000000
# 5 0.000000 0.000000 0.000000 0.000000 0.048902 0.000000
# 6 0.000000 0.000000 0.000000 0.000000 0.000000 0.034203
#
#
# Mechanical properties :
#
#
# Convention : Reuss Voigt Hill
#
# Bulk Modulus (GPa) = 56.92281 62.44438 59.68359
# Shear Modulus (GPa) = 21.53052 28.27936 24.90494
#
# Velocity S-wave (km/s) = 3.10401 3.55738 3.33840
# Velocity P-wave (km/s) = 6.19026 6.69455 6.44734
#
# Compressibility (1/GPa) = 0.01756765
#
# Stress axis : x y z
#
# Youngs Moduli (GPa) = 98.03681 62.32316 135.68863
#
# Poissons Ratio (x) = 0.21803 0.21146
# Poissons Ratio (y) = 0.34297 0.40261
# Poissons Ratio (z) = 0.15278 0.18492
#
# Static dielectric constant tensor:
#      x y z
#    x 1.967590 0.000000 0.000000 
#    y 0.000000 1.886040 0.000000 
#    z 0.000000 0.000000 1.789120 
# 
# From -- ./inp_files/21516.got.cif
#   From: 2010.05.17/outbox.cif.g08.bks.cpg/sg57_11_cif.got.tgz:21516.got - 2010.06.03 13:58:18.
