data_PCOD9435746
_publ_section_title
;
Structure prediction by ZEFSAII (Michael W. Deem and Ramdas Pophale) SiO2 
 PCOD9435746
Probable space group: P B C M
;
_chemical_formula_sum "Si O2"
_cell_formula_units_Z 60
_cell_length_a 17.963827
_cell_length_b 5.666808
_cell_length_c 24.827328
_cell_angle_alpha 90.000000
_cell_angle_beta 90.000000
_cell_angle_gamma 90.000000
_cell_volume 2527.361376
_symmetry_space_group_name_H-M "P B C M"
_symmetry_group_IT_number 57
_symmetry_cell_setting 'orthorhombic'
loop_
_space_group_symop_operation_xyz
x,y,z
-x,-y,1/2+z
x,1/2-y,-z
-x,1/2+y,1/2-z
-x,-y,-z
x,y,1/2-z
-x,1/2+y,z
x,1/2-y,1/2+z
loop_
_atom_site_type_symbol
_atom_site_label
_atom_site_fract_x
_atom_site_fract_y
_atom_site_fract_z
Si Si1 0.262045 0.364394 0.948978
Si Si2 0.150240 0.511413 0.397565
Si Si3 0.658029 0.746873 0.854489
Si Si4 0.846745 0.250000 0.500000
Si Si5 0.251879 0.640392 0.310154
Si Si6 0.955755 0.691130 0.689305
Si Si7 0.416983 0.635218 0.807960
Si Si8 0.519456 0.618605 0.913641
O O1 0.312709 0.433780 0.898936
O O2 0.212486 0.150761 0.925616
O O3 0.304064 0.250000 0.000000
O O4 0.207915 0.564705 0.970569
O O5 0.111099 0.633406 0.449209
O O6 0.191453 0.692952 0.356349
O O7 0.100202 0.348977 0.359750
O O8 0.726172 0.630263 0.823336
O O9 0.604463 0.591530 0.892827
O O10 0.605508 0.861535 0.810633
O O11 0.222914 0.680503 0.250000
O O12 0.334933 0.747684 0.312425
O O13 0.922517 0.681587 0.750000
O O14 0.993750 0.950414 0.685514
O O15 0.447929 0.707695 0.750000
O O16 0.469653 0.658951 0.859274
O O17 0.491144 0.376800 0.940504
#
# Coordination Sequence:
#
# PCOD9435746 Si02
#       8
#     8   8   8   4   8   8   8   8
#     4   9  20  37  60  87 115 154 206 267 325 374
#     4  10  21  37  64  91 124 163 214 265 317 375
#     4  10  19  34  52  77 109 151 199 249 312 380
#     4  10  20  38  62  92 124 164 214 272 330 372
#     4  10  19  33  53  83 116 150 201 259 317 379
#     4  10  23  44  69 100 139 182 217 251 306 378
#     4  10  20  31  47  75 110 151 192 240 308 378
#     4  10  20  34  51  74 107 151 193 239 298 373
#
# _framework density 23.740172000000001
#
# number of rings (size 3 to 8) (size 9 to 14) (size 15 to 20)
#    0.000    2.133    1.333    1.600    1.867    2.667 
#    0.000    0.667    0.000    3.200    1.733    0.000 
#    0.000    0.000    0.000    0.000    0.000    0.000 
#
# Total GULP energy -334073.903644 kJ/mol
# GULP energy per Si atom -5567.898394 kJ/mol
# Density = 2.368614 g / cm^3
# Si number density = 23.740172 Si / 1000 Ang^3
#
#
#
# Elastic Constant Matrix: (Units=GPa)
#
#
# Indices 1 2 3 4 5 6 
#
# 1 17.7269 -9.4577 19.6569 0.0000 0.0000 0.0000
# 2 -9.4577 64.4488 21.2872 0.0000 0.0000 0.0000
# 3 19.6569 21.2872 145.2426 0.0000 0.0000 0.0000
# 4 0.0000 0.0000 0.0000 10.1587 0.0000 0.0000
# 5 0.0000 0.0000 0.0000 0.0000 12.8003 0.0000
# 6 0.0000 0.0000 0.0000 0.0000 0.0000 19.1115
#
#
#
# Elastic Compliance Matrix: (Units=1/GPa)
#
#
# Indices 1 2 3 4 5 6 
#
# 1 0.079465 0.015987 -0.013098 0.000000 0.000000 0.000000
# 2 0.015987 0.019522 -0.005025 0.000000 0.000000 0.000000
# 3 -0.013098 -0.005025 0.009394 0.000000 0.000000 0.000000
# 4 0.000000 0.000000 0.000000 0.098438 0.000000 0.000000
# 5 0.000000 0.000000 0.000000 0.000000 0.078123 0.000000
# 6 0.000000 0.000000 0.000000 0.000000 0.000000 0.052325
#
#
# Mechanical properties :
#
#
# Convention : Reuss Voigt Hill
#
# Bulk Modulus (GPa) = 9.60519 32.26568 20.93543
# Shear Modulus (GPa) = 13.28938 21.47624 17.38281
#
# Velocity S-wave (km/s) = 2.36854 3.01098 2.70887
# Velocity P-wave (km/s) = 3.39628 5.07037 4.31529
#
# Compressibility (1/GPa) = 0.10411037
#
# Stress axis : x y z
#
# Youngs Moduli (GPa) = 12.58418 51.22427 106.44949
#
# Poissons Ratio (x) = -0.81894 1.39425
# Poissons Ratio (y) = -0.20119 0.53490
# Poissons Ratio (z) = 0.16482 0.25740
#
# Static dielectric constant tensor:
#      x y z
#    x 1.913040 0.000000 0.000000 
#    y 0.000000 2.081620 0.000000 
#    z 0.000000 0.000000 1.946450 
# 
# From -- ./inp_files/27679.got.cif
#   From: 2010.05.17/outbox.cif.g08.bks.cpg/sg57_14_cif.got.tgz:27679.got - 2010.06.03 13:58:18.
