data_PCOD9435873
_publ_section_title
;
Structure prediction by ZEFSAII (Michael W. Deem and Ramdas Pophale) SiO2 
 PCOD9435873
Probable space group: P B C M
;
_chemical_formula_sum "Si O2"
_cell_formula_units_Z 48
_cell_length_a 20.409912
_cell_length_b 14.351119
_cell_length_c 8.628897
_cell_angle_alpha 90.000000
_cell_angle_beta 90.000000
_cell_angle_gamma 90.000000
_cell_volume 2527.447731
_symmetry_space_group_name_H-M "P B C M"
_symmetry_group_IT_number 57
_symmetry_cell_setting 'orthorhombic'
loop_
_space_group_symop_operation_xyz
x,y,z
-x,-y,1/2+z
x,1/2-y,-z
-x,1/2+y,1/2-z
-x,-y,-z
x,y,1/2-z
-x,1/2+y,z
x,1/2-y,1/2+z
loop_
_atom_site_type_symbol
_atom_site_label
_atom_site_fract_x
_atom_site_fract_y
_atom_site_fract_z
Si Si1 0.528108 0.849895 0.564427
Si Si2 0.904262 0.542810 0.436744
Si Si3 0.030229 0.852642 0.435332
Si Si4 0.771783 0.853165 0.563674
Si Si5 0.618983 0.349725 0.064919
Si Si6 0.648040 0.960721 0.065434
O O1 0.551592 0.750000 0.500000
O O2 0.524183 0.848576 0.750000
O O3 0.455722 0.862945 0.495036
O O4 0.579817 0.925250 0.507027
O O5 0.910572 0.547735 0.250000
O O6 0.920316 0.436231 0.483454
O O7 0.832694 0.580150 0.478115
O O8 0.959546 0.609935 0.508199
O O9 0.044150 0.750000 0.500000
O O10 0.030272 0.847410 0.250000
O O11 0.784450 0.750000 0.500000
O O12 0.765644 0.850452 0.750000
O O13 0.705496 0.893329 0.491116
O O14 0.619245 0.349367 0.250000
O O15 0.641034 0.250000 0.000000
O O16 0.659695 0.435586 0.998221
O O17 0.642930 0.960796 0.250000
#
# Coordination Sequence:
#
# PCOD9435873 Si02
#       6
#     8   8   8   8   8   8
#     4  11  21  36  57  84 114 146 183 229 282 335
#     4   9  20  37  57  82 114 151 190 231 276 328
#     4  10  19  33  56  86 117 149 186 230 277 326
#     4  11  23  40  59  82 112 147 186 229 278 333
#     4  11  22  39  60  84 111 143 183 230 281 334
#     4  12  24  39  57  81 111 147 188 230 278 332
#
# _framework density 18.991492000000001
#
# number of rings (size 3 to 8) (size 9 to 14) (size 15 to 20)
#    0.000    1.333    0.000    8.000    0.000    3.333 
#    0.000    0.833    0.000    2.000    0.000    0.000 
#    0.000    0.000    0.000    0.000    0.000    0.000 
#
# Total GULP energy -268350.404101 kJ/mol
# GULP energy per Si atom -5590.633419 kJ/mol
# Density = 1.894827 g / cm^3
# Si number density = 18.991492 Si / 1000 Ang^3
#
#
#
# Elastic Constant Matrix: (Units=GPa)
#
#
# Indices 1 2 3 4 5 6 
#
# 1 21.0058 18.4066 13.4905 0.0000 0.0000 0.0000
# 2 18.4066 131.2356 25.6027 0.0000 0.0000 0.0000
# 3 13.4905 25.6027 103.2575 0.0000 0.0000 0.0000
# 4 0.0000 0.0000 0.0000 35.9641 0.0000 0.0000
# 5 0.0000 0.0000 0.0000 0.0000 21.8073 0.0000
# 6 0.0000 0.0000 0.0000 0.0000 0.0000 25.5249
#
#
#
# Elastic Compliance Matrix: (Units=1/GPa)
#
#
# Indices 1 2 3 4 5 6 
#
# 1 0.057383 -0.006920 -0.005781 0.000000 0.000000 0.000000
# 2 -0.006920 0.008842 -0.001288 0.000000 0.000000 0.000000
# 3 -0.005781 -0.001288 0.010759 0.000000 0.000000 0.000000
# 4 0.000000 0.000000 0.000000 0.027805 0.000000 0.000000
# 5 0.000000 0.000000 0.000000 0.000000 0.045856 0.000000
# 6 0.000000 0.000000 0.000000 0.000000 0.000000 0.039177
#
#
# Mechanical properties :
#
#
# Convention : Reuss Voigt Hill
#
# Bulk Modulus (GPa) = 20.40632 41.16649 30.78641
# Shear Modulus (GPa) = 21.35500 29.85921 25.60711
#
# Velocity S-wave (km/s) = 3.35692 3.96945 3.67597
# Velocity P-wave (km/s) = 5.07873 6.53698 5.85344
#
# Compressibility (1/GPa) = 0.04900442
#
# Stress axis : x y z
#
# Youngs Moduli (GPa) = 17.42684 113.09884 92.94354
#
# Poissons Ratio (x) = 0.78269 0.53731
# Poissons Ratio (y) = 0.12060 0.11973
# Poissons Ratio (z) = 0.10075 0.14569
#
# Static dielectric constant tensor:
#      x y z
#    x 1.633280 0.000000 0.000000 
#    y 0.000000 1.784960 0.000000 
#    z 0.000000 0.000000 1.630290 
# 
# From -- ./inp_files/7871.got.cif
#   From: 2010.05.17/outbox.cif.g08.bks.cpg/sg57_4_cif.got.tgz:7871.got - 2010.06.03 13:58:18.
