data_PCOD9435482
_publ_section_title
;
Structure prediction by ZEFSAII (Michael W. Deem and Ramdas Pophale) SiO2 
 PCOD9435482
Probable space group: P B C M
;
_chemical_formula_sum "Si O2"
_cell_formula_units_Z 40
_cell_length_a 17.558937
_cell_length_b 10.603327
_cell_length_c 9.568262
_cell_angle_alpha 90.000000
_cell_angle_beta 90.000000
_cell_angle_gamma 90.000000
_cell_volume 1781.449167
_symmetry_space_group_name_H-M "P B C M"
_symmetry_group_IT_number 57
_symmetry_cell_setting 'orthorhombic'
loop_
_space_group_symop_operation_xyz
x,y,z
-x,-y,1/2+z
x,1/2-y,-z
-x,1/2+y,1/2-z
-x,-y,-z
x,y,1/2-z
-x,1/2+y,z
x,1/2-y,1/2+z
loop_
_atom_site_type_symbol
_atom_site_label
_atom_site_fract_x
_atom_site_fract_y
_atom_site_fract_z
Si Si1 0.955458 0.361586 0.599525
Si Si2 0.699016 0.372320 0.912508
Si Si3 0.483936 0.872268 0.912309
Si Si4 0.120210 0.016344 0.397921
Si Si5 0.727614 0.870844 0.913137
O O1 0.977290 0.250000 0.500000
O O2 0.936172 0.311955 0.750000
O O3 0.883056 0.430981 0.533873
O O4 0.032289 0.442963 0.611482
O O5 0.726148 0.379632 0.750000
O O6 0.607311 0.359208 0.903354
O O7 0.727300 0.250000 0.000000
O O8 0.710856 0.499664 0.003804
O O9 0.512152 0.877530 0.750000
O O10 0.512406 0.750000 0.000000
O O11 0.500000 0.000000 0.000000
O O12 0.140708 0.952920 0.250000
O O13 0.179788 0.128433 0.410375
O O14 0.702614 0.872068 0.750000
O O15 0.700330 0.750000 0.000000
#
# Coordination Sequence:
#
# PCOD9435482 Si02
#       5
#     8   8   8   8   8
#     4  10  19  32  52  75 101 134 174 224 280 339
#     4  10  22  41  63  88 119 156 197 240 287 339
#     4  10  21  38  62  91 123 158 196 239 286 337
#     4   9  20  36  52  74 103 137 179 226 279 337
#     4  11  23  39  60  85 115 152 194 241 291 345
#
# _framework density 22.453628999999999
#
# number of rings (size 3 to 8) (size 9 to 14) (size 15 to 20)
#    0.000    2.000    0.000    3.000    0.000    6.400 
#    0.000    0.000    0.000    0.000    0.000    0.000 
#    0.000    0.000    0.000    0.000    0.000    0.000 
#
# Total GULP energy -222951.830430 kJ/mol
# GULP energy per Si atom -5573.795761 kJ/mol
# Density = 2.240252 g / cm^3
# Si number density = 22.453629 Si / 1000 Ang^3
#
#
#
# Elastic Constant Matrix: (Units=GPa)
#
#
# Indices 1 2 3 4 5 6 
#
# 1 47.4435 5.3924 20.5805 0.0000 0.0000 0.0000
# 2 5.3924 140.3501 94.5113 0.0000 0.0000 0.0000
# 3 20.5805 94.5113 245.3225 0.0000 0.0000 0.0000
# 4 0.0000 0.0000 0.0000 49.8514 0.0000 0.0000
# 5 0.0000 0.0000 0.0000 0.0000 48.6950 0.0000
# 6 0.0000 0.0000 0.0000 0.0000 0.0000 20.2023
#
#
#
# Elastic Compliance Matrix: (Units=1/GPa)
#
#
# Indices 1 2 3 4 5 6 
#
# 1 0.021903 0.000534 -0.002043 0.000000 0.000000 0.000000
# 2 0.000534 0.009634 -0.003756 0.000000 0.000000 0.000000
# 3 -0.002043 -0.003756 0.005695 0.000000 0.000000 0.000000
# 4 0.000000 0.000000 0.000000 0.020060 0.000000 0.000000
# 5 0.000000 0.000000 0.000000 0.000000 0.020536 0.000000
# 6 0.000000 0.000000 0.000000 0.000000 0.000000 0.049499
#
#
# Mechanical properties :
#
#
# Convention : Reuss Voigt Hill
#
# Bulk Modulus (GPa) = 37.45090 74.89828 56.17459
# Shear Modulus (GPa) = 34.06957 44.59184 39.33070
#
# Velocity S-wave (km/s) = 3.89952 4.46124 4.18980
# Velocity P-wave (km/s) = 6.08197 7.74378 6.96263
#
# Compressibility (1/GPa) = 0.02670163
#
# Stress axis : x y z
#
# Youngs Moduli (GPa) = 45.65503 103.79863 175.59723
#
# Poissons Ratio (x) = -0.05548 0.35882
# Poissons Ratio (y) = -0.02440 0.65961
# Poissons Ratio (z) = 0.09329 0.38991
#
# Static dielectric constant tensor:
#      x y z
#    x 1.872440 0.000000 0.000000 
#    y 0.000000 1.813060 0.000000 
#    z 0.000000 0.000000 1.894360 
# 
# From -- ./inp_files/7788.got.cif
#   From: 2010.05.17/outbox.cif.g08.bks.cpg/sg57_4_cif.got.tgz:7788.got - 2010.06.03 13:58:18.
