data_PCOD9435773
_publ_section_title
;
Structure prediction by ZEFSAII (Michael W. Deem and Ramdas Pophale) SiO2 
 PCOD9435773
Probable space group: P B C M
;
_chemical_formula_sum "Si O2"
_cell_formula_units_Z 64
_cell_length_a 19.914342
_cell_length_b 20.942038
_cell_length_c 8.804438
_cell_angle_alpha 90.000000
_cell_angle_beta 90.000000
_cell_angle_gamma 90.000000
_cell_volume 3671.863635
_symmetry_space_group_name_H-M "P B C M"
_symmetry_group_IT_number 57
_symmetry_cell_setting 'orthorhombic'
loop_
_space_group_symop_operation_xyz
x,y,z
-x,-y,1/2+z
x,1/2-y,-z
-x,1/2+y,1/2-z
-x,-y,-z
x,y,1/2-z
-x,1/2+y,z
x,1/2-y,1/2+z
loop_
_atom_site_type_symbol
_atom_site_label
_atom_site_fract_x
_atom_site_fract_y
_atom_site_fract_z
Si Si1 0.682131 0.863598 0.429835
Si Si2 0.686140 0.483588 0.569791
Si Si3 0.963279 0.817438 0.431119
Si Si4 0.459111 0.940710 0.566777
Si Si5 0.174352 0.362964 0.929811
Si Si6 0.827724 0.483568 0.428117
Si Si7 0.543646 0.816794 0.932033
Si Si8 0.961824 0.061086 0.069520
O O1 0.683606 0.850696 0.250000
O O2 0.752840 0.844776 0.505100
O O3 0.618164 0.830878 0.505538
O O4 0.674653 0.940291 0.451479
O O5 0.697230 0.473660 0.750000
O O6 0.618673 0.447428 0.521279
O O7 0.752862 0.465622 0.479354
O O8 0.985556 0.750000 0.500000
O O9 0.966917 0.816772 0.250000
O O10 0.886689 0.829718 0.484254
O O11 0.006905 0.875421 0.497626
O O12 0.460995 0.945307 0.750000
O O13 0.495405 0.875257 0.521923
O O14 0.500000 0.000000 0.500000
O O15 0.170672 0.349928 0.750000
O O16 0.166357 0.439683 0.951776
O O17 0.838352 0.471253 0.250000
O O18 0.884304 0.448472 0.525108
O O19 0.545727 0.813813 0.750000
O O20 0.519972 0.750000 0.000000
O O21 0.971323 0.061935 0.250000
O O22 0.000000 0.000000 0.000000
#
# Coordination Sequence:
#
# PCOD9435773 Si02
#       8
#     8   8   8   8   8   8   8   8
#     4  10  19  33  54  79 111 148 188 230 279 334
#     4   9  18  33  54  82 113 143 180 230 285 337
#     4  12  25  41  60  84 117 154 194 237 286 341
#     4  10  20  35  57  83 110 143 184 231 280 333
#     4  10  20  35  55  81 116 152 192 233 278 334
#     4  10  20  34  56  86 117 148 187 234 282 335
#     4  11  23  37  54  78 111 149 189 230 279 333
#     4  12  23  38  61  88 117 152 193 238 286 336
#
# _framework density 17.429843000000002
#
# number of rings (size 3 to 8) (size 9 to 14) (size 15 to 20)
#    0.000    1.500    2.500    3.750    0.000    3.000 
#    0.000    2.500    0.000    0.750    0.000    3.500 
#    0.000    0.000    0.000    0.000    0.000    0.000 
#
# Total GULP energy -357695.713468 kJ/mol
# GULP energy per Si atom -5588.995523 kJ/mol
# Density = 1.739017 g / cm^3
# Si number density = 17.429843 Si / 1000 Ang^3
#
#
#
# Elastic Constant Matrix: (Units=GPa)
#
#
# Indices 1 2 3 4 5 6 
#
# 1 101.9731 58.3773 47.2054 0.0000 0.0000 0.0000
# 2 58.3773 111.5848 61.8917 0.0000 0.0000 0.0000
# 3 47.2054 61.8917 104.7119 0.0000 0.0000 0.0000
# 4 0.0000 0.0000 0.0000 25.8035 0.0000 0.0000
# 5 0.0000 0.0000 0.0000 0.0000 29.9888 0.0000
# 6 0.0000 0.0000 0.0000 0.0000 0.0000 16.5338
#
#
#
# Elastic Compliance Matrix: (Units=1/GPa)
#
#
# Indices 1 2 3 4 5 6 
#
# 1 0.014639 -0.005948 -0.003084 0.000000 0.000000 0.000000
# 2 -0.005948 0.015750 -0.006628 0.000000 0.000000 0.000000
# 3 -0.003084 -0.006628 0.014858 0.000000 0.000000 0.000000
# 4 0.000000 0.000000 0.000000 0.038754 0.000000 0.000000
# 5 0.000000 0.000000 0.000000 0.000000 0.033346 0.000000
# 6 0.000000 0.000000 0.000000 0.000000 0.000000 0.060482
#
#
# Mechanical properties :
#
#
# Convention : Reuss Voigt Hill
#
# Bulk Modulus (GPa) = 71.80121 72.57985 72.19053
# Shear Modulus (GPa) = 23.38734 24.51824 23.95279
#
# Velocity S-wave (km/s) = 3.66703 3.75464 3.71110
# Velocity P-wave (km/s) = 7.69502 7.77998 7.73761
#
# Compressibility (1/GPa) = 0.01392734
#
# Stress axis : x y z
#
# Youngs Moduli (GPa) = 68.30918 63.49266 67.30590
#
# Poissons Ratio (x) = 0.37768 0.20755
# Poissons Ratio (y) = 0.40633 0.44608
# Poissons Ratio (z) = 0.21065 0.42080
#
# Static dielectric constant tensor:
#      x y z
#    x 1.583900 0.000000 0.000000 
#    y 0.000000 1.586390 0.000000 
#    z 0.000000 0.000000 1.580090 
# 
# From -- ./inp_files/7154.got.cif
#   From: 2010.05.17/outbox.cif.g08.bks.cpg/sg57_4_cif.got.tgz:7154.got - 2010.06.03 13:58:18.
