data_PCOD9435667
_publ_section_title
;
Structure prediction by ZEFSAII (Michael W. Deem and Ramdas Pophale) SiO2 
 PCOD9435667
Probable space group: P B C M
;
_chemical_formula_sum "Si O2"
_cell_formula_units_Z 48
_cell_length_a 32.153340
_cell_length_b 9.554335
_cell_length_c 8.661852
_cell_angle_alpha 90.000000
_cell_angle_beta 90.000000
_cell_angle_gamma 90.000000
_cell_volume 2660.953691
_symmetry_space_group_name_H-M "P B C M"
_symmetry_group_IT_number 57
_symmetry_cell_setting 'orthorhombic'
loop_
_space_group_symop_operation_xyz
x,y,z
-x,-y,1/2+z
x,1/2-y,-z
-x,1/2+y,1/2-z
-x,-y,-z
x,y,1/2-z
-x,1/2+y,z
x,1/2-y,1/2+z
loop_
_atom_site_type_symbol
_atom_site_label
_atom_site_fract_x
_atom_site_fract_y
_atom_site_fract_z
Si Si1 0.219725 0.908856 0.063688
Si Si2 0.871813 0.092672 0.935535
Si Si3 0.463607 0.905124 0.434276
Si Si4 0.962653 0.092014 0.564336
Si Si5 0.294897 0.406752 0.434461
Si Si6 0.630939 0.407158 0.064435
O O1 0.222900 0.904685 0.250000
O O2 0.173447 0.965087 0.019240
O O3 0.223775 0.750000 0.000000
O O4 0.255408 0.005897 0.995479
O O5 0.871817 0.098010 0.750000
O O6 0.916788 0.032442 0.981984
O O7 0.871979 0.250000 0.000000
O O8 0.468653 0.750000 0.500000
O O9 0.466250 0.901922 0.250000
O O10 0.416472 0.950615 0.475151
O O11 0.500000 0.000000 0.500000
O O12 0.965629 0.250000 0.500000
O O13 0.964739 0.096283 0.750000
O O14 0.000000 0.000000 0.500000
O O15 0.294097 0.250000 0.500000
O O16 0.294519 0.403228 0.250000
O O17 0.335669 0.488339 0.493418
O O18 0.635114 0.403952 0.250000
O O19 0.637437 0.250000 0.000000
#
# Coordination Sequence:
#
# PCOD9435667 Si02
#       6
#     8   8   8   8   8   8
#     4  10  19  35  58  83 108 138 176 219 264 317
#     4   8  16  30  51  76 103 134 173 217 261 310
#     4  10  21  37  59  85 115 148 185 226 271 319
#     4  10  19  33  52  77 106 139 177 219 265 315
#     4  12  25  40  57  80 110 144 179 222 272 323
#     4  10  21  39  61  85 111 145 186 227 267 316
#
# _framework density 18.038644999999999
#
# number of rings (size 3 to 8) (size 9 to 14) (size 15 to 20)
#    0.000    2.000    0.000    4.000    0.000    4.000 
#    0.000    0.833    0.000    0.000    0.000    0.000 
#    0.000    0.000    0.000    0.000    0.000    0.000 
#
# Total GULP energy -267791.989787 kJ/mol
# GULP energy per Si atom -5578.999787 kJ/mol
# Density = 1.799759 g / cm^3
# Si number density = 18.038645 Si / 1000 Ang^3
#
#
#
# Elastic Constant Matrix: (Units=GPa)
#
#
# Indices 1 2 3 4 5 6 
#
# 1 227.3388 107.0083 78.8987 0.0000 0.0000 0.0000
# 2 107.0083 89.9131 46.4496 0.0000 0.0000 0.0000
# 3 78.8987 46.4496 88.0228 0.0000 0.0000 0.0000
# 4 0.0000 0.0000 0.0000 32.9990 0.0000 0.0000
# 5 0.0000 0.0000 0.0000 0.0000 27.4345 0.0000
# 6 0.0000 0.0000 0.0000 0.0000 0.0000 30.8872
#
#
#
# Elastic Compliance Matrix: (Units=1/GPa)
#
#
# Indices 1 2 3 4 5 6 
#
# 1 0.010956 -0.010951 -0.004041 0.000000 0.000000 0.000000
# 2 -0.010951 0.026237 -0.004029 0.000000 0.000000 0.000000
# 3 -0.004041 -0.004029 0.017109 0.000000 0.000000 0.000000
# 4 0.000000 0.000000 0.000000 0.030304 0.000000 0.000000
# 5 0.000000 0.000000 0.000000 0.000000 0.036450 0.000000
# 6 0.000000 0.000000 0.000000 0.000000 0.000000 0.032376
#
#
# Mechanical properties :
#
#
# Convention : Reuss Voigt Hill
#
# Bulk Modulus (GPa) = 61.50545 96.66529 79.08537
# Shear Modulus (GPa) = 25.39418 29.79202 27.59310
#
# Velocity S-wave (km/s) = 3.75609 4.06836 3.91534
# Velocity P-wave (km/s) = 7.27884 8.70476 8.02354
#
# Compressibility (1/GPa) = 0.01625872
#
# Stress axis : x y z
#
# Youngs Moduli (GPa) = 91.27314 38.11438 58.44789
#
# Poissons Ratio (x) = 0.41741 0.23621
# Poissons Ratio (y) = 0.99957 0.23548
# Poissons Ratio (z) = 0.36887 0.15356
#
# Static dielectric constant tensor:
#      x y z
#    x 1.659740 0.000000 0.000000 
#    y 0.000000 1.565580 0.000000 
#    z 0.000000 0.000000 1.607560 
# 
# From -- ./inp_files/9924.got.cif
#   From: 2010.05.17/outbox.cif.g08.bks.cpg/sg57_5_cif.got.tgz:9924.got - 2010.06.03 13:58:18.
