data_PCOD9435452
_publ_section_title
;
Structure prediction by ZEFSAII (Michael W. Deem and Ramdas Pophale) SiO2 
 PCOD9435452
Probable space group: P B C M
;
_chemical_formula_sum "Si O2"
_cell_formula_units_Z 64
_cell_length_a 20.016765
_cell_length_b 20.470283
_cell_length_c 9.176821
_cell_angle_alpha 90.000000
_cell_angle_beta 90.000000
_cell_angle_gamma 90.000000
_cell_volume 3760.191799
_symmetry_space_group_name_H-M "P B C M"
_symmetry_group_IT_number 57
_symmetry_cell_setting 'orthorhombic'
loop_
_space_group_symop_operation_xyz
x,y,z
-x,-y,1/2+z
x,1/2-y,-z
-x,1/2+y,1/2-z
-x,-y,-z
x,y,1/2-z
-x,1/2+y,z
x,1/2-y,1/2+z
loop_
_atom_site_type_symbol
_atom_site_label
_atom_site_fract_x
_atom_site_fract_y
_atom_site_fract_z
Si Si1 0.714709 0.684861 0.583627
Si Si2 0.178994 0.541600 0.575781
Si Si3 0.703168 0.947203 0.922229
Si Si4 0.867712 0.316315 0.423829
Si Si5 0.547473 0.551960 0.075642
Si Si6 0.974056 0.816741 0.076084
Si Si7 0.061896 0.037589 0.574327
Si Si8 0.551969 0.685356 0.582393
O O1 0.737725 0.750000 0.500000
O O2 0.738196 0.685424 0.750000
O O3 0.730442 0.616375 0.506265
O O4 0.633322 0.687178 0.584257
O O5 0.163776 0.537165 0.750000
O O6 0.251375 0.510221 0.551792
O O7 0.170015 0.617268 0.534008
O O8 0.127094 0.497879 0.486587
O O9 0.705122 0.931631 0.750000
O O10 0.625841 0.959582 0.960144
O O11 0.844440 0.250000 0.500000
O O12 0.862344 0.308614 0.250000
O O13 0.946716 0.324875 0.458278
O O14 0.540208 0.550999 0.250000
O O15 0.500000 0.500000 0.000000
O O16 0.531361 0.622544 0.009132
O O17 0.967967 0.808869 0.250000
O O18 0.940007 0.885333 0.034951
O O19 0.950562 0.750000 0.000000
O O20 0.056755 0.033047 0.750000
O O21 0.000000 0.000000 0.500000
O O22 0.528938 0.750000 0.500000
O O23 0.529936 0.682263 0.750000
#
# Coordination Sequence:
#
# PCOD9435452 Si02
#       8
#     8   8   8   8   8   8   8   8
#     4   9  16  27  46  70  98 129 166 207 246 292
#     4  10  20  36  54  75 103 134 167 209 258 307
#     4   9  19  34  52  73 101 136 172 208 257 313
#     4   9  17  31  50  73  99 126 162 206 249 293
#     4  10  19  32  51  76 102 134 173 213 258 311
#     4   9  18  32  49  72 100 130 166 207 248 293
#     4  11  21  34  52  76 103 132 168 208 251 300
#     4   9  16  27  45  71 100 130 162 205 252 298
#
# _framework density 17.020409000000001
#
# number of rings (size 3 to 8) (size 9 to 14) (size 15 to 20)
#    0.000    2.500    1.250    1.500    0.000    5.500 
#    0.000    0.625    0.000    2.250    0.000    1.750 
#    0.000    0.000    0.000    0.000    0.000    0.000 
#
# Total GULP energy -356850.930890 kJ/mol
# GULP energy per Si atom -5575.795795 kJ/mol
# Density = 1.698167 g / cm^3
# Si number density = 17.020409 Si / 1000 Ang^3
#
#
#
# Elastic Constant Matrix: (Units=GPa)
#
#
# Indices 1 2 3 4 5 6 
#
# 1 41.8491 54.4818 35.0184 0.0000 0.0000 0.0000
# 2 54.4818 188.8782 70.0582 0.0000 0.0000 0.0000
# 3 35.0184 70.0582 65.0479 0.0000 0.0000 0.0000
# 4 0.0000 0.0000 0.0000 35.8764 0.0000 0.0000
# 5 0.0000 0.0000 0.0000 0.0000 14.4362 0.0000
# 6 0.0000 0.0000 0.0000 0.0000 0.0000 23.3836
#
#
#
# Elastic Compliance Matrix: (Units=1/GPa)
#
#
# Indices 1 2 3 4 5 6 
#
# 1 0.048736 -0.007204 -0.018478 0.000000 0.000000 0.000000
# 2 -0.007204 0.009881 -0.006764 0.000000 0.000000 0.000000
# 3 -0.018478 -0.006764 0.032606 0.000000 0.000000 0.000000
# 4 0.000000 0.000000 0.000000 0.027873 0.000000 0.000000
# 5 0.000000 0.000000 0.000000 0.000000 0.069270 0.000000
# 6 0.000000 0.000000 0.000000 0.000000 0.000000 0.042765
#
#
# Mechanical properties :
#
#
# Convention : Reuss Voigt Hill
#
# Bulk Modulus (GPa) = 37.97800 68.32132 53.14966
# Shear Modulus (GPa) = 16.40411 23.82037 20.11224
#
# Velocity S-wave (km/s) = 3.10787 3.74507 3.44125
# Velocity P-wave (km/s) = 5.93634 7.67650 6.86181
#
# Compressibility (1/GPa) = 0.02633103
#
# Stress axis : x y z
#
# Youngs Moduli (GPa) = 20.51869 101.20032 30.66920
#
# Poissons Ratio (x) = 0.72906 0.56670
# Poissons Ratio (y) = 0.14782 0.20745
# Poissons Ratio (z) = 0.37914 0.68454
#
# Static dielectric constant tensor:
#      x y z
#    x 1.574390 0.000000 0.000000 
#    y 0.000000 1.584340 0.000000 
#    z 0.000000 0.000000 1.571250 
# 
# From -- ./inp_files/9560.got.cif
#   From: 2010.05.17/outbox.cif.g08.bks.cpg/sg57_5_cif.got.tgz:9560.got - 2010.06.03 13:58:18.
