data_PCOD9435223
_publ_section_title
;
Structure prediction by ZEFSAII (Michael W. Deem and Ramdas Pophale) SiO2 
 PCOD9435223
Probable space group: P B C M
;
_chemical_formula_sum "Si O2"
_cell_formula_units_Z 48
_cell_length_a 16.068703
_cell_length_b 18.339828
_cell_length_c 8.436695
_cell_angle_alpha 90.000000
_cell_angle_beta 90.000000
_cell_angle_gamma 90.000000
_cell_volume 2486.270809
_symmetry_space_group_name_H-M "P B C M"
_symmetry_group_IT_number 57
_symmetry_cell_setting 'orthorhombic'
loop_
_space_group_symop_operation_xyz
x,y,z
-x,-y,1/2+z
x,1/2-y,-z
-x,1/2+y,1/2-z
-x,-y,-z
x,y,1/2-z
-x,1/2+y,z
x,1/2-y,1/2+z
loop_
_atom_site_type_symbol
_atom_site_label
_atom_site_fract_x
_atom_site_fract_y
_atom_site_fract_z
Si Si1 0.300200 0.166941 0.441525
Si Si2 0.342743 0.666737 0.939566
Si Si3 0.483064 0.166461 0.439663
Si Si4 0.144321 0.430097 0.556402
Si Si5 0.992678 0.170109 0.439731
Si Si6 0.170954 0.595519 0.558313
O O1 0.290617 0.250000 0.500000
O O2 0.298800 0.168779 0.250000
O O3 0.392020 0.137766 0.488960
O O4 0.224483 0.116496 0.495466
O O5 0.343070 0.668718 0.750000
O O6 0.261823 0.622513 0.994403
O O7 0.336312 0.750000 0.000000
O O8 0.431227 0.634159 0.994786
O O9 0.482766 0.250000 0.500000
O O10 0.487557 0.166121 0.250000
O O11 0.144499 0.430459 0.750000
O O12 0.151161 0.513479 0.503566
O O13 0.060391 0.389376 0.504988
O O14 0.016528 0.250000 0.500000
O O15 0.992387 0.170685 0.250000
O O16 0.901729 0.148422 0.500363
O O17 0.170846 0.595842 0.750000
#
# Coordination Sequence:
#
# PCOD9435223 Si02
#       6
#     8   8   8   8   8   8
#     4   9  17  31  52  76 102 134 171 210 253 301
#     4  10  19  31  50  73  98 131 169 210 253 298
#     4   9  16  27  47  73 100 130 166 210 253 294
#     4   9  19  36  55  76 104 137 170 205 252 307
#     4  11  22  36  57  81 104 132 168 211 254 300
#     4  10  21  37  55  75 103 138 172 208 253 304
#
# _framework density 19.306023
#
# number of rings (size 3 to 8) (size 9 to 14) (size 15 to 20)
#    0.000    2.333    0.000    4.000    0.000    3.333 
#    0.000    3.333    0.000    0.000    0.000    0.000 
#    0.000    0.000    0.000    0.000    0.000    0.000 
#
# Total GULP energy -267809.471822 kJ/mol
# GULP energy per Si atom -5579.363996 kJ/mol
# Density = 1.926208 g / cm^3
# Si number density = 19.306023 Si / 1000 Ang^3
#
#
#
# Elastic Constant Matrix: (Units=GPa)
#
#
# Indices 1 2 3 4 5 6 
#
# 1 82.1745 -10.7829 9.0538 0.0000 0.0000 0.0000
# 2 -10.7829 36.9570 -0.2075 0.0000 0.0000 0.0000
# 3 9.0538 -0.2075 16.9769 0.0000 0.0000 0.0000
# 4 0.0000 0.0000 0.0000 15.0849 0.0000 0.0000
# 5 0.0000 0.0000 0.0000 0.0000 67.1121 0.0000
# 6 0.0000 0.0000 0.0000 0.0000 0.0000 -4.9174
#
#
#
# Elastic Compliance Matrix: (Units=1/GPa)
#
#
# Indices 1 2 3 4 5 6 
#
# 1 0.013465 0.003889 -0.007134 0.000000 0.000000 0.000000
# 2 0.003889 0.028183 -0.001729 0.000000 0.000000 0.000000
# 3 -0.007134 -0.001729 0.062687 0.000000 0.000000 0.000000
# 4 0.000000 0.000000 0.000000 0.066291 0.000000 0.000000
# 5 0.000000 0.000000 0.000000 0.000000 0.014900 0.000000
# 6 0.000000 0.000000 0.000000 0.000000 0.000000 -0.203361
#
#
# Mechanical properties :
#
#
# Convention : Reuss Voigt Hill
#
# Bulk Modulus (GPa) = 10.59468 14.69281 12.64374
# Shear Modulus (GPa) = 212.07274 24.65893 118.36584
#
# Velocity S-wave (km/s) = 10.49221 3.57776 7.83859
# Velocity P-wave (km/s) = 12.34024 4.96933 9.40680
#
# Compressibility (1/GPa) = 0.09438703
#
# Stress axis : x y z
#
# Youngs Moduli (GPa) = 74.26404 35.48194 15.95232
#
# Poissons Ratio (x) = -0.13798 0.11380
# Poissons Ratio (y) = -0.28879 0.02759
# Poissons Ratio (z) = 0.52977 0.06136
#
# Static dielectric constant tensor:
#      x y z
#    x 1.705060 0.000000 0.000000 
#    y 0.000000 1.643440 0.000000 
#    z 0.000000 0.000000 1.669010 
# 
# From -- ./inp_files/4866.got.cif
#   From: 2010.05.17/outbox.cif.g08.bks.cpg/sg57_3_cif.got.tgz:4866.got - 2010.06.03 13:58:18.
