data_PCOD9435091
_publ_section_title
;
Structure prediction by ZEFSAII (Michael W. Deem and Ramdas Pophale) SiO2 
 PCOD9435091
Probable space group: P B C M
;
_chemical_formula_sum "Si O2"
_cell_formula_units_Z 64
_cell_length_a 23.927241
_cell_length_b 18.077706
_cell_length_c 8.529380
_cell_angle_alpha 90.000000
_cell_angle_beta 90.000000
_cell_angle_gamma 90.000000
_cell_volume 3689.380148
_symmetry_space_group_name_H-M "P B C M"
_symmetry_group_IT_number 57
_symmetry_cell_setting 'orthorhombic'
loop_
_space_group_symop_operation_xyz
x,y,z
-x,-y,1/2+z
x,1/2-y,-z
-x,1/2+y,1/2-z
-x,-y,-z
x,y,1/2-z
-x,1/2+y,z
x,1/2-y,1/2+z
loop_
_atom_site_type_symbol
_atom_site_label
_atom_site_fract_x
_atom_site_fract_y
_atom_site_fract_z
Si Si1 0.242468 0.525387 0.063014
Si Si2 0.816280 0.330257 0.436313
Si Si3 0.465449 0.070232 0.438804
Si Si4 0.045407 0.332765 0.439734
Si Si5 0.435175 0.667761 0.061737
Si Si6 0.366448 0.974028 0.437620
Si Si7 0.069204 0.908065 0.062569
Si Si8 0.868695 0.550282 0.561807
O O1 0.247124 0.518440 0.250000
O O2 0.193406 0.470085 0.004142
O O3 0.219349 0.606459 0.020030
O O4 0.302926 0.516118 0.988821
O O5 0.802160 0.250000 0.500000
O O6 0.807185 0.334695 0.250000
O O7 0.881531 0.348756 0.467017
O O8 0.466125 0.071864 0.250000
O O9 0.502148 0.140905 0.490149
O O10 0.500000 0.000000 0.500000
O O11 0.403106 0.046164 0.487619
O O12 0.042791 0.250000 0.500000
O O13 0.044487 0.332122 0.250000
O O14 0.101137 0.375427 0.493445
O O15 0.990410 0.378066 0.491785
O O16 0.433143 0.669561 0.250000
O O17 0.422451 0.750000 0.000000
O O18 0.393665 0.601834 0.005814
O O19 0.369871 0.967856 0.250000
O O20 0.066722 0.920299 0.250000
O O21 0.090333 0.982940 0.983236
O O22 0.865427 0.552931 0.750000
#
# Coordination Sequence:
#
# PCOD9435091 Si02
#       8
#     8   8   8   8   8   8   8   8
#     4  10  20  34  50  69  93 126 164 203 242 281
#     4  10  19  31  46  67  95 127 159 195 237 287
#     4   8  16  30  49  71  97 126 157 191 229 270
#     4  10  20  33  49  73  99 124 155 197 246 298
#     4  10  19  32  50  76 107 135 159 190 233 281
#     4  10  19  33  52  74  97 126 164 203 237 278
#     4   9  18  31  49  72  97 123 157 196 240 294
#     4   9  19  34  51  70  96 127 162 201 243 289
#
# _framework density 17.347086000000001
#
# number of rings (size 3 to 8) (size 9 to 14) (size 15 to 20)
#    0.000    2.500    0.000    2.250    0.000    3.500 
#    0.000    2.500    0.000    0.750    0.000    5.250 
#    0.000    0.000    0.000    0.000    0.000    0.000 
#
# Total GULP energy -356625.297989 kJ/mol
# GULP energy per Si atom -5572.270281 kJ/mol
# Density = 1.730760 g / cm^3
# Si number density = 17.347086 Si / 1000 Ang^3
#
#
#
# Elastic Constant Matrix: (Units=GPa)
#
#
# Indices 1 2 3 4 5 6 
#
# 1 133.1728 43.0053 21.2087 0.0000 0.0000 0.0000
# 2 43.0053 40.7381 8.4225 0.0000 0.0000 0.0000
# 3 21.2087 8.4225 18.8113 0.0000 0.0000 0.0000
# 4 0.0000 0.0000 0.0000 16.3577 0.0000 0.0000
# 5 0.0000 0.0000 0.0000 0.0000 18.0010 0.0000
# 6 0.0000 0.0000 0.0000 0.0000 0.0000 2.1616
#
#
#
# Elastic Compliance Matrix: (Units=1/GPa)
#
#
# Indices 1 2 3 4 5 6 
#
# 1 0.012677 -0.011491 -0.009147 0.000000 0.000000 0.000000
# 2 -0.011491 0.037467 -0.003820 0.000000 0.000000 0.000000
# 3 -0.009147 -0.003820 0.065183 0.000000 0.000000 0.000000
# 4 0.000000 0.000000 0.000000 0.061133 0.000000 0.000000
# 5 0.000000 0.000000 0.000000 0.000000 0.055552 0.000000
# 6 0.000000 0.000000 0.000000 0.000000 0.000000 0.462614
#
#
# Mechanical properties :
#
#
# Convention : Reuss Voigt Hill
#
# Bulk Modulus (GPa) = 15.05791 37.55502 26.30647
# Shear Modulus (GPa) = 6.53015 15.30979 10.91997
#
# Velocity S-wave (km/s) = 1.94231 2.97401 2.51170
# Velocity P-wave (km/s) = 3.70531 5.78698 4.85893
#
# Compressibility (1/GPa) = 0.06641027
#
# Stress axis : x y z
#
# Youngs Moduli (GPa) = 78.88599 26.68999 15.34147
#
# Poissons Ratio (x) = 0.30669 0.14033
# Poissons Ratio (y) = 0.90647 0.05861
# Poissons Ratio (z) = 0.72159 0.10196
#
# Static dielectric constant tensor:
#      x y z
#    x 1.617980 0.000000 0.000000 
#    y 0.000000 1.579010 0.000000 
#    z 0.000000 0.000000 1.580680 
# 
# From -- ./inp_files/8452.got.cif
#   From: 2010.05.17/outbox.cif.g08.bks.cpg/sg57_5_cif.got.tgz:8452.got - 2010.06.03 13:58:18.
