data_PCOD9435787
_publ_section_title
;
Structure prediction by ZEFSAII (Michael W. Deem and Ramdas Pophale) SiO2 
 PCOD9435787
Probable space group: P B C M
;
_chemical_formula_sum "Si O2"
_cell_formula_units_Z 48
_cell_length_a 10.001856
_cell_length_b 24.268192
_cell_length_c 7.680936
_cell_angle_alpha 90.000000
_cell_angle_beta 90.000000
_cell_angle_gamma 90.000000
_cell_volume 1864.370259
_symmetry_space_group_name_H-M "P B C M"
_symmetry_group_IT_number 57
_symmetry_cell_setting 'orthorhombic'
loop_
_space_group_symop_operation_xyz
x,y,z
-x,-y,1/2+z
x,1/2-y,-z
-x,1/2+y,1/2-z
-x,-y,-z
x,y,1/2-z
-x,1/2+y,z
x,1/2-y,1/2+z
loop_
_atom_site_type_symbol
_atom_site_label
_atom_site_fract_x
_atom_site_fract_y
_atom_site_fract_z
Si Si1 0.847345 0.459125 0.551444
Si Si2 0.444404 0.572348 0.949667
Si Si3 0.261191 0.431670 0.464607
Si Si4 0.795860 0.810559 0.446584
Si Si5 0.082294 0.658401 0.038151
Si Si6 0.381066 0.810608 0.956380
O O1 0.892445 0.463723 0.750000
O O2 0.689907 0.441517 0.552512
O O3 0.840691 0.520539 0.474396
O O4 0.916862 0.405253 0.472717
O O5 0.423690 0.556127 0.750000
O O6 0.587463 0.551522 0.014026
O O7 0.456350 0.638943 0.955733
O O8 0.256075 0.432181 0.250000
O O9 0.237480 0.369786 0.532611
O O10 0.748200 0.750000 0.500000
O O11 0.751429 0.816695 0.250000
O O12 0.956840 0.810555 0.460611
O O13 0.073593 0.658571 0.250000
O O14 0.225115 0.684007 0.989782
O O15 0.388719 0.819075 0.750000
O O16 0.429849 0.750000 0.000000
#
# Coordination Sequence:
#
# PCOD9435787 Si02
#       6
#     8   8   8   8   8   8
#     4   9  18  36  59  82 110 140 174 219 272 320
#     4  10  19  33  54  81 112 143 179 219 265 321
#     4   9  20  37  56  79 109 145 179 218 266 316
#     4  11  23  39  57  77 106 144 183 221 264 315
#     4   9  19  35  56  81 107 136 172 219 271 321
#     4  10  20  34  53  78 108 141 180 227 277 322
#
# _framework density 25.74596
#
# number of rings (size 3 to 8) (size 9 to 14) (size 15 to 20)
#    0.000    2.333    0.000    3.500    0.000    6.000 
#    0.000    7.500    0.000    0.000    0.000    0.000 
#    0.000    0.000    0.000    0.000    0.000    0.000 
#
# Total GULP energy -268391.929370 kJ/mol
# GULP energy per Si atom -5591.498529 kJ/mol
# Density = 2.568736 g / cm^3
# Si number density = 25.745960 Si / 1000 Ang^3
#
#
#
# Elastic Constant Matrix: (Units=GPa)
#
#
# Indices 1 2 3 4 5 6 
#
# 1 66.3524 14.4879 6.9392 0.0000 0.0000 0.0000
# 2 14.4879 193.8524 12.0176 0.0000 0.0000 0.0000
# 3 6.9392 12.0176 72.3910 0.0000 0.0000 0.0000
# 4 0.0000 0.0000 0.0000 21.9968 0.0000 0.0000
# 5 0.0000 0.0000 0.0000 0.0000 16.3097 0.0000
# 6 0.0000 0.0000 0.0000 0.0000 0.0000 18.8520
#
#
#
# Elastic Compliance Matrix: (Units=1/GPa)
#
#
# Indices 1 2 3 4 5 6 
#
# 1 0.015442 -0.001073 -0.001302 0.000000 0.000000 0.000000
# 2 -0.001073 0.005287 -0.000775 0.000000 0.000000 0.000000
# 3 -0.001302 -0.000775 0.014067 0.000000 0.000000 0.000000
# 4 0.000000 0.000000 0.000000 0.045461 0.000000 0.000000
# 5 0.000000 0.000000 0.000000 0.000000 0.061313 0.000000
# 6 0.000000 0.000000 0.000000 0.000000 0.000000 0.053045
#
#
# Mechanical properties :
#
#
# Convention : Reuss Voigt Hill
#
# Bulk Modulus (GPa) = 35.09329 44.38722 39.74025
# Shear Modulus (GPa) = 23.76276 31.37513 27.56895
#
# Velocity S-wave (km/s) = 3.04134 3.49469 3.27587
# Velocity P-wave (km/s) = 5.09835 5.79325 5.45687
#
# Compressibility (1/GPa) = 0.02849547
#
# Stress axis : x y z
#
# Youngs Moduli (GPa) = 64.76024 189.14988 71.08690
#
# Poissons Ratio (x) = 0.20302 0.09255
# Poissons Ratio (y) = 0.06951 0.05508
# Poissons Ratio (z) = 0.08432 0.14655
#
# Static dielectric constant tensor:
#      x y z
#    x 2.007540 0.000000 0.000000 
#    y 0.000000 2.109520 0.000000 
#    z 0.000000 0.000000 1.954630 
# 
# From -- ./inp_files/3151.got.cif
#   From: 2010.05.17/outbox.cif.g08.bks.cpg/sg57_2_cif.got.tgz:3151.got - 2010.06.03 13:58:18.
