data_PCOD9435513
_publ_section_title
;
Structure prediction by ZEFSAII (Michael W. Deem and Ramdas Pophale) SiO2 
 PCOD9435513
Probable space group: P B C M
;
_chemical_formula_sum "Si O2"
_cell_formula_units_Z 56
_cell_length_a 22.315710
_cell_length_b 14.937518
_cell_length_c 8.759395
_cell_angle_alpha 90.000000
_cell_angle_beta 90.000000
_cell_angle_gamma 90.000000
_cell_volume 2919.868290
_symmetry_space_group_name_H-M "P B C M"
_symmetry_group_IT_number 57
_symmetry_cell_setting 'orthorhombic'
loop_
_space_group_symop_operation_xyz
x,y,z
-x,-y,1/2+z
x,1/2-y,-z
-x,1/2+y,1/2-z
-x,-y,-z
x,y,1/2-z
-x,1/2+y,z
x,1/2-y,1/2+z
loop_
_atom_site_type_symbol
_atom_site_label
_atom_site_fract_x
_atom_site_fract_y
_atom_site_fract_z
Si Si1 0.103840 0.655332 0.566843
Si Si2 0.530686 0.845359 0.433890
Si Si3 0.750256 0.650757 0.932309
Si Si4 0.637315 0.971161 0.433997
Si Si5 0.971020 0.844505 0.932934
Si Si6 0.608535 0.154895 0.567499
Si Si7 0.858118 0.963579 0.933311
O O1 0.125114 0.750000 0.500000
O O2 0.101845 0.660726 0.750000
O O3 0.036147 0.641017 0.505915
O O4 0.141612 0.567913 0.522377
O O5 0.551207 0.750000 0.500000
O O6 0.532567 0.840756 0.250000
O O7 0.575106 0.924047 0.483308
O O8 0.461486 0.857738 0.480481
O O9 0.751159 0.657528 0.750000
O O10 0.691092 0.595061 0.977334
O O11 0.750009 0.750000 0.000000
O O12 0.807428 0.595043 0.988395
O O13 0.636639 0.979621 0.250000
O O14 0.643104 0.068781 0.506139
O O15 0.977161 0.837611 0.750000
O O16 0.923095 0.921057 0.969111
O O17 0.948271 0.750000 0.000000
O O18 0.628601 0.250000 0.500000
O O19 0.610894 0.158399 0.750000
O O20 0.850669 0.957884 0.750000
#
# Coordination Sequence:
#
# PCOD9435513 Si02
#       7
#     8   8   8   8   8   8   8
#     4  10  20  35  55  81 111 142 177 221 271 323
#     4   9  18  32  52  80 113 144 178 221 271 325
#     4  11  24  40  60  83 109 142 180 222 268 316
#     4  10  21  37  55  79 110 144 183 226 269 319
#     4  10  19  32  52  80 111 143 178 219 269 324
#     4  10  20  34  55  82 110 144 180 221 272 324
#     4  10  22  38  56  79 109 145 185 226 269 317
#
# _framework density 19.178947999999998
#
# number of rings (size 3 to 8) (size 9 to 14) (size 15 to 20)
#    0.000    2.000    0.000    4.286    0.000    5.714 
#    0.000    0.714    0.000    1.714    0.000    0.000 
#    0.000    0.000    0.000    0.000    0.000    0.000 
#
# Total GULP energy -312806.489339 kJ/mol
# GULP energy per Si atom -5585.830167 kJ/mol
# Density = 1.913530 g / cm^3
# Si number density = 19.178948 Si / 1000 Ang^3
#
#
#
# Elastic Constant Matrix: (Units=GPa)
#
#
# Indices 1 2 3 4 5 6 
#
# 1 43.8011 61.2168 24.0123 0.0000 0.0000 0.0000
# 2 61.2168 199.5368 53.3688 0.0000 0.0000 0.0000
# 3 24.0123 53.3688 35.8761 0.0000 0.0000 0.0000
# 4 0.0000 0.0000 0.0000 32.4839 0.0000 0.0000
# 5 0.0000 0.0000 0.0000 0.0000 16.8819 0.0000
# 6 0.0000 0.0000 0.0000 0.0000 0.0000 30.4175
#
#
#
# Elastic Compliance Matrix: (Units=1/GPa)
#
#
# Indices 1 2 3 4 5 6 
#
# 1 0.044805 -0.009508 -0.015844 0.000000 0.000000 0.000000
# 2 -0.009508 0.010341 -0.009019 0.000000 0.000000 0.000000
# 3 -0.015844 -0.009019 0.051895 0.000000 0.000000 0.000000
# 4 0.000000 0.000000 0.000000 0.030784 0.000000 0.000000
# 5 0.000000 0.000000 0.000000 0.000000 0.059235 0.000000
# 6 0.000000 0.000000 0.000000 0.000000 0.000000 0.032876
#
#
# Mechanical properties :
#
#
# Convention : Reuss Voigt Hill
#
# Bulk Modulus (GPa) = 26.11102 61.82332 43.96717
# Shear Modulus (GPa) = 16.05413 25.33108 20.69260
#
# Velocity S-wave (km/s) = 2.89636 3.63819 3.28826
# Velocity P-wave (km/s) = 4.98288 7.06778 6.11485
#
# Compressibility (1/GPa) = 0.03829801
#
# Stress axis : x y z
#
# Youngs Moduli (GPa) = 22.31877 96.70293 19.26956
#
# Poissons Ratio (x) = 0.91947 0.30532
# Poissons Ratio (y) = 0.21221 0.17379
# Poissons Ratio (z) = 0.35363 0.87217
#
# Static dielectric constant tensor:
#      x y z
#    x 1.660500 0.000000 0.000000 
#    y 0.000000 1.665360 0.000000 
#    z 0.000000 0.000000 1.644270 
# 
# From -- ./inp_files/8124.got.cif
#   From: 2010.05.17/outbox.cif.g08.bks.cpg/sg57_5_cif.got.tgz:8124.got - 2010.06.03 13:58:18.
