data_PCOD9435057
_publ_section_title
;
Structure prediction by ZEFSAII (Michael W. Deem and Ramdas Pophale) SiO2 
 PCOD9435057
Probable space group: P B C M
;
_chemical_formula_sum "Si O2"
_cell_formula_units_Z 40
_cell_length_a 13.026529
_cell_length_b 21.335726
_cell_length_c 8.809130
_cell_angle_alpha 90.000000
_cell_angle_beta 90.000000
_cell_angle_gamma 90.000000
_cell_volume 2448.325496
_symmetry_space_group_name_H-M "P B C M"
_symmetry_group_IT_number 57
_symmetry_cell_setting 'orthorhombic'
loop_
_space_group_symop_operation_xyz
x,y,z
-x,-y,1/2+z
x,1/2-y,-z
-x,1/2+y,1/2-z
-x,-y,-z
x,y,1/2-z
-x,1/2+y,z
x,1/2-y,1/2+z
loop_
_atom_site_type_symbol
_atom_site_label
_atom_site_fract_x
_atom_site_fract_y
_atom_site_fract_z
Si Si1 0.640349 0.954925 0.567258
Si Si2 0.075428 0.587561 0.932287
Si Si3 0.132320 0.445015 0.932170
Si Si4 0.419312 0.911024 0.568760
Si Si5 0.744256 0.319139 0.432350
O O1 0.641220 0.965501 0.750000
O O2 0.751427 0.927888 0.524488
O O3 0.540868 0.913091 0.531963
O O4 0.623777 0.022098 0.488685
O O5 0.071463 0.588610 0.750000
O O6 0.115454 0.518125 0.977026
O O7 0.156712 0.639774 0.981859
O O8 0.960812 0.593471 0.996226
O O9 0.123606 0.441474 0.750000
O O10 0.407776 0.906637 0.750000
O O11 0.355606 0.856491 0.489447
O O12 0.748106 0.250000 0.500000
O O13 0.743609 0.316693 0.250000
#
# Coordination Sequence:
#
# PCOD9435057 Si02
#       5
#     8   8   8   8   8
#     4   9  17  31  49  73 105 134 160 203 253 295
#     4   9  18  31  47  70 100 130 162 203 247 292
#     4   9  16  29  49  72 101 131 158 199 249 295
#     4  10  19  30  49  75 101 132 170 204 246 298
#     4  11  22  37  53  71 101 134 169 209 248 292
#
# _framework density 16.337696000000001
#
# number of rings (size 3 to 8) (size 9 to 14) (size 15 to 20)
#    0.000    2.400    2.000    1.200    0.000    3.200 
#    0.000    0.000    0.000    1.200    0.000    2.800 
#    0.000    0.000    0.000    0.000    0.000    0.000 
#
# Total GULP energy -222983.686082 kJ/mol
# GULP energy per Si atom -5574.592152 kJ/mol
# Density = 1.630051 g / cm^3
# Si number density = 16.337696 Si / 1000 Ang^3
#
#
#
# Elastic Constant Matrix: (Units=GPa)
#
#
# Indices 1 2 3 4 5 6 
#
# 1 170.6236 63.0596 42.5158 0.0000 0.0000 0.0000
# 2 63.0596 88.2293 31.6348 0.0000 0.0000 0.0000
# 3 42.5158 31.6348 27.2417 0.0000 0.0000 0.0000
# 4 0.0000 0.0000 0.0000 22.9932 0.0000 0.0000
# 5 0.0000 0.0000 0.0000 0.0000 27.0648 0.0000
# 6 0.0000 0.0000 0.0000 0.0000 0.0000 17.6697
#
#
#
# Elastic Compliance Matrix: (Units=1/GPa)
#
#
# Indices 1 2 3 4 5 6 
#
# 1 0.009937 -0.002641 -0.012442 0.000000 0.000000 0.000000
# 2 -0.002641 0.020122 -0.019245 0.000000 0.000000 0.000000
# 3 -0.012442 -0.019245 0.078474 0.000000 0.000000 0.000000
# 4 0.000000 0.000000 0.000000 0.043491 0.000000 0.000000
# 5 0.000000 0.000000 0.000000 0.000000 0.036948 0.000000
# 6 0.000000 0.000000 0.000000 0.000000 0.000000 0.056594
#
#
# Mechanical properties :
#
#
# Convention : Reuss Voigt Hill
#
# Bulk Modulus (GPa) = 25.07650 62.27944 43.67797
# Shear Modulus (GPa) = 15.26647 23.47118 19.36883
#
# Velocity S-wave (km/s) = 3.06017 3.79440 3.44689
# Velocity P-wave (km/s) = 5.27905 7.57624 6.52946
#
# Compressibility (1/GPa) = 0.03987798
#
# Stress axis : x y z
#
# Youngs Moduli (GPa) = 100.63141 49.69612 12.74308
#
# Poissons Ratio (x) = 0.13127 0.15854
# Poissons Ratio (y) = 0.26581 0.24524
# Poissons Ratio (z) = 1.25201 0.95639
#
# Static dielectric constant tensor:
#      x y z
#    x 1.578480 0.000000 0.000000 
#    y 0.000000 1.508920 0.000000 
#    z 0.000000 0.000000 1.541370 
# 
# From -- ./inp_files/2892.got.cif
#   From: 2010.05.17/outbox.cif.g08.bks.cpg/sg57_2_cif.got.tgz:2892.got - 2010.06.03 13:58:18.
