data_PCOD9435198
_publ_section_title
;
Structure prediction by ZEFSAII (Michael W. Deem and Ramdas Pophale) SiO2 
 PCOD9435198
Probable space group: P B C M
;
_chemical_formula_sum "Si O2"
_cell_formula_units_Z 64
_cell_length_a 22.575594
_cell_length_b 16.376385
_cell_length_c 9.211047
_cell_angle_alpha 90.000000
_cell_angle_beta 90.000000
_cell_angle_gamma 90.000000
_cell_volume 3405.385043
_symmetry_space_group_name_H-M "P B C M"
_symmetry_group_IT_number 57
_symmetry_cell_setting 'orthorhombic'
loop_
_space_group_symop_operation_xyz
x,y,z
-x,-y,1/2+z
x,1/2-y,-z
-x,1/2+y,1/2-z
-x,-y,-z
x,y,1/2-z
-x,1/2+y,z
x,1/2-y,1/2+z
loop_
_atom_site_type_symbol
_atom_site_label
_atom_site_fract_x
_atom_site_fract_y
_atom_site_fract_z
Si Si1 0.369278 0.942993 0.414570
Si Si2 0.053733 0.833823 0.080907
Si Si3 0.284249 0.328018 0.420948
Si Si4 0.881596 0.017819 0.423749
Si Si5 0.599220 0.633480 0.414631
Si Si6 0.462626 0.666078 0.076818
Si Si7 0.254127 0.987448 0.921977
Si Si8 0.910521 0.833319 0.081618
O O1 0.368728 0.910369 0.250000
O O2 0.417838 0.899522 0.512816
O O3 0.304320 0.942119 0.486230
O O4 0.388680 0.037248 0.408004
O O5 0.071475 0.831395 0.250000
O O6 0.982160 0.836086 0.076035
O O7 0.072391 0.750000 0.000000
O O8 0.078862 0.915122 0.004708
O O9 0.256959 0.250000 0.500000
O O10 0.280289 0.317350 0.250000
O O11 0.352367 0.333936 0.473713
O O12 0.256836 0.415835 0.459293
O O13 0.894309 0.019445 0.250000
O O14 0.812788 0.040656 0.445413
O O15 0.890302 0.923171 0.472114
O O16 0.608696 0.666272 0.250000
O O17 0.531548 0.648233 0.457905
O O18 0.457781 0.670430 0.250000
O O19 0.446666 0.750000 0.000000
O O20 0.268159 0.981099 0.750000
O O21 0.891362 0.826959 0.250000
O O22 0.892145 0.750000 0.000000
#
# Coordination Sequence:
#
# PCOD9435198 Si02
#       8
#     8   8   8   8   8   8   8   8
#     4  10  20  36  56  76 100 131 168 209 254 304
#     4  10  20  35  56  83 113 145 183 226 274 325
#     4  10  19  31  49  73 103 138 173 212 259 309
#     4  10  20  36  57  81 111 146 185 229 273 317
#     4   9  19  34  53  77 102 130 165 205 251 308
#     4  11  22  35  52  76 104 131 163 205 255 308
#     4   9  20  37  54  73 101 139 179 217 259 308
#     4   9  19  34  54  83 118 152 183 219 266 321
#
# _framework density 18.793762999999998
#
# number of rings (size 3 to 8) (size 9 to 14) (size 15 to 20)
#    0.000    2.250    0.000    2.625    0.000    5.000 
#    0.000    0.625    0.000    3.000    0.000    0.000 
#    0.000    0.000    0.000    0.000    0.000    0.000 
#
# Total GULP energy -357114.827482 kJ/mol
# GULP energy per Si atom -5579.919179 kJ/mol
# Density = 1.875099 g / cm^3
# Si number density = 18.793763 Si / 1000 Ang^3
#
#
#
# Elastic Constant Matrix: (Units=GPa)
#
#
# Indices 1 2 3 4 5 6 
#
# 1 42.4762 18.4778 23.8262 0.0000 0.0000 0.0000
# 2 18.4778 71.5970 28.5665 0.0000 0.0000 0.0000
# 3 23.8262 28.5665 60.4804 0.0000 0.0000 0.0000
# 4 0.0000 0.0000 0.0000 34.5034 0.0000 0.0000
# 5 0.0000 0.0000 0.0000 0.0000 8.6623 0.0000
# 6 0.0000 0.0000 0.0000 0.0000 0.0000 -4.5690
#
#
#
# Elastic Compliance Matrix: (Units=1/GPa)
#
#
# Indices 1 2 3 4 5 6 
#
# 1 0.031064 -0.003862 -0.010413 0.000000 0.000000 0.000000
# 2 -0.003862 0.017691 -0.006834 0.000000 0.000000 0.000000
# 3 -0.010413 -0.006834 0.023865 0.000000 0.000000 0.000000
# 4 0.000000 0.000000 0.000000 0.028983 0.000000 0.000000
# 5 0.000000 0.000000 0.000000 0.000000 0.115443 0.000000
# 6 0.000000 0.000000 0.000000 0.000000 0.000000 -0.218868
#
#
# Mechanical properties :
#
#
# Convention : Reuss Voigt Hill
#
# Bulk Modulus (GPa) = 32.89523 35.14383 34.01953
# Shear Modulus (GPa) = 98.95210 14.63155 56.79182
#
# Velocity S-wave (km/s) = 7.26401 2.79325 5.50309
# Velocity P-wave (km/s) = 9.37527 5.39845 7.64981
#
# Compressibility (1/GPa) = 0.03039955
#
# Stress axis : x y z
#
# Youngs Moduli (GPa) = 32.19175 56.52713 41.90309
#
# Poissons Ratio (x) = 0.21832 0.43635
# Poissons Ratio (y) = 0.12433 0.28638
# Poissons Ratio (z) = 0.33522 0.38632
#
# Static dielectric constant tensor:
#      x y z
#    x 1.635430 0.000000 0.000000 
#    y 0.000000 1.669110 0.000000 
#    z 0.000000 0.000000 1.652160 
# 
# From -- ./inp_files/9437.got.cif
#   From: 2010.05.17/outbox.cif.g08.bks.cpg/sg57_5_cif.got.tgz:9437.got - 2010.06.03 13:58:18.
