data_PCOD9435806
_publ_section_title
;
Structure prediction by ZEFSAII (Michael W. Deem and Ramdas Pophale) SiO2 
 PCOD9435806
Probable space group: P B C M
;
_chemical_formula_sum "Si O2"
_cell_formula_units_Z 64
_cell_length_a 24.706854
_cell_length_b 13.424204
_cell_length_c 7.660379
_cell_angle_alpha 90.000000
_cell_angle_beta 90.000000
_cell_angle_gamma 90.000000
_cell_volume 2540.716741
_symmetry_space_group_name_H-M "P B C M"
_symmetry_group_IT_number 57
_symmetry_cell_setting 'orthorhombic'
loop_
_space_group_symop_operation_xyz
x,y,z
-x,-y,1/2+z
x,1/2-y,-z
-x,1/2+y,1/2-z
-x,-y,-z
x,y,1/2-z
-x,1/2+y,z
x,1/2-y,1/2+z
loop_
_atom_site_type_symbol
_atom_site_label
_atom_site_fract_x
_atom_site_fract_y
_atom_site_fract_z
Si Si1 0.873258 0.081871 0.548508
Si Si2 0.244379 0.561711 0.449898
Si Si3 0.410139 0.368602 0.540281
Si Si4 0.104909 0.354086 0.458395
Si Si5 0.642857 0.133121 0.460244
Si Si6 0.011643 0.614649 0.959690
Si Si7 0.473264 0.630953 0.039842
Si Si8 0.709495 0.633924 0.458181
O O1 0.878982 0.102953 0.750000
O O2 0.812264 0.109277 0.502184
O O3 0.875752 0.961805 0.522943
O O4 0.927633 0.130855 0.466818
O O5 0.250050 0.588383 0.250000
O O6 0.300552 0.594797 0.537533
O O7 0.246269 0.441830 0.468246
O O8 0.410505 0.250000 0.500000
O O9 0.409729 0.379993 0.750000
O O10 0.468408 0.406251 0.470423
O O11 0.350545 0.399229 0.473331
O O12 0.134544 0.250000 0.500000
O O13 0.103150 0.363348 0.250000
O O14 0.043891 0.342370 0.535589
O O15 0.642555 0.250000 0.500000
O O16 0.641359 0.118912 0.250000
O O17 0.584897 0.092588 0.528797
O O18 0.011640 0.632222 0.750000
O O19 0.000000 0.500000 0.000000
O O20 0.474056 0.620815 0.250000
O O21 0.472903 0.750000 0.000000
O O22 0.717470 0.750000 0.500000
O O23 0.709940 0.624444 0.250000
#
# Coordination Sequence:
#
# PCOD9435806 Si02
#       8
#     8   8   8   8   8   8   8   8
#     4  10  20  36  56  77 102 138 179 218 258 305
#     4  11  23  38  54  77 108 145 186 228 271 319
#     4   8  14  25  45  71  99 129 166 210 263 323
#     4  10  19  33  54  83 114 141 169 207 253 305
#     4   9  19  35  56  78 103 135 175 223 276 327
#     4   8  16  31  52  75 100 128 160 197 241 288
#     4   8  13  25  46  72  98 127 163 210 266 325
#     4  10  20  35  54  77 105 141 180 223 271 324
#
# _framework density 25.189741000000001
#
# number of rings (size 3 to 8) (size 9 to 14) (size 15 to 20)
#    0.000    2.750    0.000    1.500    0.000    3.000 
#    0.000    3.750    0.000    3.000    0.000    0.000 
#    0.000    0.000    0.000    0.000    0.000    0.000 
#
# Total GULP energy -356949.093388 kJ/mol
# GULP energy per Si atom -5577.329584 kJ/mol
# Density = 2.513241 g / cm^3
# Si number density = 25.189741 Si / 1000 Ang^3
#
#
#
# Elastic Constant Matrix: (Units=GPa)
#
#
# Indices 1 2 3 4 5 6 
#
# 1 166.1288 6.0807 14.9157 0.0000 0.0000 0.0000
# 2 6.0807 50.9845 -20.0372 0.0000 0.0000 0.0000
# 3 14.9157 -20.0372 71.4173 0.0000 0.0000 0.0000
# 4 0.0000 0.0000 0.0000 12.3740 0.0000 0.0000
# 5 0.0000 0.0000 0.0000 0.0000 16.5823 0.0000
# 6 0.0000 0.0000 0.0000 0.0000 0.0000 16.4811
#
#
#
# Elastic Compliance Matrix: (Units=1/GPa)
#
#
# Indices 1 2 3 4 5 6 
#
# 1 0.006223 -0.001408 -0.001695 0.000000 0.000000 0.000000
# 2 -0.001408 0.022363 0.006568 0.000000 0.000000 0.000000
# 3 -0.001695 0.006568 0.016199 0.000000 0.000000 0.000000
# 4 0.000000 0.000000 0.000000 0.080814 0.000000 0.000000
# 5 0.000000 0.000000 0.000000 0.000000 0.060305 0.000000
# 6 0.000000 0.000000 0.000000 0.000000 0.000000 0.060676
#
#
# Mechanical properties :
#
#
# Convention : Reuss Voigt Hill
#
# Bulk Modulus (GPa) = 19.33635 32.27212 25.80423
# Shear Modulus (GPa) = 19.46368 28.25891 23.86130
#
# Velocity S-wave (km/s) = 2.78273 3.35302 3.08110
# Velocity P-wave (km/s) = 4.24473 5.27539 4.78788
#
# Compressibility (1/GPa) = 0.05171607
#
# Stress axis : x y z
#
# Youngs Moduli (GPa) = 160.69053 44.71630 61.73199
#
# Poissons Ratio (x) = 0.06297 0.10463
# Poissons Ratio (y) = 0.22630 -0.40548
# Poissons Ratio (z) = 0.27234 -0.29372
#
# Static dielectric constant tensor:
#      x y z
#    x 2.119750 0.000000 0.000000 
#    y 0.000000 2.110540 0.000000 
#    z 0.000000 0.000000 1.845510 
# 
# From -- ./inp_files/9430.got.cif
#   From: 2010.05.17/outbox.cif.g08.bks.cpg/sg57_5_cif.got.tgz:9430.got - 2010.06.03 13:58:18.
