data_PCOD9435132
_publ_section_title
;
Structure prediction by ZEFSAII (Michael W. Deem and Ramdas Pophale) SiO2 
 PCOD9435132
Probable space group: P B C M
;
_chemical_formula_sum "Si O2"
_cell_formula_units_Z 48
_cell_length_a 27.107252
_cell_length_b 5.395769
_cell_length_c 13.734718
_cell_angle_alpha 90.000000
_cell_angle_beta 90.000000
_cell_angle_gamma 90.000000
_cell_volume 2008.901249
_symmetry_space_group_name_H-M "P B C M"
_symmetry_group_IT_number 57
_symmetry_cell_setting 'orthorhombic'
loop_
_space_group_symop_operation_xyz
x,y,z
-x,-y,1/2+z
x,1/2-y,-z
-x,1/2+y,1/2-z
-x,-y,-z
x,y,1/2-z
-x,1/2+y,z
x,1/2-y,1/2+z
loop_
_atom_site_type_symbol
_atom_site_label
_atom_site_fract_x
_atom_site_fract_y
_atom_site_fract_z
Si Si1 0.196729 0.102221 0.631104
Si Si2 0.858919 0.102292 0.631042
Si Si3 0.364365 0.609837 0.632231
Si Si4 0.972151 0.397252 0.131055
Si Si5 0.690016 0.608557 0.630927
Si Si6 0.479122 0.521963 0.891775
O O1 0.196921 0.102322 0.750000
O O2 0.173082 0.364059 0.601620
O O3 0.253394 0.077900 0.599823
O O4 0.164765 0.864022 0.601613
O O5 0.859209 0.102256 0.750000
O O6 0.915540 0.078124 0.599350
O O7 0.362605 0.612454 0.750000
O O8 0.332178 0.373096 0.600980
O O9 0.421160 0.570787 0.605808
O O10 0.342872 0.874204 0.600059
O O11 0.971845 0.397239 0.250000
O O12 0.004174 0.635438 0.101672
O O13 0.690022 0.608162 0.750000
O O14 0.507197 0.756976 0.848170
O O15 0.500000 0.500000 0.000000
#
# Coordination Sequence:
#
# PCOD9435132 Si02
#       6
#     8   8   8   8   8   8
#     4   9  15  23  34  48  68  92 120 156 202 261
#     4   9  15  21  30  43  59  86 122 158 204 263
#     4  10  19  31  48  69  91 115 144 177 217 266
#     4   9  15  21  27  36  53  78 113 160 208 253
#     4   9  17  28  42  62  86 109 134 171 218 267
#     4  10  21  36  52  70  93 120 148 178 213 258
#
# _framework density 23.893657999999999
#
# number of rings (size 3 to 8) (size 9 to 14) (size 15 to 20)
#    0.000    2.667    0.000    3.000    0.000    8.667 
#    0.000    0.000    0.000    0.000    0.000    0.000 
#    0.000    0.000    0.000    0.000    0.000    0.000 
#
# Total GULP energy -268813.858061 kJ/mol
# GULP energy per Si atom -5600.288710 kJ/mol
# Density = 2.383928 g / cm^3
# Si number density = 23.893658 Si / 1000 Ang^3
#
#
#
# Elastic Constant Matrix: (Units=GPa)
#
#
# Indices 1 2 3 4 5 6 
#
# 1 223.6376 123.5415 -5.0221 0.0000 0.0000 0.0000
# 2 123.5415 240.5083 14.2597 0.0000 0.0000 0.0000
# 3 -5.0221 14.2597 87.0583 0.0000 0.0000 0.0000
# 4 0.0000 0.0000 0.0000 17.8359 0.0000 0.0000
# 5 0.0000 0.0000 0.0000 0.0000 19.9636 0.0000
# 6 0.0000 0.0000 0.0000 0.0000 0.0000 52.0478
#
#
#
# Elastic Compliance Matrix: (Units=1/GPa)
#
#
# Indices 1 2 3 4 5 6 
#
# 1 0.006313 -0.003296 0.000904 0.000000 0.000000 0.000000
# 2 -0.003296 0.005920 -0.001160 0.000000 0.000000 0.000000
# 3 0.000904 -0.001160 0.011729 0.000000 0.000000 0.000000
# 4 0.000000 0.000000 0.000000 0.056067 0.000000 0.000000
# 5 0.000000 0.000000 0.000000 0.000000 0.050091 0.000000
# 6 0.000000 0.000000 0.000000 0.000000 0.000000 0.019213
#
#
# Mechanical properties :
#
#
# Convention : Reuss Voigt Hill
#
# Bulk Modulus (GPa) = 59.32155 90.75137 75.03646
# Shear Modulus (GPa) = 30.85366 45.86445 38.35906
#
# Velocity S-wave (km/s) = 3.59735 4.38599 4.01110
# Velocity P-wave (km/s) = 6.49121 7.98204 7.27492
#
# Compressibility (1/GPa) = 0.01685728
#
# Stress axis : x y z
#
# Youngs Moduli (GPa) = 158.40993 168.92440 85.26113
#
# Poissons Ratio (x) = 0.55682 -0.07708
# Poissons Ratio (y) = 0.52216 0.09888
# Poissons Ratio (z) = -0.14321 0.19592
#
# Static dielectric constant tensor:
#      x y z
#    x 1.796130 0.000000 0.000000 
#    y 0.000000 1.861950 0.000000 
#    z 0.000000 0.000000 1.970720 
# 
# From -- ./inp_files/23104.got.cif
#   From: 2010.05.17/outbox.cif.g08.bks.cpg/sg57_12_cif.got.tgz:23104.got - 2010.06.03 13:58:18.
