data_PCOD9435431
_publ_section_title
;
Structure prediction by ZEFSAII (Michael W. Deem and Ramdas Pophale) SiO2 
 PCOD9435431
Probable space group: P B C M
;
_chemical_formula_sum "Si O2"
_cell_formula_units_Z 48
_cell_length_a 32.351208
_cell_length_b 9.514724
_cell_length_c 8.536022
_cell_angle_alpha 90.000000
_cell_angle_beta 90.000000
_cell_angle_gamma 90.000000
_cell_volume 2627.496962
_symmetry_space_group_name_H-M "P B C M"
_symmetry_group_IT_number 57
_symmetry_cell_setting 'orthorhombic'
loop_
_space_group_symop_operation_xyz
x,y,z
-x,-y,1/2+z
x,1/2-y,-z
-x,1/2+y,1/2-z
-x,-y,-z
x,y,1/2-z
-x,1/2+y,z
x,1/2-y,1/2+z
loop_
_atom_site_type_symbol
_atom_site_label
_atom_site_fract_x
_atom_site_fract_y
_atom_site_fract_z
Si Si1 0.297157 0.408457 0.561396
Si Si2 0.626943 0.091183 0.062743
Si Si3 0.462330 0.591789 0.937262
Si Si4 0.218318 0.909673 0.060602
Si Si5 0.127970 0.909762 0.061156
Si Si6 0.962131 0.090542 0.561913
O O1 0.296611 0.250000 0.500000
O O2 0.298368 0.408117 0.750000
O O3 0.336791 0.491723 0.497794
O O4 0.255984 0.492450 0.509490
O O5 0.626336 0.094921 0.250000
O O6 0.633447 0.250000 0.000000
O O7 0.582239 0.042102 0.000318
O O8 0.461738 0.592060 0.750000
O O9 0.467352 0.750000 0.000000
O O10 0.500000 0.500000 0.000000
O O11 0.218922 0.904003 0.250000
O O12 0.172852 0.966524 0.010727
O O13 0.223189 0.750000 0.000000
O O14 0.127957 0.909236 0.250000
O O15 0.083251 0.968743 0.011720
O O16 0.127903 0.750000 0.000000
O O17 0.965239 0.250000 0.500000
O O18 0.963372 0.093214 0.750000
O O19 0.000000 0.000000 0.500000
#
# Coordination Sequence:
#
# PCOD9435431 Si02
#       6
#     8   8   8   8   8   8
#     4  11  23  38  55  79 110 144 179 221 270 321
#     4  11  22  39  61  85 112 146 186 227 268 317
#     4  11  22  39  61  88 118 150 187 228 273 321
#     4   9  18  33  55  79 103 132 172 216 263 316
#     4   8  15  29  49  73  99 130 168 214 259 309
#     4  10  19  32  51  74 103 136 174 216 263 314
#
# _framework density 18.268336999999999
#
# number of rings (size 3 to 8) (size 9 to 14) (size 15 to 20)
#    0.000    2.000    0.000    5.500    0.000    4.000 
#    0.000    4.167    0.000    2.000    0.000    0.000 
#    0.000    0.000    0.000    0.000    0.000    0.000 
#
# Total GULP energy -267792.263267 kJ/mol
# GULP energy per Si atom -5579.005485 kJ/mol
# Density = 1.822676 g / cm^3
# Si number density = 18.268337 Si / 1000 Ang^3
#
#
#
# Elastic Constant Matrix: (Units=GPa)
#
#
# Indices 1 2 3 4 5 6 
#
# 1 241.3877 100.2229 61.2060 0.0000 0.0000 0.0000
# 2 100.2229 77.0175 31.3627 0.0000 0.0000 0.0000
# 3 61.2060 31.3627 94.0730 0.0000 0.0000 0.0000
# 4 0.0000 0.0000 0.0000 29.4509 0.0000 0.0000
# 5 0.0000 0.0000 0.0000 0.0000 24.0662 0.0000
# 6 0.0000 0.0000 0.0000 0.0000 0.0000 32.6133
#
#
#
# Elastic Compliance Matrix: (Units=1/GPa)
#
#
# Indices 1 2 3 4 5 6 
#
# 1 0.009447 -0.011329 -0.002370 0.000000 0.000000 0.000000
# 2 -0.011329 0.028608 -0.002167 0.000000 0.000000 0.000000
# 3 -0.002370 -0.002167 0.012894 0.000000 0.000000 0.000000
# 4 0.000000 0.000000 0.000000 0.033955 0.000000 0.000000
# 5 0.000000 0.000000 0.000000 0.000000 0.041552 0.000000
# 6 0.000000 0.000000 0.000000 0.000000 0.000000 0.030662
#
#
# Mechanical properties :
#
#
# Convention : Reuss Voigt Hill
#
# Bulk Modulus (GPa) = 52.03141 88.67349 70.35245
# Shear Modulus (GPa) = 25.60740 31.87185 28.73962
#
# Velocity S-wave (km/s) = 3.74804 4.18143 3.97065
# Velocity P-wave (km/s) = 6.87561 8.48277 7.72112
#
# Compressibility (1/GPa) = 0.01921916
#
# Stress axis : x y z
#
# Youngs Moduli (GPa) = 105.85202 34.95477 77.55365
#
# Poissons Ratio (x) = 0.39599 0.18378
# Poissons Ratio (y) = 1.19915 0.16806
# Poissons Ratio (z) = 0.25084 0.07575
#
# Static dielectric constant tensor:
#      x y z
#    x 1.670310 0.000000 0.000000 
#    y 0.000000 1.579670 0.000000 
#    z 0.000000 0.000000 1.622140 
# 
# From -- ./inp_files/10014.got.cif
#   From: 2010.05.17/outbox.cif.g08.bks.cpg/sg57_6_cif.got.tgz:10014.got - 2010.06.03 13:58:18.
