data_PCOD9435430
_publ_section_title
;
Structure prediction by ZEFSAII (Michael W. Deem and Ramdas Pophale) SiO2 
 PCOD9435430
Probable space group: P B C M
;
_chemical_formula_sum "Si O2"
_cell_formula_units_Z 48
_cell_length_a 32.434553
_cell_length_b 9.219249
_cell_length_c 8.558399
_cell_angle_alpha 90.000000
_cell_angle_beta 90.000000
_cell_angle_gamma 90.000000
_cell_volume 2559.151471
_symmetry_space_group_name_H-M "P B C M"
_symmetry_group_IT_number 57
_symmetry_cell_setting 'orthorhombic'
loop_
_space_group_symop_operation_xyz
x,y,z
-x,-y,1/2+z
x,1/2-y,-z
-x,1/2+y,1/2-z
-x,-y,-z
x,y,1/2-z
-x,1/2+y,z
x,1/2-y,1/2+z
loop_
_atom_site_type_symbol
_atom_site_label
_atom_site_fract_x
_atom_site_fract_y
_atom_site_fract_z
Si Si1 0.539055 0.085936 0.562488
Si Si2 0.371423 0.914923 0.061583
Si Si3 0.799569 0.587107 0.062216
Si Si4 0.960573 0.913461 0.062532
Si Si5 0.718563 0.414692 0.438994
Si Si6 0.121816 0.913279 0.937649
O O1 0.537101 0.250000 0.500000
O O2 0.537702 0.087810 0.750000
O O3 0.584079 0.022526 0.512731
O O4 0.500000 0.000000 0.500000
O O5 0.371456 0.913146 0.250000
O O6 0.326698 0.974218 0.011629
O O7 0.371490 0.750000 0.000000
O O8 0.800247 0.589066 0.250000
O O9 0.756767 0.512533 0.009350
O O10 0.802738 0.750000 0.000000
O O11 0.837748 0.492509 0.002058
O O12 0.962127 0.910367 0.250000
O O13 0.918844 0.996895 0.014670
O O14 0.960452 0.750000 0.000000
O O15 0.000000 0.000000 0.000000
O O16 0.722974 0.250000 0.500000
O O17 0.719253 0.409026 0.250000
O O18 0.123612 0.910589 0.750000
O O19 0.119418 0.750000 0.000000
#
# Coordination Sequence:
#
# PCOD9435430 Si02
#       6
#     8   8   8   8   8   8
#     4  10  19  32  51  74 102 136 174 217 265 318
#     4   8  15  29  49  72  99 131 169 214 262 314
#     4  11  23  38  57  81 112 148 184 225 273 325
#     4  11  24  41  63  90 121 156 193 235 281 330
#     4   9  18  33  54  79 104 133 173 219 266 318
#     4  11  24  41  62  88 117 150 189 232 277 327
#
# _framework density 18.756216999999999
#
# number of rings (size 3 to 8) (size 9 to 14) (size 15 to 20)
#    0.000    2.000    0.000    3.500    0.000    8.667 
#    0.000    0.833    0.000    2.000    0.000    0.000 
#    0.000    0.000    0.000    0.000    0.000    0.000 
#
# Total GULP energy -267863.186929 kJ/mol
# GULP energy per Si atom -5580.483061 kJ/mol
# Density = 1.871353 g / cm^3
# Si number density = 18.756217 Si / 1000 Ang^3
#
#
#
# Elastic Constant Matrix: (Units=GPa)
#
#
# Indices 1 2 3 4 5 6 
#
# 1 235.9492 102.1306 48.3466 0.0000 0.0000 0.0000
# 2 102.1306 128.1347 29.2109 0.0000 0.0000 0.0000
# 3 48.3466 29.2109 36.4095 0.0000 0.0000 0.0000
# 4 0.0000 0.0000 0.0000 31.8073 0.0000 0.0000
# 5 0.0000 0.0000 0.0000 0.0000 26.2795 0.0000
# 6 0.0000 0.0000 0.0000 0.0000 0.0000 32.4285
#
#
#
# Elastic Compliance Matrix: (Units=1/GPa)
#
#
# Indices 1 2 3 4 5 6 
#
# 1 0.007495 -0.004534 -0.006314 0.000000 0.000000 0.000000
# 2 -0.004534 0.012294 -0.003843 0.000000 0.000000 0.000000
# 3 -0.006314 -0.003843 0.038933 0.000000 0.000000 0.000000
# 4 0.000000 0.000000 0.000000 0.031439 0.000000 0.000000
# 5 0.000000 0.000000 0.000000 0.000000 0.038052 0.000000
# 6 0.000000 0.000000 0.000000 0.000000 0.000000 0.030837
#
#
# Mechanical properties :
#
#
# Convention : Reuss Voigt Hill
#
# Bulk Modulus (GPa) = 34.08388 84.42996 59.25692
# Shear Modulus (GPa) = 25.22548 32.82342 29.02445
#
# Velocity S-wave (km/s) = 3.67128 4.18784 3.93804
# Velocity P-wave (km/s) = 6.01520 8.27624 7.23459
#
# Compressibility (1/GPa) = 0.02933938
#
# Stress axis : x y z
#
# Youngs Moduli (GPa) = 133.42974 81.33815 25.68544
#
# Poissons Ratio (x) = 0.36880 0.16218
# Poissons Ratio (y) = 0.60500 0.09871
# Poissons Ratio (z) = 0.84247 0.31257
#
# Static dielectric constant tensor:
#      x y z
#    x 1.689720 0.000000 0.000000 
#    y 0.000000 1.633440 0.000000 
#    z 0.000000 0.000000 1.640180 
# 
# From -- ./inp_files/10011.got.cif
#   From: 2010.05.17/outbox.cif.g08.bks.cpg/sg57_6_cif.got.tgz:10011.got - 2010.06.03 13:58:18.
