data_PCOD9435976
_publ_section_title
;
Structure prediction by ZEFSAII (Michael W. Deem and Ramdas Pophale) SiO2 
 PCOD9435976
Probable space group: P B C M
;
_chemical_formula_sum "Si O2"
_cell_formula_units_Z 32
_cell_length_a 10.710075
_cell_length_b 18.325344
_cell_length_c 8.535073
_cell_angle_alpha 90.000000
_cell_angle_beta 90.000000
_cell_angle_gamma 90.000000
_cell_volume 1675.143004
_symmetry_space_group_name_H-M "P B C M"
_symmetry_group_IT_number 57
_symmetry_cell_setting 'orthorhombic'
loop_
_space_group_symop_operation_xyz
x,y,z
-x,-y,1/2+z
x,1/2-y,-z
-x,1/2+y,1/2-z
-x,-y,-z
x,y,1/2-z
-x,1/2+y,z
x,1/2-y,1/2+z
loop_
_atom_site_type_symbol
_atom_site_label
_atom_site_fract_x
_atom_site_fract_y
_atom_site_fract_z
Si Si1 0.497753 0.829011 0.437807
Si Si2 0.010208 0.417031 0.437808
Si Si3 0.249944 0.602098 0.062454
Si Si4 0.717434 0.933627 0.059683
O O1 0.535229 0.750000 0.500000
O O2 0.498345 0.828864 0.250000
O O3 0.359852 0.848433 0.496892
O O4 0.596606 0.889874 0.494971
O O5 0.997419 0.583028 0.750000
O O6 0.151171 0.395207 0.484298
O O7 0.000000 0.500000 0.500000
O O8 0.888942 0.377363 0.505604
O O9 0.251607 0.603136 0.250000
O O10 0.277755 0.518266 0.008884
O O11 0.714289 0.935105 0.250000
#
# Coordination Sequence:
#
# PCOD9435976 Si02
#       4
#     8   8   8   8
#     4  11  22  37  53  74 104 140 175 215 261 309
#     4   9  16  30  52  80 108 135 168 215 265 312
#     4  10  19  34  55  81 106 135 174 216 260 314
#     4   8  17  33  55  79 105 134 172 216 260 307
#
# _framework density 19.102848000000002
#
# number of rings (size 3 to 8) (size 9 to 14) (size 15 to 20)
#    0.000    2.500    0.000    4.500    0.000    0.000 
#    0.000   15.000    0.000    3.000    0.000    0.000 
#    0.000    0.000    0.000    0.000    0.000    0.000 
#
# Total GULP energy -178418.597725 kJ/mol
# GULP energy per Si atom -5575.581179 kJ/mol
# Density = 1.905937 g / cm^3
# Si number density = 19.102848 Si / 1000 Ang^3
#
#
#
# Elastic Constant Matrix: (Units=GPa)
#
#
# Indices 1 2 3 4 5 6 
#
# 1 71.3964 -7.7118 12.7952 0.0000 0.0000 0.0000
# 2 -7.7118 21.8700 3.6981 0.0000 0.0000 0.0000
# 3 12.7952 3.6981 51.6951 0.0000 0.0000 0.0000
# 4 0.0000 0.0000 0.0000 21.7347 0.0000 0.0000
# 5 0.0000 0.0000 0.0000 0.0000 24.9545 0.0000
# 6 0.0000 0.0000 0.0000 0.0000 0.0000 -0.1511
#
#
#
# Elastic Compliance Matrix: (Units=1/GPa)
#
#
# Indices 1 2 3 4 5 6 
#
# 1 0.015436 0.006164 -0.004261 0.000000 0.000000 0.000000
# 2 0.006164 0.048746 -0.005013 0.000000 0.000000 0.000000
# 3 -0.004261 -0.005013 0.020758 0.000000 0.000000 0.000000
# 4 0.000000 0.000000 0.000000 0.046009 0.000000 0.000000
# 5 0.000000 0.000000 0.000000 0.000000 0.040073 0.000000
# 6 0.000000 0.000000 0.000000 0.000000 0.000000 -6.618635
#
#
# Mechanical properties :
#
#
# Convention : Reuss Voigt Hill
#
# Bulk Modulus (GPa) = 12.70358 18.05828 15.38093
# Shear Modulus (GPa) = -0.77940 18.38628 8.80344
#
# Velocity S-wave (km/s) = -0.63945 3.10577 2.14906
# Velocity P-wave (km/s) = 2.47373 4.72597 3.77188
#
# Compressibility (1/GPa) = 0.07871798
#
# Stress axis : x y z
#
# Youngs Moduli (GPa) = 64.78451 20.51455 48.17516
#
# Poissons Ratio (x) = -0.12644 0.20530
# Poissons Ratio (y) = -0.39931 0.24149
# Poissons Ratio (z) = 0.27608 0.10283
#
# Static dielectric constant tensor:
#      x y z
#    x 1.697660 0.000000 0.000000 
#    y 0.000000 1.642100 0.000000 
#    z 0.000000 0.000000 1.642110 
# 
# From -- ./inp_files/1250.got.cif
#   From: 2010.05.17/outbox.cif.g08.bks.cpg/sg57_1_cif.got.tgz:1250.got - 2010.06.03 13:58:18.
