data_PCOD9435397
_publ_section_title
;
Structure prediction by ZEFSAII (Michael W. Deem and Ramdas Pophale) SiO2 
 PCOD9435397
Probable space group: P B C M
;
_chemical_formula_sum "Si O2"
_cell_formula_units_Z 64
_cell_length_a 20.727782
_cell_length_b 20.714614
_cell_length_c 8.142950
_cell_angle_alpha 90.000000
_cell_angle_beta 90.000000
_cell_angle_gamma 90.000000
_cell_volume 3496.322182
_symmetry_space_group_name_H-M "P B C M"
_symmetry_group_IT_number 57
_symmetry_cell_setting 'orthorhombic'
loop_
_space_group_symop_operation_xyz
x,y,z
-x,-y,1/2+z
x,1/2-y,-z
-x,1/2+y,1/2-z
-x,-y,-z
x,y,1/2-z
-x,1/2+y,z
x,1/2-y,1/2+z
loop_
_atom_site_type_symbol
_atom_site_label
_atom_site_fract_x
_atom_site_fract_y
_atom_site_fract_z
Si Si1 0.303453 0.894754 0.054426
Si Si2 0.528255 0.930900 0.448373
Si Si3 0.946177 0.177173 0.446467
Si Si4 0.187959 0.065377 0.950883
Si Si5 0.162241 0.920046 0.946282
Si Si6 0.571299 0.177568 0.551681
Si Si7 0.907209 0.677305 0.946191
Si Si8 0.669180 0.539955 0.551086
O O1 0.297704 0.888932 0.250000
O O2 0.357790 0.845200 0.993873
O O3 0.232175 0.889313 0.980783
O O4 0.328668 0.966528 0.012184
O O5 0.528103 0.928773 0.250000
O O6 0.482022 0.873653 0.508134
O O7 0.602746 0.927220 0.503523
O O8 0.500000 0.000000 0.500000
O O9 0.929609 0.250000 0.500000
O O10 0.944516 0.175869 0.250000
O O11 0.895273 0.124624 0.511530
O O12 0.019434 0.163714 0.500074
O O13 0.186456 0.065113 0.750000
O O14 0.142131 0.122952 0.008584
O O15 0.263031 0.071913 0.999593
O O16 0.164690 0.994206 0.006979
O O17 0.154592 0.924033 0.750000
O O18 0.557039 0.250000 0.500000
O O19 0.571985 0.174255 0.750000
O O20 0.905802 0.675979 0.750000
O O21 0.890603 0.750000 0.000000
O O22 0.669120 0.537283 0.750000
#
# Coordination Sequence:
#
# PCOD9435397 Si02
#       8
#     8   8   8   8   8   8   8   8
#     4  10  19  32  50  74 104 131 165 213 253 297
#     4  10  19  33  55  79 102 133 174 216 257 307
#     4  10  20  34  52  73 100 132 170 212 250 304
#     4   8  16  32  52  75 100 129 167 207 248 299
#     4   9  19  35  53  74 101 134 171 206 249 306
#     4  10  22  36  49  73 107 138 173 214 256 303
#     4  10  19  33  53  73  99 132 168 210 253 304
#     4   9  17  32  55  77  99 132 169 204 252 310
#
# _framework density 18.304948
#
# number of rings (size 3 to 8) (size 9 to 14) (size 15 to 20)
#    0.000    2.500    1.250    2.625    0.000    3.500 
#    0.000    8.125    0.000    0.000    0.000    0.000 
#    0.000    0.000    0.000    0.000    0.000    0.000 
#
# Total GULP energy -356910.025778 kJ/mol
# GULP energy per Si atom -5576.719153 kJ/mol
# Density = 1.826328 g / cm^3
# Si number density = 18.304948 Si / 1000 Ang^3
#
#
#
# Elastic Constant Matrix: (Units=GPa)
#
#
# Indices 1 2 3 4 5 6 
#
# 1 147.3461 112.6810 5.9726 0.0000 0.0000 0.0000
# 2 112.6810 136.0209 5.6021 0.0000 0.0000 0.0000
# 3 5.9726 5.6021 11.6030 0.0000 0.0000 0.0000
# 4 0.0000 0.0000 0.0000 20.1220 0.0000 0.0000
# 5 0.0000 0.0000 0.0000 0.0000 17.9849 0.0000
# 6 0.0000 0.0000 0.0000 0.0000 0.0000 34.7865
#
#
#
# Elastic Compliance Matrix: (Units=1/GPa)
#
#
# Indices 1 2 3 4 5 6 
#
# 1 0.018572 -0.015296 -0.002175 0.000000 0.000000 0.000000
# 2 -0.015296 0.020098 -0.001830 0.000000 0.000000 0.000000
# 3 -0.002175 -0.001830 0.088188 0.000000 0.000000 0.000000
# 4 0.000000 0.000000 0.000000 0.049697 0.000000 0.000000
# 5 0.000000 0.000000 0.000000 0.000000 0.055602 0.000000
# 6 0.000000 0.000000 0.000000 0.000000 0.000000 0.028747
#
#
# Mechanical properties :
#
#
# Convention : Reuss Voigt Hill
#
# Bulk Modulus (GPa) = 11.33064 60.38683 35.85873
# Shear Modulus (GPa) = 15.20103 25.95963 20.58033
#
# Velocity S-wave (km/s) = 2.88485 3.76995 3.35670
# Velocity P-wave (km/s) = 4.15931 7.21187 5.88689
#
# Compressibility (1/GPa) = 0.08825628
#
# Stress axis : x y z
#
# Youngs Moduli (GPa) = 53.84411 49.75531 11.33943
#
# Poissons Ratio (x) = 0.76105 0.02466
# Poissons Ratio (y) = 0.82359 0.02076
# Poissons Ratio (z) = 0.11710 0.09107
#
# Static dielectric constant tensor:
#      x y z
#    x 1.644320 0.000000 0.000000 
#    y 0.000000 1.609790 0.000000 
#    z 0.000000 0.000000 1.641740 
# 
# From -- ./inp_files/8478.got.cif
#   From: 2010.05.17/outbox.cif.g08.bks.cpg/sg57_5_cif.got.tgz:8478.got - 2010.06.03 13:58:18.
