data_PCOD9435917
_publ_section_title
;
Structure prediction by ZEFSAII (Michael W. Deem and Ramdas Pophale) SiO2 
 PCOD9435917
Probable space group: P B C M
;
_chemical_formula_sum "Si O2"
_cell_formula_units_Z 56
_cell_length_a 13.604904
_cell_length_b 20.758648
_cell_length_c 9.722839
_cell_angle_alpha 90.000000
_cell_angle_beta 90.000000
_cell_angle_gamma 90.000000
_cell_volume 2745.918485
_symmetry_space_group_name_H-M "P B C M"
_symmetry_group_IT_number 57
_symmetry_cell_setting 'orthorhombic'
loop_
_space_group_symop_operation_xyz
x,y,z
-x,-y,1/2+z
x,1/2-y,-z
-x,1/2+y,1/2-z
-x,-y,-z
x,y,1/2-z
-x,1/2+y,z
x,1/2-y,1/2+z
loop_
_atom_site_type_symbol
_atom_site_label
_atom_site_fract_x
_atom_site_fract_y
_atom_site_fract_z
Si Si1 0.726001 0.310635 0.586481
Si Si2 0.581967 0.540318 0.415538
Si Si3 0.645243 0.686445 0.410832
Si Si4 0.710173 0.046991 0.091729
Si Si5 0.045943 0.805043 0.595612
Si Si6 0.091681 0.487686 0.095744
Si Si7 0.151162 0.118202 0.096322
O O1 0.688237 0.250000 0.500000
O O2 0.718154 0.298617 0.750000
O O3 0.677381 0.380088 0.560792
O O4 0.842346 0.318542 0.550402
O O5 0.500000 0.500000 0.500000
O O6 0.571945 0.534548 0.250000
O O7 0.593850 0.617082 0.446833
O O8 0.675406 0.501960 0.475450
O O9 0.621453 0.750000 0.500000
O O10 0.622810 0.698851 0.250000
O O11 0.762693 0.670668 0.420244
O O12 0.678552 0.030387 0.250000
O O13 0.828585 0.044461 0.096877
O O14 0.004463 0.750000 0.500000
O O15 0.055398 0.779930 0.750000
O O16 0.961789 0.858256 0.598271
O O17 0.058208 0.475491 0.250000
O O18 0.151367 0.428142 0.033520
O O19 0.000000 0.500000 0.000000
O O20 0.169587 0.089141 0.250000
#
# Coordination Sequence:
#
# PCOD9435917 Si02
#       7
#     8   8   8   8   8   8   8
#     4   9  18  33  52  78 112 153 201 249 300 353
#     4  11  24  44  69  97 125 159 202 253 311 375
#     4  10  22  39  63  94 128 161 199 252 312 375
#     4  10  21  39  61  86 118 158 202 252 307 367
#     4   9  17  29  47  71 109 156 199 245 294 347
#     4  11  22  34  53  82 119 164 210 255 305 362
#     4  10  19  34  52  78 118 159 202 256 308 361
#
# _framework density 20.393905
#
# number of rings (size 3 to 8) (size 9 to 14) (size 15 to 20)
#    0.000    2.000    1.429    2.143    0.000    5.714 
#    0.000    3.571    0.000    0.000    0.000    0.000 
#    0.000    0.000    0.000    0.000    0.000    0.000 
#
# Total GULP energy -311885.637638 kJ/mol
# GULP energy per Si atom -5569.386386 kJ/mol
# Density = 2.034749 g / cm^3
# Si number density = 20.393905 Si / 1000 Ang^3
#
#
#
# Elastic Constant Matrix: (Units=GPa)
#
#
# Indices 1 2 3 4 5 6 
#
# 1 49.5511 10.7249 25.0497 0.0000 0.0000 0.0000
# 2 10.7249 140.7237 84.7328 0.0000 0.0000 0.0000
# 3 25.0497 84.7328 109.0095 0.0000 0.0000 0.0000
# 4 0.0000 0.0000 0.0000 37.0775 0.0000 0.0000
# 5 0.0000 0.0000 0.0000 0.0000 20.7164 0.0000
# 6 0.0000 0.0000 0.0000 0.0000 0.0000 17.3311
#
#
#
# Elastic Compliance Matrix: (Units=1/GPa)
#
#
# Indices 1 2 3 4 5 6 
#
# 1 0.023379 0.002731 -0.007496 0.000000 0.000000 0.000000
# 2 0.002731 0.013677 -0.011259 0.000000 0.000000 0.000000
# 3 -0.007496 -0.011259 0.019647 0.000000 0.000000 0.000000
# 4 0.000000 0.000000 0.000000 0.026970 0.000000 0.000000
# 5 0.000000 0.000000 0.000000 0.000000 0.048271 0.000000
# 6 0.000000 0.000000 0.000000 0.000000 0.000000 0.057700
#
#
# Mechanical properties :
#
#
# Convention : Reuss Voigt Hill
#
# Bulk Modulus (GPa) = 40.55503 60.03322 50.29412
# Shear Modulus (GPa) = 21.74760 26.94347 24.34554
#
# Velocity S-wave (km/s) = 3.26909 3.63871 3.45884
# Velocity P-wave (km/s) = 5.84622 6.86690 6.37701
#
# Compressibility (1/GPa) = 0.02465785
#
# Stress axis : x y z
#
# Youngs Moduli (GPa) = 42.77306 73.11441 50.89713
#
# Poissons Ratio (x) = -0.19971 0.38150
# Poissons Ratio (y) = -0.11683 0.57305
# Poissons Ratio (z) = 0.32061 0.82319
#
# Static dielectric constant tensor:
#      x y z
#    x 1.846360 0.000000 0.000000 
#    y 0.000000 1.773860 0.000000 
#    z 0.000000 0.000000 1.701510 
# 
# From -- ./inp_files/5221.got.cif
#   From: 2010.05.17/outbox.cif.g08.bks.cpg/sg57_3_cif.got.tgz:5221.got - 2010.06.03 13:58:18.
