data_PCOD9435801
_publ_section_title
;
Structure prediction by ZEFSAII (Michael W. Deem and Ramdas Pophale) SiO2 
 PCOD9435801
Probable space group: P B C M
;
_chemical_formula_sum "Si O2"
_cell_formula_units_Z 56
_cell_length_a 21.496919
_cell_length_b 14.395862
_cell_length_c 9.290970
_cell_angle_alpha 90.000000
_cell_angle_beta 90.000000
_cell_angle_gamma 90.000000
_cell_volume 2875.245634
_symmetry_space_group_name_H-M "P B C M"
_symmetry_group_IT_number 57
_symmetry_cell_setting 'orthorhombic'
loop_
_space_group_symop_operation_xyz
x,y,z
-x,-y,1/2+z
x,1/2-y,-z
-x,1/2+y,1/2-z
-x,-y,-z
x,y,1/2-z
-x,1/2+y,z
x,1/2-y,1/2+z
loop_
_atom_site_type_symbol
_atom_site_label
_atom_site_fract_x
_atom_site_fract_y
_atom_site_fract_z
Si Si1 0.564896 0.975193 0.924656
Si Si2 0.339695 0.346930 0.422934
Si Si3 0.776124 0.337197 0.410828
Si Si4 0.081262 0.449044 0.419071
Si Si5 0.626656 0.334503 0.091040
Si Si6 0.970537 0.151872 0.422197
Si Si7 0.780808 0.526362 0.917857
O O1 0.560235 0.963913 0.750000
O O2 0.608517 0.063890 0.959043
O O3 0.599450 0.890051 0.001109
O O4 0.500000 0.000000 0.000000
O O5 0.326873 0.250000 0.500000
O O6 0.347708 0.338608 0.250000
O O7 0.279896 0.412990 0.449470
O O8 0.800916 0.250000 0.500000
O O9 0.801688 0.336834 0.250000
O O10 0.701073 0.326077 0.402845
O O11 0.784237 0.434649 0.487398
O O12 0.064268 0.437184 0.250000
O O13 0.072717 0.560204 0.450149
O O14 0.153302 0.422692 0.437760
O O15 0.036237 0.387070 0.516486
O O16 0.600530 0.324971 0.250000
O O17 0.601271 0.250000 0.000000
O O18 0.955569 0.250000 0.500000
O O19 0.972083 0.166293 0.250000
O O20 0.777322 0.498149 0.750000
#
# Coordination Sequence:
#
# PCOD9435801 Si02
#       7
#     8   8   8   8   8   8   8
#     4  11  23  41  62  88 119 153 197 244 294 349
#     4  11  24  42  64  88 118 158 200 245 298 354
#     4  10  19  33  54  82 114 149 187 231 285 346
#     4   9  20  38  58  85 119 154 199 248 294 350
#     4   9  19  34  55  81 110 142 180 226 277 336
#     4  10  20  36  59  84 116 157 199 246 297 349
#     4  10  21  38  60  87 120 156 196 244 297 353
#
# _framework density 19.476596000000001
#
# number of rings (size 3 to 8) (size 9 to 14) (size 15 to 20)
#    0.000    2.000    1.429    1.714    0.000    5.143 
#    0.000    4.286    0.000    0.000    0.000    0.000 
#    0.000    0.000    0.000    0.000    0.000    0.000 
#
# Total GULP energy -312393.382969 kJ/mol
# GULP energy per Si atom -5578.453267 kJ/mol
# Density = 1.943227 g / cm^3
# Si number density = 19.476596 Si / 1000 Ang^3
#
#
#
# Elastic Constant Matrix: (Units=GPa)
#
#
# Indices 1 2 3 4 5 6 
#
# 1 79.2461 19.5864 51.8197 0.0000 0.0000 0.0000
# 2 19.5864 86.6703 59.7068 0.0000 0.0000 0.0000
# 3 51.8197 59.7068 86.2622 0.0000 0.0000 0.0000
# 4 0.0000 0.0000 0.0000 40.7872 0.0000 0.0000
# 5 0.0000 0.0000 0.0000 0.0000 14.4491 0.0000
# 6 0.0000 0.0000 0.0000 0.0000 0.0000 3.4726
#
#
#
# Elastic Compliance Matrix: (Units=1/GPa)
#
#
# Indices 1 2 3 4 5 6 
#
# 1 0.023657 0.008494 -0.020090 0.000000 0.000000 0.000000
# 2 0.008494 0.025103 -0.022478 0.000000 0.000000 0.000000
# 3 -0.020090 -0.022478 0.039220 0.000000 0.000000 0.000000
# 4 0.000000 0.000000 0.000000 0.024517 0.000000 0.000000
# 5 0.000000 0.000000 0.000000 0.000000 0.069209 0.000000
# 6 0.000000 0.000000 0.000000 0.000000 0.000000 0.287965
#
#
# Mechanical properties :
#
#
# Convention : Reuss Voigt Hill
#
# Bulk Modulus (GPa) = 50.42582 57.15604 53.79093
# Shear Modulus (GPa) = 9.18391 19.81283 14.49837
#
# Velocity S-wave (km/s) = 2.17384 3.19292 2.73133
# Velocity P-wave (km/s) = 5.67868 6.55764 6.13393
#
# Compressibility (1/GPa) = 0.01983111
#
# Stress axis : x y z
#
# Youngs Moduli (GPa) = 42.27107 39.83509 25.49740
#
# Poissons Ratio (x) = -0.33836 0.51225
# Poissons Ratio (y) = -0.35905 0.57313
# Poissons Ratio (z) = 0.84924 0.89542
#
# Static dielectric constant tensor:
#      x y z
#    x 1.691680 0.000000 0.000000 
#    y 0.000000 1.733150 0.000000 
#    z 0.000000 0.000000 1.676650 
# 
# From -- ./inp_files/8013.got.cif
#   From: 2010.05.17/outbox.cif.g08.bks.cpg/sg57_5_cif.got.tgz:8013.got - 2010.06.03 13:58:18.
