data_PCOD9435511
_publ_section_title
;
Structure prediction by ZEFSAII (Michael W. Deem and Ramdas Pophale) SiO2 
 PCOD9435511
Probable space group: P B C M
;
_chemical_formula_sum "Si O2"
_cell_formula_units_Z 48
_cell_length_a 15.283899
_cell_length_b 21.191604
_cell_length_c 8.573815
_cell_angle_alpha 90.000000
_cell_angle_beta 90.000000
_cell_angle_gamma 90.000000
_cell_volume 2776.975814
_symmetry_space_group_name_H-M "P B C M"
_symmetry_group_IT_number 57
_symmetry_cell_setting 'orthorhombic'
loop_
_space_group_symop_operation_xyz
x,y,z
-x,-y,1/2+z
x,1/2-y,-z
-x,1/2+y,1/2-z
-x,-y,-z
x,y,1/2-z
-x,1/2+y,z
x,1/2-y,1/2+z
loop_
_atom_site_type_symbol
_atom_site_label
_atom_site_fract_x
_atom_site_fract_y
_atom_site_fract_z
Si Si1 0.109609 0.683700 0.061819
Si Si2 0.738984 0.012514 0.068532
Si Si3 0.926476 0.453085 0.064634
Si Si4 0.495364 0.685046 0.438789
Si Si5 0.303874 0.841677 0.932438
Si Si6 0.570580 0.550387 0.436902
O O1 0.109836 0.683394 0.250000
O O2 0.210802 0.680032 0.001196
O O3 0.072178 0.750000 0.000000
O O4 0.067435 0.617945 0.005416
O O5 0.754092 0.997493 0.250000
O O6 0.697254 0.082594 0.061625
O O7 0.831821 0.018936 0.983817
O O8 0.667198 0.966910 0.995369
O O9 0.932498 0.448806 0.250000
O O10 0.000000 0.500000 0.000000
O O11 0.535117 0.750000 0.500000
O O12 0.493004 0.685785 0.250000
O O13 0.395193 0.681040 0.501091
O O14 0.543204 0.620823 0.486378
O O15 0.303089 0.823172 0.750000
O O16 0.500000 0.500000 0.500000
O O17 0.567926 0.547362 0.250000
#
# Coordination Sequence:
#
# PCOD9435511 Si02
#       6
#     8   8   8   8   8   8
#     4  10  19  32  52  79 113 149 183 223 273 330
#     4  10  19  35  56  80 109 140 179 228 276 325
#     4  11  22  38  59  85 113 145 184 227 282 337
#     4  10  20  33  47  70 104 143 184 227 270 317
#     4   8  15  29  47  71 105 140 173 215 263 316
#     4  11  21  34  53  77 107 144 186 228 270 323
#
# _framework density 17.284991000000002
#
# number of rings (size 3 to 8) (size 9 to 14) (size 15 to 20)
#    0.000    2.000    1.667    4.500    0.000    1.333 
#    0.000    0.833    0.000    1.000    0.000    4.667 
#    0.000    0.000    0.000    0.000    0.000    0.000 
#
# Total GULP energy -267714.628250 kJ/mol
# GULP energy per Si atom -5577.388089 kJ/mol
# Density = 1.724565 g / cm^3
# Si number density = 17.284991 Si / 1000 Ang^3
#
#
#
# Elastic Constant Matrix: (Units=GPa)
#
#
# Indices 1 2 3 4 5 6 
#
# 1 74.8049 64.6021 32.8936 0.0000 0.0000 0.0000
# 2 64.6021 153.2616 50.3652 0.0000 0.0000 0.0000
# 3 32.8936 50.3652 79.1633 0.0000 0.0000 0.0000
# 4 0.0000 0.0000 0.0000 28.0727 0.0000 0.0000
# 5 0.0000 0.0000 0.0000 0.0000 23.7874 0.0000
# 6 0.0000 0.0000 0.0000 0.0000 0.0000 16.8530
#
#
#
# Elastic Compliance Matrix: (Units=1/GPa)
#
#
# Indices 1 2 3 4 5 6 
#
# 1 0.022026 -0.007936 -0.004103 0.000000 0.000000 0.000000
# 2 -0.007936 0.011109 -0.003770 0.000000 0.000000 0.000000
# 3 -0.004103 -0.003770 0.016736 0.000000 0.000000 0.000000
# 4 0.000000 0.000000 0.000000 0.035622 0.000000 0.000000
# 5 0.000000 0.000000 0.000000 0.000000 0.042039 0.000000
# 6 0.000000 0.000000 0.000000 0.000000 0.000000 0.059336
#
#
# Mechanical properties :
#
#
# Convention : Reuss Voigt Hill
#
# Bulk Modulus (GPa) = 54.78845 66.99463 60.89154
# Shear Modulus (GPa) = 22.26477 24.36722 23.31599
#
# Velocity S-wave (km/s) = 3.59290 3.75871 3.67674
# Velocity P-wave (km/s) = 6.99842 7.59475 7.30267
#
# Compressibility (1/GPa) = 0.01825202
#
# Stress axis : x y z
#
# Youngs Moduli (GPa) = 45.40122 90.01833 59.75248
#
# Poissons Ratio (x) = 0.71437 0.24517
# Poissons Ratio (y) = 0.36030 0.22528
# Poissons Ratio (z) = 0.18629 0.33939
#
# Static dielectric constant tensor:
#      x y z
#    x 1.583050 0.000000 0.000000 
#    y 0.000000 1.602760 0.000000 
#    z 0.000000 0.000000 1.592730 
# 
# From -- ./inp_files/4905.got.cif
#   From: 2010.05.17/outbox.cif.g08.bks.cpg/sg57_3_cif.got.tgz:4905.got - 2010.06.03 13:58:18.
