data_PCOD9435512
_publ_section_title
;
Structure prediction by ZEFSAII (Michael W. Deem and Ramdas Pophale) SiO2 
 PCOD9435512
Probable space group: P B C M
;
_chemical_formula_sum "Si O2"
_cell_formula_units_Z 48
_cell_length_a 29.294752
_cell_length_b 9.871555
_cell_length_c 9.675808
_cell_angle_alpha 90.000000
_cell_angle_beta 90.000000
_cell_angle_gamma 90.000000
_cell_volume 2798.096172
_symmetry_space_group_name_H-M "P B C M"
_symmetry_group_IT_number 57
_symmetry_cell_setting 'orthorhombic'
loop_
_space_group_symop_operation_xyz
x,y,z
-x,-y,1/2+z
x,1/2-y,-z
-x,1/2+y,1/2-z
-x,-y,-z
x,y,1/2-z
-x,1/2+y,z
x,1/2-y,1/2+z
loop_
_atom_site_type_symbol
_atom_site_label
_atom_site_fract_x
_atom_site_fract_y
_atom_site_fract_z
Si Si1 0.604634 0.750000 0.000000
Si Si2 0.330895 0.008077 0.087369
Si Si3 0.032541 0.104347 0.080995
Si Si4 0.550143 0.346753 0.750000
Si Si5 0.233993 0.390922 0.915954
Si Si6 0.134718 0.113461 0.087894
Si Si7 0.540223 0.666004 0.750000
Si Si8 0.386833 0.750000 0.000000
O O1 0.637907 0.876890 0.979623
O O2 0.570709 0.713516 0.877396
O O3 0.332153 0.034527 0.250000
O O4 0.278085 0.021515 0.043394
O O5 0.354307 0.865854 0.059120
O O6 0.024082 0.116139 0.250000
O O7 0.084921 0.050713 0.064004
O O8 0.029509 0.250000 0.000000
O O9 0.000000 0.000000 0.000000
O O10 0.534529 0.503382 0.750000
O O11 0.507496 0.244793 0.750000
O O12 0.581027 0.314827 0.616842
O O13 0.236646 0.364951 0.750000
O O14 0.183733 0.454933 0.942356
O O15 0.236712 0.250000 0.000000
O O16 0.135438 0.148571 0.250000
O O17 0.135119 0.250000 0.000000
#
# Coordination Sequence:
#
# PCOD9435512 Si02
#       8
#     4   8   8   4   8   8   4   4
#     4  12  23  40  62  88 116 142 179 222 270 324
#     4  11  22  38  62  88 113 146 183 224 270 326
#     4  10  19  32  52  80 110 151 195 242 292 344
#     4  12  28  44  64  86 114 146 184 222 275 326
#     4   9  17  31  53  84 113 143 178 226 276 329
#     4   8  15  28  48  75 110 144 182 229 281 330
#     4  12  28  42  62  88 114 148 180 226 271 328
#     4  12  25  44  62  84 114 148 183 224 272 322
#
# _framework density 17.154520999999999
#
# number of rings (size 3 to 8) (size 9 to 14) (size 15 to 20)
#    0.000    1.667    4.167    1.000    2.333    2.000 
#    1.500    0.000    1.833    0.000    0.000    0.000 
#    0.000    0.000    0.000    0.000    0.000    0.000 
#
# Total GULP energy -267297.914519 kJ/mol
# GULP energy per Si atom -5568.706552 kJ/mol
# Density = 1.711548 g / cm^3
# Si number density = 17.154521 Si / 1000 Ang^3
#
#
#
# Elastic Constant Matrix: (Units=GPa)
#
#
# Indices 1 2 3 4 5 6 
#
# 1 164.0156 27.7035 42.2360 0.0000 0.0000 0.0000
# 2 27.7035 27.9356 4.2335 0.0000 0.0000 0.0000
# 3 42.2360 4.2335 66.0046 0.0000 0.0000 0.0000
# 4 0.0000 0.0000 0.0000 20.9308 0.0000 0.0000
# 5 0.0000 0.0000 0.0000 0.0000 12.9208 0.0000
# 6 0.0000 0.0000 0.0000 0.0000 0.0000 29.3949
#
#
#
# Elastic Compliance Matrix: (Units=1/GPa)
#
#
# Indices 1 2 3 4 5 6 
#
# 1 0.008741 -0.007897 -0.005087 0.000000 0.000000 0.000000
# 2 -0.007897 0.043283 0.002277 0.000000 0.000000 0.000000
# 3 -0.005087 0.002277 0.018259 0.000000 0.000000 0.000000
# 4 0.000000 0.000000 0.000000 0.047776 0.000000 0.000000
# 5 0.000000 0.000000 0.000000 0.000000 0.077394 0.000000
# 6 0.000000 0.000000 0.000000 0.000000 0.000000 0.034020
#
#
# Mechanical properties :
#
#
# Convention : Reuss Voigt Hill
#
# Bulk Modulus (GPa) = 20.46246 45.14464 32.80355
# Shear Modulus (GPa) = 18.71419 24.90149 21.80784
#
# Velocity S-wave (km/s) = 3.30649 3.81412 3.56934
# Velocity P-wave (km/s) = 5.15086 6.76537 6.01256
#
# Compressibility (1/GPa) = 0.04886998
#
# Stress axis : x y z
#
# Youngs Moduli (GPa) = 114.40648 23.10364 54.76654
#
# Poissons Ratio (x) = 0.18246 0.27858
# Poissons Ratio (y) = 0.90350 -0.12472
# Poissons Ratio (z) = 0.58194 -0.05261
#
# Static dielectric constant tensor:
#      x y z
#    x 1.630890 0.000000 0.000000 
#    y 0.000000 1.546510 0.000000 
#    z 0.000000 0.000000 1.602170 
# 
# From -- ./inp_files/10217.got.cif
#   From: 2010.05.17/outbox.cif.g08.bks.cpg/sg57_6_cif.got.tgz:10217.got - 2010.06.03 13:58:18.
