data_PCOD9435150
_publ_section_title
;
Structure prediction by ZEFSAII (Michael W. Deem and Ramdas Pophale) SiO2 
 PCOD9435150
Probable space group: P B C M
;
_chemical_formula_sum "Si O2"
_cell_formula_units_Z 48
_cell_length_a 24.357215
_cell_length_b 14.002340
_cell_length_c 8.752169
_cell_angle_alpha 90.000000
_cell_angle_beta 90.000000
_cell_angle_gamma 90.000000
_cell_volume 2984.997306
_symmetry_space_group_name_H-M "P B C M"
_symmetry_group_IT_number 57
_symmetry_cell_setting 'orthorhombic'
loop_
_space_group_symop_operation_xyz
x,y,z
-x,-y,1/2+z
x,1/2-y,-z
-x,1/2+y,1/2-z
-x,-y,-z
x,y,1/2-z
-x,1/2+y,z
x,1/2-y,1/2+z
loop_
_atom_site_type_symbol
_atom_site_label
_atom_site_fract_x
_atom_site_fract_y
_atom_site_fract_z
Si Si1 0.694056 0.144250 0.566181
Si Si2 0.973493 0.855129 0.432707
Si Si3 0.913902 0.034725 0.932565
Si Si4 0.523636 0.852129 0.567535
Si Si5 0.811350 0.143803 0.067430
Si Si6 0.418789 0.546483 0.933828
O O1 0.683310 0.250000 0.500000
O O2 0.698721 0.149729 0.750000
O O3 0.752029 0.112281 0.496248
O O4 0.642644 0.077460 0.525836
O O5 0.966732 0.750000 0.500000
O O6 0.967166 0.854091 0.250000
O O7 0.034670 0.895121 0.467513
O O8 0.931831 0.931442 0.505395
O O9 0.907020 0.031896 0.750000
O O10 0.859697 0.075509 0.010836
O O11 0.538908 0.750000 0.500000
O O12 0.522544 0.846326 0.750000
O O13 0.463663 0.883803 0.508209
O O14 0.564224 0.938804 0.522260
O O15 0.810033 0.149287 0.250000
O O16 0.821101 0.250000 0.000000
O O17 0.424262 0.554217 0.750000
#
# Coordination Sequence:
#
# PCOD9435150 Si02
#       6
#     8   8   8   8   8   8
#     4  10  19  32  49  70  96 125 159 197 241 288
#     4  10  20  33  51  75 102 132 165 201 243 290
#     4  10  20  34  52  74 101 132 165 202 244 288
#     4  10  19  31  48  71  98 127 159 195 238 286
#     4  11  21  33  50  73 100 129 163 200 243 292
#     4   9  19  33  49  70  96 127 161 198 239 285
#
# _framework density 16.080417000000001
#
# number of rings (size 3 to 8) (size 9 to 14) (size 15 to 20)
#    0.000    2.000    0.000    5.500    0.000    6.667 
#    0.000    0.000    0.000    1.000    0.000    4.667 
#    0.000    0.000    0.000    0.000    0.000    0.000 
#
# Total GULP energy -267964.030796 kJ/mol
# GULP energy per Si atom -5582.583975 kJ/mol
# Density = 1.604382 g / cm^3
# Si number density = 16.080417 Si / 1000 Ang^3
#
#
#
# Elastic Constant Matrix: (Units=GPa)
#
#
# Indices 1 2 3 4 5 6 
#
# 1 143.0869 79.9342 63.5572 0.0000 0.0000 0.0000
# 2 79.9342 113.3681 49.9541 0.0000 0.0000 0.0000
# 3 63.5572 49.9541 74.7540 0.0000 0.0000 0.0000
# 4 0.0000 0.0000 0.0000 29.7044 0.0000 0.0000
# 5 0.0000 0.0000 0.0000 0.0000 23.6970 0.0000
# 6 0.0000 0.0000 0.0000 0.0000 0.0000 20.5207
#
#
#
# Elastic Compliance Matrix: (Units=1/GPa)
#
#
# Indices 1 2 3 4 5 6 
#
# 1 0.013985 -0.006550 -0.007513 0.000000 0.000000 0.000000
# 2 -0.006550 0.015570 -0.004836 0.000000 0.000000 0.000000
# 3 -0.007513 -0.004836 0.022997 0.000000 0.000000 0.000000
# 4 0.000000 0.000000 0.000000 0.033665 0.000000 0.000000
# 5 0.000000 0.000000 0.000000 0.000000 0.042199 0.000000
# 6 0.000000 0.000000 0.000000 0.000000 0.000000 0.048731
#
#
# Mechanical properties :
#
#
# Convention : Reuss Voigt Hill
#
# Bulk Modulus (GPa) = 67.77993 79.78890 73.78441
# Shear Modulus (GPa) = 22.74139 23.96868 23.35504
#
# Velocity S-wave (km/s) = 3.76470 3.86495 3.81516
# Velocity P-wave (km/s) = 7.81917 8.34527 8.08650
#
# Compressibility (1/GPa) = 0.01475363
#
# Stress axis : x y z
#
# Youngs Moduli (GPa) = 71.50361 64.22633 43.48475
#
# Poissons Ratio (x) = 0.42069 0.32672
# Poissons Ratio (y) = 0.46836 0.21027
# Poissons Ratio (z) = 0.53724 0.31057
#
# Static dielectric constant tensor:
#      x y z
#    x 1.525410 0.000000 0.000000 
#    y 0.000000 1.519760 0.000000 
#    z 0.000000 0.000000 1.536050 
# 
# From -- ./inp_files/9115.got.cif
#   From: 2010.05.17/outbox.cif.g08.bks.cpg/sg57_5_cif.got.tgz:9115.got - 2010.06.03 13:58:18.
