data_PCOD9435615
_publ_section_title
;
Structure prediction by ZEFSAII (Michael W. Deem and Ramdas Pophale) SiO2 
 PCOD9435615
Probable space group: P B C M
;
_chemical_formula_sum "Si O2"
_cell_formula_units_Z 64
_cell_length_a 15.174090
_cell_length_b 30.356787
_cell_length_c 9.004265
_cell_angle_alpha 90.000000
_cell_angle_beta 90.000000
_cell_angle_gamma 90.000000
_cell_volume 4147.694178
_symmetry_space_group_name_H-M "P B C M"
_symmetry_group_IT_number 57
_symmetry_cell_setting 'orthorhombic'
loop_
_space_group_symop_operation_xyz
x,y,z
-x,-y,1/2+z
x,1/2-y,-z
-x,1/2+y,1/2-z
-x,-y,-z
x,y,1/2-z
-x,1/2+y,z
x,1/2-y,1/2+z
loop_
_atom_site_type_symbol
_atom_site_label
_atom_site_fract_x
_atom_site_fract_y
_atom_site_fract_z
Si Si1 0.181845 0.458919 0.572480
Si Si2 0.214272 0.795994 0.072845
Si Si3 0.994834 0.203932 0.572518
Si Si4 0.045248 0.107045 0.929324
Si Si5 0.289451 0.617524 0.427889
Si Si6 0.372049 0.467326 0.073743
Si Si7 0.861483 0.058763 0.928171
Si Si8 0.456803 0.936867 0.926596
O O1 0.184078 0.454756 0.750000
O O2 0.123307 0.420510 0.502107
O O3 0.280515 0.458808 0.508237
O O4 0.139520 0.506860 0.536525
O O5 0.224827 0.795111 0.250000
O O6 0.109672 0.801803 0.041100
O O7 0.241411 0.750000 0.000000
O O8 0.265711 0.836370 0.001792
O O9 0.023788 0.250000 0.500000
O O10 0.004221 0.207729 0.750000
O O11 0.040716 0.158393 0.524549
O O12 0.052986 0.105786 0.750000
O O13 0.952693 0.083019 0.967358
O O14 0.281665 0.619728 0.250000
O O15 0.219010 0.582344 0.489478
O O16 0.387723 0.601180 0.464547
O O17 0.360445 0.462721 0.250000
O O18 0.405359 0.517225 0.043002
O O19 0.452115 0.437374 0.014925
O O20 0.849125 0.063651 0.750000
O O21 0.475126 0.935924 0.750000
#
# Coordination Sequence:
#
# PCOD9435615 Si02
#       8
#     8   8   8   8   8   8   8   8
#     4  11  22  33  49  72  99 134 173 213 253 292
#     4  10  19  33  50  72 101 132 168 206 251 298
#     4   9  18  32  50  70  95 127 162 206 251 292
#     4  10  20  35  50  68  98 135 171 207 250 296
#     4  11  20  31  50  75 102 133 168 205 250 299
#     4  10  19  33  51  71  96 130 166 205 250 292
#     4  10  20  34  48  67 100 138 173 208 244 290
#     4   9  19  33  49  72  99 127 164 206 246 292
#
# _framework density 15.430261
#
# number of rings (size 3 to 8) (size 9 to 14) (size 15 to 20)
#    0.000    2.000    2.500    1.875    0.000    3.500 
#    0.000    0.000    0.000    0.000    0.000    0.875 
#    0.000    2.000    0.000    0.000    0.000    0.000 
#
# Total GULP energy -357116.886284 kJ/mol
# GULP energy per Si atom -5579.951348 kJ/mol
# Density = 1.539514 g / cm^3
# Si number density = 15.430261 Si / 1000 Ang^3
#
#
#
# Elastic Constant Matrix: (Units=GPa)
#
#
# Indices 1 2 3 4 5 6 
#
# 1 77.6692 58.5606 36.2389 0.0000 0.0000 0.0000
# 2 58.5606 137.5683 49.6079 0.0000 0.0000 0.0000
# 3 36.2389 49.6079 36.1993 0.0000 0.0000 0.0000
# 4 0.0000 0.0000 0.0000 26.6453 0.0000 0.0000
# 5 0.0000 0.0000 0.0000 0.0000 25.7987 0.0000
# 6 0.0000 0.0000 0.0000 0.0000 0.0000 21.3642
#
#
#
# Elastic Compliance Matrix: (Units=1/GPa)
#
#
# Indices 1 2 3 4 5 6 
#
# 1 0.024843 -0.003177 -0.020517 0.000000 0.000000 0.000000
# 2 -0.003177 0.014777 -0.017070 0.000000 0.000000 0.000000
# 3 -0.020517 -0.017070 0.071557 0.000000 0.000000 0.000000
# 4 0.000000 0.000000 0.000000 0.037530 0.000000 0.000000
# 5 0.000000 0.000000 0.000000 0.000000 0.038762 0.000000
# 6 0.000000 0.000000 0.000000 0.000000 0.000000 0.046807
#
#
# Mechanical properties :
#
#
# Convention : Reuss Voigt Hill
#
# Bulk Modulus (GPa) = 33.72709 60.02797 46.87753
# Shear Modulus (GPa) = 15.35215 21.89693 18.62454
#
# Velocity S-wave (km/s) = 3.15769 3.77117 3.47798
# Velocity P-wave (km/s) = 5.93295 7.61246 6.82456
#
# Compressibility (1/GPa) = 0.02964976
#
# Stress axis : x y z
#
# Youngs Moduli (GPa) = 40.25277 67.67209 13.97482
#
# Poissons Ratio (x) = 0.21499 0.28672
# Poissons Ratio (y) = 0.12788 0.23856
# Poissons Ratio (z) = 0.82585 1.15519
#
# Static dielectric constant tensor:
#      x y z
#    x 1.487570 0.000000 0.000000 
#    y 0.000000 1.512620 0.000000 
#    z 0.000000 0.000000 1.511160 
# 
# From -- ./inp_files/5973.got.cif
#   From: 2010.05.17/outbox.cif.g08.bks.cpg/sg57_3_cif.got.tgz:5973.got - 2010.06.03 13:58:18.
