data_PCOD9435881
_publ_section_title
;
Structure prediction by ZEFSAII (Michael W. Deem and Ramdas Pophale) SiO2 
 PCOD9435881
Probable space group: P B C M
;
_chemical_formula_sum "Si O2"
_cell_formula_units_Z 48
_cell_length_a 9.859076
_cell_length_b 15.679919
_cell_length_c 13.264111
_cell_angle_alpha 90.000000
_cell_angle_beta 90.000000
_cell_angle_gamma 90.000000
_cell_volume 2050.492461
_symmetry_space_group_name_H-M "P B C M"
_symmetry_group_IT_number 57
_symmetry_cell_setting 'orthorhombic'
loop_
_space_group_symop_operation_xyz
x,y,z
-x,-y,1/2+z
x,1/2-y,-z
-x,1/2+y,1/2-z
-x,-y,-z
x,y,1/2-z
-x,1/2+y,z
x,1/2-y,1/2+z
loop_
_atom_site_type_symbol
_atom_site_label
_atom_site_fract_x
_atom_site_fract_y
_atom_site_fract_z
Si Si1 0.159373 0.161712 0.370888
Si Si2 0.258629 0.009976 0.509510
Si Si3 0.135949 0.652910 0.437519
Si Si4 0.293405 0.704266 0.864213
Si Si5 0.448809 0.290767 0.869931
Si Si6 0.511938 0.992216 0.868187
O O1 0.161552 0.141187 0.250000
O O2 0.288715 0.222898 0.389321
O O3 0.008916 0.187641 0.402759
O O4 0.188667 0.082805 0.445110
O O5 0.150988 0.948710 0.562879
O O6 0.371496 0.031312 0.593356
O O7 0.359447 0.967111 0.425326
O O8 0.186974 0.672193 0.551814
O O9 0.246384 0.695635 0.364766
O O10 0.282787 0.670911 0.750000
O O11 0.448087 0.716379 0.902598
O O12 0.465032 0.288102 0.750000
O O13 0.480117 0.390408 0.895493
O O14 0.526567 0.000200 0.750000
#
# Coordination Sequence:
#
# PCOD9435881 Si02
#       6
#     8   8   8   8   8   8
#     4  10  21  37  60  88 121 158 198 246 301 363
#     4  10  19  33  56  88 120 155 200 244 301 362
#     4  11  22  36  57  88 120 160 197 243 302 358
#     4  10  21  38  59  82 111 155 206 249 290 345
#     4   8  15  33  59  83 107 149 200 238 285 346
#     4   9  17  31  56  86 118 152 193 248 295 346
#
# _framework density 23.409011
#
# number of rings (size 3 to 8) (size 9 to 14) (size 15 to 20)
#    0.000    2.333    1.667    2.500    0.000    2.000 
#    0.000    4.167    0.000    0.000    0.000    0.000 
#    0.000    0.000    0.000    0.000    0.000    0.000 
#
# Total GULP energy -267462.468098 kJ/mol
# GULP energy per Si atom -5572.134752 kJ/mol
# Density = 2.335573 g / cm^3
# Si number density = 23.409011 Si / 1000 Ang^3
#
#
#
# Elastic Constant Matrix: (Units=GPa)
#
#
# Indices 1 2 3 4 5 6 
#
# 1 148.5636 13.3743 -4.7676 0.0000 0.0000 0.0000
# 2 13.3743 26.7049 -2.4199 0.0000 0.0000 0.0000
# 3 -4.7676 -2.4199 97.1245 0.0000 0.0000 0.0000
# 4 0.0000 0.0000 0.0000 34.6186 0.0000 0.0000
# 5 0.0000 0.0000 0.0000 0.0000 33.9559 0.0000
# 6 0.0000 0.0000 0.0000 0.0000 0.0000 -23.7025
#
#
#
# Elastic Compliance Matrix: (Units=1/GPa)
#
#
# Indices 1 2 3 4 5 6 
#
# 1 0.007055 -0.003510 0.000259 0.000000 0.000000 0.000000
# 2 -0.003510 0.039277 0.000806 0.000000 0.000000 0.000000
# 3 0.000259 0.000806 0.010329 0.000000 0.000000 0.000000
# 4 0.000000 0.000000 0.000000 0.028886 0.000000 0.000000
# 5 0.000000 0.000000 0.000000 0.000000 0.029450 0.000000
# 6 0.000000 0.000000 0.000000 0.000000 0.000000 -0.042190
#
#
# Mechanical properties :
#
#
# Convention : Reuss Voigt Hill
#
# Bulk Modulus (GPa) = 19.31551 31.64072 25.47812
# Shear Modulus (GPa) = 52.65653 26.72148 39.68900
#
# Velocity S-wave (km/s) = 4.74794 3.38228 4.12206
# Velocity P-wave (km/s) = 6.19084 5.36646 5.79333
#
# Compressibility (1/GPa) = 0.05177187
#
# Stress axis : x y z
#
# Youngs Moduli (GPa) = 141.73507 25.46006 96.81605
#
# Poissons Ratio (x) = 0.08937 -0.02506
# Poissons Ratio (y) = 0.49749 -0.07807
# Poissons Ratio (z) = -0.03669 -0.02053
#
# Static dielectric constant tensor:
#      x y z
#    x 1.907160 0.000000 0.000000 
#    y 0.000000 2.053830 0.000000 
#    z 0.000000 0.000000 1.894170 
# 
# From -- ./inp_files/16529.got.cif
#   From: 2010.05.17/outbox.cif.g08.bks.cpg/sg57_9_cif.got.tgz:16529.got - 2010.06.03 13:58:18.
