data_PCOD9435411
_publ_section_title
;
Structure prediction by ZEFSAII (Michael W. Deem and Ramdas Pophale) SiO2 
 PCOD9435411
Probable space group: P B C M
;
_chemical_formula_sum "Si O2"
_cell_formula_units_Z 48
_cell_length_a 15.603189
_cell_length_b 21.379251
_cell_length_c 8.276184
_cell_angle_alpha 90.000000
_cell_angle_beta 90.000000
_cell_angle_gamma 90.000000
_cell_volume 2760.806652
_symmetry_space_group_name_H-M "P B C M"
_symmetry_group_IT_number 57
_symmetry_cell_setting 'orthorhombic'
loop_
_space_group_symop_operation_xyz
x,y,z
-x,-y,1/2+z
x,1/2-y,-z
-x,1/2+y,1/2-z
-x,-y,-z
x,y,1/2-z
-x,1/2+y,z
x,1/2-y,1/2+z
loop_
_atom_site_type_symbol
_atom_site_label
_atom_site_fract_x
_atom_site_fract_y
_atom_site_fract_z
Si Si1 0.422447 0.043541 0.054197
Si Si2 0.933392 0.053400 0.553084
Si Si3 0.384203 0.316712 0.555134
Si Si4 0.006915 0.183886 0.939343
Si Si5 0.765719 0.511279 0.057331
Si Si6 0.192401 0.344397 0.941540
O O1 0.419956 0.044374 0.250000
O O2 0.426105 0.117007 0.002926
O O3 0.331466 0.014992 0.994578
O O4 0.500000 0.000000 0.000000
O O5 0.932907 0.053263 0.750000
O O6 0.964692 0.120852 0.491851
O O7 0.837710 0.035890 0.494802
O O8 0.000000 0.000000 0.500000
O O9 0.421117 0.250000 0.500000
O O10 0.383276 0.317375 0.750000
O O11 0.284602 0.320158 0.499599
O O12 0.993372 0.182019 0.750000
O O13 0.972867 0.250000 0.000000
O O14 0.108433 0.180735 0.973539
O O15 0.758307 0.500282 0.250000
O O16 0.803776 0.580845 0.037304
O O17 0.185526 0.331215 0.750000
#
# Coordination Sequence:
#
# PCOD9435411 Si02
#       6
#     8   8   8   8   8   8
#     4   9  18  33  52  74  98 126 161 199 245 296
#     4  10  19  32  51  72  94 126 167 202 236 285
#     4   9  18  30  46  70  98 128 160 192 236 295
#     4  11  22  31  43  67  97 130 167 203 240 283
#     4   8  15  30  51  71  95 127 158 193 244 294
#     4   9  16  29  48  68  95 129 158 191 237 287
#
# _framework density 17.386223000000001
#
# number of rings (size 3 to 8) (size 9 to 14) (size 15 to 20)
#    0.000    2.667    1.667    3.000    0.000    3.333 
#    0.000    3.333    0.000    1.000    0.000    4.667 
#    0.000    0.000    0.000    0.000    0.000    0.000 
#
# Total GULP energy -267397.681577 kJ/mol
# GULP energy per Si atom -5570.785033 kJ/mol
# Density = 1.734665 g / cm^3
# Si number density = 17.386223 Si / 1000 Ang^3
#
#
#
# Elastic Constant Matrix: (Units=GPa)
#
#
# Indices 1 2 3 4 5 6 
#
# 1 91.8983 77.7159 8.9069 0.0000 0.0000 0.0000
# 2 77.7159 141.1071 20.5922 0.0000 0.0000 0.0000
# 3 8.9069 20.5922 8.2158 0.0000 0.0000 0.0000
# 4 0.0000 0.0000 0.0000 23.7338 0.0000 0.0000
# 5 0.0000 0.0000 0.0000 0.0000 16.3998 0.0000
# 6 0.0000 0.0000 0.0000 0.0000 0.0000 -22.3831
#
#
#
# Elastic Compliance Matrix: (Units=1/GPa)
#
#
# Indices 1 2 3 4 5 6 
#
# 1 0.020851 -0.012906 0.009742 0.000000 0.000000 0.000000
# 2 -0.012906 0.019162 -0.034036 0.000000 0.000000 0.000000
# 3 0.009742 -0.034036 0.196464 0.000000 0.000000 0.000000
# 4 0.000000 0.000000 0.000000 0.042134 0.000000 0.000000
# 5 0.000000 0.000000 0.000000 0.000000 0.060976 0.000000
# 6 0.000000 0.000000 0.000000 0.000000 0.000000 -0.044677
#
#
# Mechanical properties :
#
#
# Convention : Reuss Voigt Hill
#
# Bulk Modulus (GPa) = 6.16991 50.62791 28.39891
# Shear Modulus (GPa) = 11.81095 12.48386 12.14740
#
# Velocity S-wave (km/s) = 2.60922 2.68252 2.64612
# Velocity P-wave (km/s) = 3.55441 6.22714 5.07006
#
# Compressibility (1/GPa) = 0.16207704
#
# Stress axis : x y z
#
# Youngs Moduli (GPa) = 47.95830 52.18729 5.09000
#
# Poissons Ratio (x) = 0.67352 -0.04959
# Poissons Ratio (y) = 0.61894 0.17324
# Poissons Ratio (z) = -0.46720 1.77625
#
# Static dielectric constant tensor:
#      x y z
#    x 1.588560 0.000000 0.000000 
#    y 0.000000 1.624000 0.000000 
#    z 0.000000 0.000000 1.614140 
# 
# From -- ./inp_files/4844.got.cif
#   From: 2010.05.17/outbox.cif.g08.bks.cpg/sg57_3_cif.got.tgz:4844.got - 2010.06.03 13:58:18.
