data_PCOD9435839
_publ_section_title
;
Structure prediction by ZEFSAII (Michael W. Deem and Ramdas Pophale) SiO2 
 PCOD9435839
Probable space group: P B C M
;
_chemical_formula_sum "Si O2"
_cell_formula_units_Z 64
_cell_length_a 16.342502
_cell_length_b 25.718243
_cell_length_c 8.538306
_cell_angle_alpha 90.000000
_cell_angle_beta 90.000000
_cell_angle_gamma 90.000000
_cell_volume 3588.653749
_symmetry_space_group_name_H-M "P B C M"
_symmetry_group_IT_number 57
_symmetry_cell_setting 'orthorhombic'
loop_
_space_group_symop_operation_xyz
x,y,z
-x,-y,1/2+z
x,1/2-y,-z
-x,1/2+y,1/2-z
-x,-y,-z
x,y,1/2-z
-x,1/2+y,z
x,1/2-y,1/2+z
loop_
_atom_site_type_symbol
_atom_site_label
_atom_site_fract_x
_atom_site_fract_y
_atom_site_fract_z
Si Si1 0.647049 0.594118 0.939145
Si Si2 0.105045 0.695714 0.435229
Si Si3 0.011778 0.443638 0.071058
Si Si4 0.475660 0.556580 0.937856
Si Si5 0.844183 0.412916 0.934776
Si Si6 0.073251 0.342298 0.562319
Si Si7 0.251465 0.306714 0.561276
Si Si8 0.303120 0.520610 0.560884
O O1 0.652598 0.593388 0.750000
O O2 0.550158 0.594080 0.986736
O O3 0.694828 0.644387 0.002453
O O4 0.681746 0.538645 0.002680
O O5 0.133691 0.750000 0.500000
O O6 0.094840 0.700461 0.250000
O O7 0.168483 0.648603 0.459751
O O8 0.012512 0.682520 0.496957
O O9 0.036956 0.446778 0.250000
O O10 0.921133 0.421912 0.046295
O O11 0.000000 0.500000 0.000000
O O12 0.070477 0.403115 0.983751
O O13 0.477082 0.556225 0.750000
O O14 0.380431 0.557947 0.982988
O O15 0.500000 0.500000 0.000000
O O16 0.866556 0.419672 0.750000
O O17 0.774563 0.452805 0.981596
O O18 0.072388 0.339141 0.750000
O O19 0.157198 0.316333 0.506564
O O20 0.278295 0.250000 0.500000
O O21 0.252744 0.306534 0.750000
O O22 0.295235 0.519518 0.750000
#
# Coordination Sequence:
#
# PCOD9435839 Si02
#       8
#     8   8   8   8   8   8   8   8
#     4  10  20  35  55  79 109 144 178 217 270 326
#     4   9  18  33  53  73  97 130 170 216 260 309
#     4  11  22  35  52  73 103 141 179 219 265 319
#     4   8  16  31  52  78 106 135 168 207 253 309
#     4  10  21  36  51  75 107 139 174 214 264 317
#     4   9  20  37  53  73 102 136 177 222 268 317
#     4  11  23  38  56  79 109 143 185 232 274 323
#     4  10  19  33  55  83 111 139 176 221 269 322
#
# _framework density 17.833987
#
# number of rings (size 3 to 8) (size 9 to 14) (size 15 to 20)
#    0.000    2.250    0.000    3.750    1.750    4.500 
#    0.000    0.000    0.000    0.750    0.000    1.750 
#    0.000    0.000    0.000    0.000    0.000    0.000 
#
# Total GULP energy -356368.683306 kJ/mol
# GULP energy per Si atom -5568.260677 kJ/mol
# Density = 1.779340 g / cm^3
# Si number density = 17.833987 Si / 1000 Ang^3
#
#
#
# Elastic Constant Matrix: (Units=GPa)
#
#
# Indices 1 2 3 4 5 6 
#
# 1 49.7108 31.8979 9.4081 0.0000 0.0000 0.0000
# 2 31.8979 118.1796 19.7966 0.0000 0.0000 0.0000
# 3 9.4081 19.7966 25.3435 0.0000 0.0000 0.0000
# 4 0.0000 0.0000 0.0000 30.9331 0.0000 0.0000
# 5 0.0000 0.0000 0.0000 0.0000 16.0333 0.0000
# 6 0.0000 0.0000 0.0000 0.0000 0.0000 19.2406
#
#
#
# Elastic Compliance Matrix: (Units=1/GPa)
#
#
# Indices 1 2 3 4 5 6 
#
# 1 0.024782 -0.005923 -0.004573 0.000000 0.000000 0.000000
# 2 -0.005923 0.011151 -0.006512 0.000000 0.000000 0.000000
# 3 -0.004573 -0.006512 0.046242 0.000000 0.000000 0.000000
# 4 0.000000 0.000000 0.000000 0.032328 0.000000 0.000000
# 5 0.000000 0.000000 0.000000 0.000000 0.062370 0.000000
# 6 0.000000 0.000000 0.000000 0.000000 0.000000 0.051973
#
#
# Mechanical properties :
#
#
# Convention : Reuss Voigt Hill
#
# Bulk Modulus (GPa) = 20.76423 35.04881 27.90652
# Shear Modulus (GPa) = 17.92652 22.05016 19.98834
#
# Velocity S-wave (km/s) = 3.17391 3.52008 3.35147
# Velocity P-wave (km/s) = 5.00999 6.01804 5.53700
#
# Compressibility (1/GPa) = 0.04815974
#
# Stress axis : x y z
#
# Youngs Moduli (GPa) = 40.35113 89.67668 21.62535
#
# Poissons Ratio (x) = 0.53115 0.09890
# Poissons Ratio (y) = 0.23900 0.14082
# Poissons Ratio (z) = 0.18453 0.58395
#
# Static dielectric constant tensor:
#      x y z
#    x 1.634510 0.000000 0.000000 
#    y 0.000000 1.636690 0.000000 
#    z 0.000000 0.000000 1.620290 
# 
# From -- ./inp_files/5663.got.cif
#   From: 2010.05.17/outbox.cif.g08.bks.cpg/sg57_3_cif.got.tgz:5663.got - 2010.06.03 13:58:18.
