data_PCOD9435510
_publ_section_title
;
Structure prediction by ZEFSAII (Michael W. Deem and Ramdas Pophale) SiO2 
 PCOD9435510
Probable space group: P B C M
;
_chemical_formula_sum "Si O2"
_cell_formula_units_Z 64
_cell_length_a 17.066581
_cell_length_b 22.462091
_cell_length_c 8.512541
_cell_angle_alpha 90.000000
_cell_angle_beta 90.000000
_cell_angle_gamma 90.000000
_cell_volume 3263.291918
_symmetry_space_group_name_H-M "P B C M"
_symmetry_group_IT_number 57
_symmetry_cell_setting 'orthorhombic'
loop_
_space_group_symop_operation_xyz
x,y,z
-x,-y,1/2+z
x,1/2-y,-z
-x,1/2+y,1/2-z
-x,-y,-z
x,y,1/2-z
-x,1/2+y,z
x,1/2-y,1/2+z
loop_
_atom_site_type_symbol
_atom_site_label
_atom_site_fract_x
_atom_site_fract_y
_atom_site_fract_z
Si Si1 0.022317 0.416146 0.435057
Si Si2 0.854208 0.809960 0.432856
Si Si3 0.277544 0.382083 0.563796
Si Si4 0.698998 0.183881 0.938705
Si Si5 0.838157 0.514845 0.437924
Si Si6 0.577520 0.938978 0.063817
Si Si7 0.404471 0.573224 0.063456
Si Si8 0.151479 0.884374 0.440904
O O1 0.012697 0.429970 0.250000
O O2 0.082218 0.361428 0.452828
O O3 0.073401 0.469203 0.510980
O O4 0.938479 0.392216 0.495572
O O5 0.889165 0.750000 0.500000
O O6 0.835670 0.805134 0.250000
O O7 0.775201 0.825290 0.526384
O O8 0.289852 0.387802 0.750000
O O9 0.222221 0.436122 0.503117
O O10 0.358579 0.389400 0.475489
O O11 0.698509 0.185921 0.750000
O O12 0.787563 0.165759 0.994007
O O13 0.677846 0.250000 0.000000
O O14 0.643167 0.128360 0.988705
O O15 0.837331 0.517855 0.250000
O O16 0.813402 0.448866 0.484664
O O17 0.562490 0.943003 0.250000
O O18 0.611244 0.004173 0.011293
O O19 0.496882 0.923376 0.977281
O O20 0.391860 0.576344 0.250000
O O21 0.148091 0.879934 0.250000
#
# Coordination Sequence:
#
# PCOD9435510 Si02
#       8
#     8   8   8   8   8   8   8   8
#     4   9  18  32  50  74 104 138 177 224 276 324
#     4  10  20  34  51  71  99 137 179 222 268 318
#     4  10  19  32  52  79 110 142 175 213 261 317
#     4  11  23  40  59  79 109 149 192 235 279 327
#     4   9  17  30  50  77 108 141 176 216 268 325
#     4  10  20  35  59  90 118 142 174 217 265 320
#     4  10  21  38  60  86 115 146 180 219 267 321
#     4   9  18  33  53  76 104 140 180 223 271 322
#
# _framework density 19.612098
#
# number of rings (size 3 to 8) (size 9 to 14) (size 15 to 20)
#    0.000    2.250    0.000    3.000    0.000    4.000 
#    0.000    3.125    0.000    0.000    0.000    0.000 
#    0.000    0.000    0.000    0.000    0.000    0.000 
#
# Total GULP energy -356697.687617 kJ/mol
# GULP energy per Si atom -5573.401369 kJ/mol
# Density = 1.956746 g / cm^3
# Si number density = 19.612098 Si / 1000 Ang^3
#
#
#
# Elastic Constant Matrix: (Units=GPa)
#
#
# Indices 1 2 3 4 5 6 
#
# 1 71.5552 18.5021 8.8734 0.0000 0.0000 0.0000
# 2 18.5021 67.7316 22.1202 0.0000 0.0000 0.0000
# 3 8.8734 22.1202 17.3728 0.0000 0.0000 0.0000
# 4 0.0000 0.0000 0.0000 25.0986 0.0000 0.0000
# 5 0.0000 0.0000 0.0000 0.0000 23.5459 0.0000
# 6 0.0000 0.0000 0.0000 0.0000 0.0000 36.4422
#
#
#
# Elastic Compliance Matrix: (Units=1/GPa)
#
#
# Indices 1 2 3 4 5 6 
#
# 1 0.015218 -0.002771 -0.004245 0.000000 0.000000 0.000000
# 2 -0.002771 0.025778 -0.031407 0.000000 0.000000 0.000000
# 3 -0.004245 -0.031407 0.099719 0.000000 0.000000 0.000000
# 4 0.000000 0.000000 0.000000 0.039843 0.000000 0.000000
# 5 0.000000 0.000000 0.000000 0.000000 0.042470 0.000000
# 6 0.000000 0.000000 0.000000 0.000000 0.000000 0.027441
#
#
# Mechanical properties :
#
#
# Convention : Reuss Voigt Hill
#
# Bulk Modulus (GPa) = 15.65693 28.40568 22.03130
# Shear Modulus (GPa) = 14.34286 24.16161 19.25223
#
# Velocity S-wave (km/s) = 2.70724 3.51376 3.13653
# Velocity P-wave (km/s) = 4.21578 5.56572 4.93711
#
# Compressibility (1/GPa) = 0.06386947
#
# Stress axis : x y z
#
# Youngs Moduli (GPa) = 65.71135 38.79232 10.02814
#
# Poissons Ratio (x) = 0.10748 0.04257
# Poissons Ratio (y) = 0.18207 0.31496
# Poissons Ratio (z) = 0.27894 1.21837
#
# Static dielectric constant tensor:
#      x y z
#    x 1.704230 0.000000 0.000000 
#    y 0.000000 1.720980 0.000000 
#    z 0.000000 0.000000 1.673570 
# 
# From -- ./inp_files/5534.got.cif
#   From: 2010.05.17/outbox.cif.g08.bks.cpg/sg57_3_cif.got.tgz:5534.got - 2010.06.03 13:58:18.
