data_PCOD9435332
_publ_section_title
;
Structure prediction by ZEFSAII (Michael W. Deem and Ramdas Pophale) SiO2 
 PCOD9435332
Probable space group: P B C M
;
_chemical_formula_sum "Si O2"
_cell_formula_units_Z 64
_cell_length_a 22.059784
_cell_length_b 20.011270
_cell_length_c 8.998992
_cell_angle_alpha 90.000000
_cell_angle_beta 90.000000
_cell_angle_gamma 90.000000
_cell_volume 3972.553668
_symmetry_space_group_name_H-M "P B C M"
_symmetry_group_IT_number 57
_symmetry_cell_setting 'orthorhombic'
loop_
_space_group_symop_operation_xyz
x,y,z
-x,-y,1/2+z
x,1/2-y,-z
-x,1/2+y,1/2-z
-x,-y,-z
x,y,1/2-z
-x,1/2+y,z
x,1/2-y,1/2+z
loop_
_atom_site_type_symbol
_atom_site_label
_atom_site_fract_x
_atom_site_fract_y
_atom_site_fract_z
Si Si1 0.557756 0.036841 0.429352
Si Si2 0.014565 0.393361 0.079179
Si Si3 0.622089 0.819860 0.572587
Si Si4 0.124862 0.320957 0.928349
Si Si5 0.195889 0.457733 0.572456
Si Si6 0.478291 0.818880 0.573262
Si Si7 0.089085 0.533276 0.420517
Si Si8 0.675439 0.549080 0.571784
O O1 0.551077 0.034396 0.250000
O O2 0.555540 0.114242 0.476123
O O3 0.500000 0.000000 0.500000
O O4 0.620496 0.000874 0.468464
O O5 0.005760 0.372192 0.250000
O O6 0.049212 0.464987 0.082386
O O7 0.059470 0.343513 0.993115
O O8 0.951879 0.409799 0.996243
O O9 0.640678 0.750000 0.500000
O O10 0.630708 0.819327 0.750000
O O11 0.550090 0.828519 0.541742
O O12 0.657363 0.879894 0.497196
O O13 0.122129 0.315092 0.750000
O O14 0.169918 0.383102 0.964576
O O15 0.142603 0.250000 0.000000
O O16 0.200847 0.461087 0.750000
O O17 0.147570 0.511666 0.513684
O O18 0.259996 0.469788 0.495497
O O19 0.458318 0.750000 0.500000
O O20 0.472251 0.812476 0.750000
O O21 0.103811 0.549931 0.250000
O O22 0.678780 0.552893 0.750000
#
# Coordination Sequence:
#
# PCOD9435332 Si02
#       8
#     8   8   8   8   8   8   8   8
#     4  10  20  34  52  75 101 129 163 209 262 313
#     4   9  16  27  46  71  97 125 157 196 240 285
#     4  10  19  32  49  68  95 128 164 205 248 300
#     4  10  20  33  49  70  98 134 172 209 245 286
#     4  10  21  35  49  67  96 133 172 210 251 300
#     4   9  18  32  50  73  98 124 156 197 247 304
#     4   9  16  28  47  70  95 122 157 200 244 286
#     4  11  22  34  50  72  99 132 172 213 260 314
#
# _framework density 16.110544000000001
#
# number of rings (size 3 to 8) (size 9 to 14) (size 15 to 20)
#    0.000    2.250    1.250    2.250    0.000    6.500 
#    0.000    1.250    0.000    0.000    0.000    0.875 
#    0.000    2.000    0.000    0.000    0.000    0.000 
#
# Total GULP energy -356942.351757 kJ/mol
# GULP energy per Si atom -5577.224246 kJ/mol
# Density = 1.607388 g / cm^3
# Si number density = 16.110544 Si / 1000 Ang^3
#
#
#
# Elastic Constant Matrix: (Units=GPa)
#
#
# Indices 1 2 3 4 5 6 
#
# 1 103.5811 43.6550 45.0403 0.0000 0.0000 0.0000
# 2 43.6550 51.9104 18.6538 0.0000 0.0000 0.0000
# 3 45.0403 18.6538 58.7347 0.0000 0.0000 0.0000
# 4 0.0000 0.0000 0.0000 24.4979 0.0000 0.0000
# 5 0.0000 0.0000 0.0000 0.0000 25.0826 0.0000
# 6 0.0000 0.0000 0.0000 0.0000 0.0000 14.5907
#
#
#
# Elastic Compliance Matrix: (Units=1/GPa)
#
#
# Indices 1 2 3 4 5 6 
#
# 1 0.019877 -0.012686 -0.011213 0.000000 0.000000 0.000000
# 2 -0.012686 0.029843 0.000251 0.000000 0.000000 0.000000
# 3 -0.011213 0.000251 0.025545 0.000000 0.000000 0.000000
# 4 0.000000 0.000000 0.000000 0.040820 0.000000 0.000000
# 5 0.000000 0.000000 0.000000 0.000000 0.039868 0.000000
# 6 0.000000 0.000000 0.000000 0.000000 0.000000 0.068537
#
#
# Mechanical properties :
#
#
# Convention : Reuss Voigt Hill
#
# Bulk Modulus (GPa) = 35.75718 47.65827 41.70772
# Shear Modulus (GPa) = 17.78661 19.95939 18.87300
#
# Velocity S-wave (km/s) = 3.32631 3.52362 3.42639
# Velocity P-wave (km/s) = 6.08239 6.79712 6.44966
#
# Compressibility (1/GPa) = 0.02796641
#
# Stress axis : x y z
#
# Youngs Moduli (GPa) = 50.30927 33.50887 39.14649
#
# Poissons Ratio (x) = 0.42511 0.43897
# Poissons Ratio (y) = 0.63825 -0.00981
# Poissons Ratio (z) = 0.56414 -0.00840
#
# Static dielectric constant tensor:
#      x y z
#    x 1.538570 0.000000 0.000000 
#    y 0.000000 1.532990 0.000000 
#    z 0.000000 0.000000 1.549620 
# 
# From -- ./inp_files/8463.got.cif
#   From: 2010.05.17/outbox.cif.g08.bks.cpg/sg57_5_cif.got.tgz:8463.got - 2010.06.03 13:58:18.
