data_PCOD9435264
_publ_section_title
;
Structure prediction by ZEFSAII (Michael W. Deem and Ramdas Pophale) SiO2 
 PCOD9435264
Probable space group: P B C M
;
_chemical_formula_sum "Si O2"
_cell_formula_units_Z 64
_cell_length_a 33.608542
_cell_length_b 5.170891
_cell_length_c 14.167898
_cell_angle_alpha 90.000000
_cell_angle_beta 90.000000
_cell_angle_gamma 90.000000
_cell_volume 2462.183843
_symmetry_space_group_name_H-M "P B C M"
_symmetry_group_IT_number 57
_symmetry_cell_setting 'orthorhombic'
loop_
_space_group_symop_operation_xyz
x,y,z
-x,-y,1/2+z
x,1/2-y,-z
-x,1/2+y,1/2-z
-x,-y,-z
x,y,1/2-z
-x,1/2+y,z
x,1/2-y,1/2+z
loop_
_atom_site_type_symbol
_atom_site_label
_atom_site_fract_x
_atom_site_fract_y
_atom_site_fract_z
Si Si1 0.267394 0.084439 0.865569
Si Si2 0.483861 0.826151 0.393253
Si Si3 0.354900 0.589055 0.365630
Si Si4 0.777253 0.084109 0.635792
Si Si5 0.399418 0.088941 0.135882
Si Si6 0.861432 0.818765 0.606755
Si Si7 0.020578 0.420024 0.363769
Si Si8 0.105491 0.681895 0.391696
O O1 0.267380 0.083564 0.750000
O O2 0.311139 0.997660 0.895466
O O3 0.255616 0.373044 0.894071
O O4 0.180840 0.460219 0.892602
O O5 0.494689 0.750000 0.500000
O O6 0.486116 0.538362 0.350520
O O7 0.441600 0.967039 0.391209
O O8 0.354895 0.588949 0.250000
O O9 0.366783 0.877111 0.394517
O O10 0.387287 0.374801 0.396659
O O11 0.777712 0.091299 0.750000
O O12 0.765032 0.370178 0.603547
O O13 0.863850 0.530627 0.648723
O O14 0.399352 0.096868 0.250000
O O15 0.873095 0.750000 0.500000
O O16 0.891025 0.030929 0.650373
O O17 0.017736 0.405104 0.250000
O O18 0.063009 0.546184 0.384825
O O19 0.011789 0.130928 0.398596
O O20 0.114684 0.750000 0.500000
#
# Coordination Sequence:
#
# PCOD9435264 Si02
#       8
#     8   8   8   8   8   8   8   8
#     4   9  17  30  49  75 105 132 164 207 248 296
#     4  10  21  36  52  71  98 134 171 207 254 307
#     4   9  17  30  49  75 105 132 161 203 254 301
#     4  10  19  31  51  77 101 132 173 209 246 297
#     4  10  19  31  51  77 101 130 168 208 253 302
#     4  10  21  36  52  74 104 136 170 212 259 300
#     4  10  21  36  54  78 106 134 165 206 258 307
#     4  10  21  36  54  75 100 134 174 210 250 303
#
# _framework density 25.993182000000001
#
# number of rings (size 3 to 8) (size 9 to 14) (size 15 to 20)
#    0.000    2.250    0.000    3.000    0.000    5.000 
#    0.000    0.000    0.000    3.000    0.000    0.000 
#    0.000    0.000    0.000    0.000    0.000    0.000 
#
# Total GULP energy -358011.016561 kJ/mol
# GULP energy per Si atom -5593.922134 kJ/mol
# Density = 2.593402 g / cm^3
# Si number density = 25.993182 Si / 1000 Ang^3
#
#
#
# Elastic Constant Matrix: (Units=GPa)
#
#
# Indices 1 2 3 4 5 6 
#
# 1 92.7957 19.6369 -18.4898 0.0000 0.0000 0.0000
# 2 19.6369 171.9487 13.6249 0.0000 0.0000 0.0000
# 3 -18.4898 13.6249 90.8450 0.0000 0.0000 0.0000
# 4 0.0000 0.0000 0.0000-2521.6936 0.0000 0.0000
# 5 0.0000 0.0000 0.0000 0.0000 27.9990 0.0000
# 6 0.0000 0.0000 0.0000 0.0000 0.0000 49.6720
#
#
#
# Elastic Compliance Matrix: (Units=1/GPa)
#
#
# Indices 1 2 3 4 5 6 
#
# 1 0.011618 -0.001532 0.002594 0.000000 0.000000 0.000000
# 2 -0.001532 0.006088 -0.001225 0.000000 0.000000 0.000000
# 3 0.002594 -0.001225 0.011720 0.000000 0.000000 0.000000
# 4 0.000000 0.000000 0.000000 -0.000397 0.000000 0.000000
# 5 0.000000 0.000000 0.000000 0.000000 0.035716 0.000000
# 6 0.000000 0.000000 0.000000 0.000000 0.000000 0.020132
#
#
# Mechanical properties :
#
#
# Convention : Reuss Voigt Hill
#
# Bulk Modulus (GPa) = 34.36540 42.79261 38.57901
# Shear Modulus (GPa) = 52.68633 -466.08336 -206.69851
#
# Velocity S-wave (km/s) = 4.50703 -13.40519 -8.92709
# Velocity P-wave (km/s) = 6.35091 14.93653 9.55945
#
# Compressibility (1/GPa) = 0.02909903
#
# Stress axis : x y z
#
# Youngs Moduli (GPa) = 86.07667 164.26456 85.32782
#
# Poissons Ratio (x) = 0.25171 -0.22137
# Poissons Ratio (y) = 0.13190 0.10452
# Poissons Ratio (z) = -0.22331 0.20121
#
# Static dielectric constant tensor:
#      x y z
#    x 2.007850 0.000000 0.000000 
#    y 0.000000 2.099780 0.000000 
#    z 0.000000 0.000000 2.097270 
# 
# From -- ./inp_files/23215.got.cif
#   From: 2010.05.17/outbox.cif.g08.bks.cpg/sg57_12_cif.got.tgz:23215.got - 2010.06.03 13:58:18.
