data_PCOD9435137
_publ_section_title
;
Structure prediction by ZEFSAII (Michael W. Deem and Ramdas Pophale) SiO2 
 PCOD9435137
Probable space group: P B C M
;
_chemical_formula_sum "Si O2"
_cell_formula_units_Z 40
_cell_length_a 13.460547
_cell_length_b 20.356126
_cell_length_c 7.482019
_cell_angle_alpha 90.000000
_cell_angle_beta 90.000000
_cell_angle_gamma 90.000000
_cell_volume 2050.107554
_symmetry_space_group_name_H-M "P B C M"
_symmetry_group_IT_number 57
_symmetry_cell_setting 'orthorhombic'
loop_
_space_group_symop_operation_xyz
x,y,z
-x,-y,1/2+z
x,1/2-y,-z
-x,1/2+y,1/2-z
-x,-y,-z
x,y,1/2-z
-x,1/2+y,z
x,1/2-y,1/2+z
loop_
_atom_site_type_symbol
_atom_site_label
_atom_site_fract_x
_atom_site_fract_y
_atom_site_fract_z
Si Si1 0.233447 0.547425 0.033773
Si Si2 0.547027 0.071235 0.035806
Si Si3 0.977860 0.423178 0.536140
Si Si4 0.188649 0.394336 0.962313
Si Si5 0.615178 0.674003 0.035682
O O1 0.233422 0.550540 0.250000
O O2 0.339864 0.572323 0.967716
O O3 0.134742 0.585807 0.969472
O O4 0.220724 0.470434 0.986944
O O5 0.552963 0.078808 0.250000
O O6 0.472378 0.126894 0.966734
O O7 0.500000 0.000000 0.000000
O O8 0.975685 0.413531 0.750000
O O9 0.000000 0.500000 0.500000
O O10 0.076206 0.386669 0.465359
O O11 0.182217 0.382547 0.750000
O O12 0.277377 0.349625 0.034759
O O13 0.618117 0.664712 0.250000
O O14 0.597268 0.750000 0.000000
#
# Coordination Sequence:
#
# PCOD9435137 Si02
#       5
#     8   8   8   8   8
#     4   9  16  26  44  70  94 117 147 185 230 276
#     4  10  19  31  48  70  95 122 156 196 236 280
#     4   8  14  24  40  64  91 116 141 174 220 269
#     4   9  16  28  45  65  92 120 148 185 228 274
#     4  10  21  34  47  66  92 125 161 195 235 282
#
# _framework density 19.511171999999998
#
# number of rings (size 3 to 8) (size 9 to 14) (size 15 to 20)
#    0.000    2.800    2.000    0.000    0.000    1.600 
#    0.000    0.000    0.000    1.200    0.000    0.000 
#    0.000    0.000    0.000    0.000    0.000    0.000 
#
# Total GULP energy -222855.478181 kJ/mol
# GULP energy per Si atom -5571.386955 kJ/mol
# Density = 1.946676 g / cm^3
# Si number density = 19.511172 Si / 1000 Ang^3
#
#
#
# Elastic Constant Matrix: (Units=GPa)
#
#
# Indices 1 2 3 4 5 6 
#
# 1 244.3070 79.4843 5.5457 0.0000 0.0000 0.0000
# 2 79.4843 88.5289 -8.1152 0.0000 0.0000 0.0000
# 3 5.5457 -8.1152 55.5093 0.0000 0.0000 0.0000
# 4 0.0000 0.0000 0.0000 16.1420 0.0000 0.0000
# 5 0.0000 0.0000 0.0000 0.0000 4.2329 0.0000
# 6 0.0000 0.0000 0.0000 0.0000 0.0000 21.3864
#
#
#
# Elastic Compliance Matrix: (Units=1/GPa)
#
#
# Indices 1 2 3 4 5 6 
#
# 1 0.005885 -0.005410 -0.001379 0.000000 0.000000 0.000000
# 2 -0.005410 0.016422 0.002941 0.000000 0.000000 0.000000
# 3 -0.001379 0.002941 0.018583 0.000000 0.000000 0.000000
# 4 0.000000 0.000000 0.000000 0.061950 0.000000 0.000000
# 5 0.000000 0.000000 0.000000 0.000000 0.236245 0.000000
# 6 0.000000 0.000000 0.000000 0.000000 0.000000 0.046759
#
#
# Mechanical properties :
#
#
# Convention : Reuss Voigt Hill
#
# Bulk Modulus (GPa) = 30.12468 60.24163 45.18315
# Shear Modulus (GPa) = 12.35779 29.11428 20.73604
#
# Velocity S-wave (km/s) = 2.51941 3.86707 3.26356
# Velocity P-wave (km/s) = 4.89249 7.13313 6.11629
#
# Compressibility (1/GPa) = 0.03319537
#
# Stress axis : x y z
#
# Youngs Moduli (GPa) = 169.93676 60.89242 53.81330
#
# Poissons Ratio (x) = 0.32941 0.07420
# Poissons Ratio (y) = 0.91931 -0.15828
# Poissons Ratio (z) = 0.23430 -0.17910
#
# Static dielectric constant tensor:
#      x y z
#    x 1.774360 0.000000 0.000000 
#    y 0.000000 1.615990 0.000000 
#    z 0.000000 0.000000 1.714670 
# 
# From -- ./inp_files/2914.got.cif
#   From: 2010.05.17/outbox.cif.g08.bks.cpg/sg57_2_cif.got.tgz:2914.got - 2010.06.03 13:58:18.
