data_PCOD9435189
_publ_section_title
;
Structure prediction by ZEFSAII (Michael W. Deem and Ramdas Pophale) SiO2 
 PCOD9435189
Probable space group: P B C M
;
_chemical_formula_sum "Si O2"
_cell_formula_units_Z 48
_cell_length_a 24.331387
_cell_length_b 14.019804
_cell_length_c 8.745712
_cell_angle_alpha 90.000000
_cell_angle_beta 90.000000
_cell_angle_gamma 90.000000
_cell_volume 2983.348444
_symmetry_space_group_name_H-M "P B C M"
_symmetry_group_IT_number 57
_symmetry_cell_setting 'orthorhombic'
loop_
_space_group_symop_operation_xyz
x,y,z
-x,-y,1/2+z
x,1/2-y,-z
-x,1/2+y,1/2-z
-x,-y,-z
x,y,1/2-z
-x,1/2+y,z
x,1/2-y,1/2+z
loop_
_atom_site_type_symbol
_atom_site_label
_atom_site_fract_x
_atom_site_fract_y
_atom_site_fract_z
Si Si1 0.415906 0.031259 0.933973
Si Si2 0.084430 0.045143 0.932760
Si Si3 0.307238 0.144577 0.565854
Si Si4 0.021698 0.647611 0.432855
Si Si5 0.474975 0.645700 0.932566
Si Si6 0.189141 0.355870 0.932739
O O1 0.417647 0.021833 0.750000
O O2 0.357286 0.075264 0.976353
O O3 0.465263 0.103284 0.978944
O O4 0.430644 0.930301 0.007681
O O5 0.088793 0.055847 0.750000
O O6 0.064910 0.937103 0.966812
O O7 0.140919 0.075272 0.011124
O O8 0.035852 0.113256 0.994386
O O9 0.318636 0.250000 0.500000
O O10 0.303552 0.150010 0.750000
O O11 0.248583 0.114315 0.497698
O O12 0.037286 0.750000 0.500000
O O13 0.015481 0.653662 0.250000
O O14 0.473369 0.649761 0.750000
O O15 0.467084 0.750000 0.000000
O O16 0.190818 0.350436 0.750000
O O17 0.178259 0.250000 0.000000
#
# Coordination Sequence:
#
# PCOD9435189 Si02
#       6
#     8   8   8   8   8   8
#     4   9  19  33  49  71  98 129 162 198 240 286
#     4  10  20  34  51  72  99 130 163 198 239 284
#     4  10  19  32  50  72  99 128 160 198 240 286
#     4  10  20  33  51  74 100 129 160 197 239 285
#     4  10  19  31  49  72  99 129 161 198 240 287
#     4  11  21  33  50  72  99 129 162 199 240 286
#
# _framework density 16.089305
#
# number of rings (size 3 to 8) (size 9 to 14) (size 15 to 20)
#    0.000    2.000    0.000    5.500    0.000    4.000 
#    0.000    0.000    0.000    1.000    0.000    4.667 
#    0.000    0.000    0.000    0.000    0.000    0.000 
#
# Total GULP energy -267971.731265 kJ/mol
# GULP energy per Si atom -5582.744401 kJ/mol
# Density = 1.605268 g / cm^3
# Si number density = 16.089305 Si / 1000 Ang^3
#
#
#
# Elastic Constant Matrix: (Units=GPa)
#
#
# Indices 1 2 3 4 5 6 
#
# 1 135.2490 85.1997 61.8573 0.0000 0.0000 0.0000
# 2 85.1997 124.0561 56.5640 0.0000 0.0000 0.0000
# 3 61.8573 56.5640 80.1447 0.0000 0.0000 0.0000
# 4 0.0000 0.0000 0.0000 28.5285 0.0000 0.0000
# 5 0.0000 0.0000 0.0000 0.0000 27.0287 0.0000
# 6 0.0000 0.0000 0.0000 0.0000 0.0000 19.7735
#
#
#
# Elastic Compliance Matrix: (Units=1/GPa)
#
#
# Indices 1 2 3 4 5 6 
#
# 1 0.014927 -0.007370 -0.006319 0.000000 0.000000 0.000000
# 2 -0.007370 0.015525 -0.005269 0.000000 0.000000 0.000000
# 3 -0.006319 -0.005269 0.021073 0.000000 0.000000 0.000000
# 4 0.000000 0.000000 0.000000 0.035053 0.000000 0.000000
# 5 0.000000 0.000000 0.000000 0.000000 0.036998 0.000000
# 6 0.000000 0.000000 0.000000 0.000000 0.000000 0.050573
#
#
# Mechanical properties :
#
#
# Convention : Reuss Voigt Hill
#
# Bulk Modulus (GPa) = 73.48106 82.96578 78.22342
# Shear Modulus (GPa) = 23.08412 24.12142 23.60277
#
# Velocity S-wave (km/s) = 3.79192 3.87618 3.83428
# Velocity P-wave (km/s) = 8.05862 8.46822 8.26596
#
# Compressibility (1/GPa) = 0.01360895
#
# Stress axis : x y z
#
# Youngs Moduli (GPa) = 66.99425 64.41299 47.45419
#
# Poissons Ratio (x) = 0.47474 0.29986
# Poissons Ratio (y) = 0.49376 0.25001
# Poissons Ratio (z) = 0.42334 0.33936
#
# Static dielectric constant tensor:
#      x y z
#    x 1.526710 0.000000 0.000000 
#    y 0.000000 1.517450 0.000000 
#    z 0.000000 0.000000 1.536240 
# 
# From -- ./inp_files/9129.got.cif
#   From: 2010.05.17/outbox.cif.g08.bks.cpg/sg57_5_cif.got.tgz:9129.got - 2010.06.03 13:58:18.
