data_PCOD9435507
_publ_section_title
;
Structure prediction by ZEFSAII (Michael W. Deem and Ramdas Pophale) SiO2 
 PCOD9435507
Probable space group: P B C M
;
_chemical_formula_sum "Si O2"
_cell_formula_units_Z 64
_cell_length_a 8.692401
_cell_length_b 25.434025
_cell_length_c 15.206416
_cell_angle_alpha 90.000000
_cell_angle_beta 90.000000
_cell_angle_gamma 90.000000
_cell_volume 3361.876181
_symmetry_space_group_name_H-M "P B C M"
_symmetry_group_IT_number 57
_symmetry_cell_setting 'orthorhombic'
loop_
_space_group_symop_operation_xyz
x,y,z
-x,-y,1/2+z
x,1/2-y,-z
-x,1/2+y,1/2-z
-x,-y,-z
x,y,1/2-z
-x,1/2+y,z
x,1/2-y,1/2+z
loop_
_atom_site_type_symbol
_atom_site_label
_atom_site_fract_x
_atom_site_fract_y
_atom_site_fract_z
Si Si1 0.808566 0.676830 0.347002
Si Si2 0.212384 0.441239 0.843489
Si Si3 0.345277 0.028260 0.972567
Si Si4 0.860659 0.105982 0.645319
Si Si5 0.077055 0.496133 0.150912
Si Si6 0.498090 0.385843 0.146844
Si Si7 0.695322 0.787249 0.352521
Si Si8 0.986871 0.691993 0.978258
O O1 0.879206 0.687449 0.250000
O O2 0.739511 0.619184 0.341891
O O3 0.687480 0.724027 0.362631
O O4 0.928865 0.673802 0.426270
O O5 0.263187 0.466476 0.750000
O O6 0.030160 0.452439 0.847227
O O7 0.271442 0.462107 0.933824
O O8 0.218539 0.998932 0.914229
O O9 0.391143 0.079604 0.916307
O O10 0.500000 0.000000 0.000000
O O11 0.883149 0.119263 0.750000
O O12 0.677030 0.100112 0.632607
O O13 0.963565 0.053472 0.628832
O O14 0.913181 0.151303 0.577791
O O15 0.133660 0.486400 0.250000
O O16 0.465476 0.396792 0.250000
O O17 0.450825 0.324707 0.130954
O O18 0.738266 0.797133 0.250000
O O19 0.833823 0.801516 0.417955
O O20 0.054032 0.750000 0.000000
#
# Coordination Sequence:
#
# PCOD9435507 Si02
#       8
#     8   8   8   8   8   8   8   8
#     4   9  18  32  53  79 106 139 179 221 269 331
#     4  10  21  37  56  80 111 148 189 231 276 338
#     4  12  24  36  55  83 115 151 189 236 290 344
#     4  10  20  36  59  85 113 146 191 247 296 339
#     4  10  21  38  61  84 109 148 197 246 293 340
#     4  10  21  37  58  85 114 144 187 244 298 343
#     4   9  17  32  56  83 108 137 177 227 283 338
#     4  10  19  32  52  79 108 143 184 230 279 339
#
# _framework density 19.036989999999999
#
# number of rings (size 3 to 8) (size 9 to 14) (size 15 to 20)
#    0.000    2.000    0.000    4.125    0.000    5.500 
#    0.000    3.125    0.000    0.750    0.000    7.000 
#    0.000    0.000    0.000    0.000    0.000    0.000 
#
# Total GULP energy -356432.903212 kJ/mol
# GULP energy per Si atom -5569.264113 kJ/mol
# Density = 1.899366 g / cm^3
# Si number density = 19.036990 Si / 1000 Ang^3
#
#
#
# Elastic Constant Matrix: (Units=GPa)
#
#
# Indices 1 2 3 4 5 6 
#
# 1 62.8563 14.9256 34.9553 0.0000 0.0000 0.0000
# 2 14.9256 49.4218 15.0972 0.0000 0.0000 0.0000
# 3 34.9553 15.0972 101.0017 0.0000 0.0000 0.0000
# 4 0.0000 0.0000 0.0000 7.3308 0.0000 0.0000
# 5 0.0000 0.0000 0.0000 0.0000 6.4385 0.0000
# 6 0.0000 0.0000 0.0000 0.0000 0.0000 24.2603
#
#
#
# Elastic Compliance Matrix: (Units=1/GPa)
#
#
# Indices 1 2 3 4 5 6 
#
# 1 0.020507 -0.004218 -0.006467 0.000000 0.000000 0.000000
# 2 -0.004218 0.022070 -0.001839 0.000000 0.000000 0.000000
# 3 -0.006467 -0.001839 0.012414 0.000000 0.000000 0.000000
# 4 0.000000 0.000000 0.000000 0.136410 0.000000 0.000000
# 5 0.000000 0.000000 0.000000 0.000000 0.155316 0.000000
# 6 0.000000 0.000000 0.000000 0.000000 0.000000 0.041220
#
#
# Mechanical properties :
#
#
# Convention : Reuss Voigt Hill
#
# Bulk Modulus (GPa) = 33.39667 38.13734 35.76701
# Shear Modulus (GPa) = 11.82132 17.49270 14.65701
#
# Velocity S-wave (km/s) = 2.49462 3.03459 2.77776
# Velocity P-wave (km/s) = 5.08711 5.68815 5.39601
#
# Compressibility (1/GPa) = 0.02994310
#
# Stress axis : x y z
#
# Youngs Moduli (GPa) = 48.76353 45.31118 80.55556
#
# Poissons Ratio (x) = 0.19111 0.52094
# Poissons Ratio (y) = 0.20568 0.14815
# Poissons Ratio (z) = 0.31534 0.08333
#
# Static dielectric constant tensor:
#      x y z
#    x 1.096700 0.000000 0.000000 
#    y 0.000000 1.697580 0.000000 
#    z 0.000000 0.000000 1.687250 
# 
# From -- ./inp_files/16994.got.cif
#   From: 2010.05.17/outbox.cif.g08.bks.cpg/sg57_9_cif.got.tgz:16994.got - 2010.06.03 13:58:18.
