data_PCOD9435585
_publ_section_title
;
Structure prediction by ZEFSAII (Michael W. Deem and Ramdas Pophale) SiO2 
 PCOD9435585
Probable space group: P B C M
;
_chemical_formula_sum "Si O2"
_cell_formula_units_Z 48
_cell_length_a 10.585744
_cell_length_b 29.063515
_cell_length_c 8.562588
_cell_angle_alpha 90.000000
_cell_angle_beta 90.000000
_cell_angle_gamma 90.000000
_cell_volume 2634.356658
_symmetry_space_group_name_H-M "P B C M"
_symmetry_group_IT_number 57
_symmetry_cell_setting 'orthorhombic'
loop_
_space_group_symop_operation_xyz
x,y,z
-x,-y,1/2+z
x,1/2-y,-z
-x,1/2+y,1/2-z
-x,-y,-z
x,y,1/2-z
-x,1/2+y,z
x,1/2-y,1/2+z
loop_
_atom_site_type_symbol
_atom_site_label
_atom_site_fract_x
_atom_site_fract_y
_atom_site_fract_z
Si Si1 0.108518 0.700844 0.062730
Si Si2 0.606192 0.299471 0.063878
Si Si3 0.512275 0.393416 0.562379
Si Si4 0.996799 0.103471 0.061034
Si Si5 0.247673 0.949588 0.062302
Si Si6 0.743736 0.943909 0.940175
O O1 0.116705 0.702932 0.250000
O O2 0.025485 0.656752 0.017507
O O3 0.062397 0.750000 0.000000
O O4 0.250161 0.693795 0.997295
O O5 0.608438 0.298716 0.250000
O O6 0.563169 0.250000 0.000000
O O7 0.524869 0.341983 0.002741
O O8 0.514098 0.391719 0.750000
O O9 0.633406 0.421958 0.504864
O O10 0.384239 0.418632 0.509717
O O11 0.991570 0.100942 0.250000
O O12 0.130292 0.082719 0.008771
O O13 0.881081 0.073952 0.994644
O O14 0.252713 0.947817 0.250000
O O15 0.253015 0.002840 0.011151
O O16 0.743815 0.943695 0.750000
#
# Coordination Sequence:
#
# PCOD9435585 Si02
#       6
#     8   8   8   8   8   8
#     4  10  19  32  55  82 110 141 180 224 276 330
#     4  11  21  35  57  84 113 141 183 231 277 330
#     4  11  21  37  58  81 113 151 189 230 280 330
#     4  10  20  37  58  81 111 148 186 228 283 336
#     4  11  21  35  57  84 111 145 192 238 278 328
#     4   9  21  38  56  80 113 151 189 231 280 335
#
# _framework density 18.220766999999999
#
# number of rings (size 3 to 8) (size 9 to 14) (size 15 to 20)
#    0.000    1.667    1.667    5.000    0.000    0.667 
#    0.000    5.833    0.000    2.000    0.000    0.000 
#    0.000    0.000    0.000    0.000    0.000    0.000 
#
# Total GULP energy -268158.299505 kJ/mol
# GULP energy per Si atom -5586.631240 kJ/mol
# Density = 1.817930 g / cm^3
# Si number density = 18.220767 Si / 1000 Ang^3
#
#
#
# Elastic Constant Matrix: (Units=GPa)
#
#
# Indices 1 2 3 4 5 6 
#
# 1 122.8266 76.5403 21.6275 0.0000 0.0000 0.0000
# 2 76.5403 179.7719 36.4730 0.0000 0.0000 0.0000
# 3 21.6275 36.4730 52.5272 0.0000 0.0000 0.0000
# 4 0.0000 0.0000 0.0000 29.7537 0.0000 0.0000
# 5 0.0000 0.0000 0.0000 0.0000 2.5325 0.0000
# 6 0.0000 0.0000 0.0000 0.0000 0.0000 -5.9924
#
#
#
# Elastic Compliance Matrix: (Units=1/GPa)
#
#
# Indices 1 2 3 4 5 6 
#
# 1 0.011184 -0.004455 -0.001511 0.000000 0.000000 0.000000
# 2 -0.004455 0.008249 -0.003894 0.000000 0.000000 0.000000
# 3 -0.001511 -0.003894 0.022364 0.000000 0.000000 0.000000
# 4 0.000000 0.000000 0.000000 0.033609 0.000000 0.000000
# 5 0.000000 0.000000 0.000000 0.000000 0.394872 0.000000
# 6 0.000000 0.000000 0.000000 0.000000 0.000000 -0.166879
#
#
# Mechanical properties :
#
#
# Convention : Reuss Voigt Hill
#
# Bulk Modulus (GPa) = 45.29692 69.37861 57.33776
# Shear Modulus (GPa) = 15.12954 19.95775 17.54365
#
# Velocity S-wave (km/s) = 2.88470 3.31317 3.10633
# Velocity P-wave (km/s) = 6.00078 7.26605 6.66351
#
# Compressibility (1/GPa) = 0.02207656
#
# Stress axis : x y z
#
# Youngs Moduli (GPa) = 89.41429 121.22115 44.71526
#
# Poissons Ratio (x) = 0.54005 0.06758
# Poissons Ratio (y) = 0.39835 0.17411
# Poissons Ratio (z) = 0.13514 0.47201
#
# Static dielectric constant tensor:
#      x y z
#    x 1.590410 0.000000 0.000000 
#    y 0.000000 1.628080 0.000000 
#    z 0.000000 0.000000 1.617880 
# 
# From -- ./inp_files/2123.got.cif
#   From: 2010.05.17/outbox.cif.g08.bks.cpg/sg57_2_cif.got.tgz:2123.got - 2010.06.03 13:58:18.
