data_PCOD9435298
_publ_section_title
;
Structure prediction by ZEFSAII (Michael W. Deem and Ramdas Pophale) SiO2 
 PCOD9435298
Probable space group: P B C M
;
_chemical_formula_sum "Si O2"
_cell_formula_units_Z 64
_cell_length_a 23.709386
_cell_length_b 14.957403
_cell_length_c 9.212266
_cell_angle_alpha 90.000000
_cell_angle_beta 90.000000
_cell_angle_gamma 90.000000
_cell_volume 3266.953642
_symmetry_space_group_name_H-M "P B C M"
_symmetry_group_IT_number 57
_symmetry_cell_setting 'orthorhombic'
loop_
_space_group_symop_operation_xyz
x,y,z
-x,-y,1/2+z
x,1/2-y,-z
-x,1/2+y,1/2-z
-x,-y,-z
x,y,1/2-z
-x,1/2+y,z
x,1/2-y,1/2+z
loop_
_atom_site_type_symbol
_atom_site_label
_atom_site_fract_x
_atom_site_fract_y
_atom_site_fract_z
Si Si1 0.406319 0.330681 0.418974
Si Si2 0.309518 0.027486 0.580673
Si Si3 0.512082 0.405598 0.575687
Si Si4 0.888498 0.962798 0.578037
Si Si5 0.360764 0.842802 0.924401
Si Si6 0.222379 0.345120 0.579258
Si Si7 0.026842 0.341330 0.080301
Si Si8 0.890975 0.340178 0.419377
O O1 0.374460 0.250000 0.500000
O O2 0.416776 0.310396 0.250000
O O3 0.369064 0.419905 0.424860
O O4 0.463214 0.344779 0.508865
O O5 0.291742 0.027480 0.750000
O O6 0.266611 0.084736 0.486752
O O7 0.321289 0.926206 0.532619
O O8 0.500000 0.500000 0.500000
O O9 0.507598 0.412992 0.750000
O O10 0.574371 0.369283 0.540533
O O11 0.902164 0.969715 0.750000
O O12 0.838457 0.891788 0.560525
O O13 0.941783 0.924393 0.492443
O O14 0.870145 0.062398 0.529267
O O15 0.357547 0.834192 0.750000
O O16 0.346297 0.750000 0.000000
O O17 0.224789 0.250000 0.500000
O O18 0.232911 0.332222 0.750000
O O19 0.041041 0.335949 0.250000
O O20 0.959157 0.347250 0.066966
O O21 0.044525 0.250000 0.000000
O O22 0.872647 0.250000 0.500000
O O23 0.876977 0.330187 0.250000
#
# Coordination Sequence:
#
# PCOD9435298 Si02
#       8
#     8   8   8   8   8   8   8   8
#     4  11  22  37  56  83 115 148 186 229 280 338
#     4  10  22  42  62  82 113 146 187 238 284 334
#     4  11  21  36  57  84 118 154 190 230 278 334
#     4  10  21  37  56  81 115 150 189 238 286 337
#     4  10  22  40  60  86 116 150 189 232 279 332
#     4  11  24  41  62  87 113 145 186 232 287 343
#     4  10  19  31  52  82 115 152 193 232 280 340
#     4   9  19  35  54  80 115 153 191 235 280 330
#
# _framework density 19.590115999999998
#
# number of rings (size 3 to 8) (size 9 to 14) (size 15 to 20)
#    0.000    1.750    1.250    3.000    0.000    7.500 
#    0.000    0.625    0.000    3.000    0.000    0.000 
#    0.000    0.000    0.000    0.000    0.000    0.000 
#
# Total GULP energy -357488.102510 kJ/mol
# GULP energy per Si atom -5585.751602 kJ/mol
# Density = 1.954553 g / cm^3
# Si number density = 19.590116 Si / 1000 Ang^3
#
#
#
# Elastic Constant Matrix: (Units=GPa)
#
#
# Indices 1 2 3 4 5 6 
#
# 1 24.6078 20.9114 31.1553 0.0000 0.0000 0.0000
# 2 20.9114 173.7623 61.5327 0.0000 0.0000 0.0000
# 3 31.1553 61.5327 77.9026 0.0000 0.0000 0.0000
# 4 0.0000 0.0000 0.0000 39.0674 0.0000 0.0000
# 5 0.0000 0.0000 0.0000 0.0000 13.8656 0.0000
# 6 0.0000 0.0000 0.0000 0.0000 0.0000 23.6639
#
#
#
# Elastic Compliance Matrix: (Units=1/GPa)
#
#
# Indices 1 2 3 4 5 6 
#
# 1 0.083065 0.002454 -0.035158 0.000000 0.000000 0.000000
# 2 0.002454 0.008062 -0.007349 0.000000 0.000000 0.000000
# 3 -0.035158 -0.007349 0.032702 0.000000 0.000000 0.000000
# 4 0.000000 0.000000 0.000000 0.025597 0.000000 0.000000
# 5 0.000000 0.000000 0.000000 0.000000 0.072121 0.000000
# 6 0.000000 0.000000 0.000000 0.000000 0.000000 0.042259
#
#
# Mechanical properties :
#
#
# Convention : Reuss Voigt Hill
#
# Bulk Modulus (GPa) = 22.87180 55.94129 39.40654
# Shear Modulus (GPa) = 13.94752 26.16425 20.05589
#
# Velocity S-wave (km/s) = 2.67117 3.65853 3.20312
# Velocity P-wave (km/s) = 4.60587 6.81647 5.81714
#
# Compressibility (1/GPa) = 0.04372197
#
# Stress axis : x y z
#
# Youngs Moduli (GPa) = 12.03882 124.03440 30.57906
#
# Poissons Ratio (x) = -0.30434 1.07509
# Poissons Ratio (y) = -0.02954 0.22474
# Poissons Ratio (z) = 0.42326 0.91158
#
# Static dielectric constant tensor:
#      x y z
#    x 1.696690 0.000000 0.000000 
#    y 0.000000 1.796500 0.000000 
#    z 0.000000 0.000000 1.654270 
# 
# From -- ./inp_files/9461.got.cif
#   From: 2010.05.17/outbox.cif.g08.bks.cpg/sg57_5_cif.got.tgz:9461.got - 2010.06.03 13:58:18.
