data_PCOD9435601
_publ_section_title
;
Structure prediction by ZEFSAII (Michael W. Deem and Ramdas Pophale) SiO2 
 PCOD9435601
Probable space group: P B C M
;
_chemical_formula_sum "Si O2"
_cell_formula_units_Z 64
_cell_length_a 24.180543
_cell_length_b 16.066418
_cell_length_c 8.775693
_cell_angle_alpha 90.000000
_cell_angle_beta 90.000000
_cell_angle_gamma 90.000000
_cell_volume 3409.310319
_symmetry_space_group_name_H-M "P B C M"
_symmetry_group_IT_number 57
_symmetry_cell_setting 'orthorhombic'
loop_
_space_group_symop_operation_xyz
x,y,z
-x,-y,1/2+z
x,1/2-y,-z
-x,1/2+y,1/2-z
-x,-y,-z
x,y,1/2-z
-x,1/2+y,z
x,1/2-y,1/2+z
loop_
_atom_site_type_symbol
_atom_site_label
_atom_site_fract_x
_atom_site_fract_y
_atom_site_fract_z
Si Si1 0.363215 0.992714 0.566930
Si Si2 0.576153 0.665298 0.932034
Si Si3 0.940336 0.099714 0.068746
Si Si4 0.242338 0.506220 0.933800
Si Si5 0.525812 0.084695 0.066975
Si Si6 0.180615 0.338629 0.933373
Si Si7 0.935967 0.585237 0.433415
Si Si8 0.830508 0.335938 0.068227
O O1 0.357456 0.992145 0.750000
O O2 0.388835 0.083180 0.524501
O O3 0.304314 0.981536 0.490999
O O4 0.409418 0.923133 0.526878
O O5 0.574068 0.669021 0.750000
O O6 0.600154 0.750000 0.000000
O O7 0.514054 0.653666 0.996845
O O8 0.932867 0.106123 0.250000
O O9 0.003823 0.122982 0.031431
O O10 0.893487 0.151585 0.984992
O O11 0.933064 0.003898 0.015772
O O12 0.241544 0.505488 0.750000
O O13 0.217278 0.417476 0.984914
O O14 0.203697 0.582911 0.983895
O O15 0.521260 0.085289 0.250000
O O16 0.500000 0.000000 0.000000
O O17 0.183557 0.334589 0.750000
O O18 0.116966 0.359899 0.975217
O O19 0.197551 0.250000 0.000000
O O20 0.933686 0.570382 0.250000
O O21 0.828422 0.332388 0.250000
O O22 0.808469 0.250000 0.000000
#
# Coordination Sequence:
#
# PCOD9435601 Si02
#       8
#     8   8   8   8   8   8   8   8
#     4   9  20  36  56  81 110 143 186 231 273 326
#     4  10  20  34  54  84 118 151 184 227 276 325
#     4  10  19  32  57  87 110 144 185 227 288 350
#     4  10  22  40  60  79 110 153 192 237 292 337
#     4   9  17  32  53  79 109 142 177 217 265 318
#     4  10  21  38  56  79 111 149 189 232 281 336
#     4   9  18  35  55  79 116 149 182 230 283 343
#     4  11  23  41  61  83 111 144 187 241 294 349
#
# _framework density 18.772124999999999
#
# number of rings (size 3 to 8) (size 9 to 14) (size 15 to 20)
#    0.000    2.250    1.250    2.250    0.000    6.500 
#    0.000    4.375    0.000    1.500    0.000    0.000 
#    0.000    0.000    0.000    0.000    0.000    0.000 
#
# Total GULP energy -357042.695418 kJ/mol
# GULP energy per Si atom -5578.792116 kJ/mol
# Density = 1.872940 g / cm^3
# Si number density = 18.772125 Si / 1000 Ang^3
#
#
#
# Elastic Constant Matrix: (Units=GPa)
#
#
# Indices 1 2 3 4 5 6 
#
# 1 101.8550 27.9530 23.3548 0.0000 0.0000 0.0000
# 2 27.9530 75.0163 18.0158 0.0000 0.0000 0.0000
# 3 23.3548 18.0158 26.9900 0.0000 0.0000 0.0000
# 4 0.0000 0.0000 0.0000 30.2213 0.0000 0.0000
# 5 0.0000 0.0000 0.0000 0.0000 28.5374 0.0000
# 6 0.0000 0.0000 0.0000 0.0000 0.0000 7.5929
#
#
#
# Elastic Compliance Matrix: (Units=1/GPa)
#
#
# Indices 1 2 3 4 5 6 
#
# 1 0.012623 -0.002478 -0.009269 0.000000 0.000000 0.000000
# 2 -0.002478 0.016362 -0.008777 0.000000 0.000000 0.000000
# 3 -0.009269 -0.008777 0.050930 0.000000 0.000000 0.000000
# 4 0.000000 0.000000 0.000000 0.033089 0.000000 0.000000
# 5 0.000000 0.000000 0.000000 0.000000 0.035042 0.000000
# 6 0.000000 0.000000 0.000000 0.000000 0.000000 0.131702
#
#
# Mechanical properties :
#
#
# Convention : Reuss Voigt Hill
#
# Bulk Modulus (GPa) = 25.72898 38.05650 31.89274
# Shear Modulus (GPa) = 14.98118 22.23950 18.61034
#
# Velocity S-wave (km/s) = 2.82805 3.44569 3.15204
# Velocity P-wave (km/s) = 4.93959 6.01226 5.50213
#
# Compressibility (1/GPa) = 0.03886667
#
# Stress axis : x y z
#
# Youngs Moduli (GPa) = 79.21910 61.11846 19.63465
#
# Poissons Ratio (x) = 0.15143 0.18200
# Poissons Ratio (y) = 0.19628 0.17234
# Poissons Ratio (z) = 0.73429 0.53646
#
# Static dielectric constant tensor:
#      x y z
#    x 1.655700 0.000000 0.000000 
#    y 0.000000 1.646750 0.000000 
#    z 0.000000 0.000000 1.633020 
# 
# From -- ./inp_files/9374.got.cif
#   From: 2010.05.17/outbox.cif.g08.bks.cpg/sg57_5_cif.got.tgz:9374.got - 2010.06.03 13:58:18.
