data_PCOD9435995
_publ_section_title
;
Structure prediction by ZEFSAII (Michael W. Deem and Ramdas Pophale) SiO2 
 PCOD9435995
Probable space group: P B C M
;
_chemical_formula_sum "Si O2"
_cell_formula_units_Z 64
_cell_length_a 11.058432
_cell_length_b 34.523299
_cell_length_c 8.357841
_cell_angle_alpha 90.000000
_cell_angle_beta 90.000000
_cell_angle_gamma 90.000000
_cell_volume 3190.802666
_symmetry_space_group_name_H-M "P B C M"
_symmetry_group_IT_number 57
_symmetry_cell_setting 'orthorhombic'
loop_
_space_group_symop_operation_xyz
x,y,z
-x,-y,1/2+z
x,1/2-y,-z
-x,1/2+y,1/2-z
-x,-y,-z
x,y,1/2-z
-x,1/2+y,z
x,1/2-y,1/2+z
loop_
_atom_site_type_symbol
_atom_site_label
_atom_site_fract_x
_atom_site_fract_y
_atom_site_fract_z
Si Si1 0.689515 0.986367 0.063337
Si Si2 0.932513 0.792582 0.942007
Si Si3 0.677029 0.129333 0.943334
Si Si4 0.430232 0.410143 0.055628
Si Si5 0.177163 0.370491 0.059653
Si Si6 0.787730 0.207688 0.059207
Si Si7 0.922752 0.554380 0.066116
Si Si8 0.180450 0.943916 0.438230
O O1 0.667542 0.994159 0.250000
O O2 0.594410 0.954363 0.000526
O O3 0.818996 0.964515 0.042724
O O4 0.710414 0.026246 0.970883
O O5 0.928699 0.794125 0.750000
O O6 0.072668 0.798067 0.995526
O O7 0.894889 0.750000 0.000000
O O8 0.852390 0.826817 0.013311
O O9 0.674574 0.129311 0.750000
O O10 0.550390 0.111217 0.000741
O O11 0.779419 0.098577 0.993637
O O12 0.707341 0.172167 0.999953
O O13 0.435267 0.412530 0.250000
O O14 0.312304 0.384522 0.016433
O O15 0.161097 0.375826 0.250000
O O16 0.088777 0.399780 0.966965
O O17 0.788143 0.207930 0.250000
O O18 0.747931 0.250000 0.000000
O O19 0.894847 0.545004 0.250000
O O20 0.058706 0.542764 0.024706
O O21 0.155371 0.942858 0.250000
#
# Coordination Sequence:
#
# PCOD9435995 Si02
#       8
#     8   8   8   8   8   8   8   8
#     4  10  20  36  56  77 106 142 180 223 272 321
#     4  10  20  34  54  82 114 142 173 214 265 323
#     4  10  21  38  58  79 107 143 183 223 263 313
#     4   8  18  37  57  76 102 141 183 223 266 311
#     4  10  19  34  56  79 106 139 176 218 268 321
#     4  10  21  37  58  84 112 141 173 214 264 316
#     4  11  21  34  53  77 107 140 178 222 270 325
#     4  11  22  34  52  80 111 142 178 221 270 321
#
# _framework density 20.057649000000001
#
# number of rings (size 3 to 8) (size 9 to 14) (size 15 to 20)
#    0.000    2.000    0.000    4.875    0.000    5.000 
#    0.000    4.375    0.000    0.000    0.000    0.000 
#    0.000    0.000    0.000    0.000    0.000    0.000 
#
# Total GULP energy -357540.118300 kJ/mol
# GULP energy per Si atom -5586.564348 kJ/mol
# Density = 2.001200 g / cm^3
# Si number density = 20.057649 Si / 1000 Ang^3
#
#
#
# Elastic Constant Matrix: (Units=GPa)
#
#
# Indices 1 2 3 4 5 6 
#
# 1 46.6082 9.0904 0.6707 0.0000 0.0000 0.0000
# 2 9.0904 95.7602 -6.2856 0.0000 0.0000 0.0000
# 3 0.6707 -6.2856 28.2536 0.0000 0.0000 0.0000
# 4 0.0000 0.0000 0.0000 33.3611 0.0000 0.0000
# 5 0.0000 0.0000 0.0000 0.0000 14.6214 0.0000
# 6 0.0000 0.0000 0.0000 0.0000 0.0000 26.9574
#
#
#
# Elastic Compliance Matrix: (Units=1/GPa)
#
#
# Indices 1 2 3 4 5 6 
#
# 1 0.021888 -0.002143 -0.000996 0.000000 0.000000 0.000000
# 2 -0.002143 0.010807 0.002455 0.000000 0.000000 0.000000
# 3 -0.000996 0.002455 0.035964 0.000000 0.000000 0.000000
# 4 0.000000 0.000000 0.000000 0.029975 0.000000 0.000000
# 5 0.000000 0.000000 0.000000 0.000000 0.068393 0.000000
# 6 0.000000 0.000000 0.000000 0.000000 0.000000 0.037096
#
#
# Mechanical properties :
#
#
# Convention : Reuss Voigt Hill
#
# Bulk Modulus (GPa) = 14.86106 19.73034 17.29570
# Shear Modulus (GPa) = 21.93745 26.13109 24.03427
#
# Velocity S-wave (km/s) = 3.31073 3.61335 3.46534
# Velocity P-wave (km/s) = 4.69466 5.22174 4.96520
#
# Compressibility (1/GPa) = 0.06728995
#
# Stress axis : x y z
#
# Youngs Moduli (GPa) = 45.68758 92.52952 27.80592
#
# Poissons Ratio (x) = 0.19831 0.02771
# Poissons Ratio (y) = 0.09792 -0.06827
# Poissons Ratio (z) = 0.04552 -0.22718
#
# Static dielectric constant tensor:
#      x y z
#    x 1.717420 0.000000 0.000000 
#    y 0.000000 1.719950 0.000000 
#    z 0.000000 0.000000 1.684240 
# 
# From -- ./inp_files/3908.got.cif
#   From: 2010.05.17/outbox.cif.g08.bks.cpg/sg57_2_cif.got.tgz:3908.got - 2010.06.03 13:58:18.
