data_PCOD9435988
_publ_section_title
;
Structure prediction by ZEFSAII (Michael W. Deem and Ramdas Pophale) SiO2 
 PCOD9435988
Probable space group: P B C M
;
_chemical_formula_sum "Si O2"
_cell_formula_units_Z 56
_cell_length_a 14.403796
_cell_length_b 21.713236
_cell_length_c 8.576901
_cell_angle_alpha 90.000000
_cell_angle_beta 90.000000
_cell_angle_gamma 90.000000
_cell_volume 2682.451706
_symmetry_space_group_name_H-M "P B C M"
_symmetry_group_IT_number 57
_symmetry_cell_setting 'orthorhombic'
loop_
_space_group_symop_operation_xyz
x,y,z
-x,-y,1/2+z
x,1/2-y,-z
-x,1/2+y,1/2-z
-x,-y,-z
x,y,1/2-z
-x,1/2+y,z
x,1/2-y,1/2+z
loop_
_atom_site_type_symbol
_atom_site_label
_atom_site_fract_x
_atom_site_fract_y
_atom_site_fract_z
Si Si1 0.478775 0.080500 0.932424
Si Si2 0.328051 0.188784 0.571072
Si Si3 0.853112 0.182620 0.063720
Si Si4 0.191357 0.104576 0.072741
Si Si5 0.981581 0.068905 0.431086
Si Si6 0.310894 0.001009 0.566296
Si Si7 0.321909 0.623066 0.567082
O O1 0.497714 0.066120 0.750000
O O2 0.404851 0.135914 0.937488
O O3 0.574238 0.108886 0.998289
O O4 0.412364 0.024868 0.992090
O O5 0.369260 0.250000 0.500000
O O6 0.301564 0.196834 0.750000
O O7 0.238902 0.168435 0.472182
O O8 0.862351 0.183832 0.250000
O O9 0.910677 0.121707 0.005973
O O10 0.882186 0.250000 0.000000
O O11 0.745694 0.170618 0.016740
O O12 0.218118 0.088113 0.250000
O O13 0.081736 0.101673 0.061410
O O14 0.237854 0.055356 0.957531
O O15 0.954973 0.058524 0.250000
O O16 0.000000 0.000000 0.500000
O O17 0.317126 0.985840 0.750000
O O18 0.278228 0.944120 0.464086
O O19 0.327469 0.637992 0.750000
#
# Coordination Sequence:
#
# PCOD9435988 Si02
#       7
#     8   8   8   8   8   8   8
#     4   8  18  34  53  79 114 151 192 237 287 341
#     4  10  20  36  55  79 110 146 183 227 278 335
#     4  11  25  45  63  86 119 158 202 252 304 364
#     4  10  20  36  57  84 112 143 181 226 279 339
#     4  10  23  41  64  91 120 152 194 243 298 359
#     4  10  19  34  55  85 120 152 186 233 287 345
#     4  11  21  36  58  84 113 152 195 238 285 341
#
# _framework density 20.876422999999999
#
# number of rings (size 3 to 8) (size 9 to 14) (size 15 to 20)
#    0.000    2.000    0.000    4.286    0.000    5.714 
#    0.000   10.714    0.000    0.000    0.000    0.000 
#    0.000    0.000    0.000    0.000    0.000    0.000 
#
# Total GULP energy -312083.079307 kJ/mol
# GULP energy per Si atom -5572.912130 kJ/mol
# Density = 2.082891 g / cm^3
# Si number density = 20.876423 Si / 1000 Ang^3
#
#
#
# Elastic Constant Matrix: (Units=GPa)
#
#
# Indices 1 2 3 4 5 6 
#
# 1 76.8462 26.0315 22.0039 0.0000 0.0000 0.0000
# 2 26.0315 88.4986 26.9372 0.0000 0.0000 0.0000
# 3 22.0039 26.9372 48.6559 0.0000 0.0000 0.0000
# 4 0.0000 0.0000 0.0000 32.8237 0.0000 0.0000
# 5 0.0000 0.0000 0.0000 0.0000 20.1768 0.0000
# 6 0.0000 0.0000 0.0000 0.0000 0.0000 16.6620
#
#
#
# Elastic Compliance Matrix: (Units=1/GPa)
#
#
# Indices 1 2 3 4 5 6 
#
# 1 0.015555 -0.002928 -0.005414 0.000000 0.000000 0.000000
# 2 -0.002928 0.014141 -0.006505 0.000000 0.000000 0.000000
# 3 -0.005414 -0.006505 0.026602 0.000000 0.000000 0.000000
# 4 0.000000 0.000000 0.000000 0.030466 0.000000 0.000000
# 5 0.000000 0.000000 0.000000 0.000000 0.049562 0.000000
# 6 0.000000 0.000000 0.000000 0.000000 0.000000 0.060017
#
#
# Mechanical properties :
#
#
# Convention : Reuss Voigt Hill
#
# Bulk Modulus (GPa) = 37.58616 40.43844 39.01230
# Shear Modulus (GPa) = 21.28544 23.20103 22.24323
#
# Velocity S-wave (km/s) = 3.19657 3.33731 3.26770
# Velocity P-wave (km/s) = 5.62737 5.85343 5.74151
#
# Compressibility (1/GPa) = 0.02660554
#
# Stress axis : x y z
#
# Youngs Moduli (GPa) = 64.28864 70.71807 37.59127
#
# Poissons Ratio (x) = 0.20703 0.20351
# Poissons Ratio (y) = 0.18821 0.24452
# Poissons Ratio (z) = 0.34804 0.46000
#
# Static dielectric constant tensor:
#      x y z
#    x 1.788800 0.000000 0.000000 
#    y 0.000000 1.818270 0.000000 
#    z 0.000000 0.000000 1.761790 
# 
# From -- ./inp_files/5251.got.cif
#   From: 2010.05.17/outbox.cif.g08.bks.cpg/sg57_3_cif.got.tgz:5251.got - 2010.06.03 13:58:18.
