data_PCOD9435203
_publ_section_title
;
Structure prediction by ZEFSAII (Michael W. Deem and Ramdas Pophale) SiO2 
 PCOD9435203
Probable space group: P B C M
;
_chemical_formula_sum "Si O2"
_cell_formula_units_Z 48
_cell_length_a 14.084237
_cell_length_b 24.104257
_cell_length_c 8.742884
_cell_angle_alpha 90.000000
_cell_angle_beta 90.000000
_cell_angle_gamma 90.000000
_cell_volume 2968.122286
_symmetry_space_group_name_H-M "P B C M"
_symmetry_group_IT_number 57
_symmetry_cell_setting 'orthorhombic'
loop_
_space_group_symop_operation_xyz
x,y,z
-x,-y,1/2+z
x,1/2-y,-z
-x,1/2+y,1/2-z
-x,-y,-z
x,y,1/2-z
-x,1/2+y,z
x,1/2-y,1/2+z
loop_
_atom_site_type_symbol
_atom_site_label
_atom_site_fract_x
_atom_site_fract_y
_atom_site_fract_z
Si Si1 0.855854 0.981708 0.066260
Si Si2 0.857214 0.309861 0.567898
Si Si3 0.638751 0.971890 0.433490
Si Si4 0.537576 0.087979 0.068036
Si Si5 0.648856 0.189779 0.567561
Si Si6 0.040111 0.912808 0.431815
O O1 0.858062 0.991544 0.250000
O O2 0.748779 0.966114 0.024013
O O3 0.934258 0.934836 0.032053
O O4 0.890242 0.037566 0.983910
O O5 0.883927 0.250000 0.500000
O O6 0.849842 0.306521 0.750000
O O7 0.753261 0.323674 0.499541
O O8 0.929549 0.357351 0.517402
O O9 0.629541 0.964813 0.250000
O O10 0.567426 0.929873 0.515697
O O11 0.603214 0.034376 0.469471
O O12 0.541178 0.096472 0.250000
O O13 0.577339 0.141906 0.984320
O O14 0.622414 0.250000 0.500000
O O15 0.654596 0.193179 0.750000
O O16 0.047638 0.904634 0.250000
#
# Coordination Sequence:
#
# PCOD9435203 Si02
#       6
#     8   8   8   8   8   8
#     4   9  18  32  50  72 100 133 167 204 243 286
#     4  11  21  34  51  72  99 129 162 200 244 291
#     4   9  18  32  49  70  98 132 166 201 242 286
#     4  10  19  31  49  74 102 130 162 200 243 290
#     4  11  21  34  52  74 100 129 162 199 242 290
#     4  10  19  31  49  74 101 130 165 202 244 291
#
# _framework density 16.17184
#
# number of rings (size 3 to 8) (size 9 to 14) (size 15 to 20)
#    0.000    2.000    0.000    6.000    0.000    3.333 
#    0.000    0.000    0.000    1.000    0.000    4.667 
#    0.000    0.000    0.000    0.000    0.000    0.000 
#
# Total GULP energy -267980.455523 kJ/mol
# GULP energy per Si atom -5582.926157 kJ/mol
# Density = 1.613503 g / cm^3
# Si number density = 16.171840 Si / 1000 Ang^3
#
#
#
# Elastic Constant Matrix: (Units=GPa)
#
#
# Indices 1 2 3 4 5 6 
#
# 1 114.2733 68.0281 55.5735 0.0000 0.0000 0.0000
# 2 68.0281 96.1178 59.7481 0.0000 0.0000 0.0000
# 3 55.5735 59.7481 100.7693 0.0000 0.0000 0.0000
# 4 0.0000 0.0000 0.0000 30.0969 0.0000 0.0000
# 5 0.0000 0.0000 0.0000 0.0000 24.6126 0.0000
# 6 0.0000 0.0000 0.0000 0.0000 0.0000 19.5215
#
#
#
# Elastic Compliance Matrix: (Units=1/GPa)
#
#
# Indices 1 2 3 4 5 6 
#
# 1 0.015785 -0.009123 -0.003296 0.000000 0.000000 0.000000
# 2 -0.009123 0.021749 -0.007864 0.000000 0.000000 0.000000
# 3 -0.003296 -0.007864 0.016404 0.000000 0.000000 0.000000
# 4 0.000000 0.000000 0.000000 0.033226 0.000000 0.000000
# 5 0.000000 0.000000 0.000000 0.000000 0.040630 0.000000
# 6 0.000000 0.000000 0.000000 0.000000 0.000000 0.051226
#
#
# Mechanical properties :
#
#
# Convention : Reuss Voigt Hill
#
# Bulk Modulus (GPa) = 74.78438 75.31778 75.05108
# Shear Modulus (GPa) = 22.31703 23.36690 22.84197
#
# Velocity S-wave (km/s) = 3.71886 3.80532 3.76234
# Velocity P-wave (km/s) = 8.04884 8.12292 8.08597
#
# Compressibility (1/GPa) = 0.01337178
#
# Stress axis : x y z
#
# Youngs Moduli (GPa) = 63.35157 45.97826 60.95949
#
# Poissons Ratio (x) = 0.41946 0.20092
# Poissons Ratio (y) = 0.57796 0.47941
# Poissons Ratio (z) = 0.20881 0.36159
#
# Static dielectric constant tensor:
#      x y z
#    x 1.531520 0.000000 0.000000 
#    y 0.000000 1.519240 0.000000 
#    z 0.000000 0.000000 1.539580 
# 
# From -- ./inp_files/3121.got.cif
#   From: 2010.05.17/outbox.cif.g08.bks.cpg/sg57_2_cif.got.tgz:3121.got - 2010.06.03 13:58:18.
