data_PCOD9435503
_publ_section_title
;
Structure prediction by ZEFSAII (Michael W. Deem and Ramdas Pophale) SiO2 
 PCOD9435503
Probable space group: P B C M
;
_chemical_formula_sum "Si O2"
_cell_formula_units_Z 56
_cell_length_a 13.129632
_cell_length_b 25.805475
_cell_length_c 7.430830
_cell_angle_alpha 90.000000
_cell_angle_beta 90.000000
_cell_angle_gamma 90.000000
_cell_volume 2517.686998
_symmetry_space_group_name_H-M "P B C M"
_symmetry_group_IT_number 57
_symmetry_cell_setting 'orthorhombic'
loop_
_space_group_symop_operation_xyz
x,y,z
-x,-y,1/2+z
x,1/2-y,-z
-x,1/2+y,1/2-z
-x,-y,-z
x,y,1/2-z
-x,1/2+y,z
x,1/2-y,1/2+z
loop_
_atom_site_type_symbol
_atom_site_label
_atom_site_fract_x
_atom_site_fract_y
_atom_site_fract_z
Si Si1 0.540204 0.341027 0.029859
Si Si2 0.759853 0.192283 0.535593
Si Si3 0.415048 0.957292 0.035646
Si Si4 0.681839 0.808843 0.034921
Si Si5 0.146088 0.114110 0.539815
Si Si6 0.194682 0.995438 0.467785
Si Si7 0.919643 0.105892 0.529409
O O1 0.539190 0.339129 0.250000
O O2 0.643899 0.313366 0.967938
O O3 0.550664 0.400854 0.971980
O O4 0.433182 0.317917 0.966158
O O5 0.798533 0.250000 0.500000
O O6 0.754783 0.185115 0.750000
O O7 0.834668 0.147171 0.469515
O O8 0.403525 0.951990 0.250000
O O9 0.305304 0.975851 0.968225
O O10 0.500000 0.000000 0.000000
O O11 0.675953 0.816445 0.250000
O O12 0.764097 0.850047 0.963507
O O13 0.713667 0.750000 0.000000
O O14 0.138689 0.128206 0.750000
O O15 0.173556 0.053555 0.528337
O O16 0.032303 0.120222 0.465042
O O17 0.195244 0.996455 0.250000
O O18 0.113066 0.952107 0.524506
O O19 0.920262 0.106137 0.750000
#
# Coordination Sequence:
#
# PCOD9435503 Si02
#       7
#     8   8   8   8   8   8   8
#     4   9  17  33  54  73 100 138 175 209 259 323
#     4  10  19  34  55  77 102 136 176 219 264 315
#     4  10  19  32  52  78 108 142 176 214 263 318
#     4  10  21  36  54  76 103 138 177 217 264 313
#     4  10  21  36  55  79 108 141 177 220 267 313
#     4  10  19  34  56  81 107 140 180 217 261 319
#     4   9  18  35  56  77 105 143 180 214 263 321
#
# _framework density 22.242637999999999
#
# number of rings (size 3 to 8) (size 9 to 14) (size 15 to 20)
#    0.000    2.286    1.429    1.714    0.000    2.857 
#    0.000    2.857    0.000    0.000    0.000    0.000 
#    0.000    0.000    0.000    0.000    0.000    0.000 
#
# Total GULP energy -312945.336242 kJ/mol
# GULP energy per Si atom -5588.309576 kJ/mol
# Density = 2.219201 g / cm^3
# Si number density = 22.242638 Si / 1000 Ang^3
#
#
#
# Elastic Constant Matrix: (Units=GPa)
#
#
# Indices 1 2 3 4 5 6 
#
# 1 161.2483 76.6080 7.2910 0.0000 0.0000 0.0000
# 2 76.6080 149.5472 -12.9134 0.0000 0.0000 0.0000
# 3 7.2910 -12.9134 68.0983 0.0000 0.0000 0.0000
# 4 0.0000 0.0000 0.0000 21.2139 0.0000 0.0000
# 5 0.0000 0.0000 0.0000 0.0000 -18.8179 0.0000
# 6 0.0000 0.0000 0.0000 0.0000 0.0000 3.6659
#
#
#
# Elastic Compliance Matrix: (Units=1/GPa)
#
#
# Indices 1 2 3 4 5 6 
#
# 1 0.008395 -0.004451 -0.001743 0.000000 0.000000 0.000000
# 2 -0.004451 0.009158 0.002213 0.000000 0.000000 0.000000
# 3 -0.001743 0.002213 0.015291 0.000000 0.000000 0.000000
# 4 0.000000 0.000000 0.000000 0.047139 0.000000 0.000000
# 5 0.000000 0.000000 0.000000 0.000000 -0.053141 0.000000
# 6 0.000000 0.000000 0.000000 0.000000 0.000000 0.272782
#
#
# Mechanical properties :
#
#
# Convention : Reuss Voigt Hill
#
# Bulk Modulus (GPa) = 40.18861 57.87391 49.03126
# Shear Modulus (GPa) = 15.82879 21.73958 18.78419
#
# Velocity S-wave (km/s) = 2.67056 3.12970 2.90920
# Velocity P-wave (km/s) = 5.25516 6.25587 5.77722
#
# Compressibility (1/GPa) = 0.02488267
#
# Stress axis : x y z
#
# Youngs Moduli (GPa) = 119.11765 109.19348 65.39826
#
# Poissons Ratio (x) = 0.48602 0.11398
# Poissons Ratio (y) = 0.53019 -0.14474
# Poissons Ratio (z) = 0.20761 -0.24166
#
# Static dielectric constant tensor:
#      x y z
#    x 1.724140 0.000000 0.000000 
#    y 0.000000 1.457060 0.000000 
#    z 0.000000 0.000000 1.854960 
# 
# From -- ./inp_files/13083.got.cif
#   From: 2010.05.17/outbox.cif.g08.bks.cpg/sg57_7_cif.got.tgz:13083.got - 2010.06.03 13:58:18.
