data_PCOD9435415
_publ_section_title
;
Structure prediction by ZEFSAII (Michael W. Deem and Ramdas Pophale) SiO2 
 PCOD9435415
Probable space group: P B C M
;
_chemical_formula_sum "Si O2"
_cell_formula_units_Z 48
_cell_length_a 15.533342
_cell_length_b 20.361403
_cell_length_c 8.946398
_cell_angle_alpha 90.000000
_cell_angle_beta 90.000000
_cell_angle_gamma 90.000000
_cell_volume 2829.572453
_symmetry_space_group_name_H-M "P B C M"
_symmetry_group_IT_number 57
_symmetry_cell_setting 'orthorhombic'
loop_
_space_group_symop_operation_xyz
x,y,z
-x,-y,1/2+z
x,1/2-y,-z
-x,1/2+y,1/2-z
-x,-y,-z
x,y,1/2-z
-x,1/2+y,z
x,1/2-y,1/2+z
loop_
_atom_site_type_symbol
_atom_site_label
_atom_site_fract_x
_atom_site_fract_y
_atom_site_fract_z
Si Si1 0.754073 0.894237 0.069587
Si Si2 0.393980 0.934068 0.579019
Si Si3 0.044223 0.563938 0.072219
Si Si4 0.778963 0.038544 0.571870
Si Si5 0.909814 0.681406 0.072349
Si Si6 0.435940 0.090794 0.921913
O O1 0.758855 0.899183 0.250000
O O2 0.654778 0.878009 0.029736
O O3 0.822376 0.843300 0.005855
O O4 0.775886 0.965202 0.998569
O O5 0.374921 0.916801 0.750000
O O6 0.309506 0.926702 0.478212
O O7 0.479417 0.898451 0.519593
O O8 0.416182 0.012234 0.575565
O O9 0.054249 0.553773 0.250000
O O10 0.981739 0.625628 0.048047
O O11 0.136851 0.572415 0.996117
O O12 0.000000 0.500000 0.000000
O O13 0.784521 0.033658 0.750000
O O14 0.896497 0.688085 0.250000
O O15 0.936271 0.750000 0.000000
O O16 0.453624 0.108521 0.750000
#
# Coordination Sequence:
#
# PCOD9435415 Si02
#       6
#     8   8   8   8   8   8
#     4  10  19  32  51  73 102 137 174 216 261 314
#     4   9  16  26  41  65  98 134 168 209 255 303
#     4  11  22  36  55  79 105 138 179 223 270 324
#     4  11  20  30  48  74 104 138 175 217 265 317
#     4  11  24  39  56  78 106 140 179 221 270 323
#     4   8  15  26  41  65  96 132 167 204 252 303
#
# _framework density 16.963695000000001
#
# number of rings (size 3 to 8) (size 9 to 14) (size 15 to 20)
#    0.000    2.000    1.667    4.500    0.000    6.667 
#    0.000    0.000    0.000    0.000    0.000    1.167 
#    0.000    2.667    0.000    0.000    0.000    0.000 
#
# Total GULP energy -267776.272611 kJ/mol
# GULP energy per Si atom -5578.672346 kJ/mol
# Density = 1.692508 g / cm^3
# Si number density = 16.963695 Si / 1000 Ang^3
#
#
#
# Elastic Constant Matrix: (Units=GPa)
#
#
# Indices 1 2 3 4 5 6 
#
# 1 127.1075 35.9679 75.3739 0.0000 0.0000 0.0000
# 2 35.9679 51.9314 46.0759 0.0000 0.0000 0.0000
# 3 75.3739 46.0759 117.5122 0.0000 0.0000 0.0000
# 4 0.0000 0.0000 0.0000 18.3173 0.0000 0.0000
# 5 0.0000 0.0000 0.0000 0.0000 34.5227 0.0000
# 6 0.0000 0.0000 0.0000 0.0000 0.0000 13.1257
#
#
#
# Elastic Compliance Matrix: (Units=1/GPa)
#
#
# Indices 1 2 3 4 5 6 
#
# 1 0.012895 -0.002442 -0.007314 0.000000 0.000000 0.000000
# 2 -0.002442 0.029991 -0.010193 0.000000 0.000000 0.000000
# 3 -0.007314 -0.010193 0.017197 0.000000 0.000000 0.000000
# 4 0.000000 0.000000 0.000000 0.054593 0.000000 0.000000
# 5 0.000000 0.000000 0.000000 0.000000 0.028966 0.000000
# 6 0.000000 0.000000 0.000000 0.000000 0.000000 0.076187
#
#
# Mechanical properties :
#
#
# Convention : Reuss Voigt Hill
#
# Bulk Modulus (GPa) = 49.53841 67.93184 58.73512
# Shear Modulus (GPa) = 18.76475 22.46870 20.61672
#
# Velocity S-wave (km/s) = 3.32952 3.64334 3.48996
# Velocity P-wave (km/s) = 6.63679 7.60466 7.13715
#
# Compressibility (1/GPa) = 0.02018636
#
# Stress axis : x y z
#
# Youngs Moduli (GPa) = 77.54673 33.34292 58.14836
#
# Poissons Ratio (x) = 0.08144 0.42528
# Poissons Ratio (y) = 0.18940 0.59270
# Poissons Ratio (z) = 0.56715 0.33986
#
# Static dielectric constant tensor:
#      x y z
#    x 1.598870 0.000000 0.000000 
#    y 0.000000 1.553350 0.000000 
#    z 0.000000 0.000000 1.571520 
# 
# From -- ./inp_files/4883.got.cif
#   From: 2010.05.17/outbox.cif.g08.bks.cpg/sg57_3_cif.got.tgz:4883.got - 2010.06.03 13:58:18.
