data_PCOD9435456
_publ_section_title
;
Structure prediction by ZEFSAII (Michael W. Deem and Ramdas Pophale) SiO2 
 PCOD9435456
Probable space group: P B C M
;
_chemical_formula_sum "Si O2"
_cell_formula_units_Z 64
_cell_length_a 16.564804
_cell_length_b 22.249143
_cell_length_c 9.344162
_cell_angle_alpha 90.000000
_cell_angle_beta 90.000000
_cell_angle_gamma 90.000000
_cell_volume 3443.816069
_symmetry_space_group_name_H-M "P B C M"
_symmetry_group_IT_number 57
_symmetry_cell_setting 'orthorhombic'
loop_
_space_group_symop_operation_xyz
x,y,z
-x,-y,1/2+z
x,1/2-y,-z
-x,1/2+y,1/2-z
-x,-y,-z
x,y,1/2-z
-x,1/2+y,z
x,1/2-y,1/2+z
loop_
_atom_site_type_symbol
_atom_site_label
_atom_site_fract_x
_atom_site_fract_y
_atom_site_fract_z
Si Si1 0.594415 0.557376 0.585563
Si Si2 0.719402 0.873920 0.580959
Si Si3 0.157991 0.016692 0.081406
Si Si4 0.599406 0.435547 0.414903
Si Si5 0.027624 0.085696 0.585380
Si Si6 0.304637 0.812571 0.076856
Si Si7 0.151706 0.615840 0.922827
Si Si8 0.151740 0.196083 0.586921
O O1 0.622619 0.559792 0.750000
O O2 0.635699 0.608964 0.491592
O O3 0.616090 0.492622 0.516345
O O4 0.498100 0.567141 0.584454
O O5 0.713504 0.862626 0.750000
O O6 0.774732 0.933237 0.557141
O O7 0.767913 0.822676 0.497989
O O8 0.141519 0.016310 0.250000
O O9 0.186464 0.950166 0.040903
O O10 0.075970 0.035482 0.002257
O O11 0.625666 0.449259 0.250000
O O12 0.638931 0.371194 0.453601
O O13 0.016049 0.065758 0.750000
O O14 0.089903 0.141026 0.586652
O O15 0.941552 0.110256 0.529715
O O16 0.306056 0.804537 0.250000
O O17 0.214158 0.833362 0.029118
O O18 0.326724 0.750000 0.000000
O O19 0.149479 0.621565 0.750000
O O20 0.112685 0.250000 0.500000
O O21 0.169639 0.212475 0.750000
#
# Coordination Sequence:
#
# PCOD9435456 Si02
#       8
#     8   8   8   8   8   8   8   8
#     4  10  19  32  55  85 110 132 167 213 257 309
#     4  10  19  32  51  76 105 136 167 202 251 307
#     4   9  17  30  50  74 101 134 168 202 250 310
#     4   9  19  36  56  78 107 141 171 208 261 312
#     4   9  18  31  48  72 101 131 165 210 260 303
#     4  10  21  38  56  74 102 140 180 218 257 305
#     4   9  17  31  51  73  99 133 169 207 253 302
#     4  10  20  34  50  69  96 131 170 211 254 301
#
# _framework density 18.584036999999999
#
# number of rings (size 3 to 8) (size 9 to 14) (size 15 to 20)
#    0.000    2.500    0.000    2.250    0.000    4.500 
#    0.000    1.875    0.000    1.500    0.000    0.000 
#    0.000    0.000    0.000    0.000    0.000    0.000 
#
# Total GULP energy -356687.530125 kJ/mol
# GULP energy per Si atom -5573.242658 kJ/mol
# Density = 1.854174 g / cm^3
# Si number density = 18.584037 Si / 1000 Ang^3
#
#
#
# Elastic Constant Matrix: (Units=GPa)
#
#
# Indices 1 2 3 4 5 6 
#
# 1 54.2164 15.7842 24.2155 0.0000 0.0000 0.0000
# 2 15.7842 69.2490 20.4270 0.0000 0.0000 0.0000
# 3 24.2155 20.4270 57.5216 0.0000 0.0000 0.0000
# 4 0.0000 0.0000 0.0000 29.4364 0.0000 0.0000
# 5 0.0000 0.0000 0.0000 0.0000 18.3006 0.0000
# 6 0.0000 0.0000 0.0000 0.0000 0.0000 23.1085
#
#
#
# Elastic Compliance Matrix: (Units=1/GPa)
#
#
# Indices 1 2 3 4 5 6 
#
# 1 0.023154 -0.002683 -0.008794 0.000000 0.000000 0.000000
# 2 -0.002683 0.016441 -0.004709 0.000000 0.000000 0.000000
# 3 -0.008794 -0.004709 0.022759 0.000000 0.000000 0.000000
# 4 0.000000 0.000000 0.000000 0.033972 0.000000 0.000000
# 5 0.000000 0.000000 0.000000 0.000000 0.054643 0.000000
# 6 0.000000 0.000000 0.000000 0.000000 0.000000 0.043274
#
#
# Mechanical properties :
#
#
# Convention : Reuss Voigt Hill
#
# Bulk Modulus (GPa) = 33.35455 33.53783 33.44619
# Shear Modulus (GPa) = 21.13179 22.20645 21.66912
#
# Velocity S-wave (km/s) = 3.37574 3.46051 3.41839
# Velocity P-wave (km/s) = 5.76030 5.83546 5.79800
#
# Compressibility (1/GPa) = 0.02998092
#
# Stress axis : x y z
#
# Youngs Moduli (GPa) = 43.18946 60.82230 43.93806
#
# Poissons Ratio (x) = 0.16321 0.38641
# Poissons Ratio (y) = 0.11589 0.20690
# Poissons Ratio (z) = 0.37983 0.28641
#
# Static dielectric constant tensor:
#      x y z
#    x 1.675910 0.000000 0.000000 
#    y 0.000000 1.684830 0.000000 
#    z 0.000000 0.000000 1.636150 
# 
# From -- ./inp_files/7281.got.cif
#   From: 2010.05.17/outbox.cif.g08.bks.cpg/sg57_4_cif.got.tgz:7281.got - 2010.06.03 13:58:18.
