data_PCOD9435833
_publ_section_title
;
Structure prediction by ZEFSAII (Michael W. Deem and Ramdas Pophale) SiO2 
 PCOD9435833
Probable space group: P B C M
;
_chemical_formula_sum "Si O2"
_cell_formula_units_Z 56
_cell_length_a 11.911458
_cell_length_b 16.412984
_cell_length_c 16.253733
_cell_angle_alpha 90.000000
_cell_angle_beta 90.000000
_cell_angle_gamma 90.000000
_cell_volume 3177.646567
_symmetry_space_group_name_H-M "P B C M"
_symmetry_group_IT_number 57
_symmetry_cell_setting 'orthorhombic'
loop_
_space_group_symop_operation_xyz
x,y,z
-x,-y,1/2+z
x,1/2-y,-z
-x,1/2+y,1/2-z
-x,-y,-z
x,y,1/2-z
-x,1/2+y,z
x,1/2-y,1/2+z
loop_
_atom_site_type_symbol
_atom_site_label
_atom_site_fract_x
_atom_site_fract_y
_atom_site_fract_z
Si Si1 0.685392 0.453375 0.054087
Si Si2 0.893155 0.554938 0.986912
Si Si3 0.603299 0.185996 0.066492
Si Si4 0.195938 0.299675 0.917637
Si Si5 0.404743 0.398397 0.653621
Si Si6 0.215873 0.803627 0.348689
Si Si7 0.041299 0.167196 0.844685
O O1 0.782486 0.503941 0.007819
O O2 0.605696 0.519183 0.098945
O O3 0.736291 0.391190 0.121853
O O4 0.633641 0.393486 0.986499
O O5 0.887936 0.631324 0.048568
O O6 0.907834 0.593643 0.897332
O O7 0.000000 0.500000 0.000000
O O8 0.514198 0.154959 0.132708
O O9 0.709946 0.233501 0.106489
O O10 0.553548 0.250000 0.000000
O O11 0.298770 0.343338 0.873364
O O12 0.127571 0.240481 0.858716
O O13 0.232310 0.250000 0.000000
O O14 0.399722 0.418090 0.750000
O O15 0.224488 0.794349 0.250000
O O16 0.083860 0.805534 0.372774
O O17 0.031202 0.144521 0.750000
#
# Coordination Sequence:
#
# PCOD9435833 Si02
#       7
#     8   8   8   8   8   8   8
#     4  10  21  36  57  81 110 145 184 226 274 334
#     4  10  19  33  55  80 109 146 181 215 272 331
#     4  10  22  37  59  79 109 145 187 226 275 329
#     4   9  20  34  56  79 107 145 186 221 270 328
#     4  11  21  37  57  81 109 140 185 234 277 322
#     4  10  20  35  55  83 111 143 182 226 276 325
#     4  10  20  35  54  82 117 145 181 229 274 325
#
# _framework density 17.623104999999999
#
# number of rings (size 3 to 8) (size 9 to 14) (size 15 to 20)
#    0.000    2.000    1.429    2.143    2.000    1.714 
#    0.000    2.143    0.000    0.000    0.000    0.000 
#    0.000    0.000    0.000    0.000    0.000    0.000 
#
# Total GULP energy -312183.298695 kJ/mol
# GULP energy per Si atom -5574.701762 kJ/mol
# Density = 1.758299 g / cm^3
# Si number density = 17.623105 Si / 1000 Ang^3
#
#
#
# Elastic Constant Matrix: (Units=GPa)
#
#
# Indices 1 2 3 4 5 6 
#
# 1 53.6054 36.0792 39.0726 0.0000 0.0000 0.0000
# 2 36.0792 110.7722 42.8479 0.0000 0.0000 0.0000
# 3 39.0726 42.8479 87.1211 0.0000 0.0000 0.0000
# 4 0.0000 0.0000 0.0000 19.4776 0.0000 0.0000
# 5 0.0000 0.0000 0.0000 0.0000 25.1122 0.0000
# 6 0.0000 0.0000 0.0000 0.0000 0.0000 22.6663
#
#
#
# Elastic Compliance Matrix: (Units=1/GPa)
#
#
# Indices 1 2 3 4 5 6 
#
# 1 0.030384 -0.005712 -0.010818 0.000000 0.000000 0.000000
# 2 -0.005712 0.012222 -0.003449 0.000000 0.000000 0.000000
# 3 -0.010818 -0.003449 0.018026 0.000000 0.000000 0.000000
# 4 0.000000 0.000000 0.000000 0.051341 0.000000 0.000000
# 5 0.000000 0.000000 0.000000 0.000000 0.039821 0.000000
# 6 0.000000 0.000000 0.000000 0.000000 0.000000 0.044118
#
#
# Mechanical properties :
#
#
# Convention : Reuss Voigt Hill
#
# Bulk Modulus (GPa) = 48.36816 54.16645 51.26731
# Shear Modulus (GPa) = 20.59622 22.35114 21.47368
#
# Velocity S-wave (km/s) = 3.42234 3.56516 3.49448
# Velocity P-wave (km/s) = 6.56674 6.91013 6.74062
#
# Compressibility (1/GPa) = 0.02067476
#
# Stress axis : x y z
#
# Youngs Moduli (GPa) = 32.91192 81.81825 55.47446
#
# Poissons Ratio (x) = 0.46734 0.60010
# Poissons Ratio (y) = 0.18799 0.19135
# Poissons Ratio (z) = 0.35603 0.28223
#
# Static dielectric constant tensor:
#      x y z
#    x 1.597010 0.000000 0.000000 
#    y 0.000000 1.548870 0.000000 
#    z 0.000000 0.000000 1.585980 
# 
# From -- ./inp_files/17695.got.cif
#   From: 2010.05.17/outbox.cif.g08.bks.cpg/sg57_9_cif.got.tgz:17695.got - 2010.06.03 13:58:18.
