data_PCOD9435335
_publ_section_title
;
Structure prediction by ZEFSAII (Michael W. Deem and Ramdas Pophale) SiO2 
 PCOD9435335
Probable space group: P B C M
;
_chemical_formula_sum "Si O2"
_cell_formula_units_Z 56
_cell_length_a 20.668801
_cell_length_b 13.593300
_cell_length_c 8.994246
_cell_angle_alpha 90.000000
_cell_angle_beta 90.000000
_cell_angle_gamma 90.000000
_cell_volume 2526.998286
_symmetry_space_group_name_H-M "P B C M"
_symmetry_group_IT_number 57
_symmetry_cell_setting 'orthorhombic'
loop_
_space_group_symop_operation_xyz
x,y,z
-x,-y,1/2+z
x,1/2-y,-z
-x,1/2+y,1/2-z
-x,-y,-z
x,y,1/2-z
-x,1/2+y,z
x,1/2-y,1/2+z
loop_
_atom_site_type_symbol
_atom_site_label
_atom_site_fract_x
_atom_site_fract_y
_atom_site_fract_z
Si Si1 0.680582 0.652964 0.576507
Si Si2 0.550976 0.621474 0.084174
Si Si3 0.842487 0.437325 0.070744
Si Si4 0.422806 0.612853 0.918540
Si Si5 0.980406 0.099666 0.577808
Si Si6 0.874919 0.650122 0.575060
Si Si7 0.290188 0.571410 0.428914
O O1 0.707865 0.750000 0.500000
O O2 0.690278 0.661615 0.750000
O O3 0.604837 0.650676 0.534615
O O4 0.706223 0.545696 0.530531
O O5 0.563764 0.660877 0.250000
O O6 0.560388 0.503614 0.094153
O O7 0.479914 0.647117 0.027007
O O8 0.833561 0.439089 0.250000
O O9 0.907615 0.376170 0.026724
O O10 0.854909 0.549381 0.009535
O O11 0.778555 0.395467 0.992740
O O12 0.424047 0.652897 0.750000
O O13 0.352373 0.620580 0.993402
O O14 0.971234 0.078064 0.750000
O O15 0.046595 0.159423 0.568385
O O16 0.000000 0.000000 0.500000
O O17 0.849793 0.750000 0.500000
O O18 0.856782 0.642072 0.750000
O O19 0.294264 0.580064 0.250000
#
# Coordination Sequence:
#
# PCOD9435335 Si02
#       7
#     8   8   8   8   8   8   8
#     4  10  20  32  45  62  88 121 156 190 226 271
#     4   9  16  27  44  64  86 112 144 184 227 267
#     4  10  19  32  49  69  94 126 160 194 236 284
#     4   9  16  27  44  65  87 112 145 185 226 265
#     4   8  16  30  48  68  91 119 153 193 234 276
#     4  10  19  32  49  71  97 124 156 194 234 278
#     4  10  20  32  45  65  93 124 156 190 229 275
#
# _framework density 22.160681
#
# number of rings (size 3 to 8) (size 9 to 14) (size 15 to 20)
#    0.000    2.571    0.000    2.571    0.000    6.857 
#    0.000    1.429    0.000    0.000    0.000    1.000 
#    0.000    2.286    0.000    0.000    0.000    0.000 
#
# Total GULP energy -312326.299279 kJ/mol
# GULP energy per Si atom -5577.255344 kJ/mol
# Density = 2.211024 g / cm^3
# Si number density = 22.160681 Si / 1000 Ang^3
#
#
#
# Elastic Constant Matrix: (Units=GPa)
#
#
# Indices 1 2 3 4 5 6 
#
# 1 187.0006 -17.2152 34.1768 0.0000 0.0000 0.0000
# 2 -17.2152 28.2182 8.8212 0.0000 0.0000 0.0000
# 3 34.1768 8.8212 51.8838 0.0000 0.0000 0.0000
# 4 0.0000 0.0000 0.0000 15.2859 0.0000 0.0000
# 5 0.0000 0.0000 0.0000 0.0000 25.6360 0.0000
# 6 0.0000 0.0000 0.0000 0.0000 0.0000 -8.8708
#
#
#
# Elastic Compliance Matrix: (Units=1/GPa)
#
#
# Indices 1 2 3 4 5 6 
#
# 1 0.006914 0.005958 -0.005567 0.000000 0.000000 0.000000
# 2 0.005958 0.042562 -0.011161 0.000000 0.000000 0.000000
# 3 -0.005567 -0.011161 0.024839 0.000000 0.000000 0.000000
# 4 0.000000 0.000000 0.000000 0.065420 0.000000 0.000000
# 5 0.000000 0.000000 0.000000 0.000000 0.039008 0.000000
# 6 0.000000 0.000000 0.000000 0.000000 0.000000 -0.112730
#
#
# Mechanical properties :
#
#
# Convention : Reuss Voigt Hill
#
# Bulk Modulus (GPa) = 18.94873 35.40760 27.17816
# Shear Modulus (GPa) = 47.55415 22.49820 35.02618
#
# Velocity S-wave (km/s) = 4.63739 3.18973 3.97993
# Velocity P-wave (km/s) = 6.10271 5.43858 5.78019
#
# Compressibility (1/GPa) = 0.05277400
#
# Stress axis : x y z
#
# Youngs Moduli (GPa) = 144.64405 23.49515 40.25999
#
# Poissons Ratio (x) = -0.13999 0.22413
# Poissons Ratio (y) = -0.86180 0.44934
# Poissons Ratio (z) = 0.80524 0.26223
#
# Static dielectric constant tensor:
#      x y z
#    x 1.843970 0.000000 0.000000 
#    y 0.000000 1.843420 0.000000 
#    z 0.000000 0.000000 1.761440 
# 
# From -- ./inp_files/7065.got.cif
#   From: 2010.05.17/outbox.cif.g08.bks.cpg/sg57_4_cif.got.tgz:7065.got - 2010.06.03 13:58:18.
