data_PCOD9435711
_publ_section_title
;
Structure prediction by ZEFSAII (Michael W. Deem and Ramdas Pophale) SiO2 
 PCOD9435711
Probable space group: P B C M
;
_chemical_formula_sum "Si O2"
_cell_formula_units_Z 64
_cell_length_a 22.973315
_cell_length_b 18.044646
_cell_length_c 8.499406
_cell_angle_alpha 90.000000
_cell_angle_beta 90.000000
_cell_angle_gamma 90.000000
_cell_volume 3523.389121
_symmetry_space_group_name_H-M "P B C M"
_symmetry_group_IT_number 57
_symmetry_cell_setting 'orthorhombic'
loop_
_space_group_symop_operation_xyz
x,y,z
-x,-y,1/2+z
x,1/2-y,-z
-x,1/2+y,1/2-z
-x,-y,-z
x,y,1/2-z
-x,1/2+y,z
x,1/2-y,1/2+z
loop_
_atom_site_type_symbol
_atom_site_label
_atom_site_fract_x
_atom_site_fract_y
_atom_site_fract_z
Si Si1 0.457588 0.435061 0.060909
Si Si2 0.236555 0.012393 0.935892
Si Si3 0.916335 0.631953 0.563116
Si Si4 0.640488 0.031197 0.561524
Si Si5 0.442439 0.832039 0.439331
Si Si6 0.045160 0.672356 0.939143
Si Si7 0.208784 0.170912 0.435836
Si Si8 0.112361 0.525029 0.562357
O O1 0.453689 0.062645 0.750000
O O2 0.396063 0.458228 0.988903
O O3 0.500000 0.500000 0.000000
O O4 0.492820 0.361048 0.014317
O O5 0.227363 0.006734 0.750000
O O6 0.237444 0.099311 0.983212
O O7 0.296144 0.973879 0.986683
O O8 0.180763 0.978140 0.023758
O O9 0.909264 0.644849 0.750000
O O10 0.860171 0.663988 0.474989
O O11 0.915600 0.544280 0.528176
O O12 0.978143 0.663093 0.507959
O O13 0.644683 0.032755 0.750000
O O14 0.603930 0.104450 0.510339
O O15 0.430280 0.750000 0.500000
O O16 0.440862 0.831196 0.250000
O O17 0.044364 0.673050 0.750000
O O18 0.082717 0.601503 0.987774
O O19 0.068762 0.750000 0.000000
O O20 0.229421 0.250000 0.500000
O O21 0.217220 0.166185 0.250000
O O22 0.104083 0.514919 0.750000
#
# Coordination Sequence:
#
# PCOD9435711 Si02
#       8
#     8   8   8   8   8   8   8   8
#     4   9  17  31  51  78 107 138 172 210 254 306
#     4  11  22  37  57  80 103 138 182 221 262 316
#     4  10  19  33  53  79 104 132 170 212 261 323
#     4  10  20  36  56  80 107 141 181 223 264 310
#     4   9  19  33  53  81 113 142 175 216 261 305
#     4  10  22  35  51  75 104 135 171 215 267 320
#     4  11  21  35  54  78 107 138 170 214 265 316
#     4  10  20  36  54  75 102 136 174 217 265 316
#
# _framework density 18.16433
#
# number of rings (size 3 to 8) (size 9 to 14) (size 15 to 20)
#    0.000    2.000    0.000    6.750    0.000    6.000 
#    0.000    1.250    0.000    1.500    0.000    0.000 
#    0.000    0.000    0.000    0.000    0.000    0.000 
#
# Total GULP energy -357158.270640 kJ/mol
# GULP energy per Si atom -5580.597979 kJ/mol
# Density = 1.812299 g / cm^3
# Si number density = 18.164330 Si / 1000 Ang^3
#
#
#
# Elastic Constant Matrix: (Units=GPa)
#
#
# Indices 1 2 3 4 5 6 
#
# 1 51.5027 28.6236 -6.6529 0.0000 0.0000 0.0000
# 2 28.6236 98.2057 -1.9597 0.0000 0.0000 0.0000
# 3 -6.6529 -1.9597 33.3341 0.0000 0.0000 0.0000
# 4 0.0000 0.0000 0.0000 30.0953 0.0000 0.0000
# 5 0.0000 0.0000 0.0000 0.0000 24.3723 0.0000
# 6 0.0000 0.0000 0.0000 0.0000 0.0000 15.0004
#
#
#
# Elastic Compliance Matrix: (Units=1/GPa)
#
#
# Indices 1 2 3 4 5 6 
#
# 1 0.023782 -0.006845 0.004344 0.000000 0.000000 0.000000
# 2 -0.006845 0.012165 -0.000651 0.000000 0.000000 0.000000
# 3 0.004344 -0.000651 0.030828 0.000000 0.000000 0.000000
# 4 0.000000 0.000000 0.000000 0.033228 0.000000 0.000000
# 5 0.000000 0.000000 0.000000 0.000000 0.041030 0.000000
# 6 0.000000 0.000000 0.000000 0.000000 0.000000 0.066665
#
#
# Mechanical properties :
#
#
# Convention : Reuss Voigt Hill
#
# Bulk Modulus (GPa) = 16.53688 24.78495 20.66092
# Shear Modulus (GPa) = 21.35311 24.76239 23.05775
#
# Velocity S-wave (km/s) = 3.43235 3.69622 3.56673
# Velocity P-wave (km/s) = 4.98316 5.64717 5.32552
#
# Compressibility (1/GPa) = 0.06047089
#
# Stress axis : x y z
#
# Youngs Moduli (GPa) = 42.04905 82.20468 32.43801
#
# Poissons Ratio (x) = 0.56268 -0.14091
# Poissons Ratio (y) = 0.28782 0.02112
# Poissons Ratio (z) = -0.18266 0.05351
#
# Static dielectric constant tensor:
#      x y z
#    x 1.618000 0.000000 0.000000 
#    y 0.000000 1.629090 0.000000 
#    z 0.000000 0.000000 1.614980 
# 
# From -- ./inp_files/9532.got.cif
#   From: 2010.05.17/outbox.cif.g08.bks.cpg/sg57_5_cif.got.tgz:9532.got - 2010.06.03 13:58:18.
