data_PCOD9435028
_publ_section_title
;
Structure prediction by ZEFSAII (Michael W. Deem and Ramdas Pophale) SiO2 
 PCOD9435028
Probable space group: P B C M
;
_chemical_formula_sum "Si O2"
_cell_formula_units_Z 64
_cell_length_a 31.188428
_cell_length_b 14.065014
_cell_length_c 8.804279
_cell_angle_alpha 90.000000
_cell_angle_beta 90.000000
_cell_angle_gamma 90.000000
_cell_volume 3862.135003
_symmetry_space_group_name_H-M "P B C M"
_symmetry_group_IT_number 57
_symmetry_cell_setting 'orthorhombic'
loop_
_space_group_symop_operation_xyz
x,y,z
-x,-y,1/2+z
x,1/2-y,-z
-x,1/2+y,1/2-z
-x,-y,-z
x,y,1/2-z
-x,1/2+y,z
x,1/2-y,1/2+z
loop_
_atom_site_type_symbol
_atom_site_label
_atom_site_fract_x
_atom_site_fract_y
_atom_site_fract_z
Si Si1 0.110288 0.348236 0.425340
Si Si2 0.354617 0.148128 0.932472
Si Si3 0.254809 0.353892 0.067404
Si Si4 0.516878 0.146019 0.568928
Si Si5 0.181681 0.476982 0.569240
Si Si6 0.954918 0.478725 0.576348
Si Si7 0.874869 0.355523 0.934374
Si Si8 0.566701 0.523257 0.932863
O O1 0.097058 0.250000 0.500000
O O2 0.124191 0.335850 0.250000
O O3 0.148168 0.394549 0.522632
O O4 0.072094 0.423965 0.426214
O O5 0.357013 0.154521 0.750000
O O6 0.304937 0.130709 0.972244
O O7 0.388044 0.067577 0.981566
O O8 0.367295 0.250000 0.000000
O O9 0.250291 0.351032 0.250000
O O10 0.242510 0.250000 0.000000
O O11 0.226006 0.437914 0.999136
O O12 0.520005 0.250000 0.500000
O O13 0.518947 0.150790 0.750000
O O14 0.471332 0.097298 0.527060
O O15 0.553468 0.075817 0.507120
O O16 0.184139 0.487793 0.750000
O O17 0.161789 0.572432 0.494816
O O18 0.963672 0.451468 0.750000
O O19 0.921049 0.400291 0.515252
O O20 0.000000 0.500000 0.500000
O O21 0.873927 0.355985 0.750000
O O22 0.869812 0.250000 0.000000
O O23 0.566669 0.512631 0.750000
#
# Coordination Sequence:
#
# PCOD9435028 Si02
#       8
#     8   8   8   8   8   8   8   8
#     4  10  20  34  50  72  99 129 162 198 239 285
#     4   9  18  31  49  72 100 133 165 201 245 294
#     4  10  19  32  50  75 105 135 165 200 246 300
#     4  10  19  30  47  70  96 128 165 207 251 294
#     4  11  21  34  53  76 101 131 163 201 245 290
#     4   9  20  35  51  72 101 132 165 202 240 284
#     4  10  21  38  57  79 103 132 169 209 250 293
#     4   9  18  32  48  69  97 129 166 205 247 296
#
# _framework density 16.571145999999999
#
# number of rings (size 3 to 8) (size 9 to 14) (size 15 to 20)
#    0.000    2.250    0.000    4.125    0.000    5.000 
#    0.000    2.500    0.000    0.750    0.000    3.500 
#    0.000    0.000    0.000    0.000    0.000    0.000 
#
# Total GULP energy -356939.408157 kJ/mol
# GULP energy per Si atom -5577.178252 kJ/mol
# Density = 1.653343 g / cm^3
# Si number density = 16.571146 Si / 1000 Ang^3
#
#
#
# Elastic Constant Matrix: (Units=GPa)
#
#
# Indices 1 2 3 4 5 6 
#
# 1 86.8479 55.7539 36.3116 0.0000 0.0000 0.0000
# 2 55.7539 122.6670 45.6392 0.0000 0.0000 0.0000
# 3 36.3116 45.6392 62.2012 0.0000 0.0000 0.0000
# 4 0.0000 0.0000 0.0000 30.1796 0.0000 0.0000
# 5 0.0000 0.0000 0.0000 0.0000 23.4276 0.0000
# 6 0.0000 0.0000 0.0000 0.0000 0.0000 13.9526
#
#
#
# Elastic Compliance Matrix: (Units=1/GPa)
#
#
# Indices 1 2 3 4 5 6 
#
# 1 0.017810 -0.005814 -0.006131 0.000000 0.000000 0.000000
# 2 -0.005814 0.013111 -0.006226 0.000000 0.000000 0.000000
# 3 -0.006131 -0.006226 0.024225 0.000000 0.000000 0.000000
# 4 0.000000 0.000000 0.000000 0.033135 0.000000 0.000000
# 5 0.000000 0.000000 0.000000 0.000000 0.042685 0.000000
# 6 0.000000 0.000000 0.000000 0.000000 0.000000 0.071671
#
#
# Mechanical properties :
#
#
# Convention : Reuss Voigt Hill
#
# Bulk Modulus (GPa) = 53.18233 60.79172 56.98703
# Shear Modulus (GPa) = 20.38762 22.44607 21.41684
#
# Velocity S-wave (km/s) = 3.51138 3.68438 3.59892
# Velocity P-wave (km/s) = 6.97157 7.40706 7.19261
#
# Compressibility (1/GPa) = 0.01880324
#
# Stress axis : x y z
#
# Youngs Moduli (GPa) = 56.14749 76.27155 41.28043
#
# Poissons Ratio (x) = 0.44342 0.25311
# Poissons Ratio (y) = 0.32643 0.25702
# Poissons Ratio (z) = 0.34427 0.47487
#
# Static dielectric constant tensor:
#      x y z
#    x 1.566210 0.000000 0.000000 
#    y 0.000000 1.535060 0.000000 
#    z 0.000000 0.000000 1.562660 
# 
# From -- ./inp_files/10335.got.cif
#   From: 2010.05.17/outbox.cif.g08.bks.cpg/sg57_6_cif.got.tgz:10335.got - 2010.06.03 13:58:18.
