data_PCOD9435745
_publ_section_title
;
Structure prediction by ZEFSAII (Michael W. Deem and Ramdas Pophale) SiO2 
 PCOD9435745
Probable space group: P B C M
;
_chemical_formula_sum "Si O2"
_cell_formula_units_Z 48
_cell_length_a 8.773992
_cell_length_b 8.450469
_cell_length_c 32.089544
_cell_angle_alpha 90.000000
_cell_angle_beta 90.000000
_cell_angle_gamma 90.000000
_cell_volume 2379.258298
_symmetry_space_group_name_H-M "P B C M"
_symmetry_group_IT_number 57
_symmetry_cell_setting 'orthorhombic'
loop_
_space_group_symop_operation_xyz
x,y,z
-x,-y,1/2+z
x,1/2-y,-z
-x,1/2+y,1/2-z
-x,-y,-z
x,y,1/2-z
-x,1/2+y,z
x,1/2-y,1/2+z
loop_
_atom_site_type_symbol
_atom_site_label
_atom_site_fract_x
_atom_site_fract_y
_atom_site_fract_z
Si Si1 0.418230 0.538445 0.623761
Si Si2 0.725095 0.115996 0.389875
Si Si3 0.930756 0.965628 0.045197
Si Si4 0.784814 0.497402 0.202719
Si Si5 0.173286 0.159820 0.084682
Si Si6 0.992211 0.278045 0.665516
O O1 0.597588 0.515249 0.619325
O O2 0.355786 0.712490 0.612675
O O3 0.354813 0.499252 0.670123
O O4 0.338805 0.407676 0.593894
O O5 0.856510 0.115233 0.354546
O O6 0.804162 0.082658 0.434629
O O7 0.860099 0.791183 0.049913
O O8 0.074905 0.002388 0.074992
O O9 0.000000 0.000000 0.000000
O O10 0.738059 0.466931 0.250000
O O11 0.900055 0.365902 0.184653
O O12 0.892349 0.650430 0.199030
O O13 0.101823 0.241874 0.125547
#
# Coordination Sequence:
#
# PCOD9435745 Si02
#       6
#     8   8   8   8   8   8
#     4  10  21  37  59  82 115 159 197 232 287 354
#     4  10  20  37  57  82 111 151 197 233 281 353
#     4  11  21  35  58  87 113 141 183 236 286 334
#     4  10  19  33  53  83 115 148 195 249 288 328
#     4  10  19  35  57  82 112 149 189 230 278 347
#     4   9  18  33  55  78 107 150 193 232 283 340
#
# _framework density 20.174354000000001
#
# number of rings (size 3 to 8) (size 9 to 14) (size 15 to 20)
#    0.000    2.000    0.000    7.000    0.000    1.333 
#    0.000    5.000    0.000    4.000    0.000    0.000 
#    0.000    0.000    0.000    0.000    0.000    0.000 
#
# Total GULP energy -267522.777338 kJ/mol
# GULP energy per Si atom -5573.391195 kJ/mol
# Density = 2.012844 g / cm^3
# Si number density = 20.174354 Si / 1000 Ang^3
#
#
#
# Elastic Constant Matrix: (Units=GPa)
#
#
# Indices 1 2 3 4 5 6 
#
# 1 97.3295 6.6321 28.6195 0.0000 0.0000 0.0000
# 2 6.6321 41.6098 10.5674 0.0000 0.0000 0.0000
# 3 28.6195 10.5674 99.5676 0.0000 0.0000 0.0000
# 4 0.0000 0.0000 0.0000 20.7197 0.0000 0.0000
# 5 0.0000 0.0000 0.0000 0.0000 16.8570 0.0000
# 6 0.0000 0.0000 0.0000 0.0000 0.0000 32.6459
#
#
#
# Elastic Compliance Matrix: (Units=1/GPa)
#
#
# Indices 1 2 3 4 5 6 
#
# 1 0.011263 -0.001000 -0.003131 0.000000 0.000000 0.000000
# 2 -0.001000 0.024787 -0.002343 0.000000 0.000000 0.000000
# 3 -0.003131 -0.002343 0.011192 0.000000 0.000000 0.000000
# 4 0.000000 0.000000 0.000000 0.048263 0.000000 0.000000
# 5 0.000000 0.000000 0.000000 0.000000 0.059323 0.000000
# 6 0.000000 0.000000 0.000000 0.000000 0.000000 0.030632
#
#
# Mechanical properties :
#
#
# Convention : Reuss Voigt Hill
#
# Bulk Modulus (GPa) = 29.16010 36.68279 32.92144
# Shear Modulus (GPa) = 23.82757 26.89036 25.35896
#
# Velocity S-wave (km/s) = 3.44042 3.65485 3.54925
# Velocity P-wave (km/s) = 5.50158 6.00274 5.75762
#
# Compressibility (1/GPa) = 0.03429344
#
# Stress axis : x y z
#
# Youngs Moduli (GPa) = 88.78405 40.34328 89.34787
#
# Poissons Ratio (x) = 0.04034 0.27978
# Poissons Ratio (y) = 0.08878 0.20937
# Poissons Ratio (z) = 0.27802 0.09454
#
# Static dielectric constant tensor:
#      x y z
#    x 1.692470 0.000000 0.000000 
#    y 0.000000 1.810790 0.000000 
#    z 0.000000 0.000000 1.736290 
# 
# From -- ./inp_files/29436.got.cif
#   From: 2010.05.17/outbox.cif.g08.bks.cpg/sg57_15_cif.got.tgz:29436.got - 2010.06.03 13:58:18.
