data_PCOD9435173
_publ_section_title
;
Structure prediction by ZEFSAII (Michael W. Deem and Ramdas Pophale) SiO2 
 PCOD9435173
Probable space group: P B C M
;
_chemical_formula_sum "Si O2"
_cell_formula_units_Z 64
_cell_length_a 18.021912
_cell_length_b 9.574635
_cell_length_c 17.905364
_cell_angle_alpha 90.000000
_cell_angle_beta 90.000000
_cell_angle_gamma 90.000000
_cell_volume 3089.628382
_symmetry_space_group_name_H-M "P B C M"
_symmetry_group_IT_number 57
_symmetry_cell_setting 'orthorhombic'
loop_
_space_group_symop_operation_xyz
x,y,z
-x,-y,1/2+z
x,1/2-y,-z
-x,1/2+y,1/2-z
-x,-y,-z
x,y,1/2-z
-x,1/2+y,z
x,1/2-y,1/2+z
loop_
_atom_site_type_symbol
_atom_site_label
_atom_site_fract_x
_atom_site_fract_y
_atom_site_fract_z
Si Si1 0.850083 0.265325 0.339353
Si Si2 0.935364 0.598056 0.032198
Si Si3 0.285323 0.537835 0.659347
Si Si4 0.428487 0.041184 0.659080
Si Si5 0.151177 0.034114 0.597194
Si Si6 0.282802 0.283347 0.159365
Si Si7 0.014074 0.949558 0.161964
Si Si8 0.427220 0.782384 0.341322
O O1 0.846630 0.240702 0.250000
O O2 0.791659 0.385761 0.358407
O O3 0.933206 0.317656 0.357151
O O4 0.829633 0.122967 0.380052
O O5 0.944345 0.576735 0.119727
O O6 0.948115 0.750000 0.000000
O O7 0.861157 0.547374 0.991434
O O8 0.000000 0.500000 0.000000
O O9 0.289497 0.533570 0.750000
O O10 0.290022 0.377439 0.634627
O O11 0.353748 0.634472 0.634222
O O12 0.429793 0.038110 0.750000
O O13 0.354320 0.124587 0.637758
O O14 0.500533 0.129455 0.635541
O O15 0.429014 0.879489 0.634292
O O16 0.210358 0.143749 0.626197
O O17 0.070748 0.061703 0.635797
O O18 0.277658 0.285631 0.250000
O O19 0.016003 0.970165 0.250000
O O20 0.426766 0.779982 0.250000
#
# Coordination Sequence:
#
# PCOD9435173 Si02
#       8
#     8   8   8   8   8   8   8   8
#     4  10  21  36  55  83 113 154 202 250 302 357
#     4  10  25  43  63  88 117 155 197 249 305 366
#     4   9  18  30  46  70 109 151 198 252 305 357
#     4   9  16  25  42  67 103 148 200 248 301 360
#     4  11  23  37  58  81 116 152 195 250 305 367
#     4  10  19  31  48  76 110 150 196 253 309 357
#     4  10  23  40  63  88 117 154 205 253 301 362
#     4   9  15  25  41  64  99 150 198 244 299 361
#
# _framework density 20.714465000000001
#
# number of rings (size 3 to 8) (size 9 to 14) (size 15 to 20)
#    0.000    2.250    0.000    2.625    8.750    5.000 
#    0.000    0.625    0.000    0.000    0.000    0.000 
#    0.000    1.000    0.750    0.250    0.250    4.000 
#
# Total GULP energy -357409.283064 kJ/mol
# GULP energy per Si atom -5584.520048 kJ/mol
# Density = 2.066732 g / cm^3
# Si number density = 20.714465 Si / 1000 Ang^3
#
#
#
# Elastic Constant Matrix: (Units=GPa)
#
#
# Indices 1 2 3 4 5 6 
#
# 1 142.6044 83.2304 23.0582 0.0000 0.0000 0.0000
# 2 83.2304 198.2656 20.5533 0.0000 0.0000 0.0000
# 3 23.0582 20.5533 27.7093 0.0000 0.0000 0.0000
# 4 0.0000 0.0000 0.0000 11.2326 0.0000 0.0000
# 5 0.0000 0.0000 0.0000 0.0000 13.0844 0.0000
# 6 0.0000 0.0000 0.0000 0.0000 0.0000 38.1218
#
#
#
# Elastic Compliance Matrix: (Units=1/GPa)
#
#
# Indices 1 2 3 4 5 6 
#
# 1 0.010048 -0.003630 -0.005668 0.000000 0.000000 0.000000
# 2 -0.003630 0.006776 -0.002005 0.000000 0.000000 0.000000
# 3 -0.005668 -0.002005 0.042293 0.000000 0.000000 0.000000
# 4 0.000000 0.000000 0.000000 0.089026 0.000000 0.000000
# 5 0.000000 0.000000 0.000000 0.000000 0.076427 0.000000
# 6 0.000000 0.000000 0.000000 0.000000 0.000000 0.026232
#
#
# Mechanical properties :
#
#
# Convention : Reuss Voigt Hill
#
# Bulk Modulus (GPa) = 27.39033 69.14034 48.26534
# Shear Modulus (GPa) = 17.50835 28.60360 23.05598
#
# Velocity S-wave (km/s) = 2.91043 3.72001 3.33984
# Velocity P-wave (km/s) = 4.95435 7.20428 6.18252
#
# Compressibility (1/GPa) = 0.03650924
#
# Stress axis : x y z
#
# Youngs Moduli (GPa) = 99.52430 147.58914 23.64458
#
# Poissons Ratio (x) = 0.53580 0.13403
# Poissons Ratio (y) = 0.36131 0.04740
# Poissons Ratio (z) = 0.56414 0.29588
#
# Static dielectric constant tensor:
#      x y z
#    x 1.732930 0.000000 0.000000 
#    y 0.000000 1.211020 0.000000 
#    z 0.000000 0.000000 1.769500 
# 
# From -- ./inp_files/25612.got.cif
#   From: 2010.05.17/outbox.cif.g08.bks.cpg/sg57_13_cif.got.tgz:25612.got - 2010.06.03 13:58:18.
