data_PCOD9435481
_publ_section_title
;
Structure prediction by ZEFSAII (Michael W. Deem and Ramdas Pophale) SiO2 
 PCOD9435481
Probable space group: P B C M
;
_chemical_formula_sum "Si O2"
_cell_formula_units_Z 64
_cell_length_a 28.168075
_cell_length_b 12.436562
_cell_length_c 8.964486
_cell_angle_alpha 90.000000
_cell_angle_beta 90.000000
_cell_angle_gamma 90.000000
_cell_volume 3140.385049
_symmetry_space_group_name_H-M "P B C M"
_symmetry_group_IT_number 57
_symmetry_cell_setting 'orthorhombic'
loop_
_space_group_symop_operation_xyz
x,y,z
-x,-y,1/2+z
x,1/2-y,-z
-x,1/2+y,1/2-z
-x,-y,-z
x,y,1/2-z
-x,1/2+y,z
x,1/2-y,1/2+z
loop_
_atom_site_type_symbol
_atom_site_label
_atom_site_fract_x
_atom_site_fract_y
_atom_site_fract_z
Si Si1 0.211296 0.855726 0.927491
Si Si2 0.140887 0.147669 0.423174
Si Si3 0.890289 0.408602 0.072586
Si Si4 0.651380 0.639194 0.072349
Si Si5 0.422757 0.970661 0.082207
Si Si6 0.988938 0.127470 0.068474
Si Si7 0.757009 0.933900 0.571197
Si Si8 0.502947 0.153828 0.086513
O O1 0.205803 0.848534 0.750000
O O2 0.233137 0.750000 0.000000
O O3 0.160077 0.870227 0.008007
O O4 0.241763 0.957495 0.977431
O O5 0.118986 0.250000 0.500000
O O6 0.144067 0.171581 0.250000
O O7 0.194966 0.127478 0.476538
O O8 0.112210 0.038213 0.441328
O O9 0.894902 0.382854 0.250000
O O10 0.933295 0.368151 0.972946
O O11 0.642905 0.644287 0.250000
O O12 0.621890 0.535706 0.018078
O O13 0.707515 0.624879 0.047453
O O14 0.635675 0.750000 0.000000
O O15 0.411496 0.934103 0.250000
O O16 0.465540 0.057569 0.091533
O O17 0.447475 0.879606 0.986514
O O18 0.997939 0.125591 0.250000
O O19 0.005790 0.250000 0.000000
O O20 0.000000 0.000000 0.000000
O O21 0.761930 0.956295 0.750000
O O22 0.512889 0.193283 0.250000
O O23 0.479270 0.250000 0.000000
#
# Coordination Sequence:
#
# PCOD9435481 Si02
#       8
#     8   8   8   8   8   8   8   8
#     4  11  21  35  57  83 109 142 183 230 280 332
#     4   9  18  31  51  78 112 149 187 232 283 337
#     4  10  21  39  60  87 121 157 198 247 299 354
#     4  10  20  34  54  77 105 138 172 213 261 315
#     4   9  19  34  51  75 103 133 171 213 258 312
#     4  12  26  46  70  98 131 171 216 264 317 376
#     4   9  19  35  51  74 107 142 179 222 271 325
#     4  10  19  32  52  75 101 132 167 212 263 314
#
# _framework density 20.379666
#
# number of rings (size 3 to 8) (size 9 to 14) (size 15 to 20)
#    0.000    2.000    0.000    4.875    0.000    4.500 
#    0.000    1.875    0.000    0.000    0.000    0.000 
#    0.000    0.000    0.000    0.000    0.000    0.000 
#
# Total GULP energy -356413.713329 kJ/mol
# GULP energy per Si atom -5568.964271 kJ/mol
# Density = 2.033328 g / cm^3
# Si number density = 20.379666 Si / 1000 Ang^3
#
#
#
# Elastic Constant Matrix: (Units=GPa)
#
#
# Indices 1 2 3 4 5 6 
#
# 1 63.4834 -0.0994 14.4129 0.0000 0.0000 0.0000
# 2 -0.0994 94.5317 54.0753 0.0000 0.0000 0.0000
# 3 14.4129 54.0753 79.7416 0.0000 0.0000 0.0000
# 4 0.0000 0.0000 0.0000 34.6913 0.0000 0.0000
# 5 0.0000 0.0000 0.0000 0.0000 26.2445 0.0000
# 6 0.0000 0.0000 0.0000 0.0000 0.0000 -88.5283
#
#
#
# Elastic Compliance Matrix: (Units=1/GPa)
#
#
# Indices 1 2 3 4 5 6 
#
# 1 0.016894 0.002883 -0.005008 0.000000 0.000000 0.000000
# 2 0.002883 0.017774 -0.012574 0.000000 0.000000 0.000000
# 3 -0.005008 -0.012574 0.021973 0.000000 0.000000 0.000000
# 4 0.000000 0.000000 0.000000 0.028826 0.000000 0.000000
# 5 0.000000 0.000000 0.000000 0.000000 0.038103 0.000000
# 6 0.000000 0.000000 0.000000 0.000000 0.000000 -0.011296
#
#
# Mechanical properties :
#
#
# Convention : Reuss Voigt Hill
#
# Bulk Modulus (GPa) = 36.70950 41.61491 39.16221
# Shear Modulus (GPa) = 33.16650 5.77270 19.46960
#
# Velocity S-wave (km/s) = 4.03852 1.68485 3.09422
# Velocity P-wave (km/s) = 6.30857 4.92434 5.65894
#
# Compressibility (1/GPa) = 0.02724090
#
# Stress axis : x y z
#
# Youngs Moduli (GPa) = 59.19368 56.26037 45.51069
#
# Poissons Ratio (x) = -0.16218 0.22793
# Poissons Ratio (y) = -0.17063 0.57227
# Poissons Ratio (z) = 0.29646 0.70744
#
# Static dielectric constant tensor:
#      x y z
#    x 1.719040 0.000000 0.000000 
#    y 0.000000 1.872130 0.000000 
#    z 0.000000 0.000000 1.731770 
# 
# From -- ./inp_files/10331.got.cif
#   From: 2010.05.17/outbox.cif.g08.bks.cpg/sg57_6_cif.got.tgz:10331.got - 2010.06.03 13:58:18.
