data_PCOD9435177
_publ_section_title
;
Structure prediction by ZEFSAII (Michael W. Deem and Ramdas Pophale) SiO2 
 PCOD9435177
Probable space group: P B C M
;
_chemical_formula_sum "Si O2"
_cell_formula_units_Z 64
_cell_length_a 23.859874
_cell_length_b 16.196320
_cell_length_c 8.730803
_cell_angle_alpha 90.000000
_cell_angle_beta 90.000000
_cell_angle_gamma 90.000000
_cell_volume 3373.950322
_symmetry_space_group_name_H-M "P B C M"
_symmetry_group_IT_number 57
_symmetry_cell_setting 'orthorhombic'
loop_
_space_group_symop_operation_xyz
x,y,z
-x,-y,1/2+z
x,1/2-y,-z
-x,1/2+y,1/2-z
-x,-y,-z
x,y,1/2-z
-x,1/2+y,z
x,1/2-y,1/2+z
loop_
_atom_site_type_symbol
_atom_site_label
_atom_site_fract_x
_atom_site_fract_y
_atom_site_fract_z
Si Si1 0.050731 0.662136 0.935114
Si Si2 0.310874 0.164402 0.067112
Si Si3 0.637107 0.414297 0.573372
Si Si4 0.579345 0.593960 0.926559
Si Si5 0.925091 0.662228 0.434751
Si Si6 0.742996 0.491052 0.434180
Si Si7 0.869487 0.489371 0.063688
Si Si8 0.526244 0.336861 0.933597
O O1 0.048233 0.665875 0.750000
O O2 0.088940 0.584427 0.982357
O O3 0.988194 0.651796 0.001712
O O4 0.071963 0.750000 0.000000
O O5 0.310330 0.167953 0.250000
O O6 0.276232 0.083297 0.017169
O O7 0.288898 0.250000 0.000000
O O8 0.374248 0.150029 0.009269
O O9 0.648439 0.392895 0.750000
O O10 0.605318 0.502567 0.570426
O O11 0.695642 0.427628 0.489460
O O12 0.589376 0.354204 0.508882
O O13 0.573134 0.619495 0.750000
O O14 0.519848 0.598766 0.008802
O O15 0.903764 0.750000 0.500000
O O16 0.073592 0.333135 0.750000
O O17 0.890603 0.580664 0.481351
O O18 0.742929 0.490606 0.250000
O O19 0.805893 0.474308 0.488626
O O20 0.869264 0.489234 0.250000
O O21 0.527496 0.337468 0.750000
O O22 0.506882 0.250000 0.000000
#
# Coordination Sequence:
#
# PCOD9435177 Si02
#       8
#     8   8   8   8   8   8   8   8
#     4  10  19  34  55  79 108 140 177 219 264 311
#     4  10  19  31  49  72 100 133 167 204 249 301
#     4   9  20  37  54  73  98 128 162 204 249 294
#     4  10  19  33  53  75  99 126 160 201 248 300
#     4  10  19  33  53  80 114 145 175 211 256 310
#     4   9  19  36  55  73  96 132 175 211 248 299
#     4   9  19  35  55  78 106 141 178 218 261 307
#     4  11  22  35  51  74 102 127 158 200 248 300
#
# _framework density 18.968862000000001
#
# number of rings (size 3 to 8) (size 9 to 14) (size 15 to 20)
#    0.000    2.250    0.000    3.750    0.000    2.500 
#    0.000    5.000    0.000    3.000    0.000    0.000 
#    0.000    0.000    0.000    0.000    0.000    0.000 
#
# Total GULP energy -357060.695650 kJ/mol
# GULP energy per Si atom -5579.073370 kJ/mol
# Density = 1.892569 g / cm^3
# Si number density = 18.968862 Si / 1000 Ang^3
#
#
#
# Elastic Constant Matrix: (Units=GPa)
#
#
# Indices 1 2 3 4 5 6 
#
# 1 96.3903 28.4583 17.3726 0.0000 0.0000 0.0000
# 2 28.4583 52.5392 11.8440 0.0000 0.0000 0.0000
# 3 17.3726 11.8440 44.6411 0.0000 0.0000 0.0000
# 4 0.0000 0.0000 0.0000 19.8189 0.0000 0.0000
# 5 0.0000 0.0000 0.0000 0.0000 22.2636 0.0000
# 6 0.0000 0.0000 0.0000 0.0000 0.0000 15.1864
#
#
#
# Elastic Compliance Matrix: (Units=1/GPa)
#
#
# Indices 1 2 3 4 5 6 
#
# 1 0.012802 -0.006181 -0.003342 0.000000 0.000000 0.000000
# 2 -0.006181 0.023228 -0.003758 0.000000 0.000000 0.000000
# 3 -0.003342 -0.003758 0.024698 0.000000 0.000000 0.000000
# 4 0.000000 0.000000 0.000000 0.050457 0.000000 0.000000
# 5 0.000000 0.000000 0.000000 0.000000 0.044916 0.000000
# 6 0.000000 0.000000 0.000000 0.000000 0.000000 0.065848
#
#
# Mechanical properties :
#
#
# Convention : Reuss Voigt Hill
#
# Bulk Modulus (GPa) = 29.26740 34.32449 31.79594
# Shear Modulus (GPa) = 19.23820 20.51351 19.87585
#
# Velocity S-wave (km/s) = 3.18810 3.29208 3.24051
# Velocity P-wave (km/s) = 5.38653 5.70831 5.54975
#
# Compressibility (1/GPa) = 0.03416771
#
# Stress axis : x y z
#
# Youngs Moduli (GPa) = 78.11513 43.05087 40.48843
#
# Poissons Ratio (x) = 0.26608 0.13531
# Poissons Ratio (y) = 0.48281 0.15214
# Poissons Ratio (z) = 0.26106 0.16177
#
# Static dielectric constant tensor:
#      x y z
#    x 1.658030 0.000000 0.000000 
#    y 0.000000 1.705840 0.000000 
#    z 0.000000 0.000000 1.644470 
# 
# From -- ./inp_files/8574.got.cif
#   From: 2010.05.17/outbox.cif.g08.bks.cpg/sg57_5_cif.got.tgz:8574.got - 2010.06.03 13:58:18.
