data_PCOD9435975
_publ_section_title
;
Structure prediction by ZEFSAII (Michael W. Deem and Ramdas Pophale) SiO2 
 PCOD9435975
Probable space group: P B C M
;
_chemical_formula_sum "Si O2"
_cell_formula_units_Z 64
_cell_length_a 18.618165
_cell_length_b 20.530101
_cell_length_c 8.830266
_cell_angle_alpha 90.000000
_cell_angle_beta 90.000000
_cell_angle_gamma 90.000000
_cell_volume 3375.217368
_symmetry_space_group_name_H-M "P B C M"
_symmetry_group_IT_number 57
_symmetry_cell_setting 'orthorhombic'
loop_
_space_group_symop_operation_xyz
x,y,z
-x,-y,1/2+z
x,1/2-y,-z
-x,1/2+y,1/2-z
-x,-y,-z
x,y,1/2-z
-x,1/2+y,z
x,1/2-y,1/2+z
loop_
_atom_site_type_symbol
_atom_site_label
_atom_site_fract_x
_atom_site_fract_y
_atom_site_fract_z
Si Si1 0.210837 0.459797 0.068191
Si Si2 0.741737 0.680984 0.932802
Si Si3 0.067449 0.537926 0.065305
Si Si4 0.925376 0.315588 0.578908
Si Si5 0.519506 0.430266 0.068310
Si Si6 0.247544 0.815490 0.921630
Si Si7 0.313484 0.560139 0.928792
Si Si8 0.418245 0.319436 0.567756
O O1 0.212601 0.463135 0.250000
O O2 0.212441 0.383411 0.026841
O O3 0.140868 0.500935 0.018167
O O4 0.281549 0.496057 0.007199
O O5 0.737134 0.685794 0.750000
O O6 0.767959 0.750000 0.000000
O O7 0.661901 0.670401 0.000948
O O8 0.067358 0.538835 0.250000
O O9 0.061815 0.612908 0.011139
O O10 0.000000 0.500000 0.000000
O O11 0.952204 0.250000 0.500000
O O12 0.953219 0.315796 0.750000
O O13 0.838695 0.310866 0.584816
O O14 0.508562 0.428764 0.250000
O O15 0.604169 0.423113 0.036580
O O16 0.500000 0.500000 0.000000
O O17 0.471060 0.375539 0.990032
O O18 0.274346 0.821499 0.750000
O O19 0.275313 0.750000 0.000000
O O20 0.267586 0.878853 0.014839
O O21 0.306865 0.551299 0.750000
O O22 0.442663 0.250000 0.500000
O O23 0.415399 0.317374 0.750000
#
# Coordination Sequence:
#
# PCOD9435975 Si02
#       8
#     8   8   8   8   8   8   8   8
#     4  10  21  39  60  82 114 151 187 233 290 345
#     4  10  20  36  61  87 113 149 189 236 292 347
#     4  10  21  39  59  86 119 154 192 235 286 342
#     4   9  18  34  57  82 113 148 187 228 270 325
#     4  11  24  40  56  80 113 149 192 240 290 348
#     4  10  19  34  55  80 112 147 183 228 275 328
#     4  11  23  36  55  83 112 145 189 237 285 339
#     4  11  22  38  60  84 114 152 194 242 291 346
#
# _framework density 18.961742000000001
#
# number of rings (size 3 to 8) (size 9 to 14) (size 15 to 20)
#    0.000    1.750    1.250    4.125    0.000    7.000 
#    0.000    0.625    0.000    3.000    0.000    0.000 
#    0.000    0.000    0.000    0.000    0.000    0.000 
#
# Total GULP energy -357208.502213 kJ/mol
# GULP energy per Si atom -5581.382847 kJ/mol
# Density = 1.891858 g / cm^3
# Si number density = 18.961742 Si / 1000 Ang^3
#
#
#
# Elastic Constant Matrix: (Units=GPa)
#
#
# Indices 1 2 3 4 5 6 
#
# 1 32.3517 39.0920 24.3912 0.0000 0.0000 0.0000
# 2 39.0920 183.3907 40.1996 0.0000 0.0000 0.0000
# 3 24.3912 40.1996 37.6549 0.0000 0.0000 0.0000
# 4 0.0000 0.0000 0.0000 34.1354 0.0000 0.0000
# 5 0.0000 0.0000 0.0000 0.0000 18.6703 0.0000
# 6 0.0000 0.0000 0.0000 0.0000 0.0000 132.6372
#
#
#
# Elastic Compliance Matrix: (Units=1/GPa)
#
#
# Indices 1 2 3 4 5 6 
#
# 1 0.065192 -0.006057 -0.035761 0.000000 0.000000 0.000000
# 2 -0.006057 0.007682 -0.004277 0.000000 0.000000 0.000000
# 3 -0.035761 -0.004277 0.054288 0.000000 0.000000 0.000000
# 4 0.000000 0.000000 0.000000 0.029295 0.000000 0.000000
# 5 0.000000 0.000000 0.000000 0.000000 0.053561 0.000000
# 6 0.000000 0.000000 0.000000 0.000000 0.000000 0.007539
#
#
# Mechanical properties :
#
#
# Convention : Reuss Voigt Hill
#
# Bulk Modulus (GPa) = 28.59662 51.19587 39.89625
# Shear Modulus (GPa) = 15.55676 47.06958 31.31317
#
# Velocity S-wave (km/s) = 2.86742 4.98772 4.06813
# Velocity P-wave (km/s) = 5.10654 7.76067 6.56905
#
# Compressibility (1/GPa) = 0.03496917
#
# Stress axis : x y z
#
# Youngs Moduli (GPa) = 15.33942 130.18174 18.42044
#
# Poissons Ratio (x) = 0.78857 0.65874
# Poissons Ratio (y) = 0.09292 0.07878
# Poissons Ratio (z) = 0.54856 0.55678
#
# Static dielectric constant tensor:
#      x y z
#    x 1.654910 0.000000 0.000000 
#    y 0.000000 1.672300 0.000000 
#    z 0.000000 0.000000 1.650860 
# 
# From -- ./inp_files/7190.got.cif
#   From: 2010.05.17/outbox.cif.g08.bks.cpg/sg57_4_cif.got.tgz:7190.got - 2010.06.03 13:58:18.
