data_PCOD9435960
_publ_section_title
;
Structure prediction by ZEFSAII (Michael W. Deem and Ramdas Pophale) SiO2 
 PCOD9435960
Probable space group: P B C M
;
_chemical_formula_sum "Si O2"
_cell_formula_units_Z 56
_cell_length_a 19.749459
_cell_length_b 18.901006
_cell_length_c 8.418534
_cell_angle_alpha 90.000000
_cell_angle_beta 90.000000
_cell_angle_gamma 90.000000
_cell_volume 3142.509459
_symmetry_space_group_name_H-M "P B C M"
_symmetry_group_IT_number 57
_symmetry_cell_setting 'orthorhombic'
loop_
_space_group_symop_operation_xyz
x,y,z
-x,-y,1/2+z
x,1/2-y,-z
-x,1/2+y,1/2-z
-x,-y,-z
x,y,1/2-z
-x,1/2+y,z
x,1/2-y,1/2+z
loop_
_atom_site_type_symbol
_atom_site_label
_atom_site_fract_x
_atom_site_fract_y
_atom_site_fract_z
Si Si1 0.380351 0.676839 0.436010
Si Si2 0.965410 0.669610 0.558893
Si Si3 0.850551 0.932236 0.559325
Si Si4 0.758624 0.135458 0.935606
Si Si5 0.282558 0.483838 0.059975
Si Si6 0.899765 0.411299 0.056728
Si Si7 0.427576 0.524379 0.059149
O O1 0.409020 0.750000 0.500000
O O2 0.390844 0.675584 0.250000
O O3 0.299966 0.674529 0.470053
O O4 0.410586 0.603641 0.502567
O O5 0.971016 0.750000 0.500000
O O6 0.964841 0.669329 0.750000
O O7 0.898497 0.630923 0.495647
O O8 0.029863 0.622465 0.504026
O O9 0.845783 0.933607 0.750000
O O10 0.775024 0.928100 0.486427
O O11 0.884650 0.007655 0.506022
O O12 0.754128 0.153989 0.750000
O O13 0.836211 0.138220 0.991578
O O14 0.740225 0.053010 0.961964
O O15 0.278412 0.498122 0.250000
O O16 0.362095 0.475415 0.020309
O O17 0.899122 0.412435 0.250000
O O18 0.430095 0.527259 0.250000
O O19 0.500000 0.500000 0.000000
#
# Coordination Sequence:
#
# PCOD9435960 Si02
#       7
#     8   8   8   8   8   8   8
#     4  10  20  33  48  72 103 138 174 207 246 301
#     4  11  22  36  50  69  99 134 169 214 265 312
#     4  10  19  34  55  77  97 127 171 216 258 305
#     4   9  16  29  48  72 100 130 163 203 245 294
#     4   9  17  31  50  76 103 128 160 201 244 294
#     4   8  17  32  51  74 100 129 168 211 255 304
#     4   9  19  33  52  78 107 134 167 206 249 298
#
# _framework density 17.820153999999999
#
# number of rings (size 3 to 8) (size 9 to 14) (size 15 to 20)
#    0.000    2.571    0.000    4.286    0.000    4.000 
#    0.000    9.286    0.000    0.857    0.000    2.000 
#    0.000    0.000    0.000    0.000    0.000    0.000 
#
# Total GULP energy -311949.575248 kJ/mol
# GULP energy per Si atom -5570.528129 kJ/mol
# Density = 1.777959 g / cm^3
# Si number density = 17.820154 Si / 1000 Ang^3
#
#
#
# Elastic Constant Matrix: (Units=GPa)
#
#
# Indices 1 2 3 4 5 6 
#
# 1 141.7816 35.1858 23.9935 0.0000 0.0000 0.0000
# 2 35.1858 49.7495 12.1770 0.0000 0.0000 0.0000
# 3 23.9935 12.1770 35.2845 0.0000 0.0000 0.0000
# 4 0.0000 0.0000 0.0000 22.8540 0.0000 0.0000
# 5 0.0000 0.0000 0.0000 0.0000 25.6077 0.0000
# 6 0.0000 0.0000 0.0000 0.0000 0.0000 6.1854
#
#
#
# Elastic Compliance Matrix: (Units=1/GPa)
#
#
# Indices 1 2 3 4 5 6 
#
# 1 0.009126 -0.005391 -0.004345 0.000000 0.000000 0.000000
# 2 -0.005391 0.025140 -0.005010 0.000000 0.000000 0.000000
# 3 -0.004345 -0.005010 0.033025 0.000000 0.000000 0.000000
# 4 0.000000 0.000000 0.000000 0.043756 0.000000 0.000000
# 5 0.000000 0.000000 0.000000 0.000000 0.039051 0.000000
# 6 0.000000 0.000000 0.000000 0.000000 0.000000 0.161672
#
#
# Mechanical properties :
#
#
# Convention : Reuss Voigt Hill
#
# Bulk Modulus (GPa) = 26.45637 41.05870 33.75754
# Shear Modulus (GPa) = 14.12979 21.29336 17.71158
#
# Velocity S-wave (km/s) = 2.81892 3.46049 3.15605
# Velocity P-wave (km/s) = 5.04714 6.24958 5.68027
#
# Compressibility (1/GPa) = 0.03779808
#
# Stress axis : x y z
#
# Youngs Moduli (GPa) = 109.57249 39.77737 30.28012
#
# Poissons Ratio (x) = 0.21444 0.13158
# Poissons Ratio (y) = 0.59072 0.15171
# Poissons Ratio (z) = 0.47614 0.19929
#
# Static dielectric constant tensor:
#      x y z
#    x 1.633180 0.000000 0.000000 
#    y 0.000000 1.634520 0.000000 
#    z 0.000000 0.000000 1.609810 
# 
# From -- ./inp_files/8339.got.cif
#   From: 2010.05.17/outbox.cif.g08.bks.cpg/sg57_5_cif.got.tgz:8339.got - 2010.06.03 13:58:18.
