data_PCOD9435129
_publ_section_title
;
Structure prediction by ZEFSAII (Michael W. Deem and Ramdas Pophale) SiO2 
 PCOD9435129
Probable space group: P B C M
;
_chemical_formula_sum "Si O2"
_cell_formula_units_Z 64
_cell_length_a 21.095646
_cell_length_b 20.117412
_cell_length_c 7.706717
_cell_angle_alpha 90.000000
_cell_angle_beta 90.000000
_cell_angle_gamma 90.000000
_cell_volume 3270.652102
_symmetry_space_group_name_H-M "P B C M"
_symmetry_group_IT_number 57
_symmetry_cell_setting 'orthorhombic'
loop_
_space_group_symop_operation_xyz
x,y,z
-x,-y,1/2+z
x,1/2-y,-z
-x,1/2+y,1/2-z
-x,-y,-z
x,y,1/2-z
-x,1/2+y,z
x,1/2-y,1/2+z
loop_
_atom_site_type_symbol
_atom_site_label
_atom_site_fract_x
_atom_site_fract_y
_atom_site_fract_z
Si Si1 0.846349 0.825435 0.041601
Si Si2 0.524975 0.171635 0.458178
Si Si3 0.663366 0.327979 0.959094
Si Si4 0.386581 0.328180 0.956898
Si Si5 0.236530 0.564443 0.463016
Si Si6 0.094118 0.954478 0.955547
Si Si7 0.036640 0.094884 0.540292
Si Si8 0.266702 0.082494 0.956316
O O1 0.846598 0.831591 0.250000
O O2 0.916116 0.847353 0.980919
O O3 0.792809 0.875475 0.972940
O O4 0.830764 0.750000 0.000000
O O5 0.525274 0.250000 0.500000
O O6 0.524651 0.162556 0.250000
O O7 0.593656 0.147988 0.523175
O O8 0.456083 0.149084 0.524937
O O9 0.661913 0.332755 0.750000
O O10 0.719820 0.374793 0.023072
O O11 0.671608 0.250000 0.000000
O O12 0.388430 0.331705 0.750000
O O13 0.376244 0.250000 0.000000
O O14 0.330165 0.375482 0.016198
O O15 0.236705 0.566814 0.250000
O O16 0.163171 0.565936 0.521616
O O17 0.265296 0.493319 0.519137
O O18 0.101960 0.963995 0.750000
O O19 0.068557 0.025596 0.023376
O O20 0.036178 0.904089 0.983882
O O21 0.035905 0.093491 0.750000
O O22 0.257058 0.077544 0.750000
#
# Coordination Sequence:
#
# PCOD9435129 Si02
#       8
#     8   8   8   8   8   8   8   8
#     4  10  20  33  49  69  98 131 164 203 243 283
#     4   8  15  28  47  69  94 124 161 202 241 287
#     4   9  17  32  54  76  96 124 162 202 247 298
#     4  10  19  31  47  70  99 131 166 205 246 286
#     4   9  17  32  54  75  97 130 166 198 241 299
#     4   9  16  30  52  73  93 121 159 197 234 283
#     4   9  17  31  49  70  94 121 156 200 241 277
#     4  10  19  33  50  70  98 132 168 204 241 289
#
# _framework density 19.567964
#
# number of rings (size 3 to 8) (size 9 to 14) (size 15 to 20)
#    0.000    2.750    1.250    0.750    0.000    2.500 
#    0.000    3.125    0.000    3.000    0.000    0.000 
#    0.000    0.000    0.000    0.000    0.000    0.000 
#
# Total GULP energy -356611.019367 kJ/mol
# GULP energy per Si atom -5572.047178 kJ/mol
# Density = 1.952343 g / cm^3
# Si number density = 19.567964 Si / 1000 Ang^3
#
#
#
# Elastic Constant Matrix: (Units=GPa)
#
#
# Indices 1 2 3 4 5 6 
#
# 1 182.6788 74.3794 -1.0126 0.0000 0.0000 0.0000
# 2 74.3794 90.5825 -0.9702 0.0000 0.0000 0.0000
# 3 -1.0126 -0.9702 27.3060 0.0000 0.0000 0.0000
# 4 0.0000 0.0000 0.0000 14.0647 0.0000 0.0000
# 5 0.0000 0.0000 0.0000 0.0000 12.0770 0.0000
# 6 0.0000 0.0000 0.0000 0.0000 0.0000 29.0183
#
#
#
# Elastic Compliance Matrix: (Units=1/GPa)
#
#
# Indices 1 2 3 4 5 6 
#
# 1 0.008224 -0.006752 0.000065 0.000000 0.000000 0.000000
# 2 -0.006752 0.016587 0.000339 0.000000 0.000000 0.000000
# 3 0.000065 0.000339 0.036636 0.000000 0.000000 0.000000
# 4 0.000000 0.000000 0.000000 0.071100 0.000000 0.000000
# 5 0.000000 0.000000 0.000000 0.000000 0.082802 0.000000
# 6 0.000000 0.000000 0.000000 0.000000 0.000000 0.034461
#
#
# Mechanical properties :
#
#
# Convention : Reuss Voigt Hill
#
# Bulk Modulus (GPa) = 20.51207 49.48449 34.99828
# Shear Modulus (GPa) = 17.93680 26.24338 22.09009
#
# Velocity S-wave (km/s) = 3.03089 3.66613 3.36354
# Velocity P-wave (km/s) = 4.77008 6.57755 5.74534
#
# Compressibility (1/GPa) = 0.04875178
#
# Stress axis : x y z
#
# Youngs Moduli (GPa) = 121.60240 60.28681 27.29522
#
# Poissons Ratio (x) = 0.40705 -0.00178
# Poissons Ratio (y) = 0.82104 -0.00925
# Poissons Ratio (z) = -0.00791 -0.02044
#
# Static dielectric constant tensor:
#      x y z
#    x 1.734350 0.000000 0.000000 
#    y 0.000000 1.655310 0.000000 
#    z 0.000000 0.000000 1.731420 
# 
# From -- ./inp_files/8756.got.cif
#   From: 2010.05.17/outbox.cif.g08.bks.cpg/sg57_5_cif.got.tgz:8756.got - 2010.06.03 13:58:18.
