data_PCOD9435308
_publ_section_title
;
Structure prediction by ZEFSAII (Michael W. Deem and Ramdas Pophale) SiO2 
 PCOD9435308
Probable space group: P B C M
;
_chemical_formula_sum "Si O2"
_cell_formula_units_Z 56
_cell_length_a 20.303037
_cell_length_b 15.924501
_cell_length_c 9.291038
_cell_angle_alpha 90.000000
_cell_angle_beta 90.000000
_cell_angle_gamma 90.000000
_cell_volume 3003.938761
_symmetry_space_group_name_H-M "P B C M"
_symmetry_group_IT_number 57
_symmetry_cell_setting 'orthorhombic'
loop_
_space_group_symop_operation_xyz
x,y,z
-x,-y,1/2+z
x,1/2-y,-z
-x,1/2+y,1/2-z
-x,-y,-z
x,y,1/2-z
-x,1/2+y,z
x,1/2-y,1/2+z
loop_
_atom_site_type_symbol
_atom_site_label
_atom_site_fract_x
_atom_site_fract_y
_atom_site_fract_z
Si Si1 0.616412 0.666809 0.916487
Si Si2 0.933517 0.493073 0.089250
Si Si3 0.882904 0.817933 0.910460
Si Si4 0.788937 0.053317 0.923515
Si Si5 0.335754 0.661688 0.922209
Si Si6 0.571014 0.499426 0.424210
Si Si7 0.236909 0.384861 0.086298
O O1 0.591820 0.662328 0.750000
O O2 0.695454 0.665543 0.909294
O O3 0.593001 0.750000 0.000000
O O4 0.601601 0.583770 0.008573
O O5 0.947469 0.460393 0.250000
O O6 0.912972 0.590307 0.099057
O O7 0.866871 0.445366 0.035080
O O8 0.000000 0.500000 0.000000
O O9 0.869560 0.787288 0.750000
O O10 0.923983 0.750000 0.000000
O O11 0.817733 0.834401 0.001454
O O12 0.788165 0.039633 0.750000
O O13 0.739065 0.129646 0.954708
O O14 0.757773 0.972774 0.001913
O O15 0.340375 0.673546 0.750000
O O16 0.385861 0.584523 0.958754
O O17 0.349842 0.750000 0.000000
O O18 0.500000 0.500000 0.500000
O O19 0.566805 0.504461 0.250000
O O20 0.216336 0.402694 0.250000
#
# Coordination Sequence:
#
# PCOD9435308 Si02
#       7
#     8   8   8   8   8   8   8
#     4  11  23  37  57  87 120 154 193 236 290 354
#     4   9  19  34  54  78 110 149 189 236 289 351
#     4  10  20  33  50  75 107 143 182 227 278 338
#     4   9  18  36  58  82 114 153 195 243 299 352
#     4  10  22  40  65  92 120 159 205 255 312 363
#     4  11  24  43  65  88 120 161 201 251 308 367
#     4  10  19  31  53  84 114 146 182 227 282 341
#
# _framework density 18.642189999999999
#
# number of rings (size 3 to 8) (size 9 to 14) (size 15 to 20)
#    0.000    2.000    1.429    3.000    0.000    8.000 
#    0.000    2.143    0.000    3.429    0.000    0.000 
#    0.000    0.000    0.000    0.000    0.000    0.000 
#
# Total GULP energy -311880.894455 kJ/mol
# GULP energy per Si atom -5569.301687 kJ/mol
# Density = 1.859976 g / cm^3
# Si number density = 18.642190 Si / 1000 Ang^3
#
#
#
# Elastic Constant Matrix: (Units=GPa)
#
#
# Indices 1 2 3 4 5 6 
#
# 1 102.1451 39.2712 44.7220 0.0000 0.0000 0.0000
# 2 39.2712 125.5917 54.9047 0.0000 0.0000 0.0000
# 3 44.7220 54.9047 96.3092 0.0000 0.0000 0.0000
# 4 0.0000 0.0000 0.0000 32.6894 0.0000 0.0000
# 5 0.0000 0.0000 0.0000 0.0000 22.9675 0.0000
# 6 0.0000 0.0000 0.0000 0.0000 0.0000 1.7766
#
#
#
# Elastic Compliance Matrix: (Units=1/GPa)
#
#
# Indices 1 2 3 4 5 6 
#
# 1 0.012600 -0.001841 -0.004801 0.000000 0.000000 0.000000
# 2 -0.001841 0.010874 -0.005345 0.000000 0.000000 0.000000
# 3 -0.004801 -0.005345 0.015660 0.000000 0.000000 0.000000
# 4 0.000000 0.000000 0.000000 0.030591 0.000000 0.000000
# 5 0.000000 0.000000 0.000000 0.000000 0.043540 0.000000
# 6 0.000000 0.000000 0.000000 0.000000 0.000000 0.562866
#
#
# Mechanical properties :
#
#
# Convention : Reuss Voigt Hill
#
# Bulk Modulus (GPa) = 65.96157 66.87131 66.41644
# Shear Modulus (GPa) = 7.09061 23.82990 15.46025
#
# Velocity S-wave (km/s) = 1.95238 3.57918 2.88291
# Velocity P-wave (km/s) = 6.36727 7.28214 6.84002
#
# Compressibility (1/GPa) = 0.01516034
#
# Stress axis : x y z
#
# Youngs Moduli (GPa) = 79.36541 91.95919 63.85821
#
# Poissons Ratio (x) = 0.16928 0.30661
# Poissons Ratio (y) = 0.14610 0.34129
# Poissons Ratio (z) = 0.38107 0.49148
#
# Static dielectric constant tensor:
#      x y z
#    x 1.689020 0.000000 0.000000 
#    y 0.000000 1.724470 0.000000 
#    z 0.000000 0.000000 1.687380 
# 
# From -- ./inp_files/8023.got.cif
#   From: 2010.05.17/outbox.cif.g08.bks.cpg/sg57_5_cif.got.tgz:8023.got - 2010.06.03 13:58:18.
