data_PCOD9435572
_publ_section_title
;
Structure prediction by ZEFSAII (Michael W. Deem and Ramdas Pophale) SiO2 
 PCOD9435572
Probable space group: P B C M
;
_chemical_formula_sum "Si O2"
_cell_formula_units_Z 64
_cell_length_a 20.694958
_cell_length_b 20.149952
_cell_length_c 8.961209
_cell_angle_alpha 90.000000
_cell_angle_beta 90.000000
_cell_angle_gamma 90.000000
_cell_volume 3736.845753
_symmetry_space_group_name_H-M "P B C M"
_symmetry_group_IT_number 57
_symmetry_cell_setting 'orthorhombic'
loop_
_space_group_symop_operation_xyz
x,y,z
-x,-y,1/2+z
x,1/2-y,-z
-x,1/2+y,1/2-z
-x,-y,-z
x,y,1/2-z
-x,1/2+y,z
x,1/2-y,1/2+z
loop_
_atom_site_type_symbol
_atom_site_label
_atom_site_fract_x
_atom_site_fract_y
_atom_site_fract_z
Si Si1 0.916783 0.440618 0.429187
Si Si2 0.047333 0.091931 0.429330
Si Si3 0.669633 0.177722 0.429174
Si Si4 0.769969 0.075609 0.930242
Si Si5 0.415188 0.060742 0.927930
Si Si6 0.168700 0.178129 0.430349
Si Si7 0.453108 0.590543 0.428634
Si Si8 0.721381 0.927415 0.570508
O O1 0.921168 0.436552 0.250000
O O2 0.926131 0.518416 0.469717
O O3 0.845240 0.417920 0.473055
O O4 0.976574 0.401847 0.500652
O O5 0.042282 0.093817 0.250000
O O6 0.100196 0.145810 0.476305
O O7 0.675554 0.250000 0.500000
O O8 0.673669 0.181006 0.250000
O O9 0.724787 0.129134 0.491586
O O10 0.600581 0.144541 0.469036
O O11 0.765331 0.082148 0.750000
O O12 0.746430 0.001191 0.969058
O O13 0.413192 0.066071 0.750000
O O14 0.425341 0.982655 0.967367
O O15 0.478190 0.097462 0.991582
O O16 0.348108 0.084025 0.997772
O O17 0.177826 0.250000 0.500000
O O18 0.168864 0.182372 0.250000
O O19 0.225576 0.127132 0.473425
O O20 0.462665 0.591757 0.250000
O O21 0.715307 0.925541 0.750000
#
# Coordination Sequence:
#
# PCOD9435572 Si02
#       8
#     8   8   8   8   8   8   8   8
#     4   9  17  31  53  81 108 135 176 224 271 323
#     4   9  17  32  52  77 108 140 176 222 272 322
#     4  11  23  39  57  81 113 146 184 226 273 330
#     4  10  19  34  57  82 109 145 184 226 276 329
#     4  10  19  32  54  84 111 135 176 227 270 317
#     4  10  21  37  55  78 110 148 186 225 274 331
#     4   9  19  35  53  78 110 141 174 219 270 322
#     4  10  19  34  56  80 110 146 182 225 278 328
#
# _framework density 17.126743000000001
#
# number of rings (size 3 to 8) (size 9 to 14) (size 15 to 20)
#    0.000    2.250    2.500    0.750    0.000    3.000 
#    0.000    1.250    0.000    1.500    0.000    0.000 
#    0.000    0.000    0.000    0.000    0.000    0.000 
#
# Total GULP energy -357085.401732 kJ/mol
# GULP energy per Si atom -5579.459402 kJ/mol
# Density = 1.708776 g / cm^3
# Si number density = 17.126743 Si / 1000 Ang^3
#
#
#
# Elastic Constant Matrix: (Units=GPa)
#
#
# Indices 1 2 3 4 5 6 
#
# 1 189.5369 89.3721 55.4781 0.0000 0.0000 0.0000
# 2 89.3721 120.7166 42.0696 0.0000 0.0000 0.0000
# 3 55.4781 42.0696 25.3526 0.0000 0.0000 0.0000
# 4 0.0000 0.0000 0.0000 24.1479 0.0000 0.0000
# 5 0.0000 0.0000 0.0000 0.0000 32.5636 0.0000
# 6 0.0000 0.0000 0.0000 0.0000 0.0000 24.3444
#
#
#
# Elastic Compliance Matrix: (Units=1/GPa)
#
#
# Indices 1 2 3 4 5 6 
#
# 1 0.014707 0.000776 -0.033471 0.000000 0.000000 0.000000
# 2 0.000776 0.019685 -0.034363 0.000000 0.000000 0.000000
# 3 -0.033471 -0.034363 0.169709 0.000000 0.000000 0.000000
# 4 0.000000 0.000000 0.000000 0.041412 0.000000 0.000000
# 5 0.000000 0.000000 0.000000 0.000000 0.030709 0.000000
# 6 0.000000 0.000000 0.000000 0.000000 0.000000 0.041077
#
#
# Mechanical properties :
#
#
# Convention : Reuss Voigt Hill
#
# Bulk Modulus (GPa) = 14.28882 78.82729 46.55806
# Shear Modulus (GPa) = 10.53201 26.12358 18.32780
#
# Velocity S-wave (km/s) = 2.48250 3.90976 3.27483
# Velocity P-wave (km/s) = 4.07163 8.15521 6.44537
#
# Compressibility (1/GPa) = 0.06998476
#
# Stress axis : x y z
#
# Youngs Moduli (GPa) = 67.99453 50.80104 5.89244
#
# Poissons Ratio (x) = -0.03944 0.19723
# Poissons Ratio (y) = -0.05279 0.20248
# Poissons Ratio (z) = 2.27586 1.74569
#
# Static dielectric constant tensor:
#      x y z
#    x 1.571770 0.000000 0.000000 
#    y 0.000000 1.558670 0.000000 
#    z 0.000000 0.000000 1.571690 
# 
# From -- ./inp_files/7282.got.cif
#   From: 2010.05.17/outbox.cif.g08.bks.cpg/sg57_4_cif.got.tgz:7282.got - 2010.06.03 13:58:18.
