data_PCOD9435898
_publ_section_title
;
Structure prediction by ZEFSAII (Michael W. Deem and Ramdas Pophale) SiO2 
 PCOD9435898
Probable space group: P B C M
;
_chemical_formula_sum "Si O2"
_cell_formula_units_Z 40
_cell_length_a 15.074985
_cell_length_b 9.467638
_cell_length_c 13.759036
_cell_angle_alpha 90.000000
_cell_angle_beta 90.000000
_cell_angle_gamma 90.000000
_cell_volume 1963.751545
_symmetry_space_group_name_H-M "P B C M"
_symmetry_group_IT_number 57
_symmetry_cell_setting 'orthorhombic'
loop_
_space_group_symop_operation_xyz
x,y,z
-x,-y,1/2+z
x,1/2-y,-z
-x,1/2+y,1/2-z
-x,-y,-z
x,y,1/2-z
-x,1/2+y,z
x,1/2-y,1/2+z
loop_
_atom_site_type_symbol
_atom_site_label
_atom_site_fract_x
_atom_site_fract_y
_atom_site_fract_z
Si Si1 0.220355 0.250000 0.000000
Si Si2 0.184267 0.754358 0.636291
Si Si3 0.464605 0.551854 0.866753
Si Si4 0.383177 0.251805 0.637251
Si Si5 0.103671 0.972915 0.511879
Si Si6 0.344181 0.750000 0.000000
O O1 0.290334 0.225510 0.086032
O O2 0.158851 0.115970 0.982909
O O3 0.194016 0.728120 0.750000
O O4 0.145316 0.620346 0.576656
O O5 0.276610 0.800374 0.584846
O O6 0.118582 0.881275 0.609045
O O7 0.447679 0.582879 0.750000
O O8 0.562707 0.610605 0.888945
O O9 0.448080 0.385688 0.879400
O O10 0.401369 0.634923 0.941538
O O11 0.365469 0.245084 0.750000
O O12 0.000000 0.000000 0.500000
#
# Coordination Sequence:
#
# PCOD9435898 Si02
#       6
#     4   8   8   8   8   4
#     4  12  23  39  66  92 124 162 204 267 323 370
#     4  10  22  40  62  89 122 161 205 254 312 375
#     4  10  21  38  58  83 122 166 207 251 300 357
#     4  10  23  40  59  88 123 164 210 254 306 368
#     4  10  23  43  65  91 123 159 204 258 319 389
#     4  10  19  33  58  84 114 156 204 253 299 356
#
# _framework density 20.369176
#
# number of rings (size 3 to 8) (size 9 to 14) (size 15 to 20)
#    0.000    2.000    0.000    4.800    0.000   10.400 
#    0.000    4.000    0.000    0.000    0.000    0.000 
#    0.000    0.000    0.000    0.000    0.000    0.000 
#
# Total GULP energy -223334.934929 kJ/mol
# GULP energy per Si atom -5583.373373 kJ/mol
# Density = 2.032282 g / cm^3
# Si number density = 20.369176 Si / 1000 Ang^3
#
#
#
# Elastic Constant Matrix: (Units=GPa)
#
#
# Indices 1 2 3 4 5 6 
#
# 1 -86.2192 -65.4809 -73.3846 0.0000 0.0000 0.0000
# 2 -65.4809 47.3253 -36.0252 0.0000 0.0000 0.0000
# 3 -73.3846 -36.0252 86.6835 0.0000 0.0000 0.0000
# 4 0.0000 0.0000 0.0000 24.2149 0.0000 0.0000
# 5 0.0000 0.0000 0.0000 0.0000-1150.1367 0.0000
# 6 0.0000 0.0000 0.0000 0.0000 0.0000 46.1314
#
#
#
# Elastic Compliance Matrix: (Units=1/GPa)
#
#
# Indices 1 2 3 4 5 6 
#
# 1 -0.002309 -0.006850 -0.004802 0.000000 0.000000 0.000000
# 2 -0.006850 0.010587 -0.001399 0.000000 0.000000 0.000000
# 3 -0.004802 -0.001399 0.006890 0.000000 0.000000 0.000000
# 4 0.000000 0.000000 0.000000 0.041297 0.000000 0.000000
# 5 0.000000 0.000000 0.000000 0.000000 -0.000869 0.000000
# 6 0.000000 0.000000 0.000000 0.000000 0.000000 0.021677
#
#
# Mechanical properties :
#
#
# Convention : Reuss Voigt Hill
#
# Bulk Modulus (GPa) = -91.46338 -33.55463 -62.50900
# Shear Modulus (GPa) = 50.13550 -201.11272 -75.48861
#
# Velocity S-wave (km/s) = 4.96657 -9.94727 -6.09431
# Velocity P-wave (km/s) = 3.48011 12.18359 8.95966
#
# Compressibility (1/GPa) = -0.01093334
#
# Stress axis : x y z
#
# Youngs Moduli (GPa) = -433.07507 94.45188 145.14210
#
# Poissons Ratio (x) = 0.64700 0.69692
# Poissons Ratio (y) = -2.96658 0.20306
# Poissons Ratio (z) = -2.07947 0.13214
#
# Static dielectric constant tensor:
#      x y z
#    x 1.710240 0.000000 0.000000 
#    y 0.000000 1.726270 0.000000 
#    z 0.000000 0.000000 1.758250 
# 
# From -- ./inp_files/18252.got.cif
#   From: 2010.05.17/outbox.cif.g08.bks.cpg/sg57_10_cif.got.tgz:18252.got - 2010.06.03 13:58:18.
