data_PCOD9435855
_publ_section_title
;
Structure prediction by ZEFSAII (Michael W. Deem and Ramdas Pophale) SiO2 
 PCOD9435855
Probable space group: P B C M
;
_chemical_formula_sum "Si O2"
_cell_formula_units_Z 48
_cell_length_a 15.523496
_cell_length_b 19.778743
_cell_length_c 8.441882
_cell_angle_alpha 90.000000
_cell_angle_beta 90.000000
_cell_angle_gamma 90.000000
_cell_volume 2591.955248
_symmetry_space_group_name_H-M "P B C M"
_symmetry_group_IT_number 57
_symmetry_cell_setting 'orthorhombic'
loop_
_space_group_symop_operation_xyz
x,y,z
-x,-y,1/2+z
x,1/2-y,-z
-x,1/2+y,1/2-z
-x,-y,-z
x,y,1/2-z
-x,1/2+y,z
x,1/2-y,1/2+z
loop_
_atom_site_type_symbol
_atom_site_label
_atom_site_fract_x
_atom_site_fract_y
_atom_site_fract_z
Si Si1 0.726041 0.911745 0.943223
Si Si2 0.893005 0.673622 0.058737
Si Si3 0.562606 0.825826 0.940233
Si Si4 0.767158 0.063972 0.558304
Si Si5 0.372083 0.674340 0.559965
Si Si6 0.039622 0.929498 0.940024
O O1 0.726108 0.912091 0.750000
O O2 0.807359 0.866456 0.994106
O O3 0.637094 0.876987 0.993957
O O4 0.738817 0.988961 0.994981
O O5 0.892151 0.674138 0.250000
O O6 0.976505 0.630941 0.007052
O O7 0.893611 0.750000 0.000000
O O8 0.561054 0.824537 0.750000
O O9 0.467665 0.844266 0.001016
O O10 0.581921 0.750000 0.000000
O O11 0.767943 0.063672 0.750000
O O12 0.699234 0.120672 0.505804
O O13 0.863499 0.078135 0.500737
O O14 0.353355 0.750000 0.500000
O O15 0.373231 0.675440 0.750000
O O16 0.039708 0.930750 0.750000
O O17 0.000000 0.000000 0.000000
#
# Coordination Sequence:
#
# PCOD9435855 Si02
#       6
#     8   8   8   8   8   8
#     4   9  18  35  56  80 112 147 180 225 281 330
#     4  10  21  37  57  82 114 146 183 228 276 331
#     4  10  19  33  56  80 110 148 184 228 277 330
#     4  10  21  39  60  81 110 148 187 229 283 336
#     4  10  21  37  58  80 110 149 187 234 282 332
#     4  11  22  38  60  83 112 150 187 230 278 331
#
# _framework density 18.518839
#
# number of rings (size 3 to 8) (size 9 to 14) (size 15 to 20)
#    0.000    2.000    1.667    3.000    0.000    4.000 
#    0.000    5.833    0.000    0.000    0.000    0.000 
#    0.000    0.000    0.000    0.000    0.000    0.000 
#
# Total GULP energy -268048.944901 kJ/mol
# GULP energy per Si atom -5584.353019 kJ/mol
# Density = 1.847669 g / cm^3
# Si number density = 18.518839 Si / 1000 Ang^3
#
#
#
# Elastic Constant Matrix: (Units=GPa)
#
#
# Indices 1 2 3 4 5 6 
#
# 1 203.3419 141.8009 29.8886 0.0000 0.0000 0.0000
# 2 141.8009 174.5431 26.6106 0.0000 0.0000 0.0000
# 3 29.8886 26.6106 25.6289 0.0000 0.0000 0.0000
# 4 0.0000 0.0000 0.0000 23.2690 0.0000 0.0000
# 5 0.0000 0.0000 0.0000 0.0000 27.5920 0.0000
# 6 0.0000 0.0000 0.0000 0.0000 0.0000 44.8763
#
#
#
# Elastic Compliance Matrix: (Units=1/GPa)
#
#
# Indices 1 2 3 4 5 6 
#
# 1 0.011769 -0.008873 -0.004512 0.000000 0.000000 0.000000
# 2 -0.008873 0.013497 -0.003666 0.000000 0.000000 0.000000
# 3 -0.004512 -0.003666 0.048086 0.000000 0.000000 0.000000
# 4 0.000000 0.000000 0.000000 0.042976 0.000000 0.000000
# 5 0.000000 0.000000 0.000000 0.000000 0.036242 0.000000
# 6 0.000000 0.000000 0.000000 0.000000 0.000000 0.022283
#
#
# Mechanical properties :
#
#
# Convention : Reuss Voigt Hill
#
# Bulk Modulus (GPa) = 25.47746 88.90157 57.18952
# Shear Modulus (GPa) = 22.51864 32.82838 27.67351
#
# Velocity S-wave (km/s) = 3.49088 4.21491 3.86987
# Velocity P-wave (km/s) = 5.48049 8.47334 7.13559
#
# Compressibility (1/GPa) = 0.03925038
#
# Stress axis : x y z
#
# Youngs Moduli (GPa) = 84.97090 74.09139 20.79596
#
# Poissons Ratio (x) = 0.65743 0.09382
# Poissons Ratio (y) = 0.75397 0.07623
# Poissons Ratio (z) = 0.38336 0.27161
#
# Static dielectric constant tensor:
#      x y z
#    x 1.621150 0.000000 0.000000 
#    y 0.000000 1.614240 0.000000 
#    z 0.000000 0.000000 1.644240 
# 
# From -- ./inp_files/12936.got.cif
#   From: 2010.05.17/outbox.cif.g08.bks.cpg/sg57_7_cif.got.tgz:12936.got - 2010.06.03 13:58:18.
