data_PCOD9435072
_publ_section_title
;
Structure prediction by ZEFSAII (Michael W. Deem and Ramdas Pophale) SiO2 
 PCOD9435072
Probable space group: P B C M
;
_chemical_formula_sum "Si O2"
_cell_formula_units_Z 56
_cell_length_a 5.356204
_cell_length_b 20.165898
_cell_length_c 24.736106
_cell_angle_alpha 90.000000
_cell_angle_beta 90.000000
_cell_angle_gamma 90.000000
_cell_volume 2671.812694
_symmetry_space_group_name_H-M "P B C M"
_symmetry_group_IT_number 57
_symmetry_cell_setting 'orthorhombic'
loop_
_space_group_symop_operation_xyz
x,y,z
-x,-y,1/2+z
x,1/2-y,-z
-x,1/2+y,1/2-z
-x,-y,-z
x,y,1/2-z
-x,1/2+y,z
x,1/2-y,1/2+z
loop_
_atom_site_type_symbol
_atom_site_label
_atom_site_fract_x
_atom_site_fract_y
_atom_site_fract_z
Si Si1 0.952533 0.513333 0.809814
Si Si2 0.752905 0.147190 0.689363
Si Si3 0.579814 0.344366 0.684370
Si Si4 0.249938 0.454685 0.500823
Si Si5 0.429861 0.082027 0.610452
Si Si6 0.917555 0.732521 0.314666
Si Si7 0.696570 0.946684 0.883080
O O1 0.866575 0.494489 0.750000
O O2 0.157678 0.571704 0.803932
O O3 0.075728 0.452833 0.841575
O O4 0.746717 0.548549 0.845343
O O5 0.660319 0.169006 0.750000
O O6 0.557584 0.143956 0.640320
O O7 0.987793 0.192999 0.673835
O O8 0.570575 0.354275 0.750000
O O9 0.844102 0.312203 0.669650
O O10 0.518653 0.410056 0.650192
O O11 0.349601 0.295446 0.667869
O O12 0.500000 0.500000 0.500000
O O13 0.282160 0.411528 0.446032
O O14 0.249397 0.416334 0.558128
O O15 0.000000 0.500000 0.500000
O O16 0.633546 0.023273 0.602494
O O17 0.904325 0.729326 0.250000
#
# Coordination Sequence:
#
# PCOD9435072 Si02
#       7
#     8   8   8   8   8   8   8
#     4  10  19  30  51  81 113 141 173 222 285 333
#     4   9  19  34  52  80 109 142 184 232 282 331
#     4  10  21  35  54  80 109 146 182 219 270 328
#     4  10  20  36  55  78 108 145 187 219 263 327
#     4  10  20  33  54  81 108 144 182 231 280 330
#     4   9  20  36  54  77 107 144 186 223 265 327
#     4  10  21  35  52  79 113 145 182 223 274 329
#
# _framework density 20.959551999999999
#
# number of rings (size 3 to 8) (size 9 to 14) (size 15 to 20)
#    0.000    2.286    1.429    0.857    4.000    1.714 
#    0.000    0.000    0.000    0.857    0.000    0.000 
#    0.000    0.000    0.000    0.000    0.000    0.000 
#
# Total GULP energy -312019.646354 kJ/mol
# GULP energy per Si atom -5571.779399 kJ/mol
# Density = 2.091185 g / cm^3
# Si number density = 20.959552 Si / 1000 Ang^3
#
#
#
# Elastic Constant Matrix: (Units=GPa)
#
#
# Indices 1 2 3 4 5 6 
#
# 1 68.0586 17.2531 6.4172 0.0000 0.0000 0.0000
# 2 17.2531 62.7829 11.1829 0.0000 0.0000 0.0000
# 3 6.4172 11.1829 125.7049 0.0000 0.0000 0.0000
# 4 0.0000 0.0000 0.0000 8.4965 0.0000 0.0000
# 5 0.0000 0.0000 0.0000 0.0000 14.2723 0.0000
# 6 0.0000 0.0000 0.0000 0.0000 0.0000 34.4849
#
#
#
# Elastic Compliance Matrix: (Units=1/GPa)
#
#
# Indices 1 2 3 4 5 6 
#
# 1 0.015816 -0.004270 -0.000428 0.000000 0.000000 0.000000
# 2 -0.004270 0.017337 -0.001324 0.000000 0.000000 0.000000
# 3 -0.000428 -0.001324 0.008095 0.000000 0.000000 0.000000
# 4 0.000000 0.000000 0.000000 0.117696 0.000000 0.000000
# 5 0.000000 0.000000 0.000000 0.000000 0.070066 0.000000
# 6 0.000000 0.000000 0.000000 0.000000 0.000000 0.028998
#
#
# Mechanical properties :
#
#
# Convention : Reuss Voigt Hill
#
# Bulk Modulus (GPa) = 34.24194 36.25032 35.24613
# Shear Modulus (GPa) = 17.87077 26.23029 22.05053
#
# Velocity S-wave (km/s) = 2.92315 3.54145 3.24705
# Velocity P-wave (km/s) = 5.26932 5.83570 5.55973
#
# Compressibility (1/GPa) = 0.02920395
#
# Stress axis : x y z
#
# Youngs Moduli (GPa) = 63.22702 57.67921 123.53637
#
# Poissons Ratio (x) = 0.24630 0.05281
# Poissons Ratio (y) = 0.26999 0.16361
# Poissons Ratio (z) = 0.02703 0.07639
#
# Static dielectric constant tensor:
#      x y z
#    x 1.862660 0.000000 0.000000 
#    y 0.000000 1.845140 0.000000 
#    z 0.000000 0.000000 1.841950 
# 
# From -- ./inp_files/26292.got.cif
#   From: 2010.05.17/outbox.cif.g08.bks.cpg/sg57_14_cif.got.tgz:26292.got - 2010.06.03 13:58:18.
