data_PCOD9435847
_publ_section_title
;
Structure prediction by ZEFSAII (Michael W. Deem and Ramdas Pophale) SiO2 
 PCOD9435847
Probable space group: P B C M
;
_chemical_formula_sum "Si O2"
_cell_formula_units_Z 64
_cell_length_a 24.350014
_cell_length_b 8.830552
_cell_length_c 15.525397
_cell_angle_alpha 90.000000
_cell_angle_beta 90.000000
_cell_angle_gamma 90.000000
_cell_volume 3338.333971
_symmetry_space_group_name_H-M "P B C M"
_symmetry_group_IT_number 57
_symmetry_cell_setting 'orthorhombic'
loop_
_space_group_symop_operation_xyz
x,y,z
-x,-y,1/2+z
x,1/2-y,-z
-x,1/2+y,1/2-z
-x,-y,-z
x,y,1/2-z
-x,1/2+y,z
x,1/2-y,1/2+z
loop_
_atom_site_type_symbol
_atom_site_label
_atom_site_fract_x
_atom_site_fract_y
_atom_site_fract_z
Si Si1 0.439149 0.115340 0.153302
Si Si2 0.935164 0.673224 0.092269
Si Si3 0.965907 0.506765 0.849152
Si Si4 0.467318 0.056619 0.584917
Si Si5 0.360411 0.432158 0.997122
Si Si6 0.758902 0.068758 0.491329
Si Si7 0.169072 0.517318 0.651308
Si Si8 0.847990 0.121710 0.350676
O O1 0.420530 0.151191 0.250000
O O2 0.459997 0.265965 0.103884
O O3 0.493038 0.010810 0.156352
O O4 0.390597 0.042223 0.095388
O O5 0.881816 0.591685 0.130318
O O6 0.983799 0.550544 0.093836
O O7 0.957382 0.814069 0.147255
O O8 0.924076 0.750000 0.000000
O O9 0.976337 0.461525 0.750000
O O10 0.908150 0.434270 0.877799
O O11 0.404689 0.008559 0.567310
O O12 0.500000 0.000000 0.500000
O O13 0.354899 0.250000 0.000000
O O14 0.301825 0.503167 0.015421
O O15 0.754420 0.250000 0.500000
O O16 0.785677 0.998442 0.577380
O O17 0.801226 0.050345 0.411612
O O18 0.187354 0.492644 0.750000
O O19 0.152717 0.695389 0.643674
O O20 0.839810 0.080874 0.250000
#
# Coordination Sequence:
#
# PCOD9435847 Si02
#       8
#     8   8   8   8   8   8   8   8
#     4  10  19  33  55  84 115 146 189 239 284 336
#     4  12  24  37  56  85 115 145 184 232 286 348
#     4  11  22  37  57  81 111 145 182 226 283 348
#     4   9  18  34  54  78 111 151 187 227 284 344
#     4   9  20  36  53  75 110 151 184 222 280 338
#     4  10  21  37  58  82 109 146 193 239 282 335
#     4  10  21  39  60  81 111 150 190 236 291 345
#     4   9  20  39  60  82 111 148 190 239 291 342
#
# _framework density 19.171240000000001
#
# number of rings (size 3 to 8) (size 9 to 14) (size 15 to 20)
#    0.000    2.000    0.000    4.500    0.000    6.500 
#    0.000    3.125    0.000    1.500    0.000    0.000 
#    0.000    0.000    0.000    0.000    0.000    0.000 
#
# Total GULP energy -356754.697494 kJ/mol
# GULP energy per Si atom -5574.292148 kJ/mol
# Density = 1.912761 g / cm^3
# Si number density = 19.171240 Si / 1000 Ang^3
#
#
#
# Elastic Constant Matrix: (Units=GPa)
#
#
# Indices 1 2 3 4 5 6 
#
# 1 78.7185 16.0660 8.5343 0.0000 0.0000 0.0000
# 2 16.0660 23.8210 3.0067 0.0000 0.0000 0.0000
# 3 8.5343 3.0067 73.8424 0.0000 0.0000 0.0000
# 4 0.0000 0.0000 0.0000 15.4586 0.0000 0.0000
# 5 0.0000 0.0000 0.0000 0.0000 15.1582 0.0000
# 6 0.0000 0.0000 0.0000 0.0000 0.0000 39.4406
#
#
#
# Elastic Compliance Matrix: (Units=1/GPa)
#
#
# Indices 1 2 3 4 5 6 
#
# 1 0.014857 -0.009854 -0.001316 0.000000 0.000000 0.000000
# 2 -0.009854 0.048733 -0.000845 0.000000 0.000000 0.000000
# 3 -0.001316 -0.000845 0.013729 0.000000 0.000000 0.000000
# 4 0.000000 0.000000 0.000000 0.064689 0.000000 0.000000
# 5 0.000000 0.000000 0.000000 0.000000 0.065971 0.000000
# 6 0.000000 0.000000 0.000000 0.000000 0.000000 0.025355
#
#
# Mechanical properties :
#
#
# Convention : Reuss Voigt Hill
#
# Bulk Modulus (GPa) = 18.76609 25.73289 22.24949
# Shear Modulus (GPa) = 18.17339 23.92979 21.05159
#
# Velocity S-wave (km/s) = 3.08222 3.53684 3.31733
# Velocity P-wave (km/s) = 4.74096 5.48915 5.12872
#
# Compressibility (1/GPa) = 0.05328761
#
# Stress axis : x y z
#
# Youngs Moduli (GPa) = 67.30651 20.52006 72.83930
#
# Poissons Ratio (x) = 0.20221 0.09585
# Poissons Ratio (y) = 0.66327 0.06158
# Poissons Ratio (z) = 0.08857 0.01735
#
# Static dielectric constant tensor:
#      x y z
#    x 1.641690 0.000000 0.000000 
#    y 0.000000 1.679000 0.000000 
#    z 0.000000 0.000000 1.702000 
# 
# From -- ./inp_files/19513.got.cif
#   From: 2010.05.17/outbox.cif.g08.bks.cpg/sg57_10_cif.got.tgz:19513.got - 2010.06.03 13:58:18.
