data_PCOD9435385
_publ_section_title
;
Structure prediction by ZEFSAII (Michael W. Deem and Ramdas Pophale) SiO2 
 PCOD9435385
Probable space group: P B C M
;
_chemical_formula_sum "Si O2"
_cell_formula_units_Z 64
_cell_length_a 21.079479
_cell_length_b 20.286591
_cell_length_c 8.881217
_cell_angle_alpha 90.000000
_cell_angle_beta 90.000000
_cell_angle_gamma 90.000000
_cell_volume 3797.881655
_symmetry_space_group_name_H-M "P B C M"
_symmetry_group_IT_number 57
_symmetry_cell_setting 'orthorhombic'
loop_
_space_group_symop_operation_xyz
x,y,z
-x,-y,1/2+z
x,1/2-y,-z
-x,1/2+y,1/2-z
-x,-y,-z
x,y,1/2-z
-x,1/2+y,z
x,1/2-y,1/2+z
loop_
_atom_site_type_symbol
_atom_site_label
_atom_site_fract_x
_atom_site_fract_y
_atom_site_fract_z
Si Si1 0.680615 0.546185 0.068706
Si Si2 0.017198 0.681775 0.069449
Si Si3 0.131492 0.318081 0.569624
Si Si4 0.177214 0.461725 0.568621
Si Si5 0.559318 0.039233 0.567874
Si Si6 0.366656 0.319513 0.430016
Si Si7 0.940024 0.461472 0.930974
Si Si8 0.516364 0.181217 0.569718
O O1 0.678113 0.553987 0.250000
O O2 0.750620 0.520385 0.030654
O O3 0.624268 0.496850 0.023238
O O4 0.668733 0.617333 0.995751
O O5 0.019085 0.686783 0.250000
O O6 0.053244 0.615331 0.024712
O O7 0.942818 0.674465 0.025851
O O8 0.041019 0.750000 0.000000
O O9 0.155843 0.250000 0.500000
O O10 0.134448 0.312640 0.750000
O O11 0.166348 0.385123 0.525196
O O12 0.168590 0.465861 0.750000
O O13 0.124115 0.505793 0.490595
O O14 0.554749 0.037228 0.750000
O O15 0.553292 0.115596 0.521158
O O16 0.500000 0.000000 0.500000
O O17 0.345329 0.250000 0.500000
O O18 0.361048 0.317284 0.250000
O O19 0.441681 0.327421 0.469272
O O20 0.943436 0.465515 0.750000
O O21 0.000000 0.500000 0.000000
O O22 0.538403 0.250000 0.500000
O O23 0.520059 0.186162 0.750000
#
# Coordination Sequence:
#
# PCOD9435385 Si02
#       8
#     8   8   8   8   8   8   8   8
#     4  10  21  35  53  75 105 142 178 218 265 314
#     4   9  18  32  51  77 104 130 165 211 255 301
#     4   9  17  31  48  69 101 134 170 209 247 298
#     4  10  21  37  52  74 107 142 177 215 261 313
#     4  10  19  33  53  78 103 133 173 217 262 309
#     4  10  19  32  50  73 105 140 177 216 259 313
#     4  11  21  35  56  81 106 136 175 219 262 309
#     4   9  18  31  49  75 103 131 168 215 261 311
#
# _framework density 16.851499
#
# number of rings (size 3 to 8) (size 9 to 14) (size 15 to 20)
#    0.000    2.250    2.500    0.750    0.000    3.500 
#    0.000    1.250    0.000    0.750    0.000    3.500 
#    0.000    0.000    0.000    0.000    0.000    0.000 
#
# Total GULP energy -357048.465558 kJ/mol
# GULP energy per Si atom -5578.882274 kJ/mol
# Density = 1.681314 g / cm^3
# Si number density = 16.851499 Si / 1000 Ang^3
#
#
#
# Elastic Constant Matrix: (Units=GPa)
#
#
# Indices 1 2 3 4 5 6 
#
# 1 109.3791 72.4688 34.8789 0.0000 0.0000 0.0000
# 2 72.4688 144.4726 36.2164 0.0000 0.0000 0.0000
# 3 34.8789 36.2164 17.9301 0.0000 0.0000 0.0000
# 4 0.0000 0.0000 0.0000 30.5404 0.0000 0.0000
# 5 0.0000 0.0000 0.0000 0.0000 16.7616 0.0000
# 6 0.0000 0.0000 0.0000 0.0000 0.0000 21.9051
#
#
#
# Elastic Compliance Matrix: (Units=1/GPa)
#
#
# Indices 1 2 3 4 5 6 
#
# 1 0.024112 -0.000682 -0.045527 0.000000 0.000000 0.000000
# 2 -0.000682 0.014041 -0.027033 0.000000 0.000000 0.000000
# 3 -0.045527 -0.027033 0.198937 0.000000 0.000000 0.000000
# 4 0.000000 0.000000 0.000000 0.032743 0.000000 0.000000
# 5 0.000000 0.000000 0.000000 0.000000 0.059660 0.000000
# 6 0.000000 0.000000 0.000000 0.000000 0.000000 0.045651
#
#
# Mechanical properties :
#
#
# Convention : Reuss Voigt Hill
#
# Bulk Modulus (GPa) = 11.03678 62.10111 36.56894
# Shear Modulus (GPa) = 9.06074 22.38928 15.72501
#
# Velocity S-wave (km/s) = 2.32131 3.64898 3.05807
# Velocity P-wave (km/s) = 3.70787 7.39496 5.84952
#
# Compressibility (1/GPa) = 0.09060617
#
# Stress axis : x y z
#
# Youngs Moduli (GPa) = 41.47298 71.22205 5.02671
#
# Poissons Ratio (x) = 0.04859 0.22885
# Poissons Ratio (y) = 0.02829 0.13589
# Poissons Ratio (z) = 1.88813 1.92535
#
# Static dielectric constant tensor:
#      x y z
#    x 1.564430 0.000000 0.000000 
#    y 0.000000 1.564430 0.000000 
#    z 0.000000 0.000000 1.569730 
# 
# From -- ./inp_files/7210.got.cif
#   From: 2010.05.17/outbox.cif.g08.bks.cpg/sg57_4_cif.got.tgz:7210.got - 2010.06.03 13:58:18.
