data_PCOD9435136
_publ_section_title
;
Structure prediction by ZEFSAII (Michael W. Deem and Ramdas Pophale) SiO2 
 PCOD9435136
Probable space group: P B C M
;
_chemical_formula_sum "Si O2"
_cell_formula_units_Z 40
_cell_length_a 13.556242
_cell_length_b 19.500382
_cell_length_c 8.524863
_cell_angle_alpha 90.000000
_cell_angle_beta 90.000000
_cell_angle_gamma 90.000000
_cell_volume 2253.563710
_symmetry_space_group_name_H-M "P B C M"
_symmetry_group_IT_number 57
_symmetry_cell_setting 'orthorhombic'
loop_
_space_group_symop_operation_xyz
x,y,z
-x,-y,1/2+z
x,1/2-y,-z
-x,1/2+y,1/2-z
-x,-y,-z
x,y,1/2-z
-x,1/2+y,z
x,1/2-y,1/2+z
loop_
_atom_site_type_symbol
_atom_site_label
_atom_site_fract_x
_atom_site_fract_y
_atom_site_fract_z
Si Si1 0.711502 0.827761 0.062083
Si Si2 0.105220 0.079960 0.939380
Si Si3 0.711297 0.172283 0.439611
Si Si4 0.107925 0.921432 0.939416
Si Si5 0.494356 0.171829 0.437916
O O1 0.710809 0.825496 0.250000
O O2 0.804377 0.872716 0.008217
O O3 0.719999 0.750000 0.000000
O O4 0.606525 0.858287 0.006178
O O5 0.103025 0.081094 0.750000
O O6 0.119736 0.000785 0.989542
O O7 0.998592 0.103004 0.001069
O O8 0.721149 0.250000 0.500000
O O9 0.713395 0.174463 0.250000
O O10 0.801388 0.125214 0.494364
O O11 0.602353 0.144100 0.484178
O O12 0.107236 0.920349 0.750000
O O13 0.495626 0.250000 0.500000
O O14 0.487316 0.172120 0.250000
#
# Coordination Sequence:
#
# PCOD9435136 Si02
#       5
#     8   8   8   8   8
#     4  10  19  31  48  70  95 122 154 192 231 271
#     4   9  19  34  50  68  92 123 157 192 230 273
#     4   9  18  31  49  72  96 122 152 190 231 272
#     4   9  18  34  52  68  91 124 157 189 230 276
#     4   9  16  28  46  68  94 122 152 185 227 275
#
# _framework density 17.749665
#
# number of rings (size 3 to 8) (size 9 to 14) (size 15 to 20)
#    0.000    2.800    0.000    2.400    0.000    4.000 
#    0.000    5.000    0.000    0.000    0.000    0.000 
#    0.000    0.000    0.000    0.000    0.000    0.000 
#
# Total GULP energy -222841.268554 kJ/mol
# GULP energy per Si atom -5571.031714 kJ/mol
# Density = 1.770927 g / cm^3
# Si number density = 17.749665 Si / 1000 Ang^3
#
#
#
# Elastic Constant Matrix: (Units=GPa)
#
#
# Indices 1 2 3 4 5 6 
#
# 1 226.8270 81.5342 31.9904 0.0000 0.0000 0.0000
# 2 81.5342 50.0896 13.1402 0.0000 0.0000 0.0000
# 3 31.9904 13.1402 21.4041 0.0000 0.0000 0.0000
# 4 0.0000 0.0000 0.0000 14.7098 0.0000 0.0000
# 5 0.0000 0.0000 0.0000 0.0000 4.8499 0.0000
# 6 0.0000 0.0000 0.0000 0.0000 0.0000 -6.9936
#
#
#
# Elastic Compliance Matrix: (Units=1/GPa)
#
#
# Indices 1 2 3 4 5 6 
#
# 1 0.011383 -0.016766 -0.006720 0.000000 0.000000 0.000000
# 2 -0.016766 0.048491 -0.004711 0.000000 0.000000 0.000000
# 3 -0.006720 -0.004711 0.059656 0.000000 0.000000 0.000000
# 4 0.000000 0.000000 0.000000 0.067982 0.000000 0.000000
# 5 0.000000 0.000000 0.000000 0.000000 0.206191 0.000000
# 6 0.000000 0.000000 0.000000 0.000000 0.000000 -0.142989
#
#
# Mechanical properties :
#
#
# Convention : Reuss Voigt Hill
#
# Bulk Modulus (GPa) = 15.83877 61.29448 38.56663
# Shear Modulus (GPa) = 15.23672 13.95694 14.59683
#
# Velocity S-wave (km/s) = 2.93306 2.80718 2.87081
# Velocity P-wave (km/s) = 4.51811 6.71675 5.72399
#
# Compressibility (1/GPa) = 0.06313620
#
# Stress axis : x y z
#
# Youngs Moduli (GPa) = 87.84963 20.62225 16.76275
#
# Poissons Ratio (x) = 0.34575 0.11265
# Poissons Ratio (y) = 1.47289 0.07897
# Poissons Ratio (z) = 0.59037 0.09715
#
# Static dielectric constant tensor:
#      x y z
#    x 1.642480 0.000000 0.000000 
#    y 0.000000 1.577080 0.000000 
#    z 0.000000 0.000000 1.606700 
# 
# From -- ./inp_files/2866.got.cif
#   From: 2010.05.17/outbox.cif.g08.bks.cpg/sg57_2_cif.got.tgz:2866.got - 2010.06.03 13:58:18.
