data_PCOD9435283
_publ_section_title
;
Structure prediction by ZEFSAII (Michael W. Deem and Ramdas Pophale) SiO2 
 PCOD9435283
Probable space group: P B C M
;
_chemical_formula_sum "Si O2"
_cell_formula_units_Z 56
_cell_length_a 17.733858
_cell_length_b 20.487481
_cell_length_c 8.620901
_cell_angle_alpha 90.000000
_cell_angle_beta 90.000000
_cell_angle_gamma 90.000000
_cell_volume 3132.163673
_symmetry_space_group_name_H-M "P B C M"
_symmetry_group_IT_number 57
_symmetry_cell_setting 'orthorhombic'
loop_
_space_group_symop_operation_xyz
x,y,z
-x,-y,1/2+z
x,1/2-y,-z
-x,1/2+y,1/2-z
-x,-y,-z
x,y,1/2-z
-x,1/2+y,z
x,1/2-y,1/2+z
loop_
_atom_site_type_symbol
_atom_site_label
_atom_site_fract_x
_atom_site_fract_y
_atom_site_fract_z
Si Si1 0.393012 0.456841 0.437510
Si Si2 0.679849 0.178827 0.064919
Si Si3 0.777505 0.560813 0.560867
Si Si4 0.882429 0.679362 0.937256
Si Si5 0.057260 0.679047 0.935760
Si Si6 0.551164 0.095351 0.564827
Si Si7 0.183298 0.585133 0.062457
O O1 0.393087 0.464106 0.250000
O O2 0.310126 0.433814 0.485473
O O3 0.462972 0.410120 0.479508
O O4 0.411556 0.527516 0.508172
O O5 0.680723 0.180912 0.250000
O O6 0.743131 0.126629 0.013838
O O7 0.697229 0.250000 0.000000
O O8 0.598935 0.153396 0.008287
O O9 0.778914 0.561146 0.750000
O O10 0.829241 0.620607 0.508071
O O11 0.808175 0.489861 0.511640
O O12 0.880263 0.681094 0.750000
O O13 0.969920 0.668838 0.982981
O O14 0.858833 0.750000 0.000000
O O15 0.061186 0.680647 0.750000
O O16 0.081227 0.750000 0.000000
O O17 0.110733 0.622550 0.999122
O O18 0.555982 0.099326 0.750000
O O19 0.180860 0.585659 0.250000
#
# Coordination Sequence:
#
# PCOD9435283 Si02
#       7
#     8   8   8   8   8   8   8
#     4   9  17  33  55  77 103 137 175 213 258 313
#     4  11  22  36  53  75 107 144 182 220 266 318
#     4   9  17  34  57  79 105 139 175 213 263 317
#     4   9  19  36  57  77 102 137 175 215 262 317
#     4  10  20  34  52  76 105 139 177 216 260 311
#     4  10  19  31  52  79 105 136 176 217 260 309
#     4  10  20  34  54  78 104 138 177 216 262 318
#
# _framework density 17.879014999999999
#
# number of rings (size 3 to 8) (size 9 to 14) (size 15 to 20)
#    0.000    2.286    1.429    1.714    0.000    4.000 
#    0.000    2.143    0.000    1.714    0.000    0.000 
#    0.000    0.000    0.000    0.000    0.000    0.000 
#
# Total GULP energy -312466.883377 kJ/mol
# GULP energy per Si atom -5579.765775 kJ/mol
# Density = 1.783832 g / cm^3
# Si number density = 17.879015 Si / 1000 Ang^3
#
#
#
# Elastic Constant Matrix: (Units=GPa)
#
#
# Indices 1 2 3 4 5 6 
#
# 1 126.1751 94.0064 22.8349 0.0000 0.0000 0.0000
# 2 94.0064 147.1347 25.1472 0.0000 0.0000 0.0000
# 3 22.8349 25.1472 13.1044 0.0000 0.0000 0.0000
# 4 0.0000 0.0000 0.0000 27.2918 0.0000 0.0000
# 5 0.0000 0.0000 0.0000 0.0000 16.2696 0.0000
# 6 0.0000 0.0000 0.0000 0.0000 0.0000 20.9421
#
#
#
# Elastic Compliance Matrix: (Units=1/GPa)
#
#
# Indices 1 2 3 4 5 6 
#
# 1 0.016417 -0.008333 -0.012617 0.000000 0.000000 0.000000
# 2 -0.008333 0.014343 -0.013004 0.000000 0.000000 0.000000
# 3 -0.012617 -0.013004 0.123250 0.000000 0.000000 0.000000
# 4 0.000000 0.000000 0.000000 0.036641 0.000000 0.000000
# 5 0.000000 0.000000 0.000000 0.000000 0.061464 0.000000
# 6 0.000000 0.000000 0.000000 0.000000 0.000000 0.047751
#
#
# Mechanical properties :
#
#
# Convention : Reuss Voigt Hill
#
# Bulk Modulus (GPa) = 11.61405 63.37681 37.49543
# Shear Modulus (GPa) = 12.61116 22.52906 17.57011
#
# Velocity S-wave (km/s) = 2.65875 3.55362 3.13824
# Velocity P-wave (km/s) = 3.99190 7.23617 5.84369
#
# Compressibility (1/GPa) = 0.08610262
#
# Stress axis : x y z
#
# Youngs Moduli (GPa) = 60.91168 69.72086 8.11361
#
# Poissons Ratio (x) = 0.58097 0.10237
# Poissons Ratio (y) = 0.50756 0.10551
# Poissons Ratio (z) = 0.76853 0.90663
#
# Static dielectric constant tensor:
#      x y z
#    x 1.623720 0.000000 0.000000 
#    y 0.000000 1.584110 0.000000 
#    z 0.000000 0.000000 1.608560 
# 
# From -- ./inp_files/5229.got.cif
#   From: 2010.05.17/outbox.cif.g08.bks.cpg/sg57_3_cif.got.tgz:5229.got - 2010.06.03 13:58:18.
