data_PCOD9435185
_publ_section_title
;
Structure prediction by ZEFSAII (Michael W. Deem and Ramdas Pophale) SiO2 
 PCOD9435185
Probable space group: P B C M
;
_chemical_formula_sum "Si O2"
_cell_formula_units_Z 64
_cell_length_a 21.719532
_cell_length_b 18.816098
_cell_length_c 7.775496
_cell_angle_alpha 90.000000
_cell_angle_beta 90.000000
_cell_angle_gamma 90.000000
_cell_volume 3177.665155
_symmetry_space_group_name_H-M "P B C M"
_symmetry_group_IT_number 57
_symmetry_cell_setting 'orthorhombic'
loop_
_space_group_symop_operation_xyz
x,y,z
-x,-y,1/2+z
x,1/2-y,-z
-x,1/2+y,1/2-z
-x,-y,-z
x,y,1/2-z
-x,1/2+y,z
x,1/2-y,1/2+z
loop_
_atom_site_type_symbol
_atom_site_label
_atom_site_fract_x
_atom_site_fract_y
_atom_site_fract_z
Si Si1 0.142917 0.666907 0.457215
Si Si2 0.619927 0.892577 0.048783
Si Si3 0.123371 0.166954 0.454544
Si Si4 0.393545 0.944099 0.453103
Si Si5 0.506081 0.169172 0.957598
Si Si6 0.256994 0.925402 0.541154
Si Si7 0.009437 0.665967 0.043012
Si Si8 0.247182 0.413344 0.455167
O O1 0.147365 0.750000 0.500000
O O2 0.142343 0.660201 0.250000
O O3 0.202754 0.625630 0.521357
O O4 0.075947 0.639182 0.520704
O O5 0.622221 0.873288 0.250000
O O6 0.562062 0.850272 0.974167
O O7 0.688594 0.881074 0.974858
O O8 0.606891 0.977395 0.035668
O O9 0.127565 0.250000 0.500000
O O10 0.121496 0.160886 0.250000
O O11 0.184671 0.128116 0.513570
O O12 0.056907 0.138886 0.522242
O O13 0.402863 0.955299 0.250000
O O14 0.445558 0.890318 0.519395
O O15 0.326210 0.910080 0.481595
O O16 0.505473 0.163259 0.750000
O O17 0.522881 0.250000 0.000000
O O18 0.257532 0.923628 0.750000
O O19 0.242726 0.005708 0.482434
O O20 0.009524 0.658351 0.250000
O O21 0.009393 0.750000 0.000000
O O22 0.255335 0.417642 0.250000
#
# Coordination Sequence:
#
# PCOD9435185 Si02
#       8
#     8   8   8   8   8   8   8   8
#     4   9  17  31  51  73  97 128 166 205 246 291
#     4   9  19  37  57  75  98 131 169 203 241 294
#     4  10  19  31  49  72  98 128 162 203 248 293
#     4  10  20  34  54  78 101 129 167 206 243 290
#     4  10  22  37  53  77 106 133 164 204 247 290
#     4   9  19  35  53  72  99 135 167 199 244 295
#     4   8  15  28  46  68  94 125 162 201 241 289
#     4   9  18  33  51  71  97 129 164 201 241 290
#
# _framework density 20.140573
#
# number of rings (size 3 to 8) (size 9 to 14) (size 15 to 20)
#    0.000    2.750    0.000    1.875    0.000    5.500 
#    0.000    4.375    0.000    0.000    0.000    0.000 
#    0.000    0.000    0.000    0.000    0.000    0.000 
#
# Total GULP energy -356685.812008 kJ/mol
# GULP energy per Si atom -5573.215813 kJ/mol
# Density = 2.009473 g / cm^3
# Si number density = 20.140573 Si / 1000 Ang^3
#
#
#
# Elastic Constant Matrix: (Units=GPa)
#
#
# Indices 1 2 3 4 5 6 
#
# 1 102.0195 14.5976 -4.9335 0.0000 0.0000 0.0000
# 2 14.5976 12.0019 -10.5873 0.0000 0.0000 0.0000
# 3 -4.9335 -10.5873 23.3660 0.0000 0.0000 0.0000
# 4 0.0000 0.0000 0.0000 13.8361 0.0000 0.0000
# 5 0.0000 0.0000 0.0000 0.0000 22.4224 0.0000
# 6 0.0000 0.0000 0.0000 0.0000 0.0000 40.5146
#
#
#
# Elastic Compliance Matrix: (Units=1/GPa)
#
#
# Indices 1 2 3 4 5 6 
#
# 1 0.012537 -0.021511 -0.007100 0.000000 0.000000 0.000000
# 2 -0.021511 0.175707 0.075072 0.000000 0.000000 0.000000
# 3 -0.007100 0.075072 0.075314 0.000000 0.000000 0.000000
# 4 0.000000 0.000000 0.000000 0.072275 0.000000 0.000000
# 5 0.000000 0.000000 0.000000 0.000000 0.044598 0.000000
# 6 0.000000 0.000000 0.000000 0.000000 0.000000 0.024682
#
#
# Mechanical properties :
#
#
# Convention : Reuss Voigt Hill
#
# Bulk Modulus (GPa) = 2.80521 15.06014 8.93267
# Shear Modulus (GPa) = 11.60048 24.57531 18.08790
#
# Velocity S-wave (km/s) = 2.40255 3.49691 3.00005
# Velocity P-wave (km/s) = 3.01533 4.87835 4.05527
#
# Compressibility (1/GPa) = 0.35647918
#
# Stress axis : x y z
#
# Youngs Moduli (GPa) = 79.76624 5.69130 13.27783
#
# Poissons Ratio (x) = 0.12243 0.09427
# Poissons Ratio (y) = 1.71584 -0.99679
# Poissons Ratio (z) = 0.56632 -0.42726
#
# Static dielectric constant tensor:
#      x y z
#    x 1.777570 0.000000 0.000000 
#    y 0.000000 1.664040 0.000000 
#    z 0.000000 0.000000 1.756710 
# 
# From -- ./inp_files/8696.got.cif
#   From: 2010.05.17/outbox.cif.g08.bks.cpg/sg57_5_cif.got.tgz:8696.got - 2010.06.03 13:58:18.
