data_PCOD9435391
_publ_section_title
;
Structure prediction by ZEFSAII (Michael W. Deem and Ramdas Pophale) SiO2 
 PCOD9435391
Probable space group: P B C M
;
_chemical_formula_sum "Si O2"
_cell_formula_units_Z 64
_cell_length_a 20.014526
_cell_length_b 20.475219
_cell_length_c 9.041902
_cell_angle_alpha 90.000000
_cell_angle_beta 90.000000
_cell_angle_gamma 90.000000
_cell_volume 3705.387742
_symmetry_space_group_name_H-M "P B C M"
_symmetry_group_IT_number 57
_symmetry_cell_setting 'orthorhombic'
loop_
_space_group_symop_operation_xyz
x,y,z
-x,-y,1/2+z
x,1/2-y,-z
-x,1/2+y,1/2-z
-x,-y,-z
x,y,1/2-z
-x,1/2+y,z
x,1/2-y,1/2+z
loop_
_atom_site_type_symbol
_atom_site_label
_atom_site_fract_x
_atom_site_fract_y
_atom_site_fract_z
Si Si1 0.944974 0.315615 0.920433
Si Si2 0.782141 0.315292 0.582071
Si Si3 0.947847 0.049181 0.926994
Si Si4 0.196853 0.542138 0.429227
Si Si5 0.630800 0.681992 0.073975
Si Si6 0.438664 0.538830 0.428049
Si Si7 0.472172 0.682285 0.426618
Si Si8 0.314506 0.053680 0.926462
O O1 0.966689 0.320518 0.750000
O O2 0.863564 0.313258 0.917717
O O3 0.968336 0.250000 0.000000
O O4 0.964619 0.378290 0.015084
O O5 0.758869 0.250000 0.500000
O O6 0.757715 0.311939 0.750000
O O7 0.768881 0.388642 0.524743
O O8 0.949006 0.045781 0.750000
O O9 0.873625 0.035622 0.989745
O O10 0.000000 0.000000 0.000000
O O11 0.186522 0.546902 0.250000
O O12 0.244705 0.481457 0.459731
O O13 0.637698 0.685769 0.250000
O O14 0.551479 0.673543 0.040330
O O15 0.651956 0.750000 0.000000
O O16 0.670187 0.620324 0.010470
O O17 0.500000 0.500000 0.500000
O O18 0.447515 0.538915 0.250000
O O19 0.437675 0.614761 0.475169
O O20 0.371960 0.499001 0.462825
O O21 0.449687 0.750000 0.500000
O O22 0.464954 0.688637 0.250000
O O23 0.317706 0.065736 0.750000
#
# Coordination Sequence:
#
# PCOD9435391 Si02
#       8
#     8   8   8   8   8   8   8   8
#     4   9  16  28  47  74 105 135 169 211 254 301
#     4   8  14  25  43  65  93 127 163 202 241 285
#     4  11  21  34  54  79 106 139 176 218 265 315
#     4   9  19  35  51  73 104 138 174 214 262 317
#     4  10  19  32  51  75 102 131 170 218 262 310
#     4  10  19  32  50  74 101 132 170 212 260 308
#     4   9  18  31  47  70 100 133 170 214 258 304
#     4  10  20  34  54  76 103 138 173 214 266 315
#
# _framework density 17.272147
#
# number of rings (size 3 to 8) (size 9 to 14) (size 15 to 20)
#    0.000    2.500    1.250    2.625    0.000    4.500 
#    0.000    0.625    0.000    0.750    0.000    1.750 
#    0.000    0.000    0.000    0.000    0.000    0.000 
#
# Total GULP energy -356836.827008 kJ/mol
# GULP energy per Si atom -5575.575422 kJ/mol
# Density = 1.723283 g / cm^3
# Si number density = 17.272147 Si / 1000 Ang^3
#
#
#
# Elastic Constant Matrix: (Units=GPa)
#
#
# Indices 1 2 3 4 5 6 
#
# 1 45.2066 53.2606 37.3148 0.0000 0.0000 0.0000
# 2 53.2606 179.6631 67.7680 0.0000 0.0000 0.0000
# 3 37.3148 67.7680 70.8329 0.0000 0.0000 0.0000
# 4 0.0000 0.0000 0.0000 35.2612 0.0000 0.0000
# 5 0.0000 0.0000 0.0000 0.0000 14.1804 0.0000
# 6 0.0000 0.0000 0.0000 0.0000 0.0000 21.3640
#
#
#
# Elastic Compliance Matrix: (Units=1/GPa)
#
#
# Indices 1 2 3 4 5 6 
#
# 1 0.043738 -0.006689 -0.016642 0.000000 0.000000 0.000000
# 2 -0.006689 0.009732 -0.005787 0.000000 0.000000 0.000000
# 3 -0.016642 -0.005787 0.028421 0.000000 0.000000 0.000000
# 4 0.000000 0.000000 0.000000 0.028360 0.000000 0.000000
# 5 0.000000 0.000000 0.000000 0.000000 0.070520 0.000000
# 6 0.000000 0.000000 0.000000 0.000000 0.000000 0.046808
#
#
# Mechanical properties :
#
#
# Convention : Reuss Voigt Hill
#
# Bulk Modulus (GPa) = 42.27317 68.04327 55.15822
# Shear Modulus (GPa) = 17.02431 23.31840 20.17136
#
# Velocity S-wave (km/s) = 3.14291 3.67830 3.42110
# Velocity P-wave (km/s) = 6.13991 7.58421 6.89995
#
# Compressibility (1/GPa) = 0.02365567
#
# Stress axis : x y z
#
# Youngs Moduli (GPa) = 22.86366 102.75779 35.18511
#
# Poissons Ratio (x) = 0.68732 0.58554
# Poissons Ratio (y) = 0.15293 0.20361
# Poissons Ratio (z) = 0.38049 0.59465
#
# Static dielectric constant tensor:
#      x y z
#    x 1.578970 0.000000 0.000000 
#    y 0.000000 1.596200 0.000000 
#    z 0.000000 0.000000 1.584910 
# 
# From -- ./inp_files/7270.got.cif
#   From: 2010.05.17/outbox.cif.g08.bks.cpg/sg57_4_cif.got.tgz:7270.got - 2010.06.03 13:58:18.
