data_PCOD9435266
_publ_section_title
;
Structure prediction by ZEFSAII (Michael W. Deem and Ramdas Pophale) SiO2 
 PCOD9435266
Probable space group: P B C M
;
_chemical_formula_sum "Si O2"
_cell_formula_units_Z 48
_cell_length_a 19.918706
_cell_length_b 14.342147
_cell_length_c 8.922060
_cell_angle_alpha 90.000000
_cell_angle_beta 90.000000
_cell_angle_gamma 90.000000
_cell_volume 2548.827419
_symmetry_space_group_name_H-M "P B C M"
_symmetry_group_IT_number 57
_symmetry_cell_setting 'orthorhombic'
loop_
_space_group_symop_operation_xyz
x,y,z
-x,-y,1/2+z
x,1/2-y,-z
-x,1/2+y,1/2-z
-x,-y,-z
x,y,1/2-z
-x,1/2+y,z
x,1/2-y,1/2+z
loop_
_atom_site_type_symbol
_atom_site_label
_atom_site_fract_x
_atom_site_fract_y
_atom_site_fract_z
Si Si1 0.129762 0.654444 0.071234
Si Si2 0.396874 0.473321 0.571520
Si Si3 0.468232 0.647038 0.428742
Si Si4 0.281968 0.350519 0.429829
Si Si5 0.853220 0.952598 0.430001
Si Si6 0.972503 0.652161 0.070987
O O1 0.132793 0.664307 0.250000
O O2 0.165433 0.558530 0.027625
O O3 0.050898 0.641455 0.030148
O O4 0.154564 0.750000 0.000000
O O5 0.387704 0.481979 0.750000
O O6 0.416657 0.573170 0.501743
O O7 0.459198 0.401887 0.545621
O O8 0.332932 0.426833 0.494089
O O9 0.465590 0.750000 0.500000
O O10 0.457659 0.653051 0.250000
O O11 0.296788 0.250000 0.500000
O O12 0.287553 0.346286 0.250000
O O13 0.206408 0.382481 0.469366
O O14 0.862571 0.950554 0.250000
O O15 0.922761 0.924341 0.505894
O O16 0.967856 0.654872 0.250000
O O17 0.950132 0.750000 0.000000
#
# Coordination Sequence:
#
# PCOD9435266 Si02
#       6
#     8   8   8   8   8   8
#     4   9  19  35  53  75 102 133 172 219 270 321
#     4  10  21  37  58  84 114 148 185 224 268 318
#     4  10  20  35  58  87 117 147 182 225 270 316
#     4  11  23  38  56  78 108 144 180 220 266 319
#     4  10  21  36  53  75 105 139 177 221 266 315
#     4  10  19  31  51  77 104 134 170 216 269 323
#
# _framework density 18.832189
#
# number of rings (size 3 to 8) (size 9 to 14) (size 15 to 20)
#    0.000    2.000    0.000    3.500    0.000    7.333 
#    0.000    0.833    0.000    2.000    0.000    0.000 
#    0.000    0.000    0.000    0.000    0.000    0.000 
#
# Total GULP energy -268007.034363 kJ/mol
# GULP energy per Si atom -5583.479883 kJ/mol
# Density = 1.878933 g / cm^3
# Si number density = 18.832189 Si / 1000 Ang^3
#
#
#
# Elastic Constant Matrix: (Units=GPa)
#
#
# Indices 1 2 3 4 5 6 
#
# 1 25.5334 10.5429 21.9513 0.0000 0.0000 0.0000
# 2 10.5429 133.0049 39.2973 0.0000 0.0000 0.0000
# 3 21.9513 39.2973 42.0277 0.0000 0.0000 0.0000
# 4 0.0000 0.0000 0.0000 36.2161 0.0000 0.0000
# 5 0.0000 0.0000 0.0000 0.0000 16.1397 0.0000
# 6 0.0000 0.0000 0.0000 0.0000 0.0000 22.5072
#
#
#
# Elastic Compliance Matrix: (Units=1/GPa)
#
#
# Indices 1 2 3 4 5 6 
#
# 1 0.076729 0.007957 -0.047516 0.000000 0.000000 0.000000
# 2 0.007957 0.011214 -0.014641 0.000000 0.000000 0.000000
# 3 -0.047516 -0.014641 0.062302 0.000000 0.000000 0.000000
# 4 0.000000 0.000000 0.000000 0.027612 0.000000 0.000000
# 5 0.000000 0.000000 0.000000 0.000000 0.061959 0.000000
# 6 0.000000 0.000000 0.000000 0.000000 0.000000 0.044430
#
#
# Mechanical properties :
#
#
# Convention : Reuss Voigt Hill
#
# Bulk Modulus (GPa) = 23.89835 38.23878 31.06856
# Shear Modulus (GPa) = 12.29728 23.55756 17.92742
#
# Velocity S-wave (km/s) = 2.55814 3.54067 3.08873
# Velocity P-wave (km/s) = 4.63068 6.08804 5.40867
#
# Compressibility (1/GPa) = 0.04184390
#
# Stress axis : x y z
#
# Youngs Moduli (GPa) = 13.03288 89.17741 16.05094
#
# Poissons Ratio (x) = -0.70957 0.76268
# Poissons Ratio (y) = -0.10370 0.23500
# Poissons Ratio (z) = 0.61927 1.30565
#
# Static dielectric constant tensor:
#      x y z
#    x 1.640370 0.000000 0.000000 
#    y 0.000000 1.670870 0.000000 
#    z 0.000000 0.000000 1.623390 
# 
# From -- ./inp_files/6503.got.cif
#   From: 2010.05.17/outbox.cif.g08.bks.cpg/sg57_4_cif.got.tgz:6503.got - 2010.06.03 13:58:18.
