data_PCOD9435074
_publ_section_title
;
Structure prediction by ZEFSAII (Michael W. Deem and Ramdas Pophale) SiO2 
 PCOD9435074
Probable space group: P B C M
;
_chemical_formula_sum "Si O2"
_cell_formula_units_Z 28
_cell_length_a 15.985358
_cell_length_b 5.258110
_cell_length_c 15.645777
_cell_angle_alpha 90.000000
_cell_angle_beta 90.000000
_cell_angle_gamma 90.000000
_cell_volume 1315.070907
_symmetry_space_group_name_H-M "P B C M"
_symmetry_group_IT_number 57
_symmetry_cell_setting 'orthorhombic'
loop_
_space_group_symop_operation_xyz
x,y,z
-x,-y,1/2+z
x,1/2-y,-z
-x,1/2+y,1/2-z
-x,-y,-z
x,y,1/2-z
-x,1/2+y,z
x,1/2-y,1/2+z
loop_
_atom_site_type_symbol
_atom_site_label
_atom_site_fract_x
_atom_site_fract_y
_atom_site_fract_z
Si Si1 0.532120 0.944730 0.402268
Si Si2 0.943057 0.250000 0.500000
Si Si3 0.187031 0.746659 0.845394
Si Si4 0.278241 0.251873 0.400441
O O1 0.473689 0.725553 0.363139
O O2 0.624294 0.827748 0.399015
O O3 0.500000 0.000000 0.500000
O O4 0.883907 0.264882 0.417109
O O5 0.000000 0.500000 0.500000
O O6 0.153655 0.711110 0.750000
O O7 0.254170 0.522806 0.863962
O O8 0.229754 0.021760 0.853999
O O9 0.252496 0.250000 0.500000
#
# Coordination Sequence:
#
# PCOD9435074 Si02
#       4
#     8   4   8   8
#     4  10  19  30  56 100 124 171 237 282 335 386
#     4  12  26  46  76 106 134 170 218 272 338 418
#     4  12  27  46  70 103 139 179 223 279 341 408
#     4  12  21  40  70  99 132 183 239 278 332 408
#
# _framework density 21.291626999999998
#
# number of rings (size 3 to 8) (size 9 to 14) (size 15 to 20)
#    0.000    0.571    5.714    4.286    4.000    1.143 
#    0.000    0.000    0.000   17.143    0.000    0.000 
#    0.000    0.000    0.000    0.000    0.000    0.000 
#
# Total GULP energy -156498.592315 kJ/mol
# GULP energy per Si atom -5589.235440 kJ/mol
# Density = 2.124317 g / cm^3
# Si number density = 21.291627 Si / 1000 Ang^3
#
#
#
# Elastic Constant Matrix: (Units=GPa)
#
#
# Indices 1 2 3 4 5 6 
#
# 1 118.1464 40.7632 45.5006 0.0000 0.0000 0.0000
# 2 40.7632 173.1977 19.7560 0.0000 0.0000 0.0000
# 3 45.5006 19.7560 135.9835 0.0000 0.0000 0.0000
# 4 0.0000 0.0000 0.0000 11.9971 0.0000 0.0000
# 5 0.0000 0.0000 0.0000 0.0000 -10.7221 0.0000
# 6 0.0000 0.0000 0.0000 0.0000 0.0000 42.2257
#
#
#
# Elastic Compliance Matrix: (Units=1/GPa)
#
#
# Indices 1 2 3 4 5 6 
#
# 1 0.010409 -0.002087 -0.003180 0.000000 0.000000 0.000000
# 2 -0.002087 0.006290 -0.000215 0.000000 0.000000 0.000000
# 3 -0.003180 -0.000215 0.008449 0.000000 0.000000 0.000000
# 4 0.000000 0.000000 0.000000 0.083353 0.000000 0.000000
# 5 0.000000 0.000000 0.000000 0.000000 -0.093266 0.000000
# 6 0.000000 0.000000 0.000000 0.000000 0.000000 0.023682
#
#
# Mechanical properties :
#
#
# Convention : Reuss Voigt Hill
#
# Bulk Modulus (GPa) = 70.50634 71.04080 70.77357
# Shear Modulus (GPa) = 91.55989 30.12068 60.84028
#
# Velocity S-wave (km/s) = 6.56476 3.76529 5.35133
# Velocity P-wave (km/s) = 9.52092 7.23473 8.45545
#
# Compressibility (1/GPa) = 0.01418312
#
# Stress axis : x y z
#
# Youngs Moduli (GPa) = 96.07373 158.99456 118.35680
#
# Poissons Ratio (x) = 0.33183 0.37632
# Poissons Ratio (y) = 0.20051 0.02550
# Poissons Ratio (z) = 0.30547 0.03425
#
# Static dielectric constant tensor:
#      x y z
#    x 1.760770 0.000000 0.000000 
#    y 0.000000 1.817080 0.000000 
#    z 0.000000 0.000000 1.858350 
# 
# From -- ./inp_files/22216.got.cif
#   From: 2010.05.17/outbox.cif.g08.bks.cpg/sg57_12_cif.got.tgz:22216.got - 2010.06.03 13:58:18.
