data_PCOD9435798
_publ_section_title
;
Structure prediction by ZEFSAII (Michael W. Deem and Ramdas Pophale) SiO2 
 PCOD9435798
Probable space group: P B C M
;
_chemical_formula_sum "Si O2"
_cell_formula_units_Z 56
_cell_length_a 15.889933
_cell_length_b 23.463187
_cell_length_c 8.684799
_cell_angle_alpha 90.000000
_cell_angle_beta 90.000000
_cell_angle_gamma 90.000000
_cell_volume 3237.940318
_symmetry_space_group_name_H-M "P B C M"
_symmetry_group_IT_number 57
_symmetry_cell_setting 'orthorhombic'
loop_
_space_group_symop_operation_xyz
x,y,z
-x,-y,1/2+z
x,1/2-y,-z
-x,1/2+y,1/2-z
-x,-y,-z
x,y,1/2-z
-x,1/2+y,z
x,1/2-y,1/2+z
loop_
_atom_site_type_symbol
_atom_site_label
_atom_site_fract_x
_atom_site_fract_y
_atom_site_fract_z
Si Si1 0.999665 0.188715 0.066586
Si Si2 0.839108 0.871477 0.433646
Si Si3 0.695700 0.314544 0.935553
Si Si4 0.906706 0.989358 0.566176
Si Si5 0.850179 0.385612 0.433418
Si Si6 0.325728 0.314596 0.935574
Si Si7 0.489584 0.686154 0.065097
O O1 0.002774 0.190717 0.250000
O O2 0.974652 0.250000 0.000000
O O3 0.931494 0.142821 0.011502
O O4 0.090016 0.170885 0.000341
O O5 0.840361 0.868741 0.250000
O O6 0.865363 0.934232 0.489808
O O7 0.749010 0.852169 0.497035
O O8 0.701995 0.312288 0.750000
O O9 0.602088 0.337317 0.979988
O O10 0.704509 0.250000 0.000000
O O11 0.768150 0.354346 0.002307
O O12 0.912761 0.980485 0.750000
O O13 0.853854 0.046874 0.537129
O O14 0.000000 0.000000 0.500000
O O15 0.856114 0.376795 0.250000
O O16 0.319639 0.312605 0.750000
O O17 0.419050 0.337945 0.979795
O O18 0.318420 0.250000 0.000000
O O19 0.489472 0.688588 0.250000
O O20 0.489808 0.750000 0.000000
#
# Coordination Sequence:
#
# PCOD9435798 Si02
#       7
#     8   8   8   8   8   8   8
#     4  12  24  38  56  78 109 144 179 219 271 324
#     4  12  24  38  56  80 110 142 182 226 271 325
#     4  10  19  33  54  82 114 147 182 221 270 324
#     4  11  23  40  61  80 104 140 186 231 274 321
#     4  11  23  38  56  80 109 141 180 225 271 323
#     4  10  19  34  55  82 114 146 182 223 273 326
#     4   8  16  30  51  78 109 144 180 220 265 321
#
# _framework density 17.294944999999998
#
# number of rings (size 3 to 8) (size 9 to 14) (size 15 to 20)
#    0.000    1.429    1.429    5.143    0.000    2.857 
#    0.000    0.000    0.000    0.857    0.000    0.000 
#    0.000    0.000    0.000    0.000    0.000    0.000 
#
# Total GULP energy -312671.650071 kJ/mol
# GULP energy per Si atom -5583.422323 kJ/mol
# Density = 1.725558 g / cm^3
# Si number density = 17.294945 Si / 1000 Ang^3
#
#
#
# Elastic Constant Matrix: (Units=GPa)
#
#
# Indices 1 2 3 4 5 6 
#
# 1 121.0873 17.1434 34.4251 0.0000 0.0000 0.0000
# 2 17.1434 54.5376 33.1966 0.0000 0.0000 0.0000
# 3 34.4251 33.1966 94.4029 0.0000 0.0000 0.0000
# 4 0.0000 0.0000 0.0000 27.0983 0.0000 0.0000
# 5 0.0000 0.0000 0.0000 0.0000 15.8998 0.0000
# 6 0.0000 0.0000 0.0000 0.0000 0.0000 5.9502
#
#
#
# Elastic Compliance Matrix: (Units=1/GPa)
#
#
# Indices 1 2 3 4 5 6 
#
# 1 0.009264 -0.001089 -0.002995 0.000000 0.000000 0.000000
# 2 -0.001089 0.023458 -0.007852 0.000000 0.000000 0.000000
# 3 -0.002995 -0.007852 0.014446 0.000000 0.000000 0.000000
# 4 0.000000 0.000000 0.000000 0.036903 0.000000 0.000000
# 5 0.000000 0.000000 0.000000 0.000000 0.062894 0.000000
# 6 0.000000 0.000000 0.000000 0.000000 0.000000 0.168061
#
#
# Mechanical properties :
#
#
# Convention : Reuss Voigt Hill
#
# Bulk Modulus (GPa) = 42.92575 48.83977 45.88276
# Shear Modulus (GPa) = 14.42322 22.14052 18.28187
#
# Velocity S-wave (km/s) = 2.89096 3.58183 3.25478
# Velocity P-wave (km/s) = 6.00144 6.73845 6.38059
#
# Compressibility (1/GPa) = 0.02329604
#
# Stress axis : x y z
#
# Youngs Moduli (GPa) = 107.94176 42.63018 69.22203
#
# Poissons Ratio (x) = 0.04642 0.20735
# Poissons Ratio (y) = 0.11753 0.54351
# Poissons Ratio (z) = 0.32333 0.33472
#
# Static dielectric constant tensor:
#      x y z
#    x 1.609030 0.000000 0.000000 
#    y 0.000000 1.563330 0.000000 
#    z 0.000000 0.000000 1.580760 
# 
# From -- ./inp_files/5106.got.cif
#   From: 2010.05.17/outbox.cif.g08.bks.cpg/sg57_3_cif.got.tgz:5106.got - 2010.06.03 13:58:18.
