data_PCOD9435923
_publ_section_title
;
Structure prediction by ZEFSAII (Michael W. Deem and Ramdas Pophale) SiO2 
 PCOD9435923
Probable space group: P B C M
;
_chemical_formula_sum "Si O2"
_cell_formula_units_Z 64
_cell_length_a 15.247981
_cell_length_b 30.654049
_cell_length_c 8.363521
_cell_angle_alpha 90.000000
_cell_angle_beta 90.000000
_cell_angle_gamma 90.000000
_cell_volume 3909.213061
_symmetry_space_group_name_H-M "P B C M"
_symmetry_group_IT_number 57
_symmetry_cell_setting 'orthorhombic'
loop_
_space_group_symop_operation_xyz
x,y,z
-x,-y,1/2+z
x,1/2-y,-z
-x,1/2+y,1/2-z
-x,-y,-z
x,y,1/2-z
-x,1/2+y,z
x,1/2-y,1/2+z
loop_
_atom_site_type_symbol
_atom_site_label
_atom_site_fract_x
_atom_site_fract_y
_atom_site_fract_z
Si Si1 0.997477 0.202663 0.941466
Si Si2 0.799057 0.796589 0.057383
Si Si3 0.169835 0.960951 0.440580
Si Si4 0.965144 0.391025 0.938136
Si Si5 0.291928 0.115946 0.554622
Si Si6 0.547598 0.935884 0.057498
Si Si7 0.370030 0.526840 0.943692
Si Si8 0.868896 0.944868 0.440391
O O1 0.995689 0.202370 0.750000
O O2 0.099579 0.199153 0.996023
O O3 0.964630 0.250000 0.000000
O O4 0.952668 0.158624 0.003582
O O5 0.800009 0.797301 0.250000
O O6 0.742717 0.837375 0.999511
O O7 0.765579 0.750000 0.000000
O O8 0.168092 0.954547 0.250000
O O9 0.116316 0.922078 0.520778
O O10 0.271253 0.963186 0.495903
O O11 0.126314 0.007773 0.479647
O O12 0.981054 0.390789 0.750000
O O13 0.049722 0.413434 0.020770
O O14 0.291334 0.116413 0.750000
O O15 0.388803 0.102547 0.500218
O O16 0.220262 0.079597 0.507039
O O17 0.546055 0.934289 0.250000
O O18 0.446612 0.939523 0.004478
O O19 0.596483 0.980389 0.007367
O O20 0.369221 0.524973 0.750000
O O21 0.865212 0.951240 0.250000
#
# Coordination Sequence:
#
# PCOD9435923 Si02
#       8
#     8   8   8   8   8   8   8   8
#     4  10  19  34  53  74 100 128 162 203 246 293
#     4   9  17  30  46  68  94 124 156 190 232 280
#     4  11  22  35  48  68  99 133 168 211 251 292
#     4  12  24  36  50  71  96 132 172 207 249 295
#     4   9  16  28  48  70  95 127 160 191 232 288
#     4   9  16  29  49  70  93 124 158 193 237 290
#     4   9  18  30  46  70  96 121 157 202 243 283
#     4  11  20  34  50  69  97 133 169 203 241 292
#
# _framework density 16.371580000000002
#
# number of rings (size 3 to 8) (size 9 to 14) (size 15 to 20)
#    0.000    2.000    2.500    2.625    0.000    1.000 
#    0.000    0.625    0.000    0.000    0.000    0.875 
#    0.000    2.000    0.000    0.000    0.000    0.000 
#
# Total GULP energy -356966.386326 kJ/mol
# GULP energy per Si atom -5577.599786 kJ/mol
# Density = 1.633432 g / cm^3
# Si number density = 16.371580 Si / 1000 Ang^3
#
#
#
# Elastic Constant Matrix: (Units=GPa)
#
#
# Indices 1 2 3 4 5 6 
#
# 1 50.7122 23.3291 -4.1975 0.0000 0.0000 0.0000
# 2 23.3291 114.2927 2.9538 0.0000 0.0000 0.0000
# 3 -4.1975 2.9538 14.0930 0.0000 0.0000 0.0000
# 4 0.0000 0.0000 0.0000 24.6974 0.0000 0.0000
# 5 0.0000 0.0000 0.0000 0.0000 11.2128 0.0000
# 6 0.0000 0.0000 0.0000 0.0000 0.0000 22.5569
#
#
#
# Elastic Compliance Matrix: (Units=1/GPa)
#
#
# Indices 1 2 3 4 5 6 
#
# 1 0.022570 -0.004807 0.007730 0.000000 0.000000 0.000000
# 2 -0.004807 0.009821 -0.003490 0.000000 0.000000 0.000000
# 3 0.007730 -0.003490 0.073991 0.000000 0.000000 0.000000
# 4 0.000000 0.000000 0.000000 0.040490 0.000000 0.000000
# 5 0.000000 0.000000 0.000000 0.000000 0.089184 0.000000
# 6 0.000000 0.000000 0.000000 0.000000 0.000000 0.044332
#
#
# Mechanical properties :
#
#
# Convention : Reuss Voigt Hill
#
# Bulk Modulus (GPa) = 9.50136 24.80763 17.15449
# Shear Modulus (GPa) = 15.79258 22.16093 18.97675
#
# Velocity S-wave (km/s) = 3.10923 3.68315 3.40829
# Velocity P-wave (km/s) = 4.32503 5.76830 5.09799
#
# Compressibility (1/GPa) = 0.10524811
#
# Stress axis : x y z
#
# Youngs Moduli (GPa) = 44.30622 101.82465 13.51517
#
# Poissons Ratio (x) = 0.48945 -0.10447
# Poissons Ratio (y) = 0.21297 0.04717
# Poissons Ratio (z) = -0.34248 0.35537
#
# Static dielectric constant tensor:
#      x y z
#    x 1.562370 0.000000 0.000000 
#    y 0.000000 1.546050 0.000000 
#    z 0.000000 0.000000 1.556360 
# 
# From -- ./inp_files/5985.got.cif
#   From: 2010.05.17/outbox.cif.g08.bks.cpg/sg57_3_cif.got.tgz:5985.got - 2010.06.03 13:58:18.
