data_PCOD9435257
_publ_section_title
;
Structure prediction by ZEFSAII (Michael W. Deem and Ramdas Pophale) SiO2 
 PCOD9435257
Probable space group: P B C M
;
_chemical_formula_sum "Si O2"
_cell_formula_units_Z 64
_cell_length_a 20.019910
_cell_length_b 20.422635
_cell_length_c 9.072510
_cell_angle_alpha 90.000000
_cell_angle_beta 90.000000
_cell_angle_gamma 90.000000
_cell_volume 3709.380221
_symmetry_space_group_name_H-M "P B C M"
_symmetry_group_IT_number 57
_symmetry_cell_setting 'orthorhombic'
loop_
_space_group_symop_operation_xyz
x,y,z
-x,-y,1/2+z
x,1/2-y,-z
-x,1/2+y,1/2-z
-x,-y,-z
x,y,1/2-z
-x,1/2+y,z
x,1/2-y,1/2+z
loop_
_atom_site_type_symbol
_atom_site_label
_atom_site_fract_x
_atom_site_fract_y
_atom_site_fract_z
Si Si1 0.645184 0.085512 0.073870
Si Si2 0.234185 0.817025 0.924276
Si Si3 0.025250 0.067489 0.926865
Si Si4 0.115031 0.614737 0.576266
Si Si5 0.457796 0.680947 0.573843
Si Si6 0.843220 0.962646 0.925333
Si Si7 0.385649 0.181921 0.573598
Si Si8 0.300158 0.444641 0.428058
O O1 0.633152 0.089382 0.250000
O O2 0.713011 0.125731 0.041656
O O3 0.658268 0.010157 0.033986
O O4 0.586268 0.122151 0.989303
O O5 0.232297 0.808156 0.750000
O O6 0.255922 0.750000 0.000000
O O7 0.162046 0.838315 0.983712
O O8 0.029974 0.059929 0.750000
O O9 0.964069 0.116940 0.957322
O O10 0.097636 0.078521 0.997031
O O11 0.000000 0.000000 0.000000
O O12 0.124077 0.627965 0.750000
O O13 0.139486 0.539735 0.549932
O O14 0.437345 0.750000 0.500000
O O15 0.450427 0.685697 0.750000
O O16 0.536130 0.670676 0.537929
O O17 0.843796 0.951875 0.750000
O O18 0.771627 0.947829 0.994983
O O19 0.364742 0.250000 0.500000
O O20 0.381254 0.188607 0.750000
O O21 0.340851 0.120199 0.529704
O O22 0.291132 0.445278 0.250000
#
# Coordination Sequence:
#
# PCOD9435257 Si02
#       8
#     8   8   8   8   8   8   8   8
#     4  10  21  35  52  78 107 140 179 221 270 321
#     4  11  22  34  50  72 102 144 184 220 266 319
#     4   9  17  29  48  74 103 136 172 215 262 309
#     4   9  18  32  49  72 102 134 174 220 260 306
#     4  10  20  35  55  78 105 142 182 222 266 315
#     4  10  19  31  50  79 109 138 173 216 264 315
#     4   9  20  38  59  81 106 137 176 219 268 327
#     4  10  20  36  56  79 110 143 175 220 273 322
#
# _framework density 17.253556
#
# number of rings (size 3 to 8) (size 9 to 14) (size 15 to 20)
#    0.000    2.250    1.250    2.625    0.000    6.500 
#    0.000    0.000    0.000    0.750    0.000    3.500 
#    0.000    0.000    0.000    0.000    0.000    0.000 
#
# Total GULP energy -357018.987238 kJ/mol
# GULP energy per Si atom -5578.421676 kJ/mol
# Density = 1.721429 g / cm^3
# Si number density = 17.253556 Si / 1000 Ang^3
#
#
#
# Elastic Constant Matrix: (Units=GPa)
#
#
# Indices 1 2 3 4 5 6 
#
# 1 107.7106 66.5069 48.6349 0.0000 0.0000 0.0000
# 2 66.5069 108.3952 46.1065 0.0000 0.0000 0.0000
# 3 48.6349 46.1065 41.1637 0.0000 0.0000 0.0000
# 4 0.0000 0.0000 0.0000 25.0515 0.0000 0.0000
# 5 0.0000 0.0000 0.0000 0.0000 28.3647 0.0000
# 6 0.0000 0.0000 0.0000 0.0000 0.0000 15.1343
#
#
#
# Elastic Compliance Matrix: (Units=1/GPa)
#
#
# Indices 1 2 3 4 5 6 
#
# 1 0.020965 -0.004445 -0.019792 0.000000 0.000000 0.000000
# 2 -0.004445 0.018563 -0.015540 0.000000 0.000000 0.000000
# 3 -0.019792 -0.015540 0.065084 0.000000 0.000000 0.000000
# 4 0.000000 0.000000 0.000000 0.039918 0.000000 0.000000
# 5 0.000000 0.000000 0.000000 0.000000 0.035255 0.000000
# 6 0.000000 0.000000 0.000000 0.000000 0.000000 0.066075
#
#
# Mechanical properties :
#
#
# Convention : Reuss Voigt Hill
#
# Bulk Modulus (GPa) = 39.90769 64.41844 52.16306
# Shear Modulus (GPa) = 14.98052 20.11152 17.54602
#
# Velocity S-wave (km/s) = 2.94982 3.41786 3.19243
# Velocity P-wave (km/s) = 5.89765 7.27963 6.62477
#
# Compressibility (1/GPa) = 0.02505783
#
# Stress axis : x y z
#
# Youngs Moduli (GPa) = 47.69748 53.87133 15.36481
#
# Poissons Ratio (x) = 0.23945 0.30410
# Poissons Ratio (y) = 0.21201 0.23877
# Poissons Ratio (z) = 0.94403 0.83717
#
# Static dielectric constant tensor:
#      x y z
#    x 1.597330 0.000000 0.000000 
#    y 0.000000 1.567510 0.000000 
#    z 0.000000 0.000000 1.574200 
# 
# From -- ./inp_files/7123.got.cif
#   From: 2010.05.17/outbox.cif.g08.bks.cpg/sg57_4_cif.got.tgz:7123.got - 2010.06.03 13:58:18.
