data_PCOD9435748
_publ_section_title
;
Structure prediction by ZEFSAII (Michael W. Deem and Ramdas Pophale) SiO2 
 PCOD9435748
Probable space group: P B C M
;
_chemical_formula_sum "Si O2"
_cell_formula_units_Z 40
_cell_length_a 22.209923
_cell_length_b 5.106782
_cell_length_c 14.602553
_cell_angle_alpha 90.000000
_cell_angle_beta 90.000000
_cell_angle_gamma 90.000000
_cell_volume 1656.239595
_symmetry_space_group_name_H-M "P B C M"
_symmetry_group_IT_number 57
_symmetry_cell_setting 'orthorhombic'
loop_
_space_group_symop_operation_xyz
x,y,z
-x,-y,1/2+z
x,1/2-y,-z
-x,1/2+y,1/2-z
-x,-y,-z
x,y,1/2-z
-x,1/2+y,z
x,1/2-y,1/2+z
loop_
_atom_site_type_symbol
_atom_site_label
_atom_site_fract_x
_atom_site_fract_y
_atom_site_fract_z
Si Si1 0.720399 0.777357 0.388545
Si Si2 0.161852 0.505453 0.060926
Si Si3 0.344232 0.722503 0.890474
Si Si4 0.035680 0.690206 0.139727
Si Si5 0.471322 0.052470 0.358599
O O1 0.718068 0.750000 0.500000
O O2 0.705019 0.487573 0.356330
O O3 0.785763 0.901994 0.371857
O O4 0.670828 0.987093 0.356551
O O5 0.101256 0.611632 0.105687
O O6 0.185935 0.750000 0.000000
O O7 0.147417 0.250000 0.000000
O O8 0.407991 0.591562 0.869629
O O9 0.340897 0.750000 0.000000
O O10 0.036897 0.688470 0.250000
O O11 0.013125 0.974218 0.109629
O O12 0.481047 0.088614 0.250000
O O13 0.520113 0.844353 0.396963
#
# Coordination Sequence:
#
# PCOD9435748 Si02
#       5
#     8   8   8   8   8
#     4   9  18  33  52  77 106 134 165 211 267 306
#     4  11  21  35  58  84 110 142 184 227 268 323
#     4  10  19  33  54  76 101 134 171 209 253 311
#     4  10  22  39  56  78 113 150 181 223 278 323
#     4  10  21  36  52  73 104 137 169 212 263 307
#
# _framework density 24.151094000000001
#
# number of rings (size 3 to 8) (size 9 to 14) (size 15 to 20)
#    0.000    2.000    0.000    5.400    0.000    3.200 
#    0.000    2.000    0.000    0.000    0.000    1.400 
#    0.000    0.000    0.000    0.000    0.000    0.000 
#
# Total GULP energy -223651.007651 kJ/mol
# GULP energy per Si atom -5591.275191 kJ/mol
# Density = 2.409613 g / cm^3
# Si number density = 24.151094 Si / 1000 Ang^3
#
#
#
# Elastic Constant Matrix: (Units=GPa)
#
#
# Indices 1 2 3 4 5 6 
#
# 1 77.9729 -10.2282 -12.6770 0.0000 0.0000 0.0000
# 2 -10.2282 107.6985 11.1188 0.0000 0.0000 0.0000
# 3 -12.6770 11.1188 59.0583 0.0000 0.0000 0.0000
# 4 0.0000 0.0000 0.0000 7.1413 0.0000 0.0000
# 5 0.0000 0.0000 0.0000 0.0000 37.7827 0.0000
# 6 0.0000 0.0000 0.0000 0.0000 0.0000 45.2041
#
#
#
# Elastic Compliance Matrix: (Units=1/GPa)
#
#
# Indices 1 2 3 4 5 6 
#
# 1 0.013392 0.000994 0.002687 0.000000 0.000000 0.000000
# 2 0.000994 0.009543 -0.001583 0.000000 0.000000 0.000000
# 3 0.002687 -0.001583 0.017807 0.000000 0.000000 0.000000
# 4 0.000000 0.000000 0.000000 0.140030 0.000000 0.000000
# 5 0.000000 0.000000 0.000000 0.000000 0.026467 0.000000
# 6 0.000000 0.000000 0.000000 0.000000 0.000000 0.022122
#
#
# Mechanical properties :
#
#
# Convention : Reuss Voigt Hill
#
# Bulk Modulus (GPa) = 22.25180 24.57299 23.41240
# Shear Modulus (GPa) = 20.82083 35.12671 27.97377
#
# Velocity S-wave (km/s) = 2.93935 3.81787 3.40705
# Velocity P-wave (km/s) = 4.55558 5.44349 5.01921
#
# Compressibility (1/GPa) = 0.04494019
#
# Stress axis : x y z
#
# Youngs Moduli (GPa) = 74.66952 104.78811 56.15653
#
# Poissons Ratio (x) = -0.10420 -0.15092
# Poissons Ratio (y) = -0.07425 0.08891
# Poissons Ratio (z) = -0.20067 0.16590
#
# Static dielectric constant tensor:
#      x y z
#    x 1.939650 0.000000 0.000000 
#    y 0.000000 1.920620 0.000000 
#    z 0.000000 0.000000 1.968030 
# 
# From -- ./inp_files/22763.got.cif
#   From: 2010.05.17/outbox.cif.g08.bks.cpg/sg57_12_cif.got.tgz:22763.got - 2010.06.03 13:58:18.
