data_PCOD9435817
_publ_section_title
;
Structure prediction by ZEFSAII (Michael W. Deem and Ramdas Pophale) SiO2 
 PCOD9435817
Probable space group: P B C M
;
_chemical_formula_sum "Si O2"
_cell_formula_units_Z 64
_cell_length_a 24.400893
_cell_length_b 14.119596
_cell_length_c 8.487413
_cell_angle_alpha 90.000000
_cell_angle_beta 90.000000
_cell_angle_gamma 90.000000
_cell_volume 2924.174777
_symmetry_space_group_name_H-M "P B C M"
_symmetry_group_IT_number 57
_symmetry_cell_setting 'orthorhombic'
loop_
_space_group_symop_operation_xyz
x,y,z
-x,-y,1/2+z
x,1/2-y,-z
-x,1/2+y,1/2-z
-x,-y,-z
x,y,1/2-z
-x,1/2+y,z
x,1/2-y,1/2+z
loop_
_atom_site_type_symbol
_atom_site_label
_atom_site_fract_x
_atom_site_fract_y
_atom_site_fract_z
Si Si1 0.531186 0.640570 0.939473
Si Si2 0.015440 0.103428 0.060505
Si Si3 0.103250 0.847306 0.560667
Si Si4 0.868007 0.556900 0.438812
Si Si5 0.709378 0.143113 0.939372
Si Si6 0.246650 0.042229 0.563876
Si Si7 0.412908 0.641560 0.940352
Si Si8 0.645366 0.642765 0.063210
O O1 0.533240 0.640511 0.750000
O O2 0.471844 0.600560 0.992981
O O3 0.531425 0.750000 0.000000
O O4 0.587980 0.598584 0.002809
O O5 0.016426 0.106984 0.250000
O O6 0.960940 0.157302 0.009337
O O7 0.078325 0.116752 0.006871
O O8 0.000000 0.000000 0.000000
O O9 0.130229 0.750000 0.500000
O O10 0.107024 0.851015 0.750000
O O11 0.123712 0.947542 0.493191
O O12 0.866104 0.558768 0.250000
O O13 0.809861 0.588195 0.506117
O O14 0.712526 0.142334 0.750000
O O15 0.647725 0.108723 0.988428
O O16 0.716899 0.250000 0.000000
O O17 0.750902 0.067328 0.009743
O O18 0.249860 0.047357 0.750000
O O19 0.299897 0.091045 0.490687
O O20 0.413315 0.639727 0.750000
O O21 0.413737 0.750000 0.000000
O O22 0.642655 0.643532 0.250000
O O23 0.648017 0.750000 0.000000
#
# Coordination Sequence:
#
# PCOD9435817 Si02
#       8
#     8   8   8   8   8   8   8   8
#     4   9  15  27  49  79 109 140 177 224 281 345
#     4   8  16  31  53  77 104 135 170 209 256 308
#     4  10  19  33  54  85 118 148 180 220 266 320
#     4  10  20  37  58  80 107 145 186 229 276 327
#     4  10  20  37  58  83 114 152 193 238 288 344
#     4  12  25  41  59  83 113 152 198 244 289 341
#     4   8  15  27  48  76 108 142 180 224 279 342
#     4  11  22  39  61  85 111 144 185 236 292 349
#
# _framework density 21.886517000000001
#
# number of rings (size 3 to 8) (size 9 to 14) (size 15 to 20)
#    0.000    2.250    0.000    4.500    0.000    2.500 
#    0.000    3.750    0.000    1.500    0.000    0.000 
#    0.000    0.000    0.000    0.000    0.000    0.000 
#
# Total GULP energy -357065.950107 kJ/mol
# GULP energy per Si atom -5579.155470 kJ/mol
# Density = 2.183670 g / cm^3
# Si number density = 21.886517 Si / 1000 Ang^3
#
#
#
# Elastic Constant Matrix: (Units=GPa)
#
#
# Indices 1 2 3 4 5 6 
#
# 1 144.0071 2.2315 24.6635 0.0000 0.0000 0.0000
# 2 2.2315 36.2741 -3.1246 0.0000 0.0000 0.0000
# 3 24.6635 -3.1246 65.3080 0.0000 0.0000 0.0000
# 4 0.0000 0.0000 0.0000 14.6879 0.0000 0.0000
# 5 0.0000 0.0000 0.0000 0.0000 43.2998 0.0000
# 6 0.0000 0.0000 0.0000 0.0000 0.0000 17.7118
#
#
#
# Elastic Compliance Matrix: (Units=1/GPa)
#
#
# Indices 1 2 3 4 5 6 
#
# 1 0.007442 -0.000703 -0.002844 0.000000 0.000000 0.000000
# 2 -0.000703 0.027748 0.001593 0.000000 0.000000 0.000000
# 3 -0.002844 0.001593 0.016462 0.000000 0.000000 0.000000
# 4 0.000000 0.000000 0.000000 0.068083 0.000000 0.000000
# 5 0.000000 0.000000 0.000000 0.000000 0.023095 0.000000
# 6 0.000000 0.000000 0.000000 0.000000 0.000000 0.056460
#
#
# Mechanical properties :
#
#
# Convention : Reuss Voigt Hill
#
# Bulk Modulus (GPa) = 20.94463 32.57000 26.75732
# Shear Modulus (GPa) = 22.81923 29.92781 26.37352
#
# Velocity S-wave (km/s) = 3.23246 3.70186 3.47509
# Velocity P-wave (km/s) = 4.84996 5.76067 5.32482
#
# Compressibility (1/GPa) = 0.04774493
#
# Stress axis : x y z
#
# Youngs Moduli (GPa) = 134.37079 36.03823 60.74461
#
# Poissons Ratio (x) = 0.02533 0.17277
# Poissons Ratio (y) = 0.09444 -0.09677
# Poissons Ratio (z) = 0.38217 -0.05741
#
# Static dielectric constant tensor:
#      x y z
#    x 1.871270 0.000000 0.000000 
#    y 0.000000 1.834140 0.000000 
#    z 0.000000 0.000000 1.717650 
# 
# From -- ./inp_files/9491.got.cif
#   From: 2010.05.17/outbox.cif.g08.bks.cpg/sg57_5_cif.got.tgz:9491.got - 2010.06.03 13:58:18.
