data_PCOD9435402
_publ_section_title
;
Structure prediction by ZEFSAII (Michael W. Deem and Ramdas Pophale) SiO2 
 PCOD9435402
Probable space group: P B C M
;
_chemical_formula_sum "Si O2"
_cell_formula_units_Z 64
_cell_length_a 14.874793
_cell_length_b 8.292279
_cell_length_c 27.644490
_cell_angle_alpha 90.000000
_cell_angle_beta 90.000000
_cell_angle_gamma 90.000000
_cell_volume 3409.835429
_symmetry_space_group_name_H-M "P B C M"
_symmetry_group_IT_number 57
_symmetry_cell_setting 'orthorhombic'
loop_
_space_group_symop_operation_xyz
x,y,z
-x,-y,1/2+z
x,1/2-y,-z
-x,1/2+y,1/2-z
-x,-y,-z
x,y,1/2-z
-x,1/2+y,z
x,1/2-y,1/2+z
loop_
_atom_site_type_symbol
_atom_site_label
_atom_site_fract_x
_atom_site_fract_y
_atom_site_fract_z
Si Si1 0.865839 0.767559 0.692811
Si Si2 0.035723 0.610632 0.692434
Si Si3 0.795498 0.220227 0.149980
Si Si4 0.880186 0.291227 0.055905
Si Si5 0.298582 0.034398 0.191534
Si Si6 0.056657 0.118034 0.035534
Si Si7 0.468289 0.270634 0.691870
Si Si8 0.361460 0.545024 0.191404
O O1 0.854047 0.733126 0.750000
O O2 0.766702 0.817321 0.676066
O O3 0.934671 0.634763 0.672513
O O4 0.922586 0.933810 0.686472
O O5 0.032066 0.639126 0.750000
O O6 0.106602 0.739471 0.671780
O O7 0.811206 0.214296 0.092922
O O8 0.738164 0.376785 0.165864
O O9 0.737517 0.073590 0.170640
O O10 0.884855 0.485696 0.063375
O O11 0.980005 0.215095 0.064535
O O12 0.858977 0.250000 0.000000
O O13 0.473644 0.246919 0.250000
O O14 0.401167 0.080225 0.182441
O O15 0.102105 0.250000 0.000000
O O16 0.000000 0.000000 0.000000
O O17 0.712260 0.987758 0.750000
O O18 0.568836 0.313032 0.676573
O O19 0.414241 0.114430 0.675011
O O20 0.353954 0.543284 0.250000
#
# Coordination Sequence:
#
# PCOD9435402 Si02
#       8
#     8   8   8   8   8   8   8   8
#     4   8  15  26  39  54  83 121 155 186 219 261
#     4   9  17  28  39  57  87 127 162 188 219 267
#     4  11  20  29  46  69  98 130 158 198 243 291
#     4   9  18  32  49  72  97 127 166 208 253 293
#     4   9  17  31  46  66  93 124 161 203 243 285
#     4   7  13  30  52  67  87 120 160 207 248 283
#     4   9  18  32  52  72  97 127 161 205 249 286
#     4  10  19  32  50  75 100 130 165 201 244 290
#
# _framework density 18.769233
#
# number of rings (size 3 to 8) (size 9 to 14) (size 15 to 20)
#    0.000    3.250    0.000    2.625    0.000    5.000 
#    0.000    7.500    0.000    0.000    0.000    3.500 
#    0.000    0.000    0.000    0.000    0.000    0.000 
#
# Total GULP energy -356452.521991 kJ/mol
# GULP energy per Si atom -5569.570656 kJ/mol
# Density = 1.872651 g / cm^3
# Si number density = 18.769233 Si / 1000 Ang^3
#
#
#
# Elastic Constant Matrix: (Units=GPa)
#
#
# Indices 1 2 3 4 5 6 
#
# 1 71.0048 0.0374 13.9754 0.0000 0.0000 0.0000
# 2 0.0374 57.5842 7.5667 0.0000 0.0000 0.0000
# 3 13.9754 7.5667 49.4244 0.0000 0.0000 0.0000
# 4 0.0000 0.0000 0.0000 -0.4189 0.0000 0.0000
# 5 0.0000 0.0000 0.0000 0.0000 10.1455 0.0000
# 6 0.0000 0.0000 0.0000 0.0000 0.0000 22.4177
#
#
#
# Elastic Compliance Matrix: (Units=1/GPa)
#
#
# Indices 1 2 3 4 5 6 
#
# 1 0.014931 0.000556 -0.004307 0.000000 0.000000 0.000000
# 2 0.000556 0.017743 -0.002874 0.000000 0.000000 0.000000
# 3 -0.004307 -0.002874 0.021891 0.000000 0.000000 0.000000
# 4 0.000000 0.000000 0.000000 -2.386933 0.000000 0.000000
# 5 0.000000 0.000000 0.000000 0.000000 0.098566 0.000000
# 6 0.000000 0.000000 0.000000 0.000000 0.000000 0.044608
#
#
# Mechanical properties :
#
#
# Convention : Reuss Voigt Hill
#
# Bulk Modulus (GPa) = 24.20381 24.57472 24.38927
# Shear Modulus (GPa) = -2.31249 16.85777 7.27264
#
# Velocity S-wave (km/s) = -1.11119 3.00018 1.97058
# Velocity P-wave (km/s) = 3.35815 5.01228 4.26615
#
# Compressibility (1/GPa) = 0.04131580
#
# Stress axis : x y z
#
# Youngs Moduli (GPa) = 66.97473 56.35986 45.68138
#
# Poissons Ratio (x) = -0.03135 0.19675
# Poissons Ratio (y) = -0.03726 0.13127
# Poissons Ratio (z) = 0.28847 0.16196
#
# Static dielectric constant tensor:
#      x y z
#    x 1.668540 0.000000 0.000000 
#    y 0.000000 1.783110 0.000000 
#    z 0.000000 0.000000 1.649650 
# 
# From -- ./inp_files/29898.got.cif
#   From: 2010.05.17/outbox.cif.g08.bks.cpg/sg57_15_cif.got.tgz:29898.got - 2010.06.03 13:58:18.
