data_PCOD9435445
_publ_section_title
;
Structure prediction by ZEFSAII (Michael W. Deem and Ramdas Pophale) SiO2 
 PCOD9435445
Probable space group: P B C M
;
_chemical_formula_sum "Si O2"
_cell_formula_units_Z 48
_cell_length_a 17.074502
_cell_length_b 18.576187
_cell_length_c 8.411813
_cell_angle_alpha 90.000000
_cell_angle_beta 90.000000
_cell_angle_gamma 90.000000
_cell_volume 2668.051631
_symmetry_space_group_name_H-M "P B C M"
_symmetry_group_IT_number 57
_symmetry_cell_setting 'orthorhombic'
loop_
_space_group_symop_operation_xyz
x,y,z
-x,-y,1/2+z
x,1/2-y,-z
-x,1/2+y,1/2-z
-x,-y,-z
x,y,1/2-z
-x,1/2+y,z
x,1/2-y,1/2+z
loop_
_atom_site_type_symbol
_atom_site_label
_atom_site_fract_x
_atom_site_fract_y
_atom_site_fract_z
Si Si1 0.757574 0.456132 0.942154
Si Si2 0.083145 0.472519 0.059718
Si Si3 0.493688 0.082231 0.442488
Si Si4 0.647316 0.168922 0.441892
Si Si5 0.321076 0.399205 0.941450
Si Si6 0.161869 0.171483 0.440342
O O1 0.755601 0.458464 0.750000
O O2 0.845778 0.474891 0.993502
O O3 0.720179 0.380902 0.993861
O O4 0.703582 0.520938 0.004670
O O5 0.082686 0.471297 0.250000
O O6 0.106808 0.393194 0.999487
O O7 0.000000 0.500000 0.000000
O O8 0.494725 0.081091 0.250000
O O9 0.567582 0.129294 0.496445
O O10 0.409785 0.114220 0.495625
O O11 0.500000 0.000000 0.500000
O O12 0.651916 0.250000 0.500000
O O13 0.646312 0.169282 0.250000
O O14 0.320841 0.396788 0.750000
O O15 0.250590 0.347710 0.997647
O O16 0.138798 0.250000 0.500000
O O17 0.161634 0.170864 0.250000
#
# Coordination Sequence:
#
# PCOD9435445 Si02
#       6
#     8   8   8   8   8   8
#     4   9  18  34  54  75 101 135 173 215 260 313
#     4  10  20  36  59  84 109 139 177 219 269 326
#     4  10  19  32  51  75 104 139 181 223 263 310
#     4  10  21  35  50  73 105 139 177 219 261 306
#     4   9  18  31  51  77 103 135 176 218 260 312
#     4  10  20  35  54  80 113 144 177 220 270 322
#
# _framework density 17.990655
#
# number of rings (size 3 to 8) (size 9 to 14) (size 15 to 20)
#    0.000    2.333    1.667    1.000    0.000    3.333 
#    0.000    0.833    0.000    2.000    0.000    0.000 
#    0.000    0.000    0.000    0.000    0.000    0.000 
#
# Total GULP energy -267732.596106 kJ/mol
# GULP energy per Si atom -5577.762419 kJ/mol
# Density = 1.794971 g / cm^3
# Si number density = 17.990655 Si / 1000 Ang^3
#
#
#
# Elastic Constant Matrix: (Units=GPa)
#
#
# Indices 1 2 3 4 5 6 
#
# 1 159.2419 91.5076 28.8288 0.0000 0.0000 0.0000
# 2 91.5076 148.8211 21.6085 0.0000 0.0000 0.0000
# 3 28.8288 21.6085 16.6094 0.0000 0.0000 0.0000
# 4 0.0000 0.0000 0.0000 29.6232 0.0000 0.0000
# 5 0.0000 0.0000 0.0000 0.0000 19.5698 0.0000
# 6 0.0000 0.0000 0.0000 0.0000 0.0000 19.0532
#
#
#
# Elastic Compliance Matrix: (Units=1/GPa)
#
#
# Indices 1 2 3 4 5 6 
#
# 1 0.011758 -0.005260 -0.013565 0.000000 0.000000 0.000000
# 2 -0.005260 0.010638 -0.004709 0.000000 0.000000 0.000000
# 3 -0.013565 -0.004709 0.089878 0.000000 0.000000 0.000000
# 4 0.000000 0.000000 0.000000 0.033757 0.000000 0.000000
# 5 0.000000 0.000000 0.000000 0.000000 0.051099 0.000000
# 6 0.000000 0.000000 0.000000 0.000000 0.000000 0.052485
#
#
# Mechanical properties :
#
#
# Convention : Reuss Voigt Hill
#
# Bulk Modulus (GPa) = 15.33625 67.61804 41.47714
# Shear Modulus (GPa) = 15.70251 25.83106 20.76679
#
# Velocity S-wave (km/s) = 2.95755 3.79331 3.40120
# Velocity P-wave (km/s) = 4.49509 7.54005 6.20718
#
# Compressibility (1/GPa) = 0.06520499
#
# Stress axis : x y z
#
# Youngs Moduli (GPa) = 85.04502 94.00463 11.12614
#
# Poissons Ratio (x) = 0.49451 0.15093
# Poissons Ratio (y) = 0.44737 0.05239
# Poissons Ratio (z) = 1.15367 0.44267
#
# Static dielectric constant tensor:
#      x y z
#    x 1.641770 0.000000 0.000000 
#    y 0.000000 1.590840 0.000000 
#    z 0.000000 0.000000 1.612230 
# 
# From -- ./inp_files/4672.got.cif
#   From: 2010.05.17/outbox.cif.g08.bks.cpg/sg57_3_cif.got.tgz:4672.got - 2010.06.03 13:58:18.
