data_PCOD9435764
_publ_section_title
;
Structure prediction by ZEFSAII (Michael W. Deem and Ramdas Pophale) SiO2 
 PCOD9435764
Probable space group: P B C M
;
_chemical_formula_sum "Si O2"
_cell_formula_units_Z 40
_cell_length_a 7.861220
_cell_length_b 26.655195
_cell_length_c 9.340511
_cell_angle_alpha 90.000000
_cell_angle_beta 90.000000
_cell_angle_gamma 90.000000
_cell_volume 1957.232644
_symmetry_space_group_name_H-M "P B C M"
_symmetry_group_IT_number 57
_symmetry_cell_setting 'orthorhombic'
loop_
_space_group_symop_operation_xyz
x,y,z
-x,-y,1/2+z
x,1/2-y,-z
-x,1/2+y,1/2-z
-x,-y,-z
x,y,1/2-z
-x,1/2+y,z
x,1/2-y,1/2+z
loop_
_atom_site_type_symbol
_atom_site_label
_atom_site_fract_x
_atom_site_fract_y
_atom_site_fract_z
Si Si1 0.725737 0.800051 0.084311
Si Si2 0.306547 0.893961 0.909836
Si Si3 0.308938 0.700839 0.587069
Si Si4 0.179453 0.495680 0.422131
Si Si5 0.288372 0.397473 0.913005
O O1 0.780333 0.800311 0.250000
O O2 0.517201 0.800075 0.086261
O O3 0.778036 0.750000 0.000000
O O4 0.782467 0.849494 0.998136
O O5 0.235759 0.885945 0.750000
O O6 0.509770 0.888817 0.901533
O O7 0.269574 0.951123 0.951691
O O8 0.246307 0.850585 0.015481
O O9 0.256783 0.750000 0.500000
O O10 0.253143 0.704452 0.750000
O O11 0.168570 0.489532 0.250000
O O12 0.264880 0.447650 0.495101
O O13 0.000000 0.500000 0.500000
O O14 0.221207 0.402509 0.750000
#
# Coordination Sequence:
#
# PCOD9435764 Si02
#       5
#     8   8   8   8   8
#     4   9  16  27  45  73 106 137 168 206 251 300
#     4   9  19  34  53  77 105 135 171 213 256 302
#     4   9  16  26  45  73 105 136 167 205 251 300
#     4  11  23  38  54  74 102 137 174 215 261 310
#     4  10  19  33  54  79 105 135 171 213 257 304
#
# _framework density 20.43702
#
# number of rings (size 3 to 8) (size 9 to 14) (size 15 to 20)
#    0.000    2.400    0.000    3.000    0.000    7.200 
#    0.000    0.000    0.000    1.200    0.000    2.800 
#    0.000    0.000    0.000    0.000    0.000    0.000 
#
# Total GULP energy -223268.806819 kJ/mol
# GULP energy per Si atom -5581.720170 kJ/mol
# Density = 2.039050 g / cm^3
# Si number density = 20.437020 Si / 1000 Ang^3
#
#
#
# Elastic Constant Matrix: (Units=GPa)
#
#
# Indices 1 2 3 4 5 6 
#
# 1 16.1055 -1.2867 11.1110 0.0000 0.0000 0.0000
# 2 -1.2867 207.1850 144.7001 0.0000 0.0000 0.0000
# 3 11.1110 144.7001 197.0498 0.0000 0.0000 0.0000
# 4 0.0000 0.0000 0.0000 45.9677 0.0000 0.0000
# 5 0.0000 0.0000 0.0000 0.0000 1.0621 0.0000
# 6 0.0000 0.0000 0.0000 0.0000 0.0000 -25.7389
#
#
#
# Elastic Compliance Matrix: (Units=1/GPa)
#
#
# Indices 1 2 3 4 5 6 
#
# 1 0.068517 0.006413 -0.008572 0.000000 0.000000 0.000000
# 2 0.006413 0.010508 -0.008078 0.000000 0.000000 0.000000
# 3 -0.008572 -0.008078 0.011490 0.000000 0.000000 0.000000
# 4 0.000000 0.000000 0.000000 0.021754 0.000000 0.000000
# 5 0.000000 0.000000 0.000000 0.000000 0.941552 0.000000
# 6 0.000000 0.000000 0.000000 0.000000 0.000000 -0.038852
#
#
# Mechanical properties :
#
#
# Convention : Reuss Voigt Hill
#
# Bulk Modulus (GPa) = 14.27767 81.04324 47.66045
# Shear Modulus (GPa) = 4.72236 21.97922 13.35079
#
# Velocity S-wave (km/s) = 1.52174 3.28298 2.55868
# Velocity P-wave (km/s) = 3.17631 7.35607 5.66572
#
# Compressibility (1/GPa) = 0.07003944
#
# Stress axis : x y z
#
# Youngs Moduli (GPa) = 14.59495 95.16268 87.02982
#
# Poissons Ratio (x) = -0.61024 0.74606
# Poissons Ratio (y) = -0.09359 0.70304
# Poissons Ratio (z) = 0.12511 0.76874
#
# Static dielectric constant tensor:
#      x y z
#    x 1.756410 0.000000 0.000000 
#    y 0.000000 1.778810 0.000000 
#    z 0.000000 0.000000 1.696330 
# 
# From -- ./inp_files/1492.got.cif
#   From: 2010.05.17/outbox.cif.g08.bks.cpg/sg57_1_cif.got.tgz:1492.got - 2010.06.03 13:58:18.
