data_PCOD9435638
_publ_section_title
;
Structure prediction by ZEFSAII (Michael W. Deem and Ramdas Pophale) SiO2 
 PCOD9435638
Probable space group: P B C M
;
_chemical_formula_sum "Si O2"
_cell_formula_units_Z 60
_cell_length_a 12.243463
_cell_length_b 19.124454
_cell_length_c 13.582917
_cell_angle_alpha 90.000000
_cell_angle_beta 90.000000
_cell_angle_gamma 90.000000
_cell_volume 3180.433835
_symmetry_space_group_name_H-M "P B C M"
_symmetry_group_IT_number 57
_symmetry_cell_setting 'orthorhombic'
loop_
_space_group_symop_operation_xyz
x,y,z
-x,-y,1/2+z
x,1/2-y,-z
-x,1/2+y,1/2-z
-x,-y,-z
x,y,1/2-z
-x,1/2+y,z
x,1/2-y,1/2+z
loop_
_atom_site_type_symbol
_atom_site_label
_atom_site_fract_x
_atom_site_fract_y
_atom_site_fract_z
Si Si1 0.507450 0.342035 0.865568
Si Si2 0.893718 0.903837 0.535939
Si Si3 0.820254 0.750000 0.000000
Si Si4 0.508696 0.562789 0.868903
Si Si5 0.679908 0.441717 0.870014
Si Si6 0.324214 0.462734 0.865666
Si Si7 0.620416 0.794380 0.369175
Si Si8 0.082609 0.508954 0.133601
O O1 0.528775 0.329805 0.750000
O O2 0.619386 0.372444 0.908084
O O3 0.417651 0.403390 0.870825
O O4 0.452331 0.271610 0.898666
O O5 0.885551 0.819319 0.535398
O O6 0.778008 0.935592 0.572629
O O7 0.984994 0.938660 0.605804
O O8 0.921418 0.937398 0.429275
O O9 0.738424 0.781510 0.082944
O O10 0.504862 0.565329 0.750000
O O11 0.601761 0.506750 0.895565
O O12 0.389323 0.533158 0.896628
O O13 0.555769 0.636603 0.903138
O O14 0.678865 0.439442 0.750000
O O15 0.803821 0.454484 0.897820
O O16 0.292511 0.469348 0.750000
O O17 0.631882 0.797257 0.250000
O O18 0.084394 0.495136 0.250000
#
# Coordination Sequence:
#
# PCOD9435638 Si02
#       8
#     8   8   4   8   8   8   8   8
#     4   8  14  27  51  77 109 146 181 219 271 338
#     4  11  23  38  60  88 115 148 195 249 298 355
#     4  12  24  36  56  92 124 148 186 242 306 362
#     4   8  15  28  52  82 115 149 185 227 275 333
#     4   8  14  29  52  76 101 140 188 230 271 329
#     4   9  16  32  55  84 116 151 187 228 285 344
#     4  10  19  33  51  80 120 156 186 228 287 350
#     4  10  22  41  62  81 108 152 203 249 293 344
#
# _framework density 18.865352000000001
#
# number of rings (size 3 to 8) (size 9 to 14) (size 15 to 20)
#    0.000    2.667    1.333    2.800    0.000    2.133 
#    2.400    2.000    5.867    0.000    0.000    0.000 
#    0.000    0.000    0.000    0.000    0.000    0.000 
#
# Total GULP energy -334629.871038 kJ/mol
# GULP energy per Si atom -5577.164517 kJ/mol
# Density = 1.882241 g / cm^3
# Si number density = 18.865352 Si / 1000 Ang^3
#
#
#
# Elastic Constant Matrix: (Units=GPa)
#
#
# Indices 1 2 3 4 5 6 
#
# 1 69.3179 31.5101 1.8127 0.0000 0.0000 0.0000
# 2 31.5101 108.3100 13.5040 0.0000 0.0000 0.0000
# 3 1.8127 13.5040 80.5904 0.0000 0.0000 0.0000
# 4 0.0000 0.0000 0.0000 20.2947 0.0000 0.0000
# 5 0.0000 0.0000 0.0000 0.0000 14.5933 0.0000
# 6 0.0000 0.0000 0.0000 0.0000 0.0000 17.6687
#
#
#
# Elastic Compliance Matrix: (Units=1/GPa)
#
#
# Indices 1 2 3 4 5 6 
#
# 1 0.016641 -0.004897 0.000446 0.000000 0.000000 0.000000
# 2 -0.004897 0.010871 -0.001711 0.000000 0.000000 0.000000
# 3 0.000446 -0.001711 0.012685 0.000000 0.000000 0.000000
# 4 0.000000 0.000000 0.000000 0.049274 0.000000 0.000000
# 5 0.000000 0.000000 0.000000 0.000000 0.068524 0.000000
# 6 0.000000 0.000000 0.000000 0.000000 0.000000 0.056597
#
#
# Mechanical properties :
#
#
# Convention : Reuss Voigt Hill
#
# Bulk Modulus (GPa) = 35.87759 39.09687 37.48723
# Shear Modulus (GPa) = 21.16790 24.60413 22.88602
#
# Velocity S-wave (km/s) = 3.35334 3.61528 3.48677
# Velocity P-wave (km/s) = 5.83542 6.18031 6.01034
#
# Compressibility (1/GPa) = 0.02787255
#
# Stress axis : x y z
#
# Youngs Moduli (GPa) = 60.09411 91.99017 78.83230
#
# Poissons Ratio (x) = 0.45046 -0.03518
# Poissons Ratio (y) = 0.29427 0.13491
# Poissons Ratio (z) = -0.02682 0.15743
#
# Static dielectric constant tensor:
#      x y z
#    x 1.642180 0.000000 0.000000 
#    y 0.000000 1.666360 0.000000 
#    z 0.000000 0.000000 1.739910 
# 
# From -- ./inp_files/17908.got.cif
#   From: 2010.05.17/outbox.cif.g08.bks.cpg/sg57_9_cif.got.tgz:17908.got - 2010.06.03 13:58:18.
