data_PCOD9435832
_publ_section_title
;
Structure prediction by ZEFSAII (Michael W. Deem and Ramdas Pophale) SiO2 
 PCOD9435832
Probable space group: P B C M
;
_chemical_formula_sum "Si O2"
_cell_formula_units_Z 64
_cell_length_a 22.334333
_cell_length_b 16.752533
_cell_length_c 9.253915
_cell_angle_alpha 90.000000
_cell_angle_beta 90.000000
_cell_angle_gamma 90.000000
_cell_volume 3462.413841
_symmetry_space_group_name_H-M "P B C M"
_symmetry_group_IT_number 57
_symmetry_cell_setting 'orthorhombic'
loop_
_space_group_symop_operation_xyz
x,y,z
-x,-y,1/2+z
x,1/2-y,-z
-x,1/2+y,1/2-z
-x,-y,-z
x,y,1/2-z
-x,1/2+y,z
x,1/2-y,1/2+z
loop_
_atom_site_type_symbol
_atom_site_label
_atom_site_fract_x
_atom_site_fract_y
_atom_site_fract_z
Si Si1 0.869055 0.833615 0.076058
Si Si2 0.385438 0.181799 0.087612
Si Si3 0.437554 0.005581 0.417372
Si Si4 0.893457 0.332366 0.081203
Si Si5 0.730837 0.636619 0.915205
Si Si6 0.250599 0.827243 0.414156
Si Si7 0.935242 0.003921 0.074269
Si Si8 0.680250 0.458483 0.584633
O O1 0.873998 0.823518 0.250000
O O2 0.798758 0.846693 0.038561
O O3 0.902174 0.918407 0.041434
O O4 0.889036 0.750000 0.000000
O O5 0.379482 0.208650 0.250000
O O6 0.418656 0.098237 0.082736
O O7 0.418676 0.250000 0.000000
O O8 0.320044 0.170037 0.018963
O O9 0.441549 0.978894 0.250000
O O10 0.500000 0.000000 0.500000
O O11 0.383207 0.964035 0.503113
O O12 0.914908 0.335200 0.250000
O O13 0.821402 0.327992 0.086344
O O14 0.913999 0.250000 0.000000
O O15 0.908026 0.414285 0.994654
O O16 0.724899 0.665982 0.750000
O O17 0.714036 0.543351 0.912500
O O18 0.271201 0.750000 0.500000
O O19 0.271631 0.826373 0.250000
O O20 0.276252 0.901612 0.498024
O O21 0.937196 0.010944 0.250000
O O22 0.000000 0.000000 0.000000
O O23 0.671163 0.433034 0.750000
#
# Coordination Sequence:
#
# PCOD9435832 Si02
#       8
#     8   8   8   8   8   8   8   8
#     4  10  22  38  57  83 115 150 186 227 277 333
#     4  10  20  33  52  79 108 137 171 213 260 312
#     4  10  21  37  55  76 103 138 183 228 270 319
#     4  10  21  38  62  90 117 149 189 235 290 346
#     4   9  18  33  54  81 111 142 175 214 265 324
#     4  10  20  34  54  82 114 144 179 225 277 335
#     4  11  24  42  61  83 114 151 195 243 288 339
#     4  10  19  33  55  80 109 145 182 223 276 332
#
# _framework density 18.484214000000001
#
# number of rings (size 3 to 8) (size 9 to 14) (size 15 to 20)
#    0.000    2.000    0.000    3.375    0.000    7.500 
#    0.000    1.875    0.000    1.500    0.000    0.000 
#    0.000    0.000    0.000    0.000    0.000    0.000 
#
# Total GULP energy -356773.327281 kJ/mol
# GULP energy per Si atom -5574.583239 kJ/mol
# Density = 1.844214 g / cm^3
# Si number density = 18.484214 Si / 1000 Ang^3
#
#
#
# Elastic Constant Matrix: (Units=GPa)
#
#
# Indices 1 2 3 4 5 6 
#
# 1 53.9556 30.3556 31.3147 0.0000 0.0000 0.0000
# 2 30.3556 107.1113 63.5280 0.0000 0.0000 0.0000
# 3 31.3147 63.5280 145.8374 0.0000 0.0000 0.0000
# 4 0.0000 0.0000 0.0000 35.3559 0.0000 0.0000
# 5 0.0000 0.0000 0.0000 0.0000 0.4166 0.0000
# 6 0.0000 0.0000 0.0000 0.0000 0.0000 -9.4140
#
#
#
# Elastic Compliance Matrix: (Units=1/GPa)
#
#
# Indices 1 2 3 4 5 6 
#
# 1 0.022876 -0.004813 -0.002815 0.000000 0.000000 0.000000
# 2 -0.004813 0.013601 -0.004891 0.000000 0.000000 0.000000
# 3 -0.002815 -0.004891 0.009592 0.000000 0.000000 0.000000
# 4 0.000000 0.000000 0.000000 0.028284 0.000000 0.000000
# 5 0.000000 0.000000 0.000000 0.000000 2.400123 0.000000
# 6 0.000000 0.000000 0.000000 0.000000 0.000000 -0.106224
#
#
# Mechanical properties :
#
#
# Convention : Reuss Voigt Hill
#
# Bulk Modulus (GPa) = 47.55250 61.92234 54.73742
# Shear Modulus (GPa) = 2.08307 17.38542 9.73424
#
# Velocity S-wave (km/s) = 1.06273 3.07017 2.29732
# Velocity P-wave (km/s) = 5.22376 6.79270 6.05923
#
# Compressibility (1/GPa) = 0.02102939
#
# Stress axis : x y z
#
# Youngs Moduli (GPa) = 43.71458 73.52282 104.25215
#
# Poissons Ratio (x) = 0.35389 0.29349
# Poissons Ratio (y) = 0.21041 0.50993
# Poissons Ratio (z) = 0.12307 0.35962
#
# Static dielectric constant tensor:
#      x y z
#    x 1.614840 0.000000 0.000000 
#    y 0.000000 1.665320 0.000000 
#    z 0.000000 0.000000 1.660230 
# 
# From -- ./inp_files/9449.got.cif
#   From: 2010.05.17/outbox.cif.g08.bks.cpg/sg57_5_cif.got.tgz:9449.got - 2010.06.03 13:58:18.
