data_PCOD9435906
_publ_section_title
;
Structure prediction by ZEFSAII (Michael W. Deem and Ramdas Pophale) SiO2 
 PCOD9435906
Probable space group: P B C M
;
_chemical_formula_sum "Si O2"
_cell_formula_units_Z 64
_cell_length_a 8.705327
_cell_length_b 29.038166
_cell_length_c 11.607141
_cell_angle_alpha 90.000000
_cell_angle_beta 90.000000
_cell_angle_gamma 90.000000
_cell_volume 2934.131224
_symmetry_space_group_name_H-M "P B C M"
_symmetry_group_IT_number 57
_symmetry_cell_setting 'orthorhombic'
loop_
_space_group_symop_operation_xyz
x,y,z
-x,-y,1/2+z
x,1/2-y,-z
-x,1/2+y,1/2-z
-x,-y,-z
x,y,1/2-z
-x,1/2+y,z
x,1/2-y,1/2+z
loop_
_atom_site_type_symbol
_atom_site_label
_atom_site_fract_x
_atom_site_fract_y
_atom_site_fract_z
Si Si1 0.951715 0.131949 0.123859
Si Si2 0.154360 0.039636 0.380685
Si Si3 0.355393 0.359467 0.376633
Si Si4 0.646092 0.364430 0.989927
Si Si5 0.257580 0.466345 0.119689
Si Si6 0.520554 0.452336 0.877346
Si Si7 0.810037 0.794426 0.559392
Si Si8 0.472648 0.775088 0.877431
O O1 0.874448 0.129795 0.250000
O O2 0.050630 0.085309 0.113264
O O3 0.066422 0.175000 0.123681
O O4 0.828932 0.137413 0.021363
O O5 0.127305 0.019084 0.250000
O O6 0.151195 0.018999 0.511836
O O7 0.337364 0.050621 0.379305
O O8 0.319732 0.342674 0.250000
O O9 0.537811 0.354423 0.400556
O O10 0.300894 0.412476 0.385918
O O11 0.263748 0.329373 0.467157
O O12 0.599267 0.416444 0.960730
O O13 0.584457 0.327323 0.897095
O O14 0.197175 0.474970 0.250000
O O15 0.412195 0.496620 0.108668
O O16 0.569835 0.437567 0.750000
O O17 0.883971 0.750000 0.500000
O O18 0.658299 0.776002 0.623665
O O19 0.419894 0.758529 0.750000
O O20 0.429118 0.750000 0.000000
#
# Coordination Sequence:
#
# PCOD9435906 Si02
#       8
#     8   8   8   8   8   8   8   8
#     4  11  22  37  56  81 120 159 196 241 292 347
#     4  10  19  34  57  84 114 149 194 246 288 337
#     4  10  21  39  62  88 119 153 192 246 304 354
#     4  11  22  37  57  84 122 157 200 240 290 347
#     4  10  19  35  61  88 116 150 194 249 302 350
#     4  10  19  33  59  86 113 151 202 248 292 342
#     4  10  21  37  62  87 113 147 195 245 292 353
#     4  10  21  38  63  89 115 149 195 250 301 352
#
# _framework density 21.812248
#
# number of rings (size 3 to 8) (size 9 to 14) (size 15 to 20)
#    0.000    1.750    2.500    2.625    0.000    6.500 
#    0.000    1.875    0.000    0.000    0.000    0.000 
#    0.000    0.000    0.000    0.000    0.000    0.000 
#
# Total GULP energy -356562.551118 kJ/mol
# GULP energy per Si atom -5571.289861 kJ/mol
# Density = 2.176260 g / cm^3
# Si number density = 21.812248 Si / 1000 Ang^3
#
#
#
# Elastic Constant Matrix: (Units=GPa)
#
#
# Indices 1 2 3 4 5 6 
#
# 1 82.8680 21.4104 16.9669 0.0000 0.0000 0.0000
# 2 21.4104 63.7729 11.3058 0.0000 0.0000 0.0000
# 3 16.9669 11.3058 156.8547 0.0000 0.0000 0.0000
# 4 0.0000 0.0000 0.0000 18.5556 0.0000 0.0000
# 5 0.0000 0.0000 0.0000 0.0000 -7.1467 0.0000
# 6 0.0000 0.0000 0.0000 0.0000 0.0000 5.9874
#
#
#
# Elastic Compliance Matrix: (Units=1/GPa)
#
#
# Indices 1 2 3 4 5 6 
#
# 1 0.013412 -0.004301 -0.001141 0.000000 0.000000 0.000000
# 2 -0.004301 0.017263 -0.000779 0.000000 0.000000 0.000000
# 3 -0.001141 -0.000779 0.006555 0.000000 0.000000 0.000000
# 4 0.000000 0.000000 0.000000 0.053892 0.000000 0.000000
# 5 0.000000 0.000000 0.000000 0.000000 -0.139924 0.000000
# 6 0.000000 0.000000 0.000000 0.000000 0.000000 0.167016
#
#
# Mechanical properties :
#
#
# Convention : Reuss Voigt Hill
#
# Bulk Modulus (GPa) = 40.34104 44.76245 42.55174
# Shear Modulus (GPa) = 35.99250 20.40009 28.19629
#
# Velocity S-wave (km/s) = 4.06656 3.06152 3.59929
# Velocity P-wave (km/s) = 6.37056 5.75008 6.06825
#
# Compressibility (1/GPa) = 0.02478865
#
# Stress axis : x y z
#
# Youngs Moduli (GPa) = 74.55962 57.92870 152.55809
#
# Poissons Ratio (x) = 0.24913 0.17404
# Poissons Ratio (y) = 0.32065 0.11885
# Poissons Ratio (z) = 0.08506 0.04513
#
# Static dielectric constant tensor:
#      x y z
#    x 1.777030 0.000000 0.000000 
#    y 0.000000 1.791870 0.000000 
#    z 0.000000 0.000000 1.915760 
# 
# From -- ./inp_files/12290.got.cif
#   From: 2010.05.17/outbox.cif.g08.bks.cpg/sg57_7_cif.got.tgz:12290.got - 2010.06.03 13:58:18.
