data_PCOD9435592
_publ_section_title
;
Structure prediction by ZEFSAII (Michael W. Deem and Ramdas Pophale) SiO2 
 PCOD9435592
Probable space group: P B C M
;
_chemical_formula_sum "Si O2"
_cell_formula_units_Z 40
_cell_length_a 9.295020
_cell_length_b 13.685674
_cell_length_c 17.457791
_cell_angle_alpha 90.000000
_cell_angle_beta 90.000000
_cell_angle_gamma 90.000000
_cell_volume 2220.781389
_symmetry_space_group_name_H-M "P B C M"
_symmetry_group_IT_number 57
_symmetry_cell_setting 'orthorhombic'
loop_
_space_group_symop_operation_xyz
x,y,z
-x,-y,1/2+z
x,1/2-y,-z
-x,1/2+y,1/2-z
-x,-y,-z
x,y,1/2-z
-x,1/2+y,z
x,1/2-y,1/2+z
loop_
_atom_site_type_symbol
_atom_site_label
_atom_site_fract_x
_atom_site_fract_y
_atom_site_fract_z
Si Si1 0.347924 0.537860 0.970762
Si Si2 0.076874 0.054453 0.665039
Si Si3 0.840748 0.857000 0.494884
Si Si4 0.859517 0.355917 0.912758
Si Si5 0.232590 0.651167 0.662218
O O1 0.247453 0.442092 0.963947
O O2 0.347940 0.598970 0.892395
O O3 0.500000 0.500000 0.000000
O O4 0.269398 0.606346 0.033422
O O5 0.129030 0.081688 0.750000
O O6 0.145204 0.111829 0.593670
O O7 0.908477 0.081728 0.661847
O O8 0.106438 0.940768 0.648476
O O9 0.773349 0.750000 0.500000
O O10 0.998307 0.850762 0.533916
O O11 0.819097 0.253823 0.874044
O O12 0.278841 0.664411 0.750000
#
# Coordination Sequence:
#
# PCOD9435592 Si02
#       5
#     8   8   8   8   8
#     4  11  23  39  59  82 118 165 201 242 291 361
#     4  10  19  32  55  89 118 146 184 245 305 345
#     4  11  19  36  58  85 114 146 201 248 293 358
#     4  11  19  38  61  87 115 151 201 245 300 362
#     4  11  21  36  61  92 121 151 194 251 305 356
#
# _framework density 18.011678
#
# number of rings (size 3 to 8) (size 9 to 14) (size 15 to 20)
#    0.000    1.200    6.000    2.400    0.000    1.600 
#    0.000    6.000    0.000    0.000    0.000    0.000 
#    0.000    0.000    0.000    0.000    0.000    0.000 
#
# Total GULP energy -223247.943326 kJ/mol
# GULP energy per Si atom -5581.198583 kJ/mol
# Density = 1.797068 g / cm^3
# Si number density = 18.011678 Si / 1000 Ang^3
#
#
#
# Elastic Constant Matrix: (Units=GPa)
#
#
# Indices 1 2 3 4 5 6 
#
# 1 72.5720 44.3523 39.0894 0.0000 0.0000 0.0000
# 2 44.3523 125.5940 82.9627 0.0000 0.0000 0.0000
# 3 39.0894 82.9627 130.5856 0.0000 0.0000 0.0000
# 4 0.0000 0.0000 0.0000 25.3254 0.0000 0.0000
# 5 0.0000 0.0000 0.0000 0.0000 16.0788 0.0000
# 6 0.0000 0.0000 0.0000 0.0000 0.0000 15.8461
#
#
#
# Elastic Compliance Matrix: (Units=1/GPa)
#
#
# Indices 1 2 3 4 5 6 
#
# 1 0.017971 -0.004813 -0.002322 0.000000 0.000000 0.000000
# 2 -0.004813 0.015009 -0.008095 0.000000 0.000000 0.000000
# 3 -0.002322 -0.008095 0.013496 0.000000 0.000000 0.000000
# 4 0.000000 0.000000 0.000000 0.039486 0.000000 0.000000
# 5 0.000000 0.000000 0.000000 0.000000 0.062194 0.000000
# 6 0.000000 0.000000 0.000000 0.000000 0.000000 0.063107
#
#
# Mechanical properties :
#
#
# Convention : Reuss Voigt Hill
#
# Bulk Modulus (GPa) = 62.43338 73.50672 67.97005
# Shear Modulus (GPa) = 20.23800 22.27319 21.25560
#
# Velocity S-wave (km/s) = 3.35566 3.52034 3.43899
# Velocity P-wave (km/s) = 7.05350 7.57779 7.32034
#
# Compressibility (1/GPa) = 0.01601707
#
# Stress axis : x y z
#
# Youngs Moduli (GPa) = 55.64419 66.62816 74.09874
#
# Poissons Ratio (x) = 0.32065 0.17206
# Poissons Ratio (y) = 0.26779 0.59980
# Poissons Ratio (z) = 0.12921 0.53933
#
# Static dielectric constant tensor:
#      x y z
#    x 1.599410 0.000000 0.000000 
#    y 0.000000 1.634130 0.000000 
#    z 0.000000 0.000000 1.630990 
# 
# From -- ./inp_files/15887.got.cif
#   From: 2010.05.17/outbox.cif.g08.bks.cpg/sg57_8_cif.got.tgz:15887.got - 2010.06.03 13:58:18.
