data_PCOD9435194
_publ_section_title
;
Structure prediction by ZEFSAII (Michael W. Deem and Ramdas Pophale) SiO2 
 PCOD9435194
Probable space group: P B C M
;
_chemical_formula_sum "Si O2"
_cell_formula_units_Z 64
_cell_length_a 22.356572
_cell_length_b 19.263696
_cell_length_c 8.947317
_cell_angle_alpha 90.000000
_cell_angle_beta 90.000000
_cell_angle_gamma 90.000000
_cell_volume 3853.342861
_symmetry_space_group_name_H-M "P B C M"
_symmetry_group_IT_number 57
_symmetry_cell_setting 'orthorhombic'
loop_
_space_group_symop_operation_xyz
x,y,z
-x,-y,1/2+z
x,1/2-y,-z
-x,1/2+y,1/2-z
-x,-y,-z
x,y,1/2-z
-x,1/2+y,z
x,1/2-y,1/2+z
loop_
_atom_site_type_symbol
_atom_site_label
_atom_site_fract_x
_atom_site_fract_y
_atom_site_fract_z
Si Si1 0.804811 0.033044 0.069704
Si Si2 0.913254 0.959031 0.578809
Si Si3 0.495162 0.824372 0.428602
Si Si4 0.636064 0.824103 0.428645
Si Si5 0.445253 0.957543 0.929755
Si Si6 0.320881 0.029038 0.568073
Si Si7 0.980073 0.391207 0.421290
Si Si8 0.132001 0.676647 0.429204
O O1 0.807249 0.030665 0.250000
O O2 0.826007 0.110940 0.026608
O O3 0.738688 0.010925 0.019539
O O4 0.852550 0.978297 0.005789
O O5 0.902455 0.938939 0.750000
O O6 0.955846 0.903822 0.497088
O O7 0.949253 0.032398 0.580485
O O8 0.483163 0.750000 0.500000
O O9 0.487252 0.824601 0.250000
O O10 0.565692 0.839724 0.458457
O O11 0.454083 0.880742 0.507658
O O12 0.650925 0.750000 0.500000
O O13 0.642071 0.817920 0.250000
O O14 0.673794 0.890676 0.480888
O O15 0.449377 0.959578 0.750000
O O16 0.381829 0.990169 0.975113
O O17 0.500000 0.000000 0.000000
O O18 0.320104 0.030125 0.750000
O O19 0.985343 0.367644 0.250000
O O20 0.934317 0.343168 0.512190
O O21 0.150336 0.750000 0.500000
O O22 0.131801 0.681544 0.250000
#
# Coordination Sequence:
#
# PCOD9435194 Si02
#       8
#     8   8   8   8   8   8   8   8
#     4   9  18  33  52  71  95 134 180 216 254 309
#     4   9  16  27  45  71 101 125 153 200 249 292
#     4  10  19  33  51  75 102 131 165 206 261 322
#     4   9  17  31  50  73  98 124 156 199 251 310
#     4  11  20  33  52  75 103 135 171 218 271 321
#     4   9  18  34  53  73 100 135 174 215 260 314
#     4   9  16  27  46  71  97 126 159 197 244 292
#     4  10  19  31  49  73 100 133 173 216 259 304
#
# _framework density 16.608954000000001
#
# number of rings (size 3 to 8) (size 9 to 14) (size 15 to 20)
#    0.000    2.500    1.250    1.875    0.000    4.000 
#    0.000    2.500    0.000    2.250    0.000    3.500 
#    0.000    0.000    0.000    0.000    0.000    0.000 
#
# Total GULP energy -356688.910615 kJ/mol
# GULP energy per Si atom -5573.264228 kJ/mol
# Density = 1.657115 g / cm^3
# Si number density = 16.608954 Si / 1000 Ang^3
#
#
#
# Elastic Constant Matrix: (Units=GPa)
#
#
# Indices 1 2 3 4 5 6 
#
# 1 123.7048 68.7892 38.1237 0.0000 0.0000 0.0000
# 2 68.7892 110.9112 37.5001 0.0000 0.0000 0.0000
# 3 38.1237 37.5001 51.3150 0.0000 0.0000 0.0000
# 4 0.0000 0.0000 0.0000 27.8739 0.0000 0.0000
# 5 0.0000 0.0000 0.0000 0.0000 18.1605 0.0000
# 6 0.0000 0.0000 0.0000 0.0000 0.0000 18.5939
#
#
#
# Elastic Compliance Matrix: (Units=1/GPa)
#
#
# Indices 1 2 3 4 5 6 
#
# 1 0.013277 -0.006507 -0.005108 0.000000 0.000000 0.000000
# 2 -0.006507 0.015164 -0.006247 0.000000 0.000000 0.000000
# 3 -0.005108 -0.006247 0.027848 0.000000 0.000000 0.000000
# 4 0.000000 0.000000 0.000000 0.035876 0.000000 0.000000
# 5 0.000000 0.000000 0.000000 0.000000 0.055065 0.000000
# 6 0.000000 0.000000 0.000000 0.000000 0.000000 0.053781
#
#
# Mechanical properties :
#
#
# Convention : Reuss Voigt Hill
#
# Bulk Modulus (GPa) = 48.63051 63.86191 56.24621
# Shear Modulus (GPa) = 20.52623 22.36020 21.44322
#
# Velocity S-wave (km/s) = 3.51928 3.67314 3.59704
# Velocity P-wave (km/s) = 6.77179 7.51818 7.15472
#
# Compressibility (1/GPa) = 0.02056322
#
# Stress axis : x y z
#
# Youngs Moduli (GPa) = 75.32086 65.94374 35.90909
#
# Poissons Ratio (x) = 0.42911 0.18343
# Poissons Ratio (y) = 0.49013 0.22434
# Poissons Ratio (z) = 0.38476 0.41198
#
# Static dielectric constant tensor:
#      x y z
#    x 1.549710 0.000000 0.000000 
#    y 0.000000 1.537090 0.000000 
#    z 0.000000 0.000000 1.559970 
# 
# From -- ./inp_files/8554.got.cif
#   From: 2010.05.17/outbox.cif.g08.bks.cpg/sg57_5_cif.got.tgz:8554.got - 2010.06.03 13:58:18.
