data_PCOD9435650
_publ_section_title
;
Structure prediction by ZEFSAII (Michael W. Deem and Ramdas Pophale) SiO2 
 PCOD9435650
Probable space group: P B C M
;
_chemical_formula_sum "Si O2"
_cell_formula_units_Z 48
_cell_length_a 32.213113
_cell_length_b 9.618196
_cell_length_c 8.616852
_cell_angle_alpha 90.000000
_cell_angle_beta 90.000000
_cell_angle_gamma 90.000000
_cell_volume 2669.776787
_symmetry_space_group_name_H-M "P B C M"
_symmetry_group_IT_number 57
_symmetry_cell_setting 'orthorhombic'
loop_
_space_group_symop_operation_xyz
x,y,z
-x,-y,1/2+z
x,1/2-y,-z
-x,1/2+y,1/2-z
-x,-y,-z
x,y,1/2-z
-x,1/2+y,z
x,1/2-y,1/2+z
loop_
_atom_site_type_symbol
_atom_site_label
_atom_site_fract_x
_atom_site_fract_y
_atom_site_fract_z
Si Si1 0.962853 0.907287 0.563446
Si Si2 0.291395 0.595924 0.436023
Si Si3 0.127946 0.092832 0.436837
Si Si4 0.218375 0.406823 0.936397
Si Si5 0.462475 0.406346 0.436828
Si Si6 0.614273 0.404231 0.563050
O O1 0.966171 0.750000 0.500000
O O2 0.964658 0.903427 0.750000
O O3 0.917055 0.965442 0.515769
O O4 0.000000 0.000000 0.500000
O O5 0.283587 0.750000 0.500000
O O6 0.289977 0.597216 0.250000
O O7 0.256519 0.494057 0.499472
O O8 0.338633 0.558315 0.484491
O O9 0.128042 0.250000 0.500000
O O10 0.127959 0.096799 0.250000
O O11 0.172811 0.032911 0.484173
O O12 0.220174 0.403880 0.750000
O O13 0.220729 0.250000 0.000000
O O14 0.464814 0.250000 0.500000
O O15 0.500000 0.500000 0.500000
O O16 0.464219 0.402955 0.250000
O O17 0.419827 0.483376 0.485528
O O18 0.604664 0.250000 0.500000
O O19 0.613439 0.396523 0.750000
#
# Coordination Sequence:
#
# PCOD9435650 Si02
#       6
#     8   8   8   8   8   8
#     4  10  19  33  52  75 101 132 168 210 256 307
#     4  10  20  36  55  78 107 141 176 214 260 311
#     4   8  16  30  49  71  98 130 167 207 253 305
#     4  10  19  33  53  78 104 134 171 214 258 306
#     4  11  23  39  58  83 112 144 179 219 263 311
#     4   9  20  37  57  79 106 139 177 216 260 310
#
# _framework density 17.979032
#
# number of rings (size 3 to 8) (size 9 to 14) (size 15 to 20)
#    0.000    2.333    0.000    2.500    0.000    5.333 
#    0.000    2.500    0.000    0.000    0.000    0.000 
#    0.000    0.000    0.000    0.000    0.000    0.000 
#
# Total GULP energy -267612.472493 kJ/mol
# GULP energy per Si atom -5575.259844 kJ/mol
# Density = 1.793811 g / cm^3
# Si number density = 17.979032 Si / 1000 Ang^3
#
#
#
# Elastic Constant Matrix: (Units=GPa)
#
#
# Indices 1 2 3 4 5 6 
#
# 1 195.9878 109.8126 49.8687 0.0000 0.0000 0.0000
# 2 109.8126 98.4909 32.0958 0.0000 0.0000 0.0000
# 3 49.8687 32.0958 45.0322 0.0000 0.0000 0.0000
# 4 0.0000 0.0000 0.0000 32.2242 0.0000 0.0000
# 5 0.0000 0.0000 0.0000 0.0000 26.5317 0.0000
# 6 0.0000 0.0000 0.0000 0.0000 0.0000 36.8040
#
#
#
# Elastic Compliance Matrix: (Units=1/GPa)
#
#
# Indices 1 2 3 4 5 6 
#
# 1 0.014746 -0.014484 -0.006007 0.000000 0.000000 0.000000
# 2 -0.014484 0.027451 -0.003526 0.000000 0.000000 0.000000
# 3 -0.006007 -0.003526 0.031371 0.000000 0.000000 0.000000
# 4 0.000000 0.000000 0.000000 0.031033 0.000000 0.000000
# 5 0.000000 0.000000 0.000000 0.000000 0.037691 0.000000
# 6 0.000000 0.000000 0.000000 0.000000 0.000000 0.027171
#
#
# Mechanical properties :
#
#
# Convention : Reuss Voigt Hill
#
# Bulk Modulus (GPa) = 39.16122 80.34055 59.75089
# Shear Modulus (GPa) = 22.12328 28.96090 25.54209
#
# Velocity S-wave (km/s) = 3.51166 4.01785 3.77325
# Velocity P-wave (km/s) = 6.18638 8.14290 7.23112
#
# Compressibility (1/GPa) = 0.02553546
#
# Stress axis : x y z
#
# Youngs Moduli (GPa) = 67.81519 36.42902 31.87639
#
# Poissons Ratio (x) = 0.52762 0.19148
# Poissons Ratio (y) = 0.98220 0.11239
# Poissons Ratio (z) = 0.40735 0.12844
#
# Static dielectric constant tensor:
#      x y z
#    x 1.663740 0.000000 0.000000 
#    y 0.000000 1.558100 0.000000 
#    z 0.000000 0.000000 1.608870 
# 
# From -- ./inp_files/9881.got.cif
#   From: 2010.05.17/outbox.cif.g08.bks.cpg/sg57_5_cif.got.tgz:9881.got - 2010.06.03 13:58:18.
