data_PCOD9435088
_publ_section_title
;
Structure prediction by ZEFSAII (Michael W. Deem and Ramdas Pophale) SiO2 
 PCOD9435088
Probable space group: P B C M
;
_chemical_formula_sum "Si O2"
_cell_formula_units_Z 64
_cell_length_a 17.420469
_cell_length_b 24.897817
_cell_length_c 7.791348
_cell_angle_alpha 90.000000
_cell_angle_beta 90.000000
_cell_angle_gamma 90.000000
_cell_volume 3379.354218
_symmetry_space_group_name_H-M "P B C M"
_symmetry_group_IT_number 57
_symmetry_cell_setting 'orthorhombic'
loop_
_space_group_symop_operation_xyz
x,y,z
-x,-y,1/2+z
x,1/2-y,-z
-x,1/2+y,1/2-z
-x,-y,-z
x,y,1/2-z
-x,1/2+y,z
x,1/2-y,1/2+z
loop_
_atom_site_type_symbol
_atom_site_label
_atom_site_fract_x
_atom_site_fract_y
_atom_site_fract_z
Si Si1 0.579927 0.813201 0.042592
Si Si2 0.021110 0.086258 0.051336
Si Si3 0.824472 0.970989 0.957691
Si Si4 0.243687 0.687424 0.957122
Si Si5 0.890060 0.688705 0.544771
Si Si6 0.265359 0.133076 0.955671
Si Si7 0.152105 0.913297 0.450645
Si Si8 0.586874 0.313050 0.044108
O O1 0.578812 0.816883 0.250000
O O2 0.652958 0.846482 0.977176
O O3 0.496035 0.833142 0.979824
O O4 0.589035 0.750000 0.000000
O O5 0.010432 0.071823 0.250000
O O6 0.092579 0.051533 0.980561
O O7 0.939412 0.080933 0.963383
O O8 0.049999 0.147438 0.035947
O O9 0.828771 0.971787 0.750000
O O10 0.813022 0.031391 0.022904
O O11 0.760190 0.927526 0.004319
O O12 0.244370 0.686733 0.750000
O O13 0.183058 0.643211 0.021855
O O14 0.329076 0.669605 0.018765
O O15 0.229369 0.750000 0.000000
O O16 0.904627 0.750000 0.500000
O O17 0.893407 0.681736 0.750000
O O18 0.805262 0.670464 0.483334
O O19 0.267819 0.138375 0.750000
O O20 0.172749 0.912650 0.250000
O O21 0.587201 0.319890 0.250000
O O22 0.585217 0.250000 0.000000
#
# Coordination Sequence:
#
# PCOD9435088 Si02
#       8
#     8   8   8   8   8   8   8   8
#     4   9  16  26  43  69  97 123 153 187 223 266
#     4  10  20  33  49  69  90 116 153 194 235 276
#     4   9  19  34  50  67  89 119 155 193 231 273
#     4   9  18  32  50  71  95 121 148 182 226 274
#     4  10  19  31  46  65  93 126 155 185 225 272
#     4   9  18  30  45  67  94 123 154 189 227 266
#     4  10  20  34  51  70  91 117 152 193 234 275
#     4   8  14  26  44  66  92 121 150 181 220 265
#
# _framework density 18.938528999999999
#
# number of rings (size 3 to 8) (size 9 to 14) (size 15 to 20)
#    0.000    2.750    0.000    1.500    0.000    3.000 
#    0.000    1.250    0.000    0.750    0.000    0.000 
#    0.000    0.000    0.000    0.000    0.000    0.000 
#
# Total GULP energy -356582.108328 kJ/mol
# GULP energy per Si atom -5571.595443 kJ/mol
# Density = 1.889542 g / cm^3
# Si number density = 18.938529 Si / 1000 Ang^3
#
#
#
# Elastic Constant Matrix: (Units=GPa)
#
#
# Indices 1 2 3 4 5 6 
#
# 1 73.2840 43.2512 3.3373 0.0000 0.0000 0.0000
# 2 43.2512 111.8150 0.5261 0.0000 0.0000 0.0000
# 3 3.3373 0.5261 21.6277 0.0000 0.0000 0.0000
# 4 0.0000 0.0000 0.0000 16.3281 0.0000 0.0000
# 5 0.0000 0.0000 0.0000 0.0000 1.0570 0.0000
# 6 0.0000 0.0000 0.0000 0.0000 0.0000 14.8287
#
#
#
# Elastic Compliance Matrix: (Units=1/GPa)
#
#
# Indices 1 2 3 4 5 6 
#
# 1 0.017825 -0.006883 -0.002583 0.000000 0.000000 0.000000
# 2 -0.006883 0.011602 0.000780 0.000000 0.000000 0.000000
# 3 -0.002583 0.000780 0.046617 0.000000 0.000000 0.000000
# 4 0.000000 0.000000 0.000000 0.061244 0.000000 0.000000
# 5 0.000000 0.000000 0.000000 0.000000 0.946102 0.000000
# 6 0.000000 0.000000 0.000000 0.000000 0.000000 0.067437
#
#
# Mechanical properties :
#
#
# Convention : Reuss Voigt Hill
#
# Bulk Modulus (GPa) = 17.04402 33.43953 25.24177
# Shear Modulus (GPa) = 4.20962 17.08357 10.64659
#
# Velocity S-wave (km/s) = 1.49252 3.00668 2.37358
# Velocity P-wave (km/s) = 3.46256 5.45424 4.56826
#
# Compressibility (1/GPa) = 0.05867162
#
# Stress axis : x y z
#
# Youngs Moduli (GPa) = 56.09990 86.19173 21.45162
#
# Poissons Ratio (x) = 0.59325 0.05541
# Poissons Ratio (y) = 0.38613 -0.01673
# Poissons Ratio (z) = 0.14491 -0.06722
#
# Static dielectric constant tensor:
#      x y z
#    x 1.693630 0.000000 0.000000 
#    y 0.000000 1.651820 0.000000 
#    z 0.000000 0.000000 1.692550 
# 
# From -- ./inp_files/7412.got.cif
#   From: 2010.05.17/outbox.cif.g08.bks.cpg/sg57_4_cif.got.tgz:7412.got - 2010.06.03 13:58:18.
