data_PCOD9435210
_publ_section_title
;
Structure prediction by ZEFSAII (Michael W. Deem and Ramdas Pophale) SiO2 
 PCOD9435210
Probable space group: P B C M
;
_chemical_formula_sum "Si O2"
_cell_formula_units_Z 64
_cell_length_a 10.756239
_cell_length_b 33.974584
_cell_length_c 9.262472
_cell_angle_alpha 90.000000
_cell_angle_beta 90.000000
_cell_angle_gamma 90.000000
_cell_volume 3384.866147
_symmetry_space_group_name_H-M "P B C M"
_symmetry_group_IT_number 57
_symmetry_cell_setting 'orthorhombic'
loop_
_space_group_symop_operation_xyz
x,y,z
-x,-y,1/2+z
x,1/2-y,-z
-x,1/2+y,1/2-z
-x,-y,-z
x,y,1/2-z
-x,1/2+y,z
x,1/2-y,1/2+z
loop_
_atom_site_type_symbol
_atom_site_label
_atom_site_fract_x
_atom_site_fract_y
_atom_site_fract_z
Si Si1 0.936078 0.064090 0.582860
Si Si2 0.689468 0.865790 0.578298
Si Si3 0.186698 0.633790 0.081447
Si Si4 0.326518 0.981932 0.416302
Si Si5 0.900084 0.290855 0.420792
Si Si6 0.446918 0.587444 0.418421
Si Si7 0.803563 0.708744 0.921201
Si Si8 0.177105 0.053433 0.079280
O O1 0.958909 0.073908 0.750000
O O2 0.907393 0.102814 0.489965
O O3 0.810737 0.038281 0.576687
O O4 0.056331 0.044110 0.513855
O O5 0.679402 0.856741 0.750000
O O6 0.560812 0.885975 0.527897
O O7 0.729658 0.827331 0.491961
O O8 0.788975 0.900930 0.561807
O O9 0.157866 0.639838 0.250000
O O10 0.322057 0.613696 0.070540
O O11 0.175032 0.674009 0.994419
O O12 0.367275 0.982348 0.250000
O O13 0.416934 0.953887 0.505412
O O14 0.294453 0.026248 0.463591
O O15 0.871406 0.250000 0.500000
O O16 0.876243 0.288379 0.250000
O O17 0.048133 0.298358 0.440905
O O18 0.472339 0.579264 0.250000
O O19 0.779900 0.711676 0.750000
O O20 0.774323 0.750000 0.000000
O O21 0.154594 0.045827 0.250000
#
# Coordination Sequence:
#
# PCOD9435210 Si02
#       8
#     8   8   8   8   8   8   8   8
#     4  10  19  31  49  74 104 135 171 216 263 314
#     4  10  21  37  55  76 105 139 177 219 259 303
#     4  10  19  33  53  74 100 135 173 212 258 309
#     4   9  19  34  51  74 104 138 175 217 265 312
#     4  10  20  34  54  82 112 136 164 204 254 312
#     4   9  20  37  54  73 100 138 180 219 259 303
#     4  10  21  37  58  83 109 136 166 204 253 307
#     4  10  20  33  51  76 106 139 174 215 264 314
#
# _framework density 18.907691
#
# number of rings (size 3 to 8) (size 9 to 14) (size 15 to 20)
#    0.000    2.250    0.000    2.625    0.000    6.500 
#    0.000    0.625    0.000    0.000    0.000    0.000 
#    0.000    0.000    0.000    0.000    0.000    0.000 
#
# Total GULP energy -357360.823887 kJ/mol
# GULP energy per Si atom -5583.762873 kJ/mol
# Density = 1.886466 g / cm^3
# Si number density = 18.907691 Si / 1000 Ang^3
#
#
#
# Elastic Constant Matrix: (Units=GPa)
#
#
# Indices 1 2 3 4 5 6 
#
# 1 46.6591 4.5866 28.0334 0.0000 0.0000 0.0000
# 2 4.5866 85.7244 37.1333 0.0000 0.0000 0.0000
# 3 28.0334 37.1333 78.3186 0.0000 0.0000 0.0000
# 4 0.0000 0.0000 0.0000 33.8909 0.0000 0.0000
# 5 0.0000 0.0000 0.0000 0.0000 20.0996 0.0000
# 6 0.0000 0.0000 0.0000 0.0000 0.0000 25.2314
#
#
#
# Elastic Compliance Matrix: (Units=1/GPa)
#
#
# Indices 1 2 3 4 5 6 
#
# 1 0.028159 0.003598 -0.011785 0.000000 0.000000 0.000000
# 2 0.003598 0.015140 -0.008466 0.000000 0.000000 0.000000
# 3 -0.011785 -0.008466 0.021001 0.000000 0.000000 0.000000
# 4 0.000000 0.000000 0.000000 0.029506 0.000000 0.000000
# 5 0.000000 0.000000 0.000000 0.000000 0.049752 0.000000
# 6 0.000000 0.000000 0.000000 0.000000 0.000000 0.039633
#
#
# Mechanical properties :
#
#
# Convention : Reuss Voigt Hill
#
# Bulk Modulus (GPa) = 32.26482 38.91210 35.58846
# Shear Modulus (GPa) = 22.04291 25.24098 23.64195
#
# Velocity S-wave (km/s) = 3.41811 3.65767 3.53992
# Velocity P-wave (km/s) = 5.71659 6.20184 5.96415
#
# Compressibility (1/GPa) = 0.03099350
#
# Stress axis : x y z
#
# Youngs Moduli (GPa) = 35.51242 66.04934 47.61658
#
# Poissons Ratio (x) = -0.23768 0.56118
# Poissons Ratio (y) = -0.12779 0.40315
# Poissons Ratio (z) = 0.41853 0.55921
#
# Static dielectric constant tensor:
#      x y z
#    x 1.666620 0.000000 0.000000 
#    y 0.000000 1.656070 0.000000 
#    z 0.000000 0.000000 1.623710 
# 
# From -- ./inp_files/3854.got.cif
#   From: 2010.05.17/outbox.cif.g08.bks.cpg/sg57_2_cif.got.tgz:3854.got - 2010.06.03 13:58:18.
