data_PCOD9435122
_publ_section_title
;
Structure prediction by ZEFSAII (Michael W. Deem and Ramdas Pophale) SiO2 
 PCOD9435122
Probable space group: P B C M
;
_chemical_formula_sum "Si O2"
_cell_formula_units_Z 56
_cell_length_a 19.158841
_cell_length_b 14.991056
_cell_length_c 9.227586
_cell_angle_alpha 90.000000
_cell_angle_beta 90.000000
_cell_angle_gamma 90.000000
_cell_volume 2650.266586
_symmetry_space_group_name_H-M "P B C M"
_symmetry_group_IT_number 57
_symmetry_cell_setting 'orthorhombic'
loop_
_space_group_symop_operation_xyz
x,y,z
-x,-y,1/2+z
x,1/2-y,-z
-x,1/2+y,1/2-z
-x,-y,-z
x,y,1/2-z
-x,1/2+y,z
x,1/2-y,1/2+z
loop_
_atom_site_type_symbol
_atom_site_label
_atom_site_fract_x
_atom_site_fract_y
_atom_site_fract_z
Si Si1 0.930105 0.609019 0.585336
Si Si2 0.931330 0.390285 0.915188
Si Si3 0.340959 0.846398 0.924011
Si Si4 0.796681 0.893272 0.912391
Si Si5 0.203101 0.603361 0.912097
Si Si6 0.642374 0.845993 0.574958
Si Si7 0.507763 0.153020 0.424099
O O1 0.938074 0.639214 0.750000
O O2 0.930090 0.499659 0.587454
O O3 0.857104 0.640581 0.517262
O O4 0.996210 0.635956 0.489413
O O5 0.927169 0.359630 0.750000
O O6 0.864387 0.359265 0.006353
O O7 0.334132 0.840466 0.750000
O O8 0.416911 0.889498 0.958957
O O9 0.343260 0.750000 0.000000
O O10 0.272927 0.889257 0.993858
O O11 0.801376 0.853501 0.750000
O O12 0.717191 0.885631 0.967490
O O13 0.810496 0.998273 0.897513
O O14 0.212807 0.641157 0.750000
O O15 0.640851 0.750000 0.500000
O O16 0.643701 0.839451 0.750000
O O17 0.567204 0.890020 0.537069
O O18 0.507705 0.250000 0.500000
O O19 0.507923 0.165768 0.250000
#
# Coordination Sequence:
#
# PCOD9435122 Si02
#       7
#     8   8   8   8   8   8   8
#     4   9  16  26  43  67  93 121 156 195 232 274
#     4   9  16  27  44  66  92 122 156 193 233 277
#     4  10  19  32  50  71  94 122 157 196 237 281
#     4   9  18  31  47  68  97 129 158 191 235 284
#     4  10  19  31  47  69  97 127 158 193 234 280
#     4   9  17  31  50  71  94 123 159 197 236 278
#     4   8  15  28  47  68  90 118 155 196 233 273
#
# _framework density 21.129950000000001
#
# number of rings (size 3 to 8) (size 9 to 14) (size 15 to 20)
#    0.000    2.857    0.000    1.714    0.000    5.143 
#    0.000    0.714    0.000    0.857    0.000    4.000 
#    0.000    0.000    0.000    0.000    0.000    0.000 
#
# Total GULP energy -312009.008580 kJ/mol
# GULP energy per Si atom -5571.589439 kJ/mol
# Density = 2.108186 g / cm^3
# Si number density = 21.129950 Si / 1000 Ang^3
#
#
#
# Elastic Constant Matrix: (Units=GPa)
#
#
# Indices 1 2 3 4 5 6 
#
# 1 217.5348 1.8451 94.4247 0.0000 0.0000 0.0000
# 2 1.8451 25.2339 8.2615 0.0000 0.0000 0.0000
# 3 94.4247 8.2615 110.3365 0.0000 0.0000 0.0000
# 4 0.0000 0.0000 0.0000 9.0460 0.0000 0.0000
# 5 0.0000 0.0000 0.0000 0.0000 137.5319 0.0000
# 6 0.0000 0.0000 0.0000 0.0000 0.0000 12.0392
#
#
#
# Elastic Compliance Matrix: (Units=1/GPa)
#
#
# Indices 1 2 3 4 5 6 
#
# 1 0.007374 0.001565 -0.006427 0.000000 0.000000 0.000000
# 2 0.001565 0.040957 -0.004406 0.000000 0.000000 0.000000
# 3 -0.006427 -0.004406 0.014894 0.000000 0.000000 0.000000
# 4 0.000000 0.000000 0.000000 0.110546 0.000000 0.000000
# 5 0.000000 0.000000 0.000000 0.000000 0.007271 0.000000
# 6 0.000000 0.000000 0.000000 0.000000 0.000000 0.083062
#
#
# Mechanical properties :
#
#
# Convention : Reuss Voigt Hill
#
# Bulk Modulus (GPa) = 22.37751 62.46308 42.42030
# Shear Modulus (GPa) = 16.80470 48.29502 32.54986
#
# Velocity S-wave (km/s) = 2.82317 4.78600 3.92913
# Velocity P-wave (km/s) = 4.60874 7.75672 6.37993
#
# Compressibility (1/GPa) = 0.04468772
#
# Stress axis : x y z
#
# Youngs Moduli (GPa) = 135.61822 24.41565 67.14270
#
# Poissons Ratio (x) = -0.03821 0.43156
# Poissons Ratio (y) = -0.21227 0.29584
# Poissons Ratio (z) = 0.87168 0.10758
#
# Static dielectric constant tensor:
#      x y z
#    x 1.805680 0.000000 0.000000 
#    y 0.000000 1.793650 0.000000 
#    z 0.000000 0.000000 1.732400 
# 
# From -- ./inp_files/7326.got.cif
#   From: 2010.05.17/outbox.cif.g08.bks.cpg/sg57_4_cif.got.tgz:7326.got - 2010.06.03 13:58:18.
