data_PCOD9435255
_publ_section_title
;
Structure prediction by ZEFSAII (Michael W. Deem and Ramdas Pophale) SiO2 
 PCOD9435255
Probable space group: P B C M
;
_chemical_formula_sum "Si O2"
_cell_formula_units_Z 64
_cell_length_a 25.177409
_cell_length_b 14.741901
_cell_length_c 9.002097
_cell_angle_alpha 90.000000
_cell_angle_beta 90.000000
_cell_angle_gamma 90.000000
_cell_volume 3341.244167
_symmetry_space_group_name_H-M "P B C M"
_symmetry_group_IT_number 57
_symmetry_cell_setting 'orthorhombic'
loop_
_space_group_symop_operation_xyz
x,y,z
-x,-y,1/2+z
x,1/2-y,-z
-x,1/2+y,1/2-z
-x,-y,-z
x,y,1/2-z
-x,1/2+y,z
x,1/2-y,1/2+z
loop_
_atom_site_type_symbol
_atom_site_label
_atom_site_fract_x
_atom_site_fract_y
_atom_site_fract_z
Si Si1 0.562743 0.095183 0.581941
Si Si2 0.778301 0.348343 0.071340
Si Si3 0.027412 0.654708 0.427599
Si Si4 0.539965 0.621171 0.083000
Si Si5 0.882581 0.459603 0.070654
Si Si6 0.324004 0.967293 0.429596
Si Si7 0.648059 0.842359 0.426174
Si Si8 0.902329 0.657036 0.426923
O O1 0.559924 0.131742 0.750000
O O2 0.518895 0.139495 0.476913
O O3 0.623597 0.091316 0.528961
O O4 0.547317 0.988130 0.590391
O O5 0.778469 0.339454 0.250000
O O6 0.833245 0.396834 0.027456
O O7 0.728864 0.412761 0.031952
O O8 0.773611 0.250000 0.000000
O O9 0.044623 0.750000 0.500000
O O10 0.033047 0.657875 0.250000
O O11 0.064098 0.577493 0.496215
O O12 0.964987 0.643780 0.463211
O O13 0.548776 0.656425 0.250000
O O14 0.585764 0.652623 0.971776
O O15 0.888717 0.456357 0.250000
O O16 0.873529 0.564403 0.028690
O O17 0.326785 0.979727 0.250000
O O18 0.327407 0.065772 0.505019
O O19 0.669487 0.750000 0.500000
O O20 0.654149 0.840603 0.250000
O O21 0.883729 0.750000 0.500000
O O22 0.898580 0.667013 0.250000
#
# Coordination Sequence:
#
# PCOD9435255 Si02
#       8
#     8   8   8   8   8   8   8   8
#     4   8  14  26  46  70  98 133 172 212 258 311
#     4  10  22  40  61  82 107 137 174 223 274 322
#     4  10  19  31  50  78 111 147 185 226 270 320
#     4   9  16  27  45  72 105 138 172 211 256 307
#     4  10  20  35  55  80 110 145 183 225 272 320
#     4   9  19  37  57  77 104 141 181 224 273 319
#     4  11  21  34  54  80 110 143 179 219 263 318
#     4   9  19  34  52  77 111 148 184 222 268 320
#
# _framework density 19.154540999999998
#
# number of rings (size 3 to 8) (size 9 to 14) (size 15 to 20)
#    0.000    2.500    0.000    3.375    0.000    6.000 
#    0.000    1.250    0.000    3.000    0.000    0.000 
#    0.000    0.000    0.000    0.000    0.000    0.000 
#
# Total GULP energy -357161.998244 kJ/mol
# GULP energy per Si atom -5580.656223 kJ/mol
# Density = 1.911094 g / cm^3
# Si number density = 19.154541 Si / 1000 Ang^3
#
#
#
# Elastic Constant Matrix: (Units=GPa)
#
#
# Indices 1 2 3 4 5 6 
#
# 1 43.6745 35.3307 25.0861 0.0000 0.0000 0.0000
# 2 35.3307 123.1825 39.4867 0.0000 0.0000 0.0000
# 3 25.0861 39.4867 48.7217 0.0000 0.0000 0.0000
# 4 0.0000 0.0000 0.0000 29.0549 0.0000 0.0000
# 5 0.0000 0.0000 0.0000 0.0000 14.6665 0.0000
# 6 0.0000 0.0000 0.0000 0.0000 0.0000 11.5378
#
#
#
# Elastic Compliance Matrix: (Units=1/GPa)
#
#
# Indices 1 2 3 4 5 6 
#
# 1 0.035347 -0.005815 -0.013487 0.000000 0.000000 0.000000
# 2 -0.005815 0.011924 -0.006670 0.000000 0.000000 0.000000
# 3 -0.013487 -0.006670 0.032875 0.000000 0.000000 0.000000
# 4 0.000000 0.000000 0.000000 0.034418 0.000000 0.000000
# 5 0.000000 0.000000 0.000000 0.000000 0.068183 0.000000
# 6 0.000000 0.000000 0.000000 0.000000 0.000000 0.086671
#
#
# Mechanical properties :
#
#
# Convention : Reuss Voigt Hill
#
# Bulk Modulus (GPa) = 35.45805 46.15396 40.80601
# Shear Modulus (GPa) = 15.11660 18.76351 16.94005
#
# Velocity S-wave (km/s) = 2.81230 3.13323 2.97709
# Velocity P-wave (km/s) = 5.39418 6.10224 5.75910
#
# Compressibility (1/GPa) = 0.02820234
#
# Stress axis : x y z
#
# Youngs Moduli (GPa) = 28.29057 83.86553 30.41854
#
# Poissons Ratio (x) = 0.48766 0.41026
# Poissons Ratio (y) = 0.16450 0.20288
# Poissons Ratio (z) = 0.38156 0.55936
#
# Static dielectric constant tensor:
#      x y z
#    x 1.663780 0.000000 0.000000 
#    y 0.000000 1.688100 0.000000 
#    z 0.000000 0.000000 1.648150 
# 
# From -- ./inp_files/9415.got.cif
#   From: 2010.05.17/outbox.cif.g08.bks.cpg/sg57_5_cif.got.tgz:9415.got - 2010.06.03 13:58:18.
