data_PCOD9435095
_publ_section_title
;
Structure prediction by ZEFSAII (Michael W. Deem and Ramdas Pophale) SiO2 
 PCOD9435095
Probable space group: P B C M
;
_chemical_formula_sum "Si O2"
_cell_formula_units_Z 56
_cell_length_a 16.756032
_cell_length_b 21.448532
_cell_length_c 8.997336
_cell_angle_alpha 90.000000
_cell_angle_beta 90.000000
_cell_angle_gamma 90.000000
_cell_volume 3233.573176
_symmetry_space_group_name_H-M "P B C M"
_symmetry_group_IT_number 57
_symmetry_cell_setting 'orthorhombic'
loop_
_space_group_symop_operation_xyz
x,y,z
-x,-y,1/2+z
x,1/2-y,-z
-x,1/2+y,1/2-z
-x,-y,-z
x,y,1/2-z
-x,1/2+y,z
x,1/2-y,1/2+z
loop_
_atom_site_type_symbol
_atom_site_label
_atom_site_fract_x
_atom_site_fract_y
_atom_site_fract_z
Si Si1 0.556826 0.085872 0.420031
Si Si2 0.603010 0.561960 0.578972
Si Si3 0.833000 0.311750 0.924660
Si Si4 0.006086 0.314207 0.072438
Si Si5 0.238547 0.036596 0.418900
Si Si6 0.066820 0.453906 0.071632
Si Si7 0.288482 0.607312 0.915849
O O1 0.562674 0.107414 0.250000
O O2 0.467884 0.091953 0.483249
O O3 0.622115 0.117046 0.526280
O O4 0.580646 0.012118 0.420082
O O5 0.601792 0.582625 0.750000
O O6 0.690264 0.570615 0.507587
O O7 0.844283 0.304422 0.750000
O O8 0.797906 0.250000 0.000000
O O9 0.773188 0.366149 0.965786
O O10 0.917785 0.321518 0.003924
O O11 0.001578 0.305591 0.250000
O O12 0.047810 0.380600 0.043468
O O13 0.039434 0.250000 0.000000
O O14 0.228869 0.060474 0.250000
O O15 0.270228 0.965925 0.407549
O O16 0.154039 0.034798 0.502356
O O17 0.066827 0.463743 0.250000
O O18 0.000000 0.500000 0.000000
O O19 0.275730 0.633554 0.750000
#
# Coordination Sequence:
#
# PCOD9435095 Si02
#       7
#     8   8   8   8   8   8   8
#     4   9  16  26  42  65  92 124 160 194 233 284
#     4   9  16  27  43  64  93 126 159 196 237 283
#     4  11  21  33  50  70  93 124 161 201 244 291
#     4  10  21  37  55  75  99 131 171 212 253 301
#     4  10  20  32  48  70  98 131 164 201 246 295
#     4  11  23  36  52  76 105 135 169 210 258 309
#     4  10  19  31  46  68  98 129 162 199 241 290
#
# _framework density 17.318303
#
# number of rings (size 3 to 8) (size 9 to 14) (size 15 to 20)
#    0.000    2.000    0.000    5.571    0.000   10.857 
#    0.000    0.000    0.000    0.000    0.000    1.000 
#    0.000    2.286    0.000    0.000    0.000    0.000 
#
# Total GULP energy -312162.541553 kJ/mol
# GULP energy per Si atom -5574.331099 kJ/mol
# Density = 1.727889 g / cm^3
# Si number density = 17.318303 Si / 1000 Ang^3
#
#
#
# Elastic Constant Matrix: (Units=GPa)
#
#
# Indices 1 2 3 4 5 6 
#
# 1 118.1906 21.9154 55.2731 0.0000 0.0000 0.0000
# 2 21.9154 36.0549 34.3329 0.0000 0.0000 0.0000
# 3 55.2731 34.3329 117.8033 0.0000 0.0000 0.0000
# 4 0.0000 0.0000 0.0000 22.6459 0.0000 0.0000
# 5 0.0000 0.0000 0.0000 0.0000 -1.5300 0.0000
# 6 0.0000 0.0000 0.0000 0.0000 0.0000 8.8735
#
#
#
# Elastic Compliance Matrix: (Units=1/GPa)
#
#
# Indices 1 2 3 4 5 6 
#
# 1 0.010994 -0.002451 -0.004444 0.000000 0.000000 0.000000
# 2 -0.002451 0.038936 -0.010198 0.000000 0.000000 0.000000
# 3 -0.004444 -0.010198 0.013546 0.000000 0.000000 0.000000
# 4 0.000000 0.000000 0.000000 0.044158 0.000000 0.000000
# 5 0.000000 0.000000 0.000000 0.000000 -0.653595 0.000000
# 6 0.000000 0.000000 0.000000 0.000000 0.000000 0.112696
#
#
# Mechanical properties :
#
#
# Convention : Reuss Voigt Hill
#
# Bulk Modulus (GPa) = 34.14057 55.01019 44.57538
# Shear Modulus (GPa) = -12.84298 16.69969 1.92835
#
# Velocity S-wave (km/s) = -2.72616 3.10865 1.05636
# Velocity P-wave (km/s) = 3.13801 6.68716 5.22328
#
# Compressibility (1/GPa) = 0.02929067
#
# Stress axis : x y z
#
# Youngs Moduli (GPa) = 90.96220 25.68335 73.82320
#
# Poissons Ratio (x) = 0.06294 0.32807
# Poissons Ratio (y) = 0.22291 0.75283
# Poissons Ratio (z) = 0.40423 0.26191
#
# Static dielectric constant tensor:
#      x y z
#    x 1.571730 0.000000 0.000000 
#    y 0.000000 1.643330 0.000000 
#    z 0.000000 0.000000 1.602980 
# 
# From -- ./inp_files/5207.got.cif
#   From: 2010.05.17/outbox.cif.g08.bks.cpg/sg57_3_cif.got.tgz:5207.got - 2010.06.03 13:58:18.
