data_PCOD9435103
_publ_section_title
;
Structure prediction by ZEFSAII (Michael W. Deem and Ramdas Pophale) SiO2 
 PCOD9435103
Probable space group: P B C M
;
_chemical_formula_sum "Si O2"
_cell_formula_units_Z 64
_cell_length_a 22.666301
_cell_length_b 20.175132
_cell_length_c 8.489865
_cell_angle_alpha 90.000000
_cell_angle_beta 90.000000
_cell_angle_gamma 90.000000
_cell_volume 3882.378033
_symmetry_space_group_name_H-M "P B C M"
_symmetry_group_IT_number 57
_symmetry_cell_setting 'orthorhombic'
loop_
_space_group_symop_operation_xyz
x,y,z
-x,-y,1/2+z
x,1/2-y,-z
-x,1/2+y,1/2-z
-x,-y,-z
x,y,1/2-z
-x,1/2+y,z
x,1/2-y,1/2+z
loop_
_atom_site_type_symbol
_atom_site_label
_atom_site_fract_x
_atom_site_fract_y
_atom_site_fract_z
Si Si1 0.083081 0.025415 0.941072
Si Si2 0.979706 0.107006 0.937027
Si Si3 0.865568 0.177647 0.560590
Si Si4 0.801686 0.045232 0.062320
Si Si5 0.383050 0.680144 0.561650
Si Si6 0.558022 0.538246 0.440463
Si Si7 0.516790 0.679732 0.061675
Si Si8 0.327570 0.542930 0.559769
O O1 0.076380 0.019028 0.750000
O O2 0.046881 0.091346 0.990549
O O3 0.151476 0.013041 0.977957
O O4 0.052288 0.962596 0.024032
O O5 0.982540 0.117549 0.750000
O O6 0.932823 0.161006 0.998549
O O7 0.847224 0.250000 0.500000
O O8 0.865196 0.178384 0.750000
O O9 0.825341 0.115421 0.506865
O O10 0.801462 0.052613 0.250000
O O11 0.736890 0.027813 0.003300
O O12 0.359631 0.750000 0.500000
O O13 0.385702 0.681738 0.750000
O O14 0.449718 0.672242 0.499225
O O15 0.344891 0.617557 0.511156
O O16 0.500000 0.500000 0.500000
O O17 0.556866 0.535278 0.250000
O O18 0.552445 0.614842 0.489062
O O19 0.618510 0.503762 0.493652
O O20 0.514936 0.681908 0.250000
O O21 0.539674 0.750000 0.000000
O O22 0.326153 0.540797 0.750000
#
# Coordination Sequence:
#
# PCOD9435103 Si02
#       8
#     8   8   8   8   8   8   8   8
#     4   8  14  26  43  64  88 111 142 185 227 267
#     4   8  14  25  43  65  87 114 146 182 226 267
#     4  10  19  31  47  67  95 130 163 195 231 272
#     4  10  20  32  47  67  92 124 161 197 234 281
#     4  10  19  31  47  65  90 122 155 193 235 282
#     4  10  20  34  52  73  97 126 158 201 253 299
#     4  10  19  31  50  73  96 121 150 188 239 294
#     4  10  21  35  48  66  95 129 164 203 247 293
#
# _framework density 16.484742000000001
#
# number of rings (size 3 to 8) (size 9 to 14) (size 15 to 20)
#    0.000    2.500    1.250    2.250    0.000    3.500 
#    0.000    1.250    0.000    0.000    0.000    0.875 
#    0.000    6.000    0.000    0.000    0.000    0.000 
#
# Total GULP energy -356344.098178 kJ/mol
# GULP energy per Si atom -5567.876534 kJ/mol
# Density = 1.644722 g / cm^3
# Si number density = 16.484742 Si / 1000 Ang^3
#
#
#
# Elastic Constant Matrix: (Units=GPa)
#
#
# Indices 1 2 3 4 5 6 
#
# 1 121.3401 48.3592 16.1547 0.0000 0.0000 0.0000
# 2 48.3592 58.4917 13.4868 0.0000 0.0000 0.0000
# 3 16.1547 13.4868 17.9546 0.0000 0.0000 0.0000
# 4 0.0000 0.0000 0.0000 15.6680 0.0000 0.0000
# 5 0.0000 0.0000 0.0000 0.0000 21.0877 0.0000
# 6 0.0000 0.0000 0.0000 0.0000 0.0000 19.2200
#
#
#
# Elastic Compliance Matrix: (Units=1/GPa)
#
#
# Indices 1 2 3 4 5 6 
#
# 1 0.012552 -0.009402 -0.004231 0.000000 0.000000 0.000000
# 2 -0.009402 0.027720 -0.012363 0.000000 0.000000 0.000000
# 3 -0.004231 -0.012363 0.068790 0.000000 0.000000 0.000000
# 4 0.000000 0.000000 0.000000 0.063824 0.000000 0.000000
# 5 0.000000 0.000000 0.000000 0.000000 0.047421 0.000000
# 6 0.000000 0.000000 0.000000 0.000000 0.000000 0.052029
#
#
# Mechanical properties :
#
#
# Convention : Reuss Voigt Hill
#
# Bulk Modulus (GPa) = 17.52246 39.30974 28.41610
# Shear Modulus (GPa) = 14.56237 19.18086 16.87161
#
# Velocity S-wave (km/s) = 2.97540 3.41479 3.20264
# Velocity P-wave (km/s) = 4.73884 6.28057 5.56337
#
# Compressibility (1/GPa) = 0.05706961
#
# Stress axis : x y z
#
# Youngs Moduli (GPa) = 79.67124 36.07492 14.53707
#
# Poissons Ratio (x) = 0.33916 0.06151
# Poissons Ratio (y) = 0.74904 0.17972
# Poissons Ratio (z) = 0.33710 0.44600
#
# Static dielectric constant tensor:
#      x y z
#    x 1.584860 0.000000 0.000000 
#    y 0.000000 1.561210 0.000000 
#    z 0.000000 0.000000 1.586360 
# 
# From -- ./inp_files/9591.got.cif
#   From: 2010.05.17/outbox.cif.g08.bks.cpg/sg57_5_cif.got.tgz:9591.got - 2010.06.03 13:58:18.
