data_PCOD9435555
_publ_section_title
;
Structure prediction by ZEFSAII (Michael W. Deem and Ramdas Pophale) SiO2 
 PCOD9435555
Probable space group: P B C M
;
_chemical_formula_sum "Si O2"
_cell_formula_units_Z 52
_cell_length_a 21.338767
_cell_length_b 5.047548
_cell_length_c 26.002557
_cell_angle_alpha 90.000000
_cell_angle_beta 90.000000
_cell_angle_gamma 90.000000
_cell_volume 2800.695129
_symmetry_space_group_name_H-M "P B C M"
_symmetry_group_IT_number 57
_symmetry_cell_setting 'orthorhombic'
loop_
_space_group_symop_operation_xyz
x,y,z
-x,-y,1/2+z
x,1/2-y,-z
-x,1/2+y,1/2-z
-x,-y,-z
x,y,1/2-z
-x,1/2+y,z
x,1/2-y,1/2+z
loop_
_atom_site_type_symbol
_atom_site_label
_atom_site_fract_x
_atom_site_fract_y
_atom_site_fract_z
Si Si1 0.152604 0.757768 0.562330
Si Si2 0.957670 0.308428 0.750000
Si Si3 0.544170 0.866641 0.361568
Si Si4 0.956488 0.415894 0.862094
Si Si5 0.632662 0.614315 0.056133
Si Si6 0.548115 0.250000 0.000000
Si Si7 0.772022 0.738982 0.061964
Si Si8 0.457719 0.081725 0.750000
O O1 0.143774 0.750000 0.500000
O O2 0.091653 0.852553 0.592611
O O3 0.174695 0.466496 0.578595
O O4 0.208209 0.964598 0.576298
O O5 0.926704 0.370465 0.805076
O O6 0.017904 0.507113 0.750000
O O7 0.489015 0.649044 0.365759
O O8 0.592022 0.786149 0.405039
O O9 0.573775 0.856250 0.304353
O O10 0.986111 0.707002 0.865253
O O11 0.596753 0.337390 0.045177
O O12 0.703962 0.622768 0.075447
O O13 0.632996 0.750000 0.000000
O O14 0.500000 0.500000 0.000000
O O15 0.772660 0.750000 0.000000
O O16 0.518118 0.279342 0.750000
#
# Coordination Sequence:
#
# PCOD9435555 Si02
#       8
#     8   4   8   8   8   4   8   4
#     4  10  20  35  52  75 102 137 176 219 247 294
#     4   8  16  30  48  76 106 140 170 198 250 326
#     4  10  21  33  52  74  99 128 162 207 259 309
#     4  10  19  32  54  80 110 137 168 212 268 313
#     4  11  24  35  54  75 107 142 172 210 265 321
#     4  12  24  34  48  76 112 130 158 212 270 318
#     4   9  21  35  52  69 100 140 185 207 241 304
#     4   8  16  34  50  68  92 126 166 200 244 308
#
# _framework density 18.566821000000001
#
# number of rings (size 3 to 8) (size 9 to 14) (size 15 to 20)
#    0.000    2.154    0.769    1.846    7.538    0.615 
#    0.000    0.000    0.000    1.846    0.000    0.000 
#    0.000    0.000    0.000    0.000    0.000    0.000 
#
# Total GULP energy -289672.432799 kJ/mol
# GULP energy per Si atom -5570.623708 kJ/mol
# Density = 1.852456 g / cm^3
# Si number density = 18.566821 Si / 1000 Ang^3
#
#
#
# Elastic Constant Matrix: (Units=GPa)
#
#
# Indices 1 2 3 4 5 6 
#
# 1 53.7963 4.1433 26.4664 0.0000 0.0000 0.0000
# 2 4.1433 83.6137 4.6762 0.0000 0.0000 0.0000
# 3 26.4664 4.6762 81.0423 0.0000 0.0000 0.0000
# 4 0.0000 0.0000 0.0000 19.3730 0.0000 0.0000
# 5 0.0000 0.0000 0.0000 0.0000 3.1948 0.0000
# 6 0.0000 0.0000 0.0000 0.0000 0.0000 20.5634
#
#
#
# Elastic Compliance Matrix: (Units=1/GPa)
#
#
# Indices 1 2 3 4 5 6 
#
# 1 0.022187 -0.000696 -0.007206 0.000000 0.000000 0.000000
# 2 -0.000696 0.012020 -0.000466 0.000000 0.000000 0.000000
# 3 -0.007206 -0.000466 0.014719 0.000000 0.000000 0.000000
# 4 0.000000 0.000000 0.000000 0.051618 0.000000 0.000000
# 5 0.000000 0.000000 0.000000 0.000000 0.313013 0.000000
# 6 0.000000 0.000000 0.000000 0.000000 0.000000 0.048630
#
#
# Mechanical properties :
#
#
# Convention : Reuss Voigt Hill
#
# Bulk Modulus (GPa) = 31.06511 32.11381 31.58946
# Shear Modulus (GPa) = 10.21128 20.83733 15.52430
#
# Velocity S-wave (km/s) = 2.34770 3.35369 2.89473
# Velocity P-wave (km/s) = 4.91088 5.68597 5.31258
#
# Compressibility (1/GPa) = 0.03219045
#
# Stress axis : x y z
#
# Youngs Moduli (GPa) = 45.07097 83.19234 67.93801
#
# Poissons Ratio (x) = 0.05794 0.48953
# Poissons Ratio (y) = 0.03139 0.03167
# Poissons Ratio (z) = 0.32476 0.03878
#
# Static dielectric constant tensor:
#      x y z
#    x 1.636090 0.000000 0.000000 
#    y 0.000000 1.683140 0.000000 
#    z 0.000000 0.000000 1.710580 
# 
# From -- ./inp_files/28852.got.cif
#   From: 2010.05.17/outbox.cif.g08.bks.cpg/sg57_15_cif.got.tgz:28852.got - 2010.06.03 13:58:18.
