data_PCOD9435306
_publ_section_title
;
Structure prediction by ZEFSAII (Michael W. Deem and Ramdas Pophale) SiO2 
 PCOD9435306
Probable space group: P B C M
;
_chemical_formula_sum "Si O2"
_cell_formula_units_Z 48
_cell_length_a 15.213783
_cell_length_b 19.123880
_cell_length_c 8.838321
_cell_angle_alpha 90.000000
_cell_angle_beta 90.000000
_cell_angle_gamma 90.000000
_cell_volume 2571.479095
_symmetry_space_group_name_H-M "P B C M"
_symmetry_group_IT_number 57
_symmetry_cell_setting 'orthorhombic'
loop_
_space_group_symop_operation_xyz
x,y,z
-x,-y,1/2+z
x,1/2-y,-z
-x,1/2+y,1/2-z
-x,-y,-z
x,y,1/2-z
-x,1/2+y,z
x,1/2-y,1/2+z
loop_
_atom_site_type_symbol
_atom_site_label
_atom_site_fract_x
_atom_site_fract_y
_atom_site_fract_z
Si Si1 0.024793 0.326059 0.431321
Si Si2 0.180332 0.078643 0.933844
Si Si3 0.717985 0.178175 0.071068
Si Si4 0.877434 0.074749 0.431444
Si Si5 0.377060 0.449691 0.067334
Si Si6 0.435001 0.902000 0.069574
O O1 0.007674 0.250000 0.500000
O O2 0.021880 0.321513 0.250000
O O3 0.119710 0.356750 0.480332
O O4 0.953588 0.382500 0.486756
O O5 0.180778 0.077716 0.750000
O O6 0.282079 0.078451 0.981793
O O7 0.135461 0.005327 0.981205
O O8 0.710715 0.185962 0.250000
O O9 0.786531 0.115979 0.039987
O O10 0.751528 0.250000 0.000000
O O11 0.624165 0.158015 0.002042
O O12 0.892911 0.075694 0.250000
O O13 0.375013 0.459473 0.250000
O O14 0.461320 0.401603 0.031580
O O15 0.397379 0.524610 0.993446
O O16 0.426140 0.900602 0.250000
#
# Coordination Sequence:
#
# PCOD9435306 Si02
#       6
#     8   8   8   8   8   8
#     4  11  23  38  57  80 111 147 184 226 276 332
#     4   9  18  36  60  84 109 144 184 227 278 327
#     4  11  22  36  55  78 113 151 186 229 281 337
#     4  10  20  37  60  83 108 141 183 230 282 335
#     4   9  17  34  57  80 109 143 180 224 274 323
#     4  10  19  31  53  83 112 143 182 223 270 328
#
# _framework density 18.666298000000001
#
# number of rings (size 3 to 8) (size 9 to 14) (size 15 to 20)
#    0.000    2.000    1.667    2.500    0.000    3.333 
#    0.000    3.333    0.000    2.000    0.000    0.000 
#    0.000    0.000    0.000    0.000    0.000    0.000 
#
# Total GULP energy -267934.605474 kJ/mol
# GULP energy per Si atom -5581.970947 kJ/mol
# Density = 1.862381 g / cm^3
# Si number density = 18.666298 Si / 1000 Ang^3
#
#
#
# Elastic Constant Matrix: (Units=GPa)
#
#
# Indices 1 2 3 4 5 6 
#
# 1 110.9834 9.8655 30.3594 0.0000 0.0000 0.0000
# 2 9.8655 32.4697 12.8211 0.0000 0.0000 0.0000
# 3 30.3594 12.8211 23.0845 0.0000 0.0000 0.0000
# 4 0.0000 0.0000 0.0000 20.3908 0.0000 0.0000
# 5 0.0000 0.0000 0.0000 0.0000 17.0314 0.0000
# 6 0.0000 0.0000 0.0000 0.0000 0.0000 13.3507
#
#
#
# Elastic Compliance Matrix: (Units=1/GPa)
#
#
# Indices 1 2 3 4 5 6 
#
# 1 0.014466 0.003993 -0.021243 0.000000 0.000000 0.000000
# 2 0.003993 0.040552 -0.027773 0.000000 0.000000 0.000000
# 3 -0.021243 -0.027773 0.086682 0.000000 0.000000 0.000000
# 4 0.000000 0.000000 0.000000 0.049042 0.000000 0.000000
# 5 0.000000 0.000000 0.000000 0.000000 0.058715 0.000000
# 6 0.000000 0.000000 0.000000 0.000000 0.000000 0.074902
#
#
# Mechanical properties :
#
#
# Convention : Reuss Voigt Hill
#
# Bulk Modulus (GPa) = 19.36000 30.29216 24.82608
# Shear Modulus (GPa) = 11.58415 17.72068 14.65242
#
# Velocity S-wave (km/s) = 2.49387 3.08448 2.80476
# Velocity P-wave (km/s) = 4.32281 5.38041 4.88034
#
# Compressibility (1/GPa) = 0.05165289
#
# Stress axis : x y z
#
# Youngs Moduli (GPa) = 69.12538 24.65999 11.53639
#
# Poissons Ratio (x) = -0.09846 0.24507
# Poissons Ratio (y) = -0.27600 0.32040
# Poissons Ratio (z) = 1.46843 0.68489
#
# Static dielectric constant tensor:
#      x y z
#    x 1.672020 0.000000 0.000000 
#    y 0.000000 1.618200 0.000000 
#    z 0.000000 0.000000 1.630050 
# 
# From -- ./inp_files/4706.got.cif
#   From: 2010.05.17/outbox.cif.g08.bks.cpg/sg57_3_cif.got.tgz:4706.got - 2010.06.03 13:58:18.
