data_PCOD9435294
_publ_section_title
;
Structure prediction by ZEFSAII (Michael W. Deem and Ramdas Pophale) SiO2 
 PCOD9435294
Probable space group: P B C M
;
_chemical_formula_sum "Si O2"
_cell_formula_units_Z 64
_cell_length_a 17.433883
_cell_length_b 21.553566
_cell_length_c 9.067041
_cell_angle_alpha 90.000000
_cell_angle_beta 90.000000
_cell_angle_gamma 90.000000
_cell_volume 3407.052614
_symmetry_space_group_name_H-M "P B C M"
_symmetry_group_IT_number 57
_symmetry_cell_setting 'orthorhombic'
loop_
_space_group_symop_operation_xyz
x,y,z
-x,-y,1/2+z
x,1/2-y,-z
-x,1/2+y,1/2-z
-x,-y,-z
x,y,1/2-z
-x,1/2+y,z
x,1/2-y,1/2+z
loop_
_atom_site_type_symbol
_atom_site_label
_atom_site_fract_x
_atom_site_fract_y
_atom_site_fract_z
Si Si1 0.798359 0.681005 0.430053
Si Si2 0.082528 0.936472 0.923311
Si Si3 0.921595 0.585831 0.574491
Si Si4 0.766046 0.074239 0.914348
Si Si5 0.370065 0.988125 0.574722
Si Si6 0.329910 0.801662 0.411076
Si Si7 0.535680 0.133689 0.073356
Si Si8 0.366530 0.378371 0.573122
O O1 0.809416 0.750000 0.500000
O O2 0.804884 0.683354 0.250000
O O3 0.859224 0.630915 0.496925
O O4 0.712076 0.656392 0.469260
O O5 0.085447 0.921996 0.750000
O O6 0.093661 0.011520 0.937697
O O7 0.152496 0.911097 0.017346
O O8 0.003759 0.911339 0.992976
O O9 0.925960 0.600109 0.750000
O O10 0.771843 0.045179 0.750000
O O11 0.719749 0.137356 0.900148
O O12 0.714074 0.035155 0.026147
O O13 0.375088 0.995432 0.750000
O O14 0.375799 0.053502 0.494944
O O15 0.433091 0.935708 0.529368
O O16 0.285232 0.750000 0.500000
O O17 0.350082 0.778623 0.250000
O O18 0.405403 0.819938 0.499477
O O19 0.542150 0.135324 0.250000
O O20 0.448781 0.150808 0.032230
O O21 0.364250 0.384067 0.750000
#
# Coordination Sequence:
#
# PCOD9435294 Si02
#       8
#     8   8   8   8   8   8   8   8
#     4  11  24  41  59  79 108 148 192 236 281 330
#     4  10  20  35  60  92 119 143 176 220 271 326
#     4  10  21  38  60  86 116 147 180 221 271 327
#     4  10  20  34  53  79 111 144 178 218 267 323
#     4  10  19  31  52  81 113 147 181 223 276 331
#     4  10  21  36  54  75 102 140 181 222 269 319
#     4   9  19  35  53  77 109 143 182 229 279 329
#     4  10  21  36  55  79 108 143 183 229 278 328
#
# _framework density 18.784564
#
# number of rings (size 3 to 8) (size 9 to 14) (size 15 to 20)
#    0.000    2.000    0.000    3.375    0.000    7.500 
#    0.000    1.875    0.000    1.500    0.000    0.000 
#    0.000    0.000    0.000    0.000    0.000    0.000 
#
# Total GULP energy -356701.788958 kJ/mol
# GULP energy per Si atom -5573.465452 kJ/mol
# Density = 1.874181 g / cm^3
# Si number density = 18.784564 Si / 1000 Ang^3
#
#
#
# Elastic Constant Matrix: (Units=GPa)
#
#
# Indices 1 2 3 4 5 6 
#
# 1 133.7256 24.0865 39.8197 0.0000 0.0000 0.0000
# 2 24.0865 46.1477 21.2942 0.0000 0.0000 0.0000
# 3 39.8197 21.2942 30.6829 0.0000 0.0000 0.0000
# 4 0.0000 0.0000 0.0000 30.7887 0.0000 0.0000
# 5 0.0000 0.0000 0.0000 0.0000 12.3686 0.0000
# 6 0.0000 0.0000 0.0000 0.0000 0.0000 1.3255
#
#
#
# Elastic Compliance Matrix: (Units=1/GPa)
#
#
# Indices 1 2 3 4 5 6 
#
# 1 0.012248 0.001386 -0.016857 0.000000 0.000000 0.000000
# 2 0.001386 0.032035 -0.024031 0.000000 0.000000 0.000000
# 3 -0.016857 -0.024031 0.071145 0.000000 0.000000 0.000000
# 4 0.000000 0.000000 0.000000 0.032479 0.000000 0.000000
# 5 0.000000 0.000000 0.000000 0.000000 0.080850 0.000000
# 6 0.000000 0.000000 0.000000 0.000000 0.000000 0.754433
#
#
# Mechanical properties :
#
#
# Convention : Reuss Voigt Hill
#
# Bulk Modulus (GPa) = 27.45411 42.32855 34.89133
# Shear Modulus (GPa) = 4.65404 17.25362 10.95383
#
# Velocity S-wave (km/s) = 1.57574 3.03396 2.41743
# Velocity P-wave (km/s) = 4.23764 5.90388 5.13875
#
# Compressibility (1/GPa) = 0.03642443
#
# Stress axis : x y z
#
# Youngs Moduli (GPa) = 81.64712 31.21588 14.05584
#
# Poissons Ratio (x) = -0.04325 0.23693
# Poissons Ratio (y) = -0.11312 0.33777
# Poissons Ratio (z) = 1.37629 0.75014
#
# Static dielectric constant tensor:
#      x y z
#    x 1.663810 0.000000 0.000000 
#    y 0.000000 1.519740 0.000000 
#    z 0.000000 0.000000 1.664260 
# 
# From -- ./inp_files/7237.got.cif
#   From: 2010.05.17/outbox.cif.g08.bks.cpg/sg57_4_cif.got.tgz:7237.got - 2010.06.03 13:58:18.
