data_PCOD9435470
_publ_section_title
;
Structure prediction by ZEFSAII (Michael W. Deem and Ramdas Pophale) SiO2 
 PCOD9435470
Probable space group: P B C M
;
_chemical_formula_sum "Si O2"
_cell_formula_units_Z 64
_cell_length_a 16.913650
_cell_length_b 21.967321
_cell_length_c 9.133158
_cell_angle_alpha 90.000000
_cell_angle_beta 90.000000
_cell_angle_gamma 90.000000
_cell_volume 3393.402742
_symmetry_space_group_name_H-M "P B C M"
_symmetry_group_IT_number 57
_symmetry_cell_setting 'orthorhombic'
loop_
_space_group_symop_operation_xyz
x,y,z
-x,-y,1/2+z
x,1/2-y,-z
-x,1/2+y,1/2-z
-x,-y,-z
x,y,1/2-z
-x,1/2+y,z
x,1/2-y,1/2+z
loop_
_atom_site_type_symbol
_atom_site_label
_atom_site_fract_x
_atom_site_fract_y
_atom_site_fract_z
Si Si1 0.023338 0.416939 0.417448
Si Si2 0.856080 0.804697 0.416142
Si Si3 0.273924 0.374973 0.575091
Si Si4 0.706238 0.185342 0.073685
Si Si5 0.843057 0.516084 0.423192
Si Si6 0.583089 0.932378 0.075391
Si Si7 0.413357 0.573330 0.074341
Si Si8 0.152188 0.880058 0.425636
O O1 0.009912 0.437546 0.250000
O O2 0.084999 0.361316 0.415794
O O3 0.073297 0.467707 0.503387
O O4 0.939799 0.389305 0.470031
O O5 0.897193 0.750000 0.500000
O O6 0.836943 0.788768 0.250000
O O7 0.777457 0.821485 0.505262
O O8 0.279062 0.369827 0.750000
O O9 0.222292 0.434867 0.535207
O O10 0.357717 0.385878 0.501843
O O11 0.708068 0.191442 0.250000
O O12 0.647325 0.128222 0.037547
O O13 0.683024 0.250000 0.000000
O O14 0.792725 0.166612 0.011553
O O15 0.854369 0.521406 0.250000
O O16 0.815165 0.448082 0.454663
O O17 0.583692 0.925137 0.250000
O O18 0.610013 0.002608 0.043161
O O19 0.495907 0.921161 0.011450
O O20 0.426795 0.576577 0.250000
O O21 0.154781 0.867743 0.250000
#
# Coordination Sequence:
#
# PCOD9435470 Si02
#       8
#     8   8   8   8   8   8   8   8
#     4   9  19  33  51  76 107 141 178 225 276 324
#     4  10  20  35  52  71  98 135 177 219 264 313
#     4  10  19  32  51  78 110 141 172 210 258 312
#     4  11  24  41  59  79 107 146 188 228 271 320
#     4   9  18  31  51  79 111 145 179 219 269 322
#     4  10  19  33  58  89 114 137 171 215 264 321
#     4   9  20  38  58  82 112 143 175 216 269 323
#     4  10  20  35  54  79 109 141 181 226 271 320
#
# _framework density 18.860123999999999
#
# number of rings (size 3 to 8) (size 9 to 14) (size 15 to 20)
#    0.000    2.250    0.000    2.625    0.000    4.000 
#    0.000    1.875    0.000    1.500    0.000    0.000 
#    0.000    0.000    0.000    0.000    0.000    0.000 
#
# Total GULP energy -356782.445760 kJ/mol
# GULP energy per Si atom -5574.725715 kJ/mol
# Density = 1.881720 g / cm^3
# Si number density = 18.860124 Si / 1000 Ang^3
#
#
#
# Elastic Constant Matrix: (Units=GPa)
#
#
# Indices 1 2 3 4 5 6 
#
# 1 75.3568 23.9437 31.7810 0.0000 0.0000 0.0000
# 2 23.9437 58.2516 27.2059 0.0000 0.0000 0.0000
# 3 31.7810 27.2059 38.8902 0.0000 0.0000 0.0000
# 4 0.0000 0.0000 0.0000 29.2326 0.0000 0.0000
# 5 0.0000 0.0000 0.0000 0.0000 30.5126 0.0000
# 6 0.0000 0.0000 0.0000 0.0000 0.0000 23.9842
#
#
#
# Elastic Compliance Matrix: (Units=1/GPa)
#
#
# Indices 1 2 3 4 5 6 
#
# 1 0.020280 -0.000885 -0.015953 0.000000 0.000000 0.000000
# 2 -0.000885 0.025536 -0.017141 0.000000 0.000000 0.000000
# 3 -0.015953 -0.017141 0.050742 0.000000 0.000000 0.000000
# 4 0.000000 0.000000 0.000000 0.034208 0.000000 0.000000
# 5 0.000000 0.000000 0.000000 0.000000 0.032773 0.000000
# 6 0.000000 0.000000 0.000000 0.000000 0.000000 0.041694
#
#
# Mechanical properties :
#
#
# Convention : Reuss Voigt Hill
#
# Bulk Modulus (GPa) = 34.96634 37.59554 36.28094
# Shear Modulus (GPa) = 17.68507 22.71709 20.20108
#
# Velocity S-wave (km/s) = 3.06550 3.47436 3.27632
# Velocity P-wave (km/s) = 5.57762 6.00600 5.79577
#
# Compressibility (1/GPa) = 0.02859893
#
# Stress axis : x y z
#
# Youngs Moduli (GPa) = 49.31074 39.16025 19.70770
#
# Poissons Ratio (x) = 0.03465 0.31441
# Poissons Ratio (y) = 0.04363 0.33781
# Poissons Ratio (z) = 0.78668 0.67124
#
# Static dielectric constant tensor:
#      x y z
#    x 1.650740 0.000000 0.000000 
#    y 0.000000 1.784440 0.000000 
#    z 0.000000 0.000000 1.640920 
# 
# From -- ./inp_files/5533.got.cif
#   From: 2010.05.17/outbox.cif.g08.bks.cpg/sg57_3_cif.got.tgz:5533.got - 2010.06.03 13:58:18.
