data_PCOD9435518
_publ_section_title
;
Structure prediction by ZEFSAII (Michael W. Deem and Ramdas Pophale) SiO2 
 PCOD9435518
Probable space group: P B C M
;
_chemical_formula_sum "Si O2"
_cell_formula_units_Z 48
_cell_length_a 13.208070
_cell_length_b 23.202909
_cell_length_c 8.671738
_cell_angle_alpha 90.000000
_cell_angle_beta 90.000000
_cell_angle_gamma 90.000000
_cell_volume 2657.589791
_symmetry_space_group_name_H-M "P B C M"
_symmetry_group_IT_number 57
_symmetry_cell_setting 'orthorhombic'
loop_
_space_group_symop_operation_xyz
x,y,z
-x,-y,1/2+z
x,1/2-y,-z
-x,1/2+y,1/2-z
-x,-y,-z
x,y,1/2-z
-x,1/2+y,z
x,1/2-y,1/2+z
loop_
_atom_site_type_symbol
_atom_site_label
_atom_site_fract_x
_atom_site_fract_y
_atom_site_fract_z
Si Si1 0.392906 0.931356 0.563389
Si Si2 0.807964 0.883836 0.924878
Si Si3 0.892710 0.488035 0.074230
Si Si4 0.002576 0.185922 0.566387
Si Si5 0.807420 0.377589 0.930651
Si Si6 0.614456 0.934443 0.434546
O O1 0.394008 0.930992 0.750000
O O2 0.308970 0.884018 0.513723
O O3 0.504035 0.918837 0.499158
O O4 0.368296 0.998053 0.515336
O O5 0.796899 0.861823 0.750000
O O6 0.840116 0.950598 0.918072
O O7 0.900935 0.850540 0.004891
O O8 0.699908 0.889909 0.008221
O O9 0.898815 0.464551 0.250000
O O10 0.841847 0.443124 0.959948
O O11 0.000000 0.500000 0.000000
O O12 0.010720 0.250000 0.500000
O O13 0.005602 0.186360 0.750000
O O14 0.894290 0.159656 0.512641
O O15 0.808754 0.362839 0.750000
O O16 0.613831 0.934609 0.250000
#
# Coordination Sequence:
#
# PCOD9435518 Si02
#       6
#     8   8   8   8   8   8
#     4   9  19  33  51  79 117 156 189 227 275 334
#     4  11  22  36  56  82 116 152 189 231 281 337
#     4  11  21  31  50  80 115 150 185 227 279 342
#     4  12  26  43  62  83 110 145 191 238 289 340
#     4  11  21  36  57  82 116 151 189 232 282 338
#     4  10  19  32  52  81 117 155 192 229 275 333
#
# _framework density 18.061478000000001
#
# number of rings (size 3 to 8) (size 9 to 14) (size 15 to 20)
#    0.000    1.333    3.333    3.500    0.000    3.333 
#    0.000    0.000    0.000    1.000    0.000    2.333 
#    0.000    0.000    0.000    0.000    0.000    0.000 
#
# Total GULP energy -267580.811611 kJ/mol
# GULP energy per Si atom -5574.600242 kJ/mol
# Density = 1.802037 g / cm^3
# Si number density = 18.061478 Si / 1000 Ang^3
#
#
#
# Elastic Constant Matrix: (Units=GPa)
#
#
# Indices 1 2 3 4 5 6 
#
# 1 151.8187 37.0504 50.5583 0.0000 0.0000 0.0000
# 2 37.0504 61.3785 25.3574 0.0000 0.0000 0.0000
# 3 50.5583 25.3574 75.1897 0.0000 0.0000 0.0000
# 4 0.0000 0.0000 0.0000 25.3882 0.0000 0.0000
# 5 0.0000 0.0000 0.0000 0.0000 21.2211 0.0000
# 6 0.0000 0.0000 0.0000 0.0000 0.0000 7.8713
#
#
#
# Elastic Compliance Matrix: (Units=1/GPa)
#
#
# Indices 1 2 3 4 5 6 
#
# 1 0.009070 -0.003434 -0.004941 0.000000 0.000000 0.000000
# 2 -0.003434 0.020230 -0.004513 0.000000 0.000000 0.000000
# 3 -0.004941 -0.004513 0.018144 0.000000 0.000000 0.000000
# 4 0.000000 0.000000 0.000000 0.039388 0.000000 0.000000
# 5 0.000000 0.000000 0.000000 0.000000 0.047123 0.000000
# 6 0.000000 0.000000 0.000000 0.000000 0.000000 0.127044
#
#
# Mechanical properties :
#
#
# Convention : Reuss Voigt Hill
#
# Bulk Modulus (GPa) = 46.15142 57.14656 51.64899
# Shear Modulus (GPa) = 17.00688 22.59082 19.79885
#
# Velocity S-wave (km/s) = 3.07190 3.54046 3.31447
# Velocity P-wave (km/s) = 6.17980 6.95858 6.58072
#
# Compressibility (1/GPa) = 0.02166781
#
# Stress axis : x y z
#
# Youngs Moduli (GPa) = 110.25099 49.43196 55.11431
#
# Poissons Ratio (x) = 0.16974 0.27231
# Poissons Ratio (y) = 0.37859 0.24875
# Poissons Ratio (z) = 0.54473 0.22311
#
# Static dielectric constant tensor:
#      x y z
#    x 1.674640 0.000000 0.000000 
#    y 0.000000 1.607920 0.000000 
#    z 0.000000 0.000000 1.644400 
# 
# From -- ./inp_files/3096.got.cif
#   From: 2010.05.17/outbox.cif.g08.bks.cpg/sg57_2_cif.got.tgz:3096.got - 2010.06.03 13:58:18.
