data_PCOD9435299
_publ_section_title
;
Structure prediction by ZEFSAII (Michael W. Deem and Ramdas Pophale) SiO2 
 PCOD9435299
Probable space group: P B C M
;
_chemical_formula_sum "Si O2"
_cell_formula_units_Z 64
_cell_length_a 24.244657
_cell_length_b 14.934800
_cell_length_c 8.800613
_cell_angle_alpha 90.000000
_cell_angle_beta 90.000000
_cell_angle_gamma 90.000000
_cell_volume 3186.606070
_symmetry_space_group_name_H-M "P B C M"
_symmetry_group_IT_number 57
_symmetry_cell_setting 'orthorhombic'
loop_
_space_group_symop_operation_xyz
x,y,z
-x,-y,1/2+z
x,1/2-y,-z
-x,1/2+y,1/2-z
-x,-y,-z
x,y,1/2-z
-x,1/2+y,z
x,1/2-y,1/2+z
loop_
_atom_site_type_symbol
_atom_site_label
_atom_site_fract_x
_atom_site_fract_y
_atom_site_fract_z
Si Si1 0.477530 0.091327 0.926902
Si Si2 0.678124 0.023842 0.430727
Si Si3 0.104092 0.156401 0.431895
Si Si4 0.974499 0.344780 0.568567
Si Si5 0.402550 0.842022 0.073762
Si Si6 0.119382 0.960359 0.432729
Si Si7 0.227804 0.650789 0.932532
Si Si8 0.363019 0.346228 0.931339
O O1 0.462091 0.077772 0.750000
O O2 0.531280 0.154396 0.930755
O O3 0.425404 0.130135 0.015523
O O4 0.500000 0.000000 0.000000
O O5 0.682025 0.018787 0.250000
O O6 0.622501 0.075601 0.481032
O O7 0.726267 0.085024 0.499359
O O8 0.674810 0.925660 0.503287
O O9 0.124470 0.250000 0.500000
O O10 0.107812 0.163358 0.250000
O O11 0.039064 0.146386 0.472359
O O12 0.131389 0.062785 0.480511
O O13 0.955061 0.250000 0.500000
O O14 0.970342 0.342286 0.750000
O O15 0.936738 0.423197 0.503902
O O16 0.385460 0.849090 0.250000
O O17 0.382431 0.750000 0.000000
O O18 0.113082 0.961023 0.250000
O O19 0.168790 0.893254 0.471430
O O20 0.233045 0.654307 0.750000
O O21 0.232693 0.750000 0.000000
O O22 0.360605 0.344635 0.750000
O O23 0.348390 0.250000 0.000000
#
# Coordination Sequence:
#
# PCOD9435299 Si02
#       8
#     8   8   8   8   8   8   8   8
#     4  11  22  37  60  90 126 165 203 244 294 352
#     4  12  25  43  66  89 117 153 198 248 301 359
#     4   9  19  35  54  82 118 158 200 242 293 348
#     4  10  19  31  52  82 119 158 198 244 293 354
#     4  11  23  38  59  88 121 158 197 240 291 350
#     4  10  21  37  58  84 117 156 199 248 300 355
#     4  11  24  43  65  89 119 153 193 245 302 359
#     4  12  25  43  66  93 126 162 204 250 298 355
#
# _framework density 20.084064999999999
#
# number of rings (size 3 to 8) (size 9 to 14) (size 15 to 20)
#    0.000    1.250    1.250    5.250    0.000    5.500 
#    0.000    0.625    0.000    1.500    0.000    0.000 
#    0.000    0.000    0.000    0.000    0.000    0.000 
#
# Total GULP energy -357868.564948 kJ/mol
# GULP energy per Si atom -5591.696327 kJ/mol
# Density = 2.003835 g / cm^3
# Si number density = 20.084065 Si / 1000 Ang^3
#
#
#
# Elastic Constant Matrix: (Units=GPa)
#
#
# Indices 1 2 3 4 5 6 
#
# 1 43.7804 31.3570 31.0743 0.0000 0.0000 0.0000
# 2 31.3570 182.5965 64.5455 0.0000 0.0000 0.0000
# 3 31.0743 64.5455 111.6415 0.0000 0.0000 0.0000
# 4 0.0000 0.0000 0.0000 34.5065 0.0000 0.0000
# 5 0.0000 0.0000 0.0000 0.0000 17.0505 0.0000
# 6 0.0000 0.0000 0.0000 0.0000 0.0000 28.8544
#
#
#
# Elastic Compliance Matrix: (Units=1/GPa)
#
#
# Indices 1 2 3 4 5 6 
#
# 1 0.029501 -0.002719 -0.006639 0.000000 0.000000 0.000000
# 2 -0.002719 0.007134 -0.003368 0.000000 0.000000 0.000000
# 3 -0.006639 -0.003368 0.012752 0.000000 0.000000 0.000000
# 4 0.000000 0.000000 0.000000 0.028980 0.000000 0.000000
# 5 0.000000 0.000000 0.000000 0.000000 0.058649 0.000000
# 6 0.000000 0.000000 0.000000 0.000000 0.000000 0.034657
#
#
# Mechanical properties :
#
#
# Convention : Reuss Voigt Hill
#
# Bulk Modulus (GPa) = 41.77953 65.77467 53.77710
# Shear Modulus (GPa) = 24.37784 30.15171 27.26477
#
# Velocity S-wave (km/s) = 3.48773 3.87883 3.68847
# Velocity P-wave (km/s) = 6.08823 7.27195 6.70626
#
# Compressibility (1/GPa) = 0.02393517
#
# Stress axis : x y z
#
# Youngs Moduli (GPa) = 33.89675 140.17493 78.41799
#
# Poissons Ratio (x) = 0.38118 0.52064
# Poissons Ratio (y) = 0.09218 0.26408
# Poissons Ratio (z) = 0.22505 0.47205
#
# Static dielectric constant tensor:
#      x y z
#    x 1.720520 0.000000 0.000000 
#    y 0.000000 1.715780 0.000000 
#    z 0.000000 0.000000 1.672690 
# 
# From -- ./inp_files/9495.got.cif
#   From: 2010.05.17/outbox.cif.g08.bks.cpg/sg57_5_cif.got.tgz:9495.got - 2010.06.03 13:58:18.
