data_PCOD9435617
_publ_section_title
;
Structure prediction by ZEFSAII (Michael W. Deem and Ramdas Pophale) SiO2 
 PCOD9435617
Probable space group: P B C M
;
_chemical_formula_sum "Si O2"
_cell_formula_units_Z 64
_cell_length_a 19.800688
_cell_length_b 23.860390
_cell_length_c 8.578819
_cell_angle_alpha 90.000000
_cell_angle_beta 90.000000
_cell_angle_gamma 90.000000
_cell_volume 4053.081378
_symmetry_space_group_name_H-M "P B C M"
_symmetry_group_IT_number 57
_symmetry_cell_setting 'orthorhombic'
loop_
_space_group_symop_operation_xyz
x,y,z
-x,-y,1/2+z
x,1/2-y,-z
-x,1/2+y,1/2-z
-x,-y,-z
x,y,1/2-z
-x,1/2+y,z
x,1/2-y,1/2+z
loop_
_atom_site_type_symbol
_atom_site_label
_atom_site_fract_x
_atom_site_fract_y
_atom_site_fract_z
Si Si1 0.747978 0.502494 0.439883
Si Si2 0.399359 0.525889 0.562052
Si Si3 0.885543 0.687948 0.936921
Si Si4 0.388924 0.187988 0.564985
Si Si5 0.251741 0.366633 0.937332
Si Si6 0.895480 0.477798 0.061709
Si Si7 0.974974 0.585416 0.561660
Si Si8 0.523412 0.589552 0.435520
O O1 0.747141 0.502069 0.250000
O O2 0.678371 0.473644 0.489982
O O3 0.747751 0.568006 0.486236
O O4 0.818103 0.474644 0.492087
O O5 0.402557 0.531481 0.750000
O O6 0.448598 0.571426 0.486852
O O7 0.429675 0.464306 0.523652
O O8 0.883342 0.689286 0.750000
O O9 0.944267 0.644725 0.986900
O O10 0.896121 0.750000 0.000000
O O11 0.814633 0.663526 0.997933
O O12 0.401368 0.250000 0.500000
O O13 0.382920 0.190421 0.750000
O O14 0.319056 0.163929 0.495321
O O15 0.447087 0.144336 0.516640
O O16 0.250369 0.364994 0.750000
O O17 0.894733 0.478872 0.250000
O O18 0.948652 0.429938 0.012574
O O19 0.927393 0.536210 0.004003
O O20 0.972464 0.582699 0.750000
O O21 0.526990 0.596930 0.250000
#
# Coordination Sequence:
#
# PCOD9435617 Si02
#       8
#     8   8   8   8   8   8   8   8
#     4   9  16  28  49  73  97 127 160 194 237 292
#     4   9  17  31  49  71  98 127 161 199 242 292
#     4  11  22  34  46  66  94 130 168 205 239 282
#     4  12  24  37  52  71  97 133 169 205 243 285
#     4  11  20  34  50  70  98 131 167 203 236 282
#     4   9  16  29  49  70  93 124 156 194 245 293
#     4   9  18  30  45  68  95 120 157 203 243 286
#     4  10  19  33  50  72  99 128 163 203 242 286
#
# _framework density 15.790455
#
# number of rings (size 3 to 8) (size 9 to 14) (size 15 to 20)
#    0.000    2.000    2.500    2.625    0.000    1.000 
#    0.000    0.625    0.000    0.000    0.000    0.875 
#    0.000    2.000    0.000    0.000    0.000    0.000 
#
# Total GULP energy -357060.399444 kJ/mol
# GULP energy per Si atom -5579.068741 kJ/mol
# Density = 1.575452 g / cm^3
# Si number density = 15.790455 Si / 1000 Ang^3
#
#
#
# Elastic Constant Matrix: (Units=GPa)
#
#
# Indices 1 2 3 4 5 6 
#
# 1 147.0092 69.0250 24.6592 0.0000 0.0000 0.0000
# 2 69.0250 95.1896 27.6855 0.0000 0.0000 0.0000
# 3 24.6592 27.6855 34.6063 0.0000 0.0000 0.0000
# 4 0.0000 0.0000 0.0000 18.9398 0.0000 0.0000
# 5 0.0000 0.0000 0.0000 0.0000 12.5482 0.0000
# 6 0.0000 0.0000 0.0000 0.0000 0.0000 17.8259
#
#
#
# Elastic Compliance Matrix: (Units=1/GPa)
#
#
# Indices 1 2 3 4 5 6 
#
# 1 0.010399 -0.007018 -0.001795 0.000000 0.000000 0.000000
# 2 -0.007018 0.018428 -0.009742 0.000000 0.000000 0.000000
# 3 -0.001795 -0.009742 0.037969 0.000000 0.000000 0.000000
# 4 0.000000 0.000000 0.000000 0.052799 0.000000 0.000000
# 5 0.000000 0.000000 0.000000 0.000000 0.079693 0.000000
# 6 0.000000 0.000000 0.000000 0.000000 0.000000 0.056098
#
#
# Mechanical properties :
#
#
# Convention : Reuss Voigt Hill
#
# Bulk Modulus (GPa) = 33.68622 57.72716 45.70669
# Shear Modulus (GPa) = 16.53494 20.22515 18.38005
#
# Velocity S-wave (km/s) = 3.23948 3.58277 3.41544
# Velocity P-wave (km/s) = 5.94743 7.33162 6.67550
#
# Compressibility (1/GPa) = 0.02968573
#
# Stress axis : x y z
#
# Youngs Moduli (GPa) = 96.16585 54.26559 26.33742
#
# Poissons Ratio (x) = 0.38086 0.04727
# Poissons Ratio (y) = 0.67493 0.25657
# Poissons Ratio (z) = 0.17261 0.52863
#
# Static dielectric constant tensor:
#      x y z
#    x 1.540500 0.000000 0.000000 
#    y 0.000000 1.503160 0.000000 
#    z 0.000000 0.000000 1.530970 
# 
# From -- ./inp_files/8747.got.cif
#   From: 2010.05.17/outbox.cif.g08.bks.cpg/sg57_5_cif.got.tgz:8747.got - 2010.06.03 13:58:18.
