data_PCOD9435352
_publ_section_title
;
Structure prediction by ZEFSAII (Michael W. Deem and Ramdas Pophale) SiO2 
 PCOD9435352
Probable space group: P B C M
;
_chemical_formula_sum "Si O2"
_cell_formula_units_Z 40
_cell_length_a 15.489194
_cell_length_b 12.978604
_cell_length_c 9.176431
_cell_angle_alpha 90.000000
_cell_angle_beta 90.000000
_cell_angle_gamma 90.000000
_cell_volume 1844.720628
_symmetry_space_group_name_H-M "P B C M"
_symmetry_group_IT_number 57
_symmetry_cell_setting 'orthorhombic'
loop_
_space_group_symop_operation_xyz
x,y,z
-x,-y,1/2+z
x,1/2-y,-z
-x,1/2+y,1/2-z
-x,-y,-z
x,y,1/2-z
-x,1/2+y,z
x,1/2-y,1/2+z
loop_
_atom_site_type_symbol
_atom_site_label
_atom_site_fract_x
_atom_site_fract_y
_atom_site_fract_z
Si Si1 0.444616 0.649632 0.078182
Si Si2 0.828645 0.148844 0.080147
Si Si3 0.380692 0.079966 0.577866
Si Si4 0.793069 0.929120 0.575038
Si Si5 0.977216 0.601832 0.415606
O O1 0.454808 0.667964 0.250000
O O2 0.390835 0.544304 0.059846
O O3 0.407197 0.750000 0.000000
O O4 0.537122 0.627959 0.003201
O O5 0.800600 0.139099 0.250000
O O6 0.933422 0.162866 0.083499
O O7 0.793590 0.250000 0.000000
O O8 0.808422 0.044722 0.990409
O O9 0.383161 0.102713 0.750000
O O10 0.291553 0.112705 0.504445
O O11 0.779184 0.931984 0.750000
O O12 0.881129 0.866503 0.536845
O O13 0.963163 0.570661 0.250000
O O14 0.000000 0.500000 0.500000
#
# Coordination Sequence:
#
# PCOD9435352 Si02
#       5
#     8   8   8   8   8
#     4  10  21  38  60  83 109 142 180 223 273 329
#     4  10  19  32  49  72 102 135 174 218 265 315
#     4  10  21  37  57  83 113 145 182 223 271 327
#     4  10  19  33  53  76 103 136 174 217 265 315
#     4   8  16  30  48  68  93 128 167 206 249 299
#
# _framework density 21.683499999999999
#
# number of rings (size 3 to 8) (size 9 to 14) (size 15 to 20)
#    0.000    2.400    0.000    2.400    0.000    4.800 
#    0.000    3.000    0.000    2.400    0.000    0.000 
#    0.000    0.000    0.000    0.000    0.000    0.000 
#
# Total GULP energy -223087.072139 kJ/mol
# GULP energy per Si atom -5577.176803 kJ/mol
# Density = 2.163415 g / cm^3
# Si number density = 21.683500 Si / 1000 Ang^3
#
#
#
# Elastic Constant Matrix: (Units=GPa)
#
#
# Indices 1 2 3 4 5 6 
#
# 1 146.5440 -9.0862 44.0706 0.0000 0.0000 0.0000
# 2 -9.0862 66.2222 38.6080 0.0000 0.0000 0.0000
# 3 44.0706 38.6080 101.2193 0.0000 0.0000 0.0000
# 4 0.0000 0.0000 0.0000 22.7310 0.0000 0.0000
# 5 0.0000 0.0000 0.0000 0.0000 30.5078 0.0000
# 6 0.0000 0.0000 0.0000 0.0000 0.0000 -5.8212
#
#
#
# Elastic Compliance Matrix: (Units=1/GPa)
#
#
# Indices 1 2 3 4 5 6 
#
# 1 0.008746 0.004398 -0.005486 0.000000 0.000000 0.000000
# 2 0.004398 0.021631 -0.010166 0.000000 0.000000 0.000000
# 3 -0.005486 -0.010166 0.016146 0.000000 0.000000 0.000000
# 4 0.000000 0.000000 0.000000 0.043993 0.000000 0.000000
# 5 0.000000 0.000000 0.000000 0.000000 0.032779 0.000000
# 6 0.000000 0.000000 0.000000 0.000000 0.000000 -0.171787
#
#
# Mechanical properties :
#
#
# Convention : Reuss Voigt Hill
#
# Bulk Modulus (GPa) = 41.63811 51.24114 46.43962
# Shear Modulus (GPa) = -278.06523 25.50973 -126.27775
#
# Velocity S-wave (km/s) = -11.33651 3.43367 -7.63958
# Velocity P-wave (km/s) = 12.33333 6.27717 7.50694
#
# Compressibility (1/GPa) = 0.02401646
#
# Stress axis : x y z
#
# Youngs Moduli (GPa) = 114.33337 46.23034 61.93671
#
# Poissons Ratio (x) = -0.20334 0.33977
# Poissons Ratio (y) = -0.50287 0.62963
# Poissons Ratio (z) = 0.62721 0.46996
#
# Static dielectric constant tensor:
#      x y z
#    x 1.821560 0.000000 0.000000 
#    y 0.000000 1.784390 0.000000 
#    z 0.000000 0.000000 1.726370 
# 
# From -- ./inp_files/4271.got.cif
#   From: 2010.05.17/outbox.cif.g08.bks.cpg/sg57_3_cif.got.tgz:4271.got - 2010.06.03 13:58:18.
