data_PCOD9435904
_publ_section_title
;
Structure prediction by ZEFSAII (Michael W. Deem and Ramdas Pophale) SiO2 
 PCOD9435904
Probable space group: P B C M
;
_chemical_formula_sum "Si O2"
_cell_formula_units_Z 48
_cell_length_a 10.100143
_cell_length_b 28.199350
_cell_length_c 8.834934
_cell_angle_alpha 90.000000
_cell_angle_beta 90.000000
_cell_angle_gamma 90.000000
_cell_volume 2516.343527
_symmetry_space_group_name_H-M "P B C M"
_symmetry_group_IT_number 57
_symmetry_cell_setting 'orthorhombic'
loop_
_space_group_symop_operation_xyz
x,y,z
-x,-y,1/2+z
x,1/2-y,-z
-x,1/2+y,1/2-z
-x,-y,-z
x,y,1/2-z
-x,1/2+y,z
x,1/2-y,1/2+z
loop_
_atom_site_type_symbol
_atom_site_label
_atom_site_fract_x
_atom_site_fract_y
_atom_site_fract_z
Si Si1 0.535914 0.800169 0.431948
Si Si2 0.811164 0.666619 0.431797
Si Si3 0.687939 0.125776 0.931089
Si Si4 0.914882 0.201071 0.568896
Si Si5 0.119904 0.059275 0.431532
Si Si6 0.816522 0.462120 0.930533
O O1 0.490205 0.750000 0.500000
O O2 0.536268 0.796934 0.250000
O O3 0.681675 0.811030 0.494240
O O4 0.439411 0.843427 0.476787
O O5 0.806784 0.671585 0.250000
O O6 0.823240 0.610716 0.470358
O O7 0.943137 0.690777 0.495688
O O8 0.683630 0.119520 0.750000
O O9 0.814814 0.158551 0.967627
O O10 0.710844 0.075184 0.007212
O O11 0.862640 0.250000 0.500000
O O12 0.925865 0.204794 0.750000
O O13 0.124270 0.054113 0.250000
O O14 0.964827 0.055342 0.477737
O O15 0.194937 0.015192 0.506033
O O16 0.812187 0.462816 0.750000
#
# Coordination Sequence:
#
# PCOD9435904 Si02
#       6
#     8   8   8   8   8   8
#     4  11  24  42  61  84 115 156 198 239 290 346
#     4  11  22  39  60  85 116 152 193 238 287 342
#     4  10  22  39  59  84 116 152 192 238 289 343
#     4  11  22  36  57  84 113 147 188 240 291 340
#     4   9  19  35  56  85 119 152 187 234 289 343
#     4  10  19  33  58  89 118 150 189 236 289 344
#
# _framework density 19.075296999999999
#
# number of rings (size 3 to 8) (size 9 to 14) (size 15 to 20)
#    0.000    1.667    1.667    3.000    0.000    4.000 
#    0.000    0.833    0.000    0.000    0.000    0.000 
#    0.000    0.000    0.000    0.000    0.000    0.000 
#
# Total GULP energy -268245.153155 kJ/mol
# GULP energy per Si atom -5588.440691 kJ/mol
# Density = 1.903188 g / cm^3
# Si number density = 19.075297 Si / 1000 Ang^3
#
#
#
# Elastic Constant Matrix: (Units=GPa)
#
#
# Indices 1 2 3 4 5 6 
#
# 1 47.4129 -10.4613 10.1342 0.0000 0.0000 0.0000
# 2 -10.4613 81.5242 22.9922 0.0000 0.0000 0.0000
# 3 10.1342 22.9922 31.6867 0.0000 0.0000 0.0000
# 4 0.0000 0.0000 0.0000 35.1737 0.0000 0.0000
# 5 0.0000 0.0000 0.0000 0.0000 9.7304 0.0000
# 6 0.0000 0.0000 0.0000 0.0000 0.0000 24.1939
#
#
#
# Elastic Compliance Matrix: (Units=1/GPa)
#
#
# Indices 1 2 3 4 5 6 
#
# 1 0.025460 0.006995 -0.013218 0.000000 0.000000 0.000000
# 2 0.006995 0.017344 -0.014822 0.000000 0.000000 0.000000
# 3 -0.013218 -0.014822 0.046542 0.000000 0.000000 0.000000
# 4 0.000000 0.000000 0.000000 0.028430 0.000000 0.000000
# 5 0.000000 0.000000 0.000000 0.000000 0.102771 0.000000
# 6 0.000000 0.000000 0.000000 0.000000 0.000000 0.041333
#
#
# Mechanical properties :
#
#
# Convention : Reuss Voigt Hill
#
# Bulk Modulus (GPa) = 21.16194 22.88378 22.02286
# Shear Modulus (GPa) = 15.63853 23.01684 19.32768
#
# Velocity S-wave (km/s) = 2.86638 3.47743 3.18658
# Velocity P-wave (km/s) = 4.69817 5.30527 5.01092
#
# Compressibility (1/GPa) = 0.04725465
#
# Stress axis : x y z
#
# Youngs Moduli (GPa) = 39.27720 57.65604 21.48608
#
# Poissons Ratio (x) = -0.40331 0.28401
# Poissons Ratio (y) = -0.27475 0.31847
# Poissons Ratio (z) = 0.51918 0.85460
#
# Static dielectric constant tensor:
#      x y z
#    x 1.650040 0.000000 0.000000 
#    y 0.000000 1.668770 0.000000 
#    z 0.000000 0.000000 1.630570 
# 
# From -- ./inp_files/2051.got.cif
#   From: 2010.05.17/outbox.cif.g08.bks.cpg/sg57_2_cif.got.tgz:2051.got - 2010.06.03 13:58:18.
