data_PCOD9435271
_publ_section_title
;
Structure prediction by ZEFSAII (Michael W. Deem and Ramdas Pophale) SiO2 
 PCOD9435271
Probable space group: P B C M
;
_chemical_formula_sum "Si O2"
_cell_formula_units_Z 40
_cell_length_a 10.136719
_cell_length_b 14.193085
_cell_length_c 13.952889
_cell_angle_alpha 90.000000
_cell_angle_beta 90.000000
_cell_angle_gamma 90.000000
_cell_volume 2007.420480
_symmetry_space_group_name_H-M "P B C M"
_symmetry_group_IT_number 57
_symmetry_cell_setting 'orthorhombic'
loop_
_space_group_symop_operation_xyz
x,y,z
-x,-y,1/2+z
x,1/2-y,-z
-x,1/2+y,1/2-z
-x,-y,-z
x,y,1/2-z
-x,1/2+y,z
x,1/2-y,1/2+z
loop_
_atom_site_type_symbol
_atom_site_label
_atom_site_fract_x
_atom_site_fract_y
_atom_site_fract_z
Si Si1 0.702267 0.436739 0.360319
Si Si2 0.078738 0.351406 0.971160
Si Si3 0.506783 0.710840 0.638712
Si Si4 0.627097 0.879430 0.959082
Si Si5 0.988789 0.979225 0.139698
O O1 0.674399 0.466153 0.250000
O O2 0.638337 0.334443 0.372899
O O3 0.634037 0.511753 0.430724
O O4 0.859433 0.443137 0.371570
O O5 0.091976 0.416130 0.065866
O O6 0.025038 0.250000 0.000000
O O7 0.226965 0.340986 0.931439
O O8 0.993473 0.413262 0.897661
O O9 0.543403 0.704729 0.750000
O O10 0.523814 0.816967 0.601127
O O11 0.596880 0.647041 0.568666
O O12 0.950155 0.971766 0.250000
#
# Coordination Sequence:
#
# PCOD9435271 Si02
#       5
#     8   8   8   8   8
#     4   9  18  34  54  75 105 142 175 214 267 322
#     4  10  19  36  55  81 109 139 185 225 270 329
#     4  10  19  31  51  78 105 137 180 216 257 318
#     4  10  19  34  52  79 108 140 176 219 269 309
#     4   9  20  36  56  79 108 144 180 224 277 324
#
# _framework density 19.926068999999998
#
# number of rings (size 3 to 8) (size 9 to 14) (size 15 to 20)
#    0.000    2.400    2.000    1.200    0.000    2.400 
#    3.600    0.000    0.000    0.000    0.000    0.000 
#    0.000    0.000    0.000    0.000    0.000    0.000 
#
# Total GULP energy -222964.567098 kJ/mol
# GULP energy per Si atom -5574.114177 kJ/mol
# Density = 1.988072 g / cm^3
# Si number density = 19.926069 Si / 1000 Ang^3
#
#
#
# Elastic Constant Matrix: (Units=GPa)
#
#
# Indices 1 2 3 4 5 6 
#
# 1 19.2980 13.3867 -0.7976 0.0000 0.0000 0.0000
# 2 13.3867 73.6293 7.7420 0.0000 0.0000 0.0000
# 3 -0.7976 7.7420 91.7843 0.0000 0.0000 0.0000
# 4 0.0000 0.0000 0.0000 20.6278 0.0000 0.0000
# 5 0.0000 0.0000 0.0000 0.0000 20.7884 0.0000
# 6 0.0000 0.0000 0.0000 0.0000 0.0000 -9.8092
#
#
#
# Elastic Compliance Matrix: (Units=1/GPa)
#
#
# Indices 1 2 3 4 5 6 
#
# 1 0.059486 -0.010967 0.001442 0.000000 0.000000 0.000000
# 2 -0.010967 0.015725 -0.001422 0.000000 0.000000 0.000000
# 3 0.001442 -0.001422 0.011028 0.000000 0.000000 0.000000
# 4 0.000000 0.000000 0.000000 0.048478 0.000000 0.000000
# 5 0.000000 0.000000 0.000000 0.000000 0.048104 0.000000
# 6 0.000000 0.000000 0.000000 0.000000 0.000000 -0.101945
#
#
# Mechanical properties :
#
#
# Convention : Reuss Voigt Hill
#
# Bulk Modulus (GPa) = 15.54113 25.04154 20.29134
# Shear Modulus (GPa) = 40.25193 17.28010 28.76601
#
# Velocity S-wave (km/s) = 4.49939 2.94804 3.80364
# Velocity P-wave (km/s) = 5.89991 4.91756 5.43099
#
# Compressibility (1/GPa) = 0.06434538
#
# Stress axis : x y z
#
# Youngs Moduli (GPa) = 16.81064 63.59317 90.68188
#
# Poissons Ratio (x) = 0.69742 -0.13077
# Poissons Ratio (y) = 0.18436 0.12892
# Poissons Ratio (z) = -0.02424 0.09041
#
# Static dielectric constant tensor:
#      x y z
#    x 1.706270 0.000000 0.000000 
#    y 0.000000 1.718800 0.000000 
#    z 0.000000 0.000000 1.702390 
# 
# From -- ./inp_files/17421.got.cif
#   From: 2010.05.17/outbox.cif.g08.bks.cpg/sg57_9_cif.got.tgz:17421.got - 2010.06.03 13:58:18.
