data_PCOD9435964
_publ_section_title
;
Structure prediction by ZEFSAII (Michael W. Deem and Ramdas Pophale) SiO2 
 PCOD9435964
Probable space group: P B C M
;
_chemical_formula_sum "Si O2"
_cell_formula_units_Z 56
_cell_length_a 16.940966
_cell_length_b 21.870714
_cell_length_c 8.717808
_cell_angle_alpha 90.000000
_cell_angle_beta 90.000000
_cell_angle_gamma 90.000000
_cell_volume 3230.043954
_symmetry_space_group_name_H-M "P B C M"
_symmetry_group_IT_number 57
_symmetry_cell_setting 'orthorhombic'
loop_
_space_group_symop_operation_xyz
x,y,z
-x,-y,1/2+z
x,1/2-y,-z
-x,1/2+y,1/2-z
-x,-y,-z
x,y,1/2-z
-x,1/2+y,z
x,1/2-y,1/2+z
loop_
_atom_site_type_symbol
_atom_site_label
_atom_site_fract_x
_atom_site_fract_y
_atom_site_fract_z
Si Si1 0.957029 0.560914 0.932653
Si Si2 0.642416 0.183271 0.065564
Si Si3 0.800821 0.985100 0.568855
Si Si4 0.372392 0.025471 0.931987
Si Si5 0.802700 0.117318 0.433352
Si Si6 0.515412 0.409371 0.565909
Si Si7 0.963050 0.316860 0.567458
O O1 0.965861 0.559481 0.750000
O O2 0.865646 0.555076 0.981337
O O3 0.991797 0.624513 0.997259
O O4 0.000000 0.500000 0.000000
O O5 0.643502 0.184946 0.250000
O O6 0.717667 0.142775 0.019732
O O7 0.560812 0.151618 0.018438
O O8 0.650770 0.250000 0.000000
O O9 0.808899 0.976676 0.750000
O O10 0.819283 0.055173 0.522816
O O11 0.711202 0.972796 0.515981
O O12 0.358760 0.026072 0.750000
O O13 0.421888 0.963728 0.968787
O O14 0.433248 0.077859 0.983302
O O15 0.801483 0.103573 0.250000
O O16 0.870708 0.167017 0.460053
O O17 0.503248 0.410197 0.750000
O O18 0.982281 0.250000 0.500000
O O19 0.976267 0.316037 0.750000
#
# Coordination Sequence:
#
# PCOD9435964 Si02
#       7
#     8   8   8   8   8   8   8
#     4  12  24  40  61  87 118 153 196 244 297 351
#     4  10  20  34  51  76 112 152 188 227 273 328
#     4  12  23  35  57  86 116 150 190 235 290 348
#     4  10  19  34  55  78 108 141 179 228 281 330
#     4  10  20  36  55  79 116 156 191 234 283 335
#     4   9  18  33  52  76 108 143 182 225 273 326
#     4  11  23  39  61  86 119 159 200 243 290 348
#
# _framework density 17.337226999999999
#
# number of rings (size 3 to 8) (size 9 to 14) (size 15 to 20)
#    0.000    1.429    2.857    3.857    0.000    2.286 
#    0.000    0.000    0.000    0.857    0.000    4.000 
#    0.000    0.000    0.000    0.000    0.000    0.000 
#
# Total GULP energy -312713.033637 kJ/mol
# GULP energy per Si atom -5584.161315 kJ/mol
# Density = 1.729777 g / cm^3
# Si number density = 17.337227 Si / 1000 Ang^3
#
#
#
# Elastic Constant Matrix: (Units=GPa)
#
#
# Indices 1 2 3 4 5 6 
#
# 1 83.6036 41.6479 37.6671 0.0000 0.0000 0.0000
# 2 41.6479 97.7498 46.4757 0.0000 0.0000 0.0000
# 3 37.6671 46.4757 74.8163 0.0000 0.0000 0.0000
# 4 0.0000 0.0000 0.0000 29.3174 0.0000 0.0000
# 5 0.0000 0.0000 0.0000 0.0000 28.0180 0.0000
# 6 0.0000 0.0000 0.0000 0.0000 0.0000 23.0425
#
#
#
# Elastic Compliance Matrix: (Units=1/GPa)
#
#
# Indices 1 2 3 4 5 6 
#
# 1 0.016721 -0.004430 -0.005666 0.000000 0.000000 0.000000
# 2 -0.004430 0.015692 -0.007517 0.000000 0.000000 0.000000
# 3 -0.005666 -0.007517 0.020889 0.000000 0.000000 0.000000
# 4 0.000000 0.000000 0.000000 0.034109 0.000000 0.000000
# 5 0.000000 0.000000 0.000000 0.000000 0.035691 0.000000
# 6 0.000000 0.000000 0.000000 0.000000 0.000000 0.043398
#
#
# Mechanical properties :
#
#
# Convention : Reuss Voigt Hill
#
# Bulk Modulus (GPa) = 55.32877 56.41681 55.87279
# Shear Modulus (GPa) = 24.06704 24.76751 24.41727
#
# Velocity S-wave (km/s) = 3.72986 3.78375 3.75690
# Velocity P-wave (km/s) = 7.10856 7.19031 7.14955
#
# Compressibility (1/GPa) = 0.01807378
#
# Stress axis : x y z
#
# Youngs Moduli (GPa) = 59.80463 63.72701 47.87284
#
# Poissons Ratio (x) = 0.28232 0.27127
# Poissons Ratio (y) = 0.26495 0.35988
# Poissons Ratio (z) = 0.33888 0.47906
#
# Static dielectric constant tensor:
#      x y z
#    x 1.600970 0.000000 0.000000 
#    y 0.000000 1.575750 0.000000 
#    z 0.000000 0.000000 1.588940 
# 
# From -- ./inp_files/5143.got.cif
#   From: 2010.05.17/outbox.cif.g08.bks.cpg/sg57_3_cif.got.tgz:5143.got - 2010.06.03 13:58:18.
