data_PCOD9435694
_publ_section_title
;
Structure prediction by ZEFSAII (Michael W. Deem and Ramdas Pophale) SiO2 
 PCOD9435694
Probable space group: P B C M
;
_chemical_formula_sum "Si O2"
_cell_formula_units_Z 64
_cell_length_a 12.440211
_cell_length_b 32.415728
_cell_length_c 8.419115
_cell_angle_alpha 90.000000
_cell_angle_beta 90.000000
_cell_angle_gamma 90.000000
_cell_volume 3395.079653
_symmetry_space_group_name_H-M "P B C M"
_symmetry_group_IT_number 57
_symmetry_cell_setting 'orthorhombic'
loop_
_space_group_symop_operation_xyz
x,y,z
-x,-y,1/2+z
x,1/2-y,-z
-x,1/2+y,1/2-z
-x,-y,-z
x,y,1/2-z
-x,1/2+y,z
x,1/2-y,1/2+z
loop_
_atom_site_type_symbol
_atom_site_label
_atom_site_fract_x
_atom_site_fract_y
_atom_site_fract_z
Si Si1 0.748527 0.205373 0.941459
Si Si2 0.009786 0.547165 0.061118
Si Si3 0.871635 0.625802 0.057640
Si Si4 0.598760 0.368793 0.441549
Si Si5 0.367577 0.388348 0.941677
Si Si6 0.755069 0.443013 0.057815
Si Si7 0.387314 0.017771 0.058539
Si Si8 0.995957 0.295420 0.440524
O O1 0.749282 0.204730 0.750000
O O2 0.669192 0.169790 0.997215
O O3 0.871773 0.198956 0.994545
O O4 0.713246 0.250000 0.000000
O O5 0.997987 0.544816 0.250000
O O6 0.925024 0.582170 0.003874
O O7 0.128206 0.563430 0.015149
O O8 0.000000 0.500000 0.000000
O O9 0.874112 0.625155 0.250000
O O10 0.747340 0.629060 0.006070
O O11 0.936498 0.665730 0.000617
O O12 0.596232 0.369022 0.250000
O O13 0.477236 0.367748 0.501138
O O14 0.664983 0.409689 0.490388
O O15 0.368403 0.388196 0.750000
O O16 0.372520 0.435807 0.997427
O O17 0.765209 0.441333 0.250000
O O18 0.708942 0.487582 0.010308
O O19 0.388811 0.017814 0.250000
O O20 0.500000 0.000000 0.000000
O O21 0.031437 0.250000 0.500000
O O22 0.997975 0.295045 0.250000
#
# Coordination Sequence:
#
# PCOD9435694 Si02
#       8
#     8   8   8   8   8   8   8   8
#     4   9  19  35  56  83 112 139 170 214 270 326
#     4  11  23  38  57  81 113 151 192 239 289 345
#     4  10  22  40  58  80 114 154 193 238 290 339
#     4  10  20  35  55  80 109 141 178 221 269 324
#     4  10  21  36  54  77 109 147 187 230 274 325
#     4  10  20  35  55  79 110 143 179 230 281 328
#     4  10  19  33  53  76 107 146 185 228 274 324
#     4  10  20  37  63  91 116 145 183 230 283 344
#
# _framework density 18.850809000000002
#
# number of rings (size 3 to 8) (size 9 to 14) (size 15 to 20)
#    0.000    2.000    1.250    2.250    0.000    6.500 
#    0.000    1.875    0.000    1.500    0.000    0.000 
#    0.000    0.000    0.000    0.000    0.000    0.000 
#
# Total GULP energy -357255.269194 kJ/mol
# GULP energy per Si atom -5582.113581 kJ/mol
# Density = 1.880790 g / cm^3
# Si number density = 18.850809 Si / 1000 Ang^3
#
#
#
# Elastic Constant Matrix: (Units=GPa)
#
#
# Indices 1 2 3 4 5 6 
#
# 1 124.2695 70.8657 16.9439 0.0000 0.0000 0.0000
# 2 70.8657 133.4846 20.2868 0.0000 0.0000 0.0000
# 3 16.9439 20.2868 11.8785 0.0000 0.0000 0.0000
# 4 0.0000 0.0000 0.0000 28.1977 0.0000 0.0000
# 5 0.0000 0.0000 0.0000 0.0000 29.3679 0.0000
# 6 0.0000 0.0000 0.0000 0.0000 0.0000 36.2600
#
#
#
# Elastic Compliance Matrix: (Units=1/GPa)
#
#
# Indices 1 2 3 4 5 6 
#
# 1 0.012149 -0.005154 -0.008528 0.000000 0.000000 0.000000
# 2 -0.005154 0.012304 -0.013662 0.000000 0.000000 0.000000
# 3 -0.008528 -0.013662 0.119682 0.000000 0.000000 0.000000
# 4 0.000000 0.000000 0.000000 0.035464 0.000000 0.000000
# 5 0.000000 0.000000 0.000000 0.000000 0.034051 0.000000
# 6 0.000000 0.000000 0.000000 0.000000 0.000000 0.027579
#
#
# Mechanical properties :
#
#
# Convention : Reuss Voigt Hill
#
# Bulk Modulus (GPa) = 11.17961 53.98062 32.58012
# Shear Modulus (GPa) = 15.35011 29.53419 22.44215
#
# Velocity S-wave (km/s) = 2.85668 3.96249 3.45413
# Velocity P-wave (km/s) = 4.10174 7.04507 5.76443
#
# Compressibility (1/GPa) = 0.08944853
#
# Stress axis : x y z
#
# Youngs Moduli (GPa) = 82.31387 81.27569 8.35545
#
# Poissons Ratio (x) = 0.41886 0.07125
# Poissons Ratio (y) = 0.42421 0.11415
# Poissons Ratio (z) = 0.70195 1.11038
#
# Static dielectric constant tensor:
#      x y z
#    x 1.649140 0.000000 0.000000 
#    y 0.000000 1.651710 0.000000 
#    z 0.000000 0.000000 1.654490 
# 
# From -- ./inp_files/3851.got.cif
#   From: 2010.05.17/outbox.cif.g08.bks.cpg/sg57_2_cif.got.tgz:3851.got - 2010.06.03 13:58:18.
