data_PCOD9435425
_publ_section_title
;
Structure prediction by ZEFSAII (Michael W. Deem and Ramdas Pophale) SiO2 
 PCOD9435425
Probable space group: P B C M
;
_chemical_formula_sum "Si O2"
_cell_formula_units_Z 40
_cell_length_a 13.394648
_cell_length_b 19.976805
_cell_length_c 8.545367
_cell_angle_alpha 90.000000
_cell_angle_beta 90.000000
_cell_angle_gamma 90.000000
_cell_volume 2286.588710
_symmetry_space_group_name_H-M "P B C M"
_symmetry_group_IT_number 57
_symmetry_cell_setting 'orthorhombic'
loop_
_space_group_symop_operation_xyz
x,y,z
-x,-y,1/2+z
x,1/2-y,-z
-x,1/2+y,1/2-z
-x,-y,-z
x,y,1/2-z
-x,1/2+y,z
x,1/2-y,1/2+z
loop_
_atom_site_type_symbol
_atom_site_label
_atom_site_fract_x
_atom_site_fract_y
_atom_site_fract_z
Si Si1 0.786665 0.421196 0.062750
Si Si2 0.616292 0.175411 0.437579
Si Si3 0.611307 0.675551 0.060840
Si Si4 0.784195 0.923496 0.940451
Si Si5 0.003300 0.576103 0.437604
O O1 0.787077 0.421239 0.250000
O O2 0.775573 0.498852 0.009193
O O3 0.696666 0.376484 0.001350
O O4 0.894384 0.394648 0.004764
O O5 0.637047 0.250000 0.500000
O O6 0.620218 0.176140 0.250000
O O7 0.502374 0.158109 0.486201
O O8 0.613871 0.676714 0.250000
O O9 0.693573 0.622605 0.004702
O O10 0.632856 0.750000 0.000000
O O11 0.781477 0.924333 0.750000
O O12 0.894329 0.896093 0.984322
O O13 0.009114 0.575871 0.250000
O O14 0.000000 0.500000 0.500000
#
# Coordination Sequence:
#
# PCOD9435425 Si02
#       5
#     8   8   8   8   8
#     4  10  19  32  51  74 100 130 166 205 245 292
#     4  10  20  34  52  72  97 129 163 201 245 295
#     4   9  18  34  52  71  97 129 163 198 243 294
#     4   8  16  31  51  73  99 130 161 200 246 291
#     4   9  16  29  49  72 100 132 164 200 247 296
#
# _framework density 17.493307999999999
#
# number of rings (size 3 to 8) (size 9 to 14) (size 15 to 20)
#    0.000    2.800    0.000    3.000    0.000    1.600 
#    0.000    7.000    0.000    2.400    0.000    0.000 
#    0.000    0.000    0.000    0.000    0.000    0.000 
#
# Total GULP energy -222840.004756 kJ/mol
# GULP energy per Si atom -5571.000119 kJ/mol
# Density = 1.745349 g / cm^3
# Si number density = 17.493308 Si / 1000 Ang^3
#
#
#
# Elastic Constant Matrix: (Units=GPa)
#
#
# Indices 1 2 3 4 5 6 
#
# 1 192.6669 102.5650 37.7473 0.0000 0.0000 0.0000
# 2 102.5650 77.1716 22.2502 0.0000 0.0000 0.0000
# 3 37.7473 22.2502 36.9456 0.0000 0.0000 0.0000
# 4 0.0000 0.0000 0.0000 23.4616 0.0000 0.0000
# 5 0.0000 0.0000 0.0000 0.0000 20.1577 0.0000
# 6 0.0000 0.0000 0.0000 0.0000 0.0000 -20.9884
#
#
#
# Elastic Compliance Matrix: (Units=1/GPa)
#
#
# Indices 1 2 3 4 5 6 
#
# 1 0.018463 -0.023112 -0.004944 0.000000 0.000000 0.000000
# 2 -0.023112 0.044614 -0.003255 0.000000 0.000000 0.000000
# 3 -0.004944 -0.003255 0.034078 0.000000 0.000000 0.000000
# 4 0.000000 0.000000 0.000000 0.042623 0.000000 0.000000
# 5 0.000000 0.000000 0.000000 0.000000 0.049609 0.000000
# 6 0.000000 0.000000 0.000000 0.000000 0.000000 -0.047645
#
#
# Mechanical properties :
#
#
# Convention : Reuss Voigt Hill
#
# Bulk Modulus (GPa) = 28.95784 70.21211 49.58497
# Shear Modulus (GPa) = 23.16163 14.14093 18.65128
#
# Velocity S-wave (km/s) = 3.64267 2.84626 3.26881
# Velocity P-wave (km/s) = 5.85505 7.14320 6.53096
#
# Compressibility (1/GPa) = 0.03453296
#
# Stress axis : x y z
#
# Youngs Moduli (GPa) = 54.16339 22.41450 29.34423
#
# Poissons Ratio (x) = 0.51805 0.14508
# Poissons Ratio (y) = 1.25184 0.09550
# Poissons Ratio (z) = 0.26779 0.07295
#
# Static dielectric constant tensor:
#      x y z
#    x 1.626230 0.000000 0.000000 
#    y 0.000000 1.561210 0.000000 
#    z 0.000000 0.000000 1.591860 
# 
# From -- ./inp_files/2870.got.cif
#   From: 2010.05.17/outbox.cif.g08.bks.cpg/sg57_2_cif.got.tgz:2870.got - 2010.06.03 13:58:18.
