data_PCOD9435534
_publ_section_title
;
Structure prediction by ZEFSAII (Michael W. Deem and Ramdas Pophale) SiO2 
 PCOD9435534
Probable space group: P B C M
;
_chemical_formula_sum "Si O2"
_cell_formula_units_Z 64
_cell_length_a 20.777691
_cell_length_b 20.387099
_cell_length_c 8.567906
_cell_angle_alpha 90.000000
_cell_angle_beta 90.000000
_cell_angle_gamma 90.000000
_cell_volume 3629.337936
_symmetry_space_group_name_H-M "P B C M"
_symmetry_group_IT_number 57
_symmetry_cell_setting 'orthorhombic'
loop_
_space_group_symop_operation_xyz
x,y,z
-x,-y,1/2+z
x,1/2-y,-z
-x,1/2+y,1/2-z
-x,-y,-z
x,y,1/2-z
-x,1/2+y,z
x,1/2-y,1/2+z
loop_
_atom_site_type_symbol
_atom_site_label
_atom_site_fract_x
_atom_site_fract_y
_atom_site_fract_z
Si Si1 0.420851 0.322840 0.436820
Si Si2 0.199500 0.587220 0.561675
Si Si3 0.659197 0.055347 0.936917
Si Si4 0.478998 0.928869 0.935396
Si Si5 0.695417 0.587897 0.938872
Si Si6 0.084063 0.822899 0.438442
Si Si7 0.835410 0.555967 0.937981
Si Si8 0.021659 0.428974 0.438955
O O1 0.429703 0.250000 0.500000
O O2 0.423313 0.321697 0.250000
O O3 0.474787 0.372974 0.497279
O O4 0.351713 0.353402 0.484815
O O5 0.197530 0.583400 0.750000
O O6 0.274454 0.591556 0.516234
O O7 0.152175 0.645216 0.511522
O O8 0.172748 0.518425 0.497216
O O9 0.652682 0.057770 0.750000
O O10 0.594733 0.082018 0.014345
O O11 0.669010 0.979844 0.989298
O O12 0.484439 0.930238 0.750000
O O13 0.500000 0.000000 0.000000
O O14 0.692886 0.581592 0.750000
O O15 0.770247 0.593553 0.986443
O O16 0.075516 0.750000 0.500000
O O17 0.083253 0.821375 0.250000
O O18 0.027728 0.872668 0.490294
O O19 0.835848 0.554739 0.750000
O O20 0.904530 0.582846 0.989644
O O21 0.019835 0.430933 0.250000
O O22 0.000000 0.500000 0.500000
#
# Coordination Sequence:
#
# PCOD9435534 Si02
#       8
#     8   8   8   8   8   8   8   8
#     4  11  23  39  58  81 113 151 188 232 281 339
#     4   9  18  33  52  77 108 139 175 225 273 321
#     4  10  19  32  55  83 110 140 178 227 278 325
#     4  12  23  37  58  85 115 148 187 233 280 332
#     4   9  18  33  53  78 109 141 179 224 272 327
#     4  10  21  36  52  75 109 147 185 227 275 330
#     4   9  17  30  52  81 106 135 176 225 273 322
#     4  10  19  32  53  79 109 141 181 230 278 326
#
# _framework density 17.634070999999999
#
# number of rings (size 3 to 8) (size 9 to 14) (size 15 to 20)
#    0.000    2.000    2.500    1.875    0.000    2.000 
#    0.000    1.250    0.000    1.500    0.000    0.000 
#    0.000    0.000    0.000    0.000    0.000    0.000 
#
# Total GULP energy -357096.754013 kJ/mol
# GULP energy per Si atom -5579.636781 kJ/mol
# Density = 1.759393 g / cm^3
# Si number density = 17.634071 Si / 1000 Ang^3
#
#
#
# Elastic Constant Matrix: (Units=GPa)
#
#
# Indices 1 2 3 4 5 6 
#
# 1 173.3596 94.0897 36.5631 0.0000 0.0000 0.0000
# 2 94.0897 133.9633 29.2823 0.0000 0.0000 0.0000
# 3 36.5631 29.2823 30.7388 0.0000 0.0000 0.0000
# 4 0.0000 0.0000 0.0000 27.4560 0.0000 0.0000
# 5 0.0000 0.0000 0.0000 0.0000 19.9914 0.0000
# 6 0.0000 0.0000 0.0000 0.0000 0.0000 26.3841
#
#
#
# Elastic Compliance Matrix: (Units=1/GPa)
#
#
# Indices 1 2 3 4 5 6 
#
# 1 0.010335 -0.005774 -0.006793 0.000000 0.000000 0.000000
# 2 -0.005774 0.012654 -0.005186 0.000000 0.000000 0.000000
# 3 -0.006793 -0.005186 0.045552 0.000000 0.000000 0.000000
# 4 0.000000 0.000000 0.000000 0.036422 0.000000 0.000000
# 5 0.000000 0.000000 0.000000 0.000000 0.050022 0.000000
# 6 0.000000 0.000000 0.000000 0.000000 0.000000 0.037902
#
#
# Mechanical properties :
#
#
# Convention : Reuss Voigt Hill
#
# Bulk Modulus (GPa) = 30.27070 73.10358 51.68714
# Shear Modulus (GPa) = 20.88531 26.64140 23.76336
#
# Velocity S-wave (km/s) = 3.44520 3.89111 3.67493
# Velocity P-wave (km/s) = 5.74710 7.85707 6.88341
#
# Compressibility (1/GPa) = 0.03303525
#
# Stress axis : x y z
#
# Youngs Moduli (GPa) = 96.76132 79.02857 21.95282
#
# Poissons Ratio (x) = 0.45630 0.14912
# Poissons Ratio (y) = 0.55869 0.11385
# Poissons Ratio (z) = 0.65726 0.40986
#
# Static dielectric constant tensor:
#      x y z
#    x 1.641660 0.000000 0.000000 
#    y 0.000000 1.547660 0.000000 
#    z 0.000000 0.000000 1.595100 
# 
# From -- ./inp_files/8460.got.cif
#   From: 2010.05.17/outbox.cif.g08.bks.cpg/sg57_5_cif.got.tgz:8460.got - 2010.06.03 13:58:18.
