data_PCOD9435573
_publ_section_title
;
Structure prediction by ZEFSAII (Michael W. Deem and Ramdas Pophale) SiO2 
 PCOD9435573
Probable space group: P B C M
;
_chemical_formula_sum "Si O2"
_cell_formula_units_Z 56
_cell_length_a 23.185298
_cell_length_b 14.625855
_cell_length_c 8.679757
_cell_angle_alpha 90.000000
_cell_angle_beta 90.000000
_cell_angle_gamma 90.000000
_cell_volume 2943.347320
_symmetry_space_group_name_H-M "P B C M"
_symmetry_group_IT_number 57
_symmetry_cell_setting 'orthorhombic'
loop_
_space_group_symop_operation_xyz
x,y,z
-x,-y,1/2+z
x,1/2-y,-z
-x,1/2+y,1/2-z
-x,-y,-z
x,y,1/2-z
-x,1/2+y,z
x,1/2-y,1/2+z
loop_
_atom_site_type_symbol
_atom_site_label
_atom_site_fract_x
_atom_site_fract_y
_atom_site_fract_z
Si Si1 0.851317 0.848836 0.564886
Si Si2 0.530014 0.852449 0.065134
Si Si3 0.810608 0.029204 0.065240
Si Si4 0.300811 0.647255 0.435752
Si Si5 0.418094 0.544723 0.063778
Si Si6 0.981448 0.597538 0.065625
Si Si7 0.902811 0.339621 0.432644
O O1 0.836517 0.750000 0.500000
O O2 0.849247 0.850584 0.750000
O O3 0.917774 0.871216 0.516329
O O4 0.810113 0.926166 0.495257
O O5 0.529779 0.845501 0.250000
O O6 0.572847 0.937341 0.021322
O O7 0.540718 0.750000 0.000000
O O8 0.468684 0.892838 0.007606
O O9 0.815590 0.030725 0.250000
O O10 0.755911 0.090227 0.018338
O O11 0.867001 0.074047 0.989698
O O12 0.301555 0.750000 0.500000
O O13 0.300656 0.653220 0.250000
O O14 0.357276 0.589166 0.481604
O O15 0.423181 0.549266 0.250000
O O16 0.981927 0.595243 0.250000
O O17 0.000000 0.500000 0.000000
O O18 0.033749 0.657587 0.003962
O O19 0.872188 0.250000 0.500000
O O20 0.905626 0.337302 0.250000
#
# Coordination Sequence:
#
# PCOD9435573 Si02
#       7
#     8   8   8   8   8   8   8
#     4  11  24  41  62  86 112 147 188 232 284 343
#     4  10  19  32  54  84 119 157 195 238 286 338
#     4  11  23  40  61  83 112 147 188 236 285 339
#     4  10  22  39  60  86 114 150 190 235 287 338
#     4   9  19  36  56  82 118 155 196 240 285 340
#     4  11  22  37  59  86 115 146 182 227 282 342
#     4  12  24  38  57  83 114 147 185 229 282 341
#
# _framework density 19.025957999999999
#
# number of rings (size 3 to 8) (size 9 to 14) (size 15 to 20)
#    0.000    1.429    1.429    4.286    0.000    7.429 
#    0.000    0.714    0.000    1.714    0.000    0.000 
#    0.000    0.000    0.000    0.000    0.000    0.000 
#
# Total GULP energy -312722.100881 kJ/mol
# GULP energy per Si atom -5584.323230 kJ/mol
# Density = 1.898265 g / cm^3
# Si number density = 19.025958 Si / 1000 Ang^3
#
#
#
# Elastic Constant Matrix: (Units=GPa)
#
#
# Indices 1 2 3 4 5 6 
#
# 1 95.9293 55.7056 19.3072 0.0000 0.0000 0.0000
# 2 55.7056 181.8108 27.6194 0.0000 0.0000 0.0000
# 3 19.3072 27.6194 44.1997 0.0000 0.0000 0.0000
# 4 0.0000 0.0000 0.0000 34.0945 0.0000 0.0000
# 5 0.0000 0.0000 0.0000 0.0000 16.6699 0.0000
# 6 0.0000 0.0000 0.0000 0.0000 0.0000 28.9745
#
#
#
# Elastic Compliance Matrix: (Units=1/GPa)
#
#
# Indices 1 2 3 4 5 6 
#
# 1 0.013171 -0.003493 -0.003571 0.000000 0.000000 0.000000
# 2 -0.003493 0.007004 -0.002850 0.000000 0.000000 0.000000
# 3 -0.003571 -0.002850 0.025965 0.000000 0.000000 0.000000
# 4 0.000000 0.000000 0.000000 0.029330 0.000000 0.000000
# 5 0.000000 0.000000 0.000000 0.000000 0.059988 0.000000
# 6 0.000000 0.000000 0.000000 0.000000 0.000000 0.034513
#
#
# Mechanical properties :
#
#
# Convention : Reuss Voigt Hill
#
# Bulk Modulus (GPa) = 38.00581 58.57826 48.29203
# Shear Modulus (GPa) = 25.17985 30.56830 27.87408
#
# Velocity S-wave (km/s) = 3.64187 4.01267 3.83176
# Velocity P-wave (km/s) = 6.14031 7.23354 6.70923
#
# Compressibility (1/GPa) = 0.02631177
#
# Stress axis : x y z
#
# Youngs Moduli (GPa) = 75.92157 142.78488 38.51264
#
# Poissons Ratio (x) = 0.49878 0.13752
# Poissons Ratio (y) = 0.26521 0.10978
# Poissons Ratio (z) = 0.27109 0.40700
#
# Static dielectric constant tensor:
#      x y z
#    x 1.648130 0.000000 0.000000 
#    y 0.000000 1.617690 0.000000 
#    z 0.000000 0.000000 1.630500 
# 
# From -- ./inp_files/8116.got.cif
#   From: 2010.05.17/outbox.cif.g08.bks.cpg/sg57_5_cif.got.tgz:8116.got - 2010.06.03 13:58:18.
