data_PCOD9435824
_publ_section_title
;
Structure prediction by ZEFSAII (Michael W. Deem and Ramdas Pophale) SiO2 
 PCOD9435824
Probable space group: P B C M
;
_chemical_formula_sum "Si O2"
_cell_formula_units_Z 40
_cell_length_a 18.877837
_cell_length_b 13.759121
_cell_length_c 8.878968
_cell_angle_alpha 90.000000
_cell_angle_beta 90.000000
_cell_angle_gamma 90.000000
_cell_volume 2306.244844
_symmetry_space_group_name_H-M "P B C M"
_symmetry_group_IT_number 57
_symmetry_cell_setting 'orthorhombic'
loop_
_space_group_symop_operation_xyz
x,y,z
-x,-y,1/2+z
x,1/2-y,-z
-x,1/2+y,1/2-z
-x,-y,-z
x,y,1/2-z
-x,1/2+y,z
x,1/2-y,1/2+z
loop_
_atom_site_type_symbol
_atom_site_label
_atom_site_fract_x
_atom_site_fract_y
_atom_site_fract_z
Si Si1 0.393240 0.946987 0.429774
Si Si2 0.041059 0.354548 0.570096
Si Si3 0.746169 0.142575 0.069084
Si Si4 0.531368 0.648585 0.429514
Si Si5 0.894422 0.042153 0.069160
O O1 0.389956 0.932805 0.250000
O O2 0.319842 0.917657 0.505198
O O3 0.456291 0.881296 0.497434
O O4 0.416008 0.058485 0.459697
O O5 0.055839 0.250000 0.500000
O O6 0.045405 0.349687 0.750000
O O7 0.092114 0.438823 0.508414
O O8 0.961259 0.389444 0.528250
O O9 0.741808 0.148349 0.250000
O O10 0.820428 0.091561 0.028021
O O11 0.743728 0.250000 0.000000
O O12 0.555474 0.750000 0.500000
O O13 0.523062 0.657725 0.250000
O O14 0.896141 0.029225 0.250000
#
# Coordination Sequence:
#
# PCOD9435824 Si02
#       5
#     8   8   8   8   8
#     4  10  21  36  54  78 107 138 175 214 255 307
#     4  10  19  33  55  79 105 137 174 217 261 308
#     4  11  22  36  55  78 107 139 171 212 260 309
#     4  10  20  35  56  79 104 136 173 215 260 306
#     4   9  20  36  53  77 106 138 176 215 258 308
#
# _framework density 17.344213
#
# number of rings (size 3 to 8) (size 9 to 14) (size 15 to 20)
#    0.000    2.000    0.000    3.600    0.000    4.800 
#    0.000    1.000    0.000    2.400    0.000    0.000 
#    0.000    0.000    0.000    0.000    0.000    0.000 
#
# Total GULP energy -223410.073624 kJ/mol
# GULP energy per Si atom -5585.251841 kJ/mol
# Density = 1.730474 g / cm^3
# Si number density = 17.344213 Si / 1000 Ang^3
#
#
#
# Elastic Constant Matrix: (Units=GPa)
#
#
# Indices 1 2 3 4 5 6 
#
# 1 119.4220 58.1363 50.5705 0.0000 0.0000 0.0000
# 2 58.1363 130.4376 58.2203 0.0000 0.0000 0.0000
# 3 50.5705 58.2203 60.8628 0.0000 0.0000 0.0000
# 4 0.0000 0.0000 0.0000 32.3246 0.0000 0.0000
# 5 0.0000 0.0000 0.0000 0.0000 26.4899 0.0000
# 6 0.0000 0.0000 0.0000 0.0000 0.0000 12.2633
#
#
#
# Elastic Compliance Matrix: (Units=1/GPa)
#
#
# Indices 1 2 3 4 5 6 
#
# 1 0.013136 -0.001715 -0.009273 0.000000 0.000000 0.000000
# 2 -0.001715 0.013603 -0.011587 0.000000 0.000000 0.000000
# 3 -0.009273 -0.011587 0.035219 0.000000 0.000000 0.000000
# 4 0.000000 0.000000 0.000000 0.030936 0.000000 0.000000
# 5 0.000000 0.000000 0.000000 0.000000 0.037750 0.000000
# 6 0.000000 0.000000 0.000000 0.000000 0.000000 0.081544
#
#
# Mechanical properties :
#
#
# Convention : Reuss Voigt Hill
#
# Bulk Modulus (GPa) = 59.50084 71.61961 65.56023
# Shear Modulus (GPa) = 19.01561 23.80192 21.40876
#
# Velocity S-wave (km/s) = 3.31473 3.70851 3.51714
# Velocity P-wave (km/s) = 7.00216 7.72788 7.37396
#
# Compressibility (1/GPa) = 0.01680649
#
# Stress axis : x y z
#
# Youngs Moduli (GPa) = 76.12851 73.51416 28.39355
#
# Poissons Ratio (x) = 0.12611 0.26330
# Poissons Ratio (y) = 0.13060 0.32899
# Poissons Ratio (z) = 0.70597 0.85180
#
# Static dielectric constant tensor:
#      x y z
#    x 1.565350 0.000000 0.000000 
#    y 0.000000 1.568570 0.000000 
#    z 0.000000 0.000000 1.576790 
# 
# From -- ./inp_files/6215.got.cif
#   From: 2010.05.17/outbox.cif.g08.bks.cpg/sg57_4_cif.got.tgz:6215.got - 2010.06.03 13:58:18.
