data_PCOD9435633
_publ_section_title
;
Structure prediction by ZEFSAII (Michael W. Deem and Ramdas Pophale) SiO2 
 PCOD9435633
Probable space group: P B C M
;
_chemical_formula_sum "Si O2"
_cell_formula_units_Z 40
_cell_length_a 8.863885
_cell_length_b 22.905398
_cell_length_c 8.809995
_cell_angle_alpha 90.000000
_cell_angle_beta 90.000000
_cell_angle_gamma 90.000000
_cell_volume 1788.700454
_symmetry_space_group_name_H-M "P B C M"
_symmetry_group_IT_number 57
_symmetry_cell_setting 'orthorhombic'
loop_
_space_group_symop_operation_xyz
x,y,z
-x,-y,1/2+z
x,1/2-y,-z
-x,1/2+y,1/2-z
-x,-y,-z
x,y,1/2-z
-x,1/2+y,z
x,1/2-y,1/2+z
loop_
_atom_site_type_symbol
_atom_site_label
_atom_site_fract_x
_atom_site_fract_y
_atom_site_fract_z
Si Si1 0.075385 0.688810 0.067562
Si Si2 0.532598 0.064608 0.926572
Si Si3 0.566651 0.186588 0.068067
Si Si4 0.207255 0.523029 0.416316
Si Si5 0.116033 0.417918 0.920879
O O1 0.068686 0.687059 0.250000
O O2 0.253218 0.681270 0.031272
O O3 0.952777 0.641487 0.016851
O O4 0.029803 0.750000 0.000000
O O5 0.497229 0.066048 0.750000
O O6 0.490954 0.126725 0.004731
O O7 0.500000 0.000000 0.000000
O O8 0.713925 0.059968 0.953324
O O9 0.549796 0.188110 0.250000
O O10 0.518188 0.250000 0.000000
O O11 0.275769 0.535552 0.250000
O O12 0.214536 0.455124 0.462647
O O13 0.035911 0.543605 0.403162
O O14 0.182414 0.412382 0.750000
#
# Coordination Sequence:
#
# PCOD9435633 Si02
#       5
#     8   8   8   8   8
#     4   9  17  29  47  73 107 140 174 216 262 315
#     4  12  24  38  57  81 110 147 187 234 284 335
#     4  10  19  35  55  81 112 144 181 227 276 330
#     4  10  19  33  51  75 105 137 175 218 264 320
#     4   9  17  31  49  73 106 140 171 212 261 316
#
# _framework density 22.362604000000001
#
# number of rings (size 3 to 8) (size 9 to 14) (size 15 to 20)
#    0.000    2.000    2.000    3.000    0.000    2.400 
#    0.000    0.000    0.000    1.200    0.000    5.600 
#    0.000    0.000    0.000    0.000    0.000    0.000 
#
# Total GULP energy -222821.109042 kJ/mol
# GULP energy per Si atom -5570.527726 kJ/mol
# Density = 2.231171 g / cm^3
# Si number density = 22.362604 Si / 1000 Ang^3
#
#
#
# Elastic Constant Matrix: (Units=GPa)
#
#
# Indices 1 2 3 4 5 6 
#
# 1 9.2097 17.5003 12.5505 0.0000 0.0000 0.0000
# 2 17.5003 222.7917 70.4037 0.0000 0.0000 0.0000
# 3 12.5505 70.4037 91.2278 0.0000 0.0000 0.0000
# 4 0.0000 0.0000 0.0000 32.8005 0.0000 0.0000
# 5 0.0000 0.0000 0.0000 0.0000 20.5739 0.0000
# 6 0.0000 0.0000 0.0000 0.0000 0.0000 42.1587
#
#
#
# Elastic Compliance Matrix: (Units=1/GPa)
#
#
# Indices 1 2 3 4 5 6 
#
# 1 0.140439 -0.006515 -0.014293 0.000000 0.000000 0.000000
# 2 -0.006515 0.006238 -0.003918 0.000000 0.000000 0.000000
# 3 -0.014293 -0.003918 0.015952 0.000000 0.000000 0.000000
# 4 0.000000 0.000000 0.000000 0.030487 0.000000 0.000000
# 5 0.000000 0.000000 0.000000 0.000000 0.048605 0.000000
# 6 0.000000 0.000000 0.000000 0.000000 0.000000 0.023720
#
#
# Mechanical properties :
#
#
# Convention : Reuss Voigt Hill
#
# Bulk Modulus (GPa) = 8.83569 58.23757 33.53663
# Shear Modulus (GPa) = 14.17961 33.95827 24.06894
#
# Velocity S-wave (km/s) = 2.52082 3.90106 3.28426
# Velocity P-wave (km/s) = 3.52596 6.81102 5.42321
#
# Compressibility (1/GPa) = 0.11317729
#
# Stress axis : x y z
#
# Youngs Moduli (GPa) = 7.12053 160.29780 62.68946
#
# Poissons Ratio (x) = 1.04431 0.89602
# Poissons Ratio (y) = 0.04639 0.24562
# Poissons Ratio (z) = 0.10177 0.62807
#
# Static dielectric constant tensor:
#      x y z
#    x 1.971460 0.000000 0.000000 
#    y 0.000000 1.876030 0.000000 
#    z 0.000000 0.000000 1.897690 
# 
# From -- ./inp_files/2869.got.cif
#   From: 2010.05.17/outbox.cif.g08.bks.cpg/sg57_2_cif.got.tgz:2869.got - 2010.06.03 13:58:18.
