data_PCOD9435517
_publ_section_title
;
Structure prediction by ZEFSAII (Michael W. Deem and Ramdas Pophale) SiO2 
 PCOD9435517
Probable space group: P B C M
;
_chemical_formula_sum "Si O2"
_cell_formula_units_Z 64
_cell_length_a 24.677630
_cell_length_b 14.995536
_cell_length_c 8.959648
_cell_angle_alpha 90.000000
_cell_angle_beta 90.000000
_cell_angle_gamma 90.000000
_cell_volume 3315.556171
_symmetry_space_group_name_H-M "P B C M"
_symmetry_group_IT_number 57
_symmetry_cell_setting 'orthorhombic'
loop_
_space_group_symop_operation_xyz
x,y,z
-x,-y,1/2+z
x,1/2-y,-z
-x,1/2+y,1/2-z
-x,-y,-z
x,y,1/2-z
-x,1/2+y,z
x,1/2-y,1/2+z
loop_
_atom_site_type_symbol
_atom_site_label
_atom_site_fract_x
_atom_site_fract_y
_atom_site_fract_z
Si Si1 0.404622 0.339382 0.575962
Si Si2 0.323913 0.031718 0.570919
Si Si3 0.520598 0.409727 0.574808
Si Si4 0.873736 0.962055 0.572145
Si Si5 0.361472 0.843501 0.929792
Si Si6 0.221222 0.348176 0.429081
Si Si7 0.024405 0.341711 0.928395
Si Si8 0.905675 0.342876 0.429531
O O1 0.383412 0.250000 0.500000
O O2 0.391452 0.339613 0.750000
O O3 0.376937 0.423279 0.498312
O O4 0.469354 0.344677 0.559472
O O5 0.328099 0.035866 0.750000
O O6 0.272797 0.091268 0.525337
O O7 0.323791 0.927649 0.529279
O O8 0.500000 0.500000 0.500000
O O9 0.528610 0.428433 0.750000
O O10 0.577226 0.369513 0.519203
O O11 0.863420 0.953694 0.750000
O O12 0.831191 0.902185 0.484045
O O13 0.933500 0.921227 0.545051
O O14 0.873286 0.066829 0.532923
O O15 0.362099 0.835103 0.750000
O O16 0.345353 0.750000 0.000000
O O17 0.223456 0.250000 0.500000
O O18 0.220965 0.339927 0.250000
O O19 0.017503 0.330772 0.750000
O O20 0.046810 0.250000 0.000000
O O21 0.966341 0.355647 0.005369
O O22 0.885108 0.250000 0.500000
O O23 0.908303 0.335081 0.250000
#
# Coordination Sequence:
#
# PCOD9435517 Si02
#       8
#     8   8   8   8   8   8   8   8
#     4  11  22  34  54  84 112 146 186 223 275 334
#     4  10  22  41  61  82 111 146 186 234 283 331
#     4  10  20  34  54  81 113 150 185 225 274 329
#     4  10  22  38  57  83 115 151 192 238 286 337
#     4  10  21  38  59  83 114 149 186 231 279 330
#     4  11  24  41  63  87 112 145 185 232 286 341
#     4  10  19  32  52  81 116 153 191 232 282 339
#     4  10  20  35  55  82 116 154 194 235 280 332
#
# _framework density 19.302945000000001
#
# number of rings (size 3 to 8) (size 9 to 14) (size 15 to 20)
#    0.000    1.750    1.250    3.750    0.000    6.500 
#    0.000    0.625    0.000    3.000    0.000    0.000 
#    0.000    0.000    0.000    0.000    0.000    0.000 
#
# Total GULP energy -357362.691947 kJ/mol
# GULP energy per Si atom -5583.792062 kJ/mol
# Density = 1.925901 g / cm^3
# Si number density = 19.302945 Si / 1000 Ang^3
#
#
#
# Elastic Constant Matrix: (Units=GPa)
#
#
# Indices 1 2 3 4 5 6 
#
# 1 54.3734 43.6397 26.7743 0.0000 0.0000 0.0000
# 2 43.6397 182.1469 58.1354 0.0000 0.0000 0.0000
# 3 26.7743 58.1354 34.4897 0.0000 0.0000 0.0000
# 4 0.0000 0.0000 0.0000 30.9868 0.0000 0.0000
# 5 0.0000 0.0000 0.0000 0.0000 14.7848 0.0000
# 6 0.0000 0.0000 0.0000 0.0000 0.0000 52.8424
#
#
#
# Elastic Compliance Matrix: (Units=1/GPa)
#
#
# Indices 1 2 3 4 5 6 
#
# 1 0.029796 0.000528 -0.024020 0.000000 0.000000 0.000000
# 2 0.000528 0.011892 -0.020455 0.000000 0.000000 0.000000
# 3 -0.024020 -0.020455 0.082120 0.000000 0.000000 0.000000
# 4 0.000000 0.000000 0.000000 0.032272 0.000000 0.000000
# 5 0.000000 0.000000 0.000000 0.000000 0.067637 0.000000
# 6 0.000000 0.000000 0.000000 0.000000 0.000000 0.018924
#
#
# Mechanical properties :
#
#
# Convention : Reuss Voigt Hill
#
# Bulk Modulus (GPa) = 27.84500 58.67876 43.26188
# Shear Modulus (GPa) = 14.59825 29.22016 21.90920
#
# Velocity S-wave (km/s) = 2.75302 3.89494 3.37266
# Velocity P-wave (km/s) = 4.95601 7.11985 6.13410
#
# Compressibility (1/GPa) = 0.03591309
#
# Stress axis : x y z
#
# Youngs Moduli (GPa) = 33.56207 84.08824 12.17729
#
# Poissons Ratio (x) = -0.04438 0.29250
# Poissons Ratio (y) = -0.01771 0.24909
# Poissons Ratio (z) = 0.80616 1.72005
#
# Static dielectric constant tensor:
#      x y z
#    x 1.677910 0.000000 0.000000 
#    y 0.000000 1.692220 0.000000 
#    z 0.000000 0.000000 1.646450 
# 
# From -- ./inp_files/9459.got.cif
#   From: 2010.05.17/outbox.cif.g08.bks.cpg/sg57_5_cif.got.tgz:9459.got - 2010.06.03 13:58:18.
