data_PCOD9435570
_publ_section_title
;
Structure prediction by ZEFSAII (Michael W. Deem and Ramdas Pophale) SiO2 
 PCOD9435570
Probable space group: P B C M
;
_chemical_formula_sum "Si O2"
_cell_formula_units_Z 56
_cell_length_a 20.426550
_cell_length_b 16.071159
_cell_length_c 8.893480
_cell_angle_alpha 90.000000
_cell_angle_beta 90.000000
_cell_angle_gamma 90.000000
_cell_volume 2919.536788
_symmetry_space_group_name_H-M "P B C M"
_symmetry_group_IT_number 57
_symmetry_cell_setting 'orthorhombic'
loop_
_space_group_symop_operation_xyz
x,y,z
-x,-y,1/2+z
x,1/2-y,-z
-x,1/2+y,1/2-z
-x,-y,-z
x,y,1/2-z
-x,1/2+y,z
x,1/2-y,1/2+z
loop_
_atom_site_type_symbol
_atom_site_label
_atom_site_fract_x
_atom_site_fract_y
_atom_site_fract_z
Si Si1 0.072107 0.490011 0.432254
Si Si2 0.616973 0.320651 0.579193
Si Si3 0.173913 0.341966 0.431849
Si Si4 0.255697 0.872464 0.421098
Si Si5 0.297034 0.064642 0.426868
Si Si6 0.569712 0.990732 0.079827
Si Si7 0.872406 0.333223 0.925138
O O1 0.068672 0.488342 0.250000
O O2 0.117326 0.410273 0.475233
O O3 0.104463 0.577074 0.482087
O O4 0.000000 0.500000 0.500000
O O5 0.573089 0.250000 0.500000
O O6 0.634548 0.299034 0.750000
O O7 0.676156 0.331146 0.462270
O O8 0.590019 0.412969 0.587389
O O9 0.161455 0.250000 0.500000
O O10 0.175145 0.337725 0.250000
O O11 0.244278 0.376084 0.491099
O O12 0.234517 0.855089 0.250000
O O13 0.204184 0.838204 0.539516
O O14 0.266709 0.971383 0.438096
O O15 0.301537 0.085841 0.250000
O O16 0.370202 0.057368 0.497390
O O17 0.562946 0.957944 0.250000
O O18 0.500000 0.000000 0.000000
O O19 0.885832 0.328511 0.750000
O O20 0.900221 0.250000 0.000000
#
# Coordination Sequence:
#
# PCOD9435570 Si02
#       7
#     8   8   8   8   8   8   8
#     4  10  24  43  64  87 121 162 204 255 314 375
#     4  10  20  33  51  77 110 146 184 230 283 342
#     4  11  23  42  66  95 126 164 213 267 322 379
#     4  10  19  32  54  83 114 149 186 230 283 343
#     4  10  20  36  61  90 119 157 203 252 306 366
#     4  10  21  37  58  84 117 158 201 251 307 369
#     4  11  22  37  56  84 118 154 192 237 292 354
#
# _framework density 19.181125000000002
#
# number of rings (size 3 to 8) (size 9 to 14) (size 15 to 20)
#    0.000    1.714    1.429    3.000    0.000    5.714 
#    0.000    3.571    0.000    1.714    0.000    0.000 
#    0.000    0.000    0.000    0.000    0.000    0.000 
#
# Total GULP energy -312008.119296 kJ/mol
# GULP energy per Si atom -5571.573559 kJ/mol
# Density = 1.913747 g / cm^3
# Si number density = 19.181125 Si / 1000 Ang^3
#
#
#
# Elastic Constant Matrix: (Units=GPa)
#
#
# Indices 1 2 3 4 5 6 
#
# 1 113.8915 47.7808 37.5758 0.0000 0.0000 0.0000
# 2 47.7808 124.1393 52.0586 0.0000 0.0000 0.0000
# 3 37.5758 52.0586 73.8612 0.0000 0.0000 0.0000
# 4 0.0000 0.0000 0.0000 33.9208 0.0000 0.0000
# 5 0.0000 0.0000 0.0000 0.0000 28.9607 0.0000
# 6 0.0000 0.0000 0.0000 0.0000 0.0000 0.7045
#
#
#
# Elastic Compliance Matrix: (Units=1/GPa)
#
#
# Indices 1 2 3 4 5 6 
#
# 1 0.011162 -0.002718 -0.003763 0.000000 0.000000 0.000000
# 2 -0.002718 0.012097 -0.007144 0.000000 0.000000 0.000000
# 3 -0.003763 -0.007144 0.020488 0.000000 0.000000 0.000000
# 4 0.000000 0.000000 0.000000 0.029480 0.000000 0.000000
# 5 0.000000 0.000000 0.000000 0.000000 0.034530 0.000000
# 6 0.000000 0.000000 0.000000 0.000000 0.000000 1.419445
#
#
# Mechanical properties :
#
#
# Convention : Reuss Voigt Hill
#
# Bulk Modulus (GPa) = 60.61168 65.19137 62.90153
# Shear Modulus (GPa) = 3.20523 24.34901 13.77712
#
# Velocity S-wave (km/s) = 1.29409 3.56676 2.68295
# Velocity P-wave (km/s) = 5.82247 7.14307 6.51631
#
# Compressibility (1/GPa) = 0.01649847
#
# Stress axis : x y z
#
# Youngs Moduli (GPa) = 89.58884 82.66200 48.80920
#
# Poissons Ratio (x) = 0.22471 0.18365
# Poissons Ratio (y) = 0.24354 0.34867
# Poissons Ratio (z) = 0.33709 0.59050
#
# Static dielectric constant tensor:
#      x y z
#    x 1.703470 0.000000 0.000000 
#    y 0.000000 1.721290 0.000000 
#    z 0.000000 0.000000 1.680420 
# 
# From -- ./inp_files/7987.got.cif
#   From: 2010.05.17/outbox.cif.g08.bks.cpg/sg57_4_cif.got.tgz:7987.got - 2010.06.03 13:58:18.
