data_PCOD9435279
_publ_section_title
;
Structure prediction by ZEFSAII (Michael W. Deem and Ramdas Pophale) SiO2 
 PCOD9435279
Probable space group: P B C M
;
_chemical_formula_sum "Si O2"
_cell_formula_units_Z 56
_cell_length_a 32.203249
_cell_length_b 5.370480
_cell_length_c 14.188341
_cell_angle_alpha 90.000000
_cell_angle_beta 90.000000
_cell_angle_gamma 90.000000
_cell_volume 2453.829659
_symmetry_space_group_name_H-M "P B C M"
_symmetry_group_IT_number 57
_symmetry_cell_setting 'orthorhombic'
loop_
_space_group_symop_operation_xyz
x,y,z
-x,-y,1/2+z
x,1/2-y,-z
-x,1/2+y,1/2-z
-x,-y,-z
x,y,1/2-z
-x,1/2+y,z
x,1/2-y,1/2+z
loop_
_atom_site_type_symbol
_atom_site_label
_atom_site_fract_x
_atom_site_fract_y
_atom_site_fract_z
Si Si1 0.482372 0.983864 0.394366
Si Si2 0.660265 0.905820 0.365219
Si Si3 0.244500 0.089896 0.865670
Si Si4 0.019733 0.578361 0.638397
Si Si5 0.386217 0.595505 0.635461
Si Si6 0.199702 0.910115 0.137294
Si Si7 0.891321 0.499062 0.061252
O O1 0.504960 0.746196 0.350573
O O2 0.433372 0.943559 0.395574
O O3 0.500000 0.000000 0.500000
O O4 0.660257 0.905533 0.250000
O O5 0.632266 0.139421 0.395187
O O6 0.707835 0.942703 0.394928
O O7 0.641758 0.639537 0.394443
O O8 0.243973 0.090962 0.750000
O O9 0.227168 0.357284 0.896617
O O10 0.215795 0.858883 0.896994
O O11 0.011757 0.598053 0.750000
O O12 0.067195 0.499868 0.623379
O O13 0.991225 0.353178 0.600143
O O14 0.386447 0.596503 0.750000
O O15 0.204347 0.902461 0.250000
O O16 0.152067 0.968467 0.114954
O O17 0.890094 0.750000 0.000000
O O18 0.894978 0.250000 0.000000
#
# Coordination Sequence:
#
# PCOD9435279 Si02
#       7
#     8   8   8   8   8   8   8
#     4  10  21  36  52  73  96 140 178 213 259 308
#     4   9  17  30  50  83 115 135 167 221 280 330
#     4   9  17  31  55  85 113 142 183 230 281 336
#     4  10  22  41  64  88 118 156 199 252 303 353
#     4  10  19  31  51  80 111 136 167 220 276 323
#     4  10  20  36  58  85 114 152 197 239 278 344
#     4  12  25  39  58  88 119 162 199 242 302 346
#
# _framework density 22.821469
#
# number of rings (size 3 to 8) (size 9 to 14) (size 15 to 20)
#    0.000    2.000    0.000    3.857    0.000    5.714 
#    0.000    5.714    0.000    0.000   74.286    0.000 
#    0.000    0.000    0.000    0.000    0.000    0.000 
#
# Total GULP energy -313378.358516 kJ/mol
# GULP energy per Si atom -5596.042116 kJ/mol
# Density = 2.276953 g / cm^3
# Si number density = 22.821469 Si / 1000 Ang^3
#
#
#
# Elastic Constant Matrix: (Units=GPa)
#
#
# Indices 1 2 3 4 5 6 
#
# 1 139.6517 54.1430 -22.4291 0.0000 0.0000 0.0000
# 2 54.1430 201.7480 10.0511 0.0000 0.0000 0.0000
# 3 -22.4291 10.0511 53.7566 0.0000 0.0000 0.0000
# 4 0.0000 0.0000 0.0000 16.1432 0.0000 0.0000
# 5 0.0000 0.0000 0.0000 0.0000 36.2816 0.0000
# 6 0.0000 0.0000 0.0000 0.0000 0.0000 48.8436
#
#
#
# Elastic Compliance Matrix: (Units=1/GPa)
#
#
# Indices 1 2 3 4 5 6 
#
# 1 0.008829 -0.002577 0.004165 0.000000 0.000000 0.000000
# 2 -0.002577 0.005755 -0.002151 0.000000 0.000000 0.000000
# 3 0.004165 -0.002151 0.020743 0.000000 0.000000 0.000000
# 4 0.000000 0.000000 0.000000 0.061946 0.000000 0.000000
# 5 0.000000 0.000000 0.000000 0.000000 0.027562 0.000000
# 6 0.000000 0.000000 0.000000 0.000000 0.000000 0.020474
#
#
# Mechanical properties :
#
#
# Convention : Reuss Voigt Hill
#
# Bulk Modulus (GPa) = 29.23861 53.18735 41.21298
# Shear Modulus (GPa) = 31.67889 43.81310 37.74600
#
# Velocity S-wave (km/s) = 3.72979 4.38633 4.07131
# Velocity P-wave (km/s) = 5.60251 7.00069 6.34026
#
# Compressibility (1/GPa) = 0.03420135
#
# Stress axis : x y z
#
# Youngs Moduli (GPa) = 113.26648 173.74944 48.20998
#
# Poissons Ratio (x) = 0.44773 -0.20082
# Poissons Ratio (y) = 0.29188 0.10371
# Poissons Ratio (z) = -0.47181 0.37378
#
# Static dielectric constant tensor:
#      x y z
#    x 1.787950 0.000000 0.000000 
#    y 0.000000 1.879400 0.000000 
#    z 0.000000 0.000000 1.886050 
# 
# From -- ./inp_files/19650.got.cif
#   From: 2010.05.17/outbox.cif.g08.bks.cpg/sg57_10_cif.got.tgz:19650.got - 2010.06.03 13:58:18.
