data_PCOD9435674
_publ_section_title
;
Structure prediction by ZEFSAII (Michael W. Deem and Ramdas Pophale) SiO2 
 PCOD9435674
Probable space group: P B C M
;
_chemical_formula_sum "Si O2"
_cell_formula_units_Z 64
_cell_length_a 20.889133
_cell_length_b 20.401745
_cell_length_c 8.420872
_cell_angle_alpha 90.000000
_cell_angle_beta 90.000000
_cell_angle_gamma 90.000000
_cell_volume 3588.763143
_symmetry_space_group_name_H-M "P B C M"
_symmetry_group_IT_number 57
_symmetry_cell_setting 'orthorhombic'
loop_
_space_group_symop_operation_xyz
x,y,z
-x,-y,1/2+z
x,1/2-y,-z
-x,1/2+y,1/2-z
-x,-y,-z
x,y,1/2-z
-x,1/2+y,z
x,1/2-y,1/2+z
loop_
_atom_site_type_symbol
_atom_site_label
_atom_site_fract_x
_atom_site_fract_y
_atom_site_fract_z
Si Si1 0.299252 0.911688 0.059631
Si Si2 0.521934 0.928535 0.442198
Si Si3 0.976183 0.070621 0.560166
Si Si4 0.198248 0.091403 0.943147
Si Si5 0.163587 0.942782 0.939922
Si Si6 0.583721 0.176341 0.941762
Si Si7 0.919300 0.676627 0.942067
Si Si8 0.664448 0.556218 0.557970
O O1 0.298270 0.913503 0.250000
O O2 0.348662 0.855605 0.007284
O O3 0.226931 0.905482 0.997810
O O4 0.325910 0.981515 0.998524
O O5 0.520664 0.929144 0.250000
O O6 0.472867 0.872483 0.496396
O O7 0.595381 0.918048 0.494512
O O8 0.500000 0.000000 0.500000
O O9 0.978393 0.069221 0.750000
O O10 0.903660 0.081964 0.505271
O O11 0.024680 0.127220 0.504653
O O12 0.000000 0.000000 0.500000
O O13 0.198033 0.092531 0.750000
O O14 0.148489 0.146093 0.997530
O O15 0.272129 0.095330 0.995409
O O16 0.172951 0.019107 0.989844
O O17 0.161938 0.941686 0.750000
O O18 0.582863 0.176421 0.750000
O O19 0.575827 0.250000 0.000000
O O20 0.919136 0.676466 0.750000
O O21 0.928573 0.750000 0.000000
O O22 0.664945 0.555538 0.750000
#
# Coordination Sequence:
#
# PCOD9435674 Si02
#       8
#     8   8   8   8   8   8   8   8
#     4  10  19  33  52  79 110 137 174 228 276 322
#     4  10  19  33  53  81 110 142 183 229 277 328
#     4  11  21  35  56  83 113 145 183 232 279 324
#     4   8  15  31  51  75 105 136 171 216 263 315
#     4  10  19  34  56  82 109 138 178 224 274 329
#     4  10  22  37  53  76 111 148 187 231 278 334
#     4  10  21  37  54  76 110 146 182 224 271 326
#     4   9  17  30  54  80 105 139 177 219 273 327
#
# _framework density 17.833442999999999
#
# number of rings (size 3 to 8) (size 9 to 14) (size 15 to 20)
#    0.000    2.250    2.500    1.875    0.000    2.500 
#    0.000    1.875    0.000    0.000    0.000    0.000 
#    0.000    0.000    0.000    0.000    0.000    0.000 
#
# Total GULP energy -356984.593122 kJ/mol
# GULP energy per Si atom -5577.884268 kJ/mol
# Density = 1.779285 g / cm^3
# Si number density = 17.833443 Si / 1000 Ang^3
#
#
#
# Elastic Constant Matrix: (Units=GPa)
#
#
# Indices 1 2 3 4 5 6 
#
# 1 192.3505 98.8537 28.6529 0.0000 0.0000 0.0000
# 2 98.8537 129.1258 15.8811 0.0000 0.0000 0.0000
# 3 28.6529 15.8811 15.5780 0.0000 0.0000 0.0000
# 4 0.0000 0.0000 0.0000 25.2477 0.0000 0.0000
# 5 0.0000 0.0000 0.0000 0.0000 22.8773 0.0000
# 6 0.0000 0.0000 0.0000 0.0000 0.0000 26.8885
#
#
#
# Elastic Compliance Matrix: (Units=1/GPa)
#
#
# Indices 1 2 3 4 5 6 
#
# 1 0.010341 -0.006377 -0.012519 0.000000 0.000000 0.000000
# 2 -0.006377 0.012787 -0.001307 0.000000 0.000000 0.000000
# 3 -0.012519 -0.001307 0.088553 0.000000 0.000000 0.000000
# 4 0.000000 0.000000 0.000000 0.039608 0.000000 0.000000
# 5 0.000000 0.000000 0.000000 0.000000 0.043711 0.000000
# 6 0.000000 0.000000 0.000000 0.000000 0.000000 0.037191
#
#
# Mechanical properties :
#
#
# Convention : Reuss Voigt Hill
#
# Bulk Modulus (GPa) = 14.03024 69.31441 41.67232
# Shear Modulus (GPa) = 16.87168 27.91380 22.39274
#
# Velocity S-wave (km/s) = 3.07916 3.96062 3.54737
# Velocity P-wave (km/s) = 4.53057 7.73740 6.34009
#
# Compressibility (1/GPa) = 0.07127464
#
# Stress axis : x y z
#
# Youngs Moduli (GPa) = 96.70217 78.20434 11.29272
#
# Poissons Ratio (x) = 0.49870 0.14138
# Poissons Ratio (y) = 0.61666 0.01476
# Poissons Ratio (z) = 1.21066 0.10218
#
# Static dielectric constant tensor:
#      x y z
#    x 1.696020 0.000000 0.000000 
#    y 0.000000 1.570230 0.000000 
#    z 0.000000 0.000000 1.613680 
# 
# From -- ./inp_files/8476.got.cif
#   From: 2010.05.17/outbox.cif.g08.bks.cpg/sg57_5_cif.got.tgz:8476.got - 2010.06.03 13:58:18.
