data_PCOD9435466
_publ_section_title
;
Structure prediction by ZEFSAII (Michael W. Deem and Ramdas Pophale) SiO2 
 PCOD9435466
Probable space group: P B C M
;
_chemical_formula_sum "Si O2"
_cell_formula_units_Z 40
_cell_length_a 13.893538
_cell_length_b 18.832196
_cell_length_c 8.734424
_cell_angle_alpha 90.000000
_cell_angle_beta 90.000000
_cell_angle_gamma 90.000000
_cell_volume 2285.325624
_symmetry_space_group_name_H-M "P B C M"
_symmetry_group_IT_number 57
_symmetry_cell_setting 'orthorhombic'
loop_
_space_group_symop_operation_xyz
x,y,z
-x,-y,1/2+z
x,1/2-y,-z
-x,1/2+y,1/2-z
-x,-y,-z
x,y,1/2-z
-x,1/2+y,z
x,1/2-y,1/2+z
loop_
_atom_site_type_symbol
_atom_site_label
_atom_site_fract_x
_atom_site_fract_y
_atom_site_fract_z
Si Si1 0.181960 0.673203 0.066600
Si Si2 0.699832 0.966509 0.934350
Si Si3 0.589830 0.827643 0.565062
Si Si4 0.386503 0.606065 0.065948
Si Si5 0.903106 0.467194 0.433770
O O1 0.174764 0.673386 0.250000
O O2 0.291885 0.651614 0.024288
O O3 0.159286 0.750000 0.000000
O O4 0.115666 0.611518 0.997746
O O5 0.695088 0.969297 0.750000
O O6 0.664970 0.888744 0.982763
O O7 0.808354 0.987330 0.980383
O O8 0.630095 0.027980 0.997690
O O9 0.609276 0.750000 0.500000
O O10 0.590151 0.823730 0.750000
O O11 0.484212 0.855690 0.515957
O O12 0.389234 0.599831 0.250000
O O13 0.906921 0.465660 0.250000
O O14 0.000000 0.500000 0.500000
#
# Coordination Sequence:
#
# PCOD9435466 Si02
#       5
#     8   8   8   8   8
#     4  10  19  32  51  78 107 133 164 206 252 300
#     4   9  19  34  52  73  99 130 168 210 251 296
#     4  10  20  33  48  72 104 137 169 202 240 289
#     4   9  18  31  50  75 103 133 167 203 243 293
#     4  10  20  36  56  76  99 131 169 213 261 308
#
# _framework density 17.502974999999999
#
# number of rings (size 3 to 8) (size 9 to 14) (size 15 to 20)
#    0.000    2.400    0.000    2.400    0.000    3.200 
#    0.000    1.000    0.000    2.400    0.000    0.000 
#    0.000    0.000    0.000    0.000    0.000    0.000 
#
# Total GULP energy -223236.295852 kJ/mol
# GULP energy per Si atom -5580.907396 kJ/mol
# Density = 1.746314 g / cm^3
# Si number density = 17.502975 Si / 1000 Ang^3
#
#
#
# Elastic Constant Matrix: (Units=GPa)
#
#
# Indices 1 2 3 4 5 6 
#
# 1 90.1551 90.4911 30.9882 0.0000 0.0000 0.0000
# 2 90.4911 197.4267 42.7889 0.0000 0.0000 0.0000
# 3 30.9882 42.7889 26.9383 0.0000 0.0000 0.0000
# 4 0.0000 0.0000 0.0000 33.4518 0.0000 0.0000
# 5 0.0000 0.0000 0.0000 0.0000 20.8040 0.0000
# 6 0.0000 0.0000 0.0000 0.0000 0.0000 20.7953
#
#
#
# Elastic Compliance Matrix: (Units=1/GPa)
#
#
# Indices 1 2 3 4 5 6 
#
# 1 0.024182 -0.007709 -0.015573 0.000000 0.000000 0.000000
# 2 -0.007709 0.010182 -0.007305 0.000000 0.000000 0.000000
# 3 -0.015573 -0.007305 0.066639 0.000000 0.000000 0.000000
# 4 0.000000 0.000000 0.000000 0.029894 0.000000 0.000000
# 5 0.000000 0.000000 0.000000 0.000000 0.048068 0.000000
# 6 0.000000 0.000000 0.000000 0.000000 0.000000 0.048088
#
#
# Mechanical properties :
#
#
# Convention : Reuss Voigt Hill
#
# Bulk Modulus (GPa) = 25.10694 71.45071 48.27882
# Shear Modulus (GPa) = 16.58357 25.02702 20.80529
#
# Velocity S-wave (km/s) = 3.08144 3.78547 3.45145
# Velocity P-wave (km/s) = 5.19961 7.74706 6.59746
#
# Compressibility (1/GPa) = 0.03982963
#
# Stress axis : x y z
#
# Youngs Moduli (GPa) = 41.35239 98.21475 15.00614
#
# Poissons Ratio (x) = 0.75712 0.23369
# Poissons Ratio (y) = 0.31878 0.10962
# Poissons Ratio (z) = 0.64399 0.71745
#
# Static dielectric constant tensor:
#      x y z
#    x 1.591810 0.000000 0.000000 
#    y 0.000000 1.575540 0.000000 
#    z 0.000000 0.000000 1.584360 
# 
# From -- ./inp_files/2669.got.cif
#   From: 2010.05.17/outbox.cif.g08.bks.cpg/sg57_2_cif.got.tgz:2669.got - 2010.06.03 13:58:18.
