data_PCOD9435246
_publ_section_title
;
Structure prediction by ZEFSAII (Michael W. Deem and Ramdas Pophale) SiO2 
 PCOD9435246
Probable space group: P B C M
;
_chemical_formula_sum "Si O2"
_cell_formula_units_Z 40
_cell_length_a 9.281652
_cell_length_b 26.878438
_cell_length_c 9.205246
_cell_angle_alpha 90.000000
_cell_angle_beta 90.000000
_cell_angle_gamma 90.000000
_cell_volume 2296.490785
_symmetry_space_group_name_H-M "P B C M"
_symmetry_group_IT_number 57
_symmetry_cell_setting 'orthorhombic'
loop_
_space_group_symop_operation_xyz
x,y,z
-x,-y,1/2+z
x,1/2-y,-z
-x,1/2+y,1/2-z
-x,-y,-z
x,y,1/2-z
-x,1/2+y,z
x,1/2-y,1/2+z
loop_
_atom_site_type_symbol
_atom_site_label
_atom_site_fract_x
_atom_site_fract_y
_atom_site_fract_z
Si Si1 0.821024 0.201232 0.084025
Si Si2 0.159102 0.098837 0.924373
Si Si3 0.827469 0.700107 0.081590
Si Si4 0.347237 0.498135 0.423424
Si Si5 0.849869 0.407658 0.573672
O O1 0.774606 0.205723 0.250000
O O2 0.782325 0.145901 0.030585
O O3 0.996635 0.201247 0.080617
O O4 0.770968 0.250000 0.000000
O O5 0.146340 0.104316 0.750000
O O6 0.262315 0.052563 0.957767
O O7 0.213270 0.150137 0.996134
O O8 0.002973 0.087996 0.994353
O O9 0.782799 0.698901 0.250000
O O10 0.778433 0.750000 0.000000
O O11 0.500000 0.500000 0.500000
O O12 0.367187 0.499722 0.250000
O O13 0.250197 0.545867 0.462825
O O14 0.871914 0.406219 0.750000
#
# Coordination Sequence:
#
# PCOD9435246 Si02
#       5
#     8   8   8   8   8
#     4   8  14  24  41  66  96 124 152 189 236 285
#     4  10  19  31  50  77 103 129 165 209 251 298
#     4   9  16  27  45  71 102 133 162 199 245 293
#     4  10  22  37  52  71  98 131 170 213 256 302
#     4   9  18  33  51  73 100 131 166 206 250 298
#
# _framework density 17.417881000000001
#
# number of rings (size 3 to 8) (size 9 to 14) (size 15 to 20)
#    0.000    2.800    0.000    3.000    0.000    7.200 
#    0.000    0.000    0.000    1.200    0.000    5.600 
#    0.000    0.000    0.000    0.000    0.000    0.000 
#
# Total GULP energy -222923.310630 kJ/mol
# GULP energy per Si atom -5573.082766 kJ/mol
# Density = 1.737824 g / cm^3
# Si number density = 17.417881 Si / 1000 Ang^3
#
#
#
# Elastic Constant Matrix: (Units=GPa)
#
#
# Indices 1 2 3 4 5 6 
#
# 1 55.8305 73.3799 41.4023 0.0000 0.0000 0.0000
# 2 73.3799 219.4983 87.3115 0.0000 0.0000 0.0000
# 3 41.4023 87.3115 69.9818 0.0000 0.0000 0.0000
# 4 0.0000 0.0000 0.0000 32.6950 0.0000 0.0000
# 5 0.0000 0.0000 0.0000 0.0000 21.7196 0.0000
# 6 0.0000 0.0000 0.0000 0.0000 0.0000 -3.5056
#
#
#
# Elastic Compliance Matrix: (Units=1/GPa)
#
#
# Indices 1 2 3 4 5 6 
#
# 1 0.036945 -0.007259 -0.012800 0.000000 0.000000 0.000000
# 2 -0.007259 0.010471 -0.008769 0.000000 0.000000 0.000000
# 3 -0.012800 -0.008769 0.032803 0.000000 0.000000 0.000000
# 4 0.000000 0.000000 0.000000 0.030586 0.000000 0.000000
# 5 0.000000 0.000000 0.000000 0.000000 0.046041 0.000000
# 6 0.000000 0.000000 0.000000 0.000000 0.000000 -0.285259
#
#
# Mechanical properties :
#
#
# Convention : Reuss Voigt Hill
#
# Bulk Modulus (GPa) = 44.32365 83.27755 63.80060
# Shear Modulus (GPa) = -79.06812 19.72959 -29.66927
#
# Velocity S-wave (km/s) = -6.74488 3.36924 -4.13168
# Velocity P-wave (km/s) = 5.92919 7.94047 3.73468
#
# Compressibility (1/GPa) = 0.02256132
#
# Stress axis : x y z
#
# Youngs Moduli (GPa) = 27.06752 95.50398 30.48532
#
# Poissons Ratio (x) = 0.69329 0.39022
# Poissons Ratio (y) = 0.19649 0.26733
# Poissons Ratio (z) = 0.34647 0.83747
#
# Static dielectric constant tensor:
#      x y z
#    x 1.550770 0.000000 0.000000 
#    y 0.000000 1.616160 0.000000 
#    z 0.000000 0.000000 1.590800 
# 
# From -- ./inp_files/1544.got.cif
#   From: 2010.05.17/outbox.cif.g08.bks.cpg/sg57_1_cif.got.tgz:1544.got - 2010.06.03 13:58:18.
