data_PCOD9435981
_publ_section_title
;
Structure prediction by ZEFSAII (Michael W. Deem and Ramdas Pophale) SiO2 
 PCOD9435981
Probable space group: P B C M
;
_chemical_formula_sum "Si O2"
_cell_formula_units_Z 56
_cell_length_a 14.229330
_cell_length_b 23.829565
_cell_length_c 8.155486
_cell_angle_alpha 90.000000
_cell_angle_beta 90.000000
_cell_angle_gamma 90.000000
_cell_volume 2765.351951
_symmetry_space_group_name_H-M "P B C M"
_symmetry_group_IT_number 57
_symmetry_cell_setting 'orthorhombic'
loop_
_space_group_symop_operation_xyz
x,y,z
-x,-y,1/2+z
x,1/2-y,-z
-x,1/2+y,1/2-z
-x,-y,-z
x,y,1/2-z
-x,1/2+y,z
x,1/2-y,1/2+z
loop_
_atom_site_type_symbol
_atom_site_label
_atom_site_fract_x
_atom_site_fract_y
_atom_site_fract_z
Si Si1 0.317209 0.187323 0.439193
Si Si2 0.766787 0.095531 0.048816
Si Si3 0.530659 0.605556 0.561897
Si Si4 0.631855 0.313319 0.942294
Si Si5 0.831432 0.611334 0.944689
Si Si6 0.325066 0.481026 0.050680
Si Si7 0.976069 0.063108 0.446536
O O1 0.326202 0.250000 0.500000
O O2 0.346878 0.181880 0.250000
O O3 0.381081 0.147957 0.552167
O O4 0.212585 0.163951 0.461997
O O5 0.766484 0.095140 0.250000
O O6 0.724471 0.154762 0.990998
O O7 0.872794 0.082090 0.995948
O O8 0.698831 0.043934 0.997272
O O9 0.502570 0.596058 0.750000
O O10 0.449980 0.641100 0.474566
O O11 0.579089 0.549010 0.490440
O O12 0.643580 0.307877 0.750000
O O13 0.612136 0.250000 0.000000
O O14 0.821757 0.618856 0.750000
O O15 0.765253 0.557850 0.991771
O O16 0.938601 0.600142 0.987767
O O17 0.331297 0.480901 0.250000
O O18 0.975433 0.064859 0.250000
O O19 0.000000 0.000000 0.500000
#
# Coordination Sequence:
#
# PCOD9435981 Si02
#       7
#     8   8   8   8   8   8   8
#     4  11  21  35  55  82 114 149 192 235 283 341
#     4   9  19  36  58  83 112 151 190 235 290 340
#     4  10  20  35  58  85 115 148 185 232 287 344
#     4  11  23  40  60  79 108 150 199 242 282 332
#     4  10  19  34  55  82 117 150 185 232 285 340
#     4   8  15  31  55  83 114 144 176 222 284 341
#     4  11  20  34  58  86 114 148 190 232 286 351
#
# _framework density 20.250588
#
# number of rings (size 3 to 8) (size 9 to 14) (size 15 to 20)
#    0.000    2.000    1.429    4.286    0.000    0.571 
#    0.000    3.571    0.000    1.714    0.000    0.000 
#    0.000    0.000    0.000    0.000    0.000    0.000 
#
# Total GULP energy -312465.693152 kJ/mol
# GULP energy per Si atom -5579.744521 kJ/mol
# Density = 2.020450 g / cm^3
# Si number density = 20.250588 Si / 1000 Ang^3
#
#
#
# Elastic Constant Matrix: (Units=GPa)
#
#
# Indices 1 2 3 4 5 6 
#
# 1 101.5572 47.5723 -0.3528 0.0000 0.0000 0.0000
# 2 47.5723 60.6568 2.3564 0.0000 0.0000 0.0000
# 3 -0.3528 2.3564 39.4706 0.0000 0.0000 0.0000
# 4 0.0000 0.0000 0.0000 14.0503 0.0000 0.0000
# 5 0.0000 0.0000 0.0000 0.0000 20.0602 0.0000
# 6 0.0000 0.0000 0.0000 0.0000 0.0000 14.7035
#
#
#
# Elastic Compliance Matrix: (Units=1/GPa)
#
#
# Indices 1 2 3 4 5 6 
#
# 1 0.015595 -0.012265 0.000872 0.000000 0.000000 0.000000
# 2 -0.012265 0.026170 -0.001672 0.000000 0.000000 0.000000
# 3 0.000872 -0.001672 0.025443 0.000000 0.000000 0.000000
# 4 0.000000 0.000000 0.000000 0.071173 0.000000 0.000000
# 5 0.000000 0.000000 0.000000 0.000000 0.049850 0.000000
# 6 0.000000 0.000000 0.000000 0.000000 0.000000 0.068011
#
#
# Mechanical properties :
#
#
# Convention : Reuss Voigt Hill
#
# Bulk Modulus (GPa) = 24.34405 33.42625 28.88515
# Shear Modulus (GPa) = 16.88821 19.90337 18.39579
#
# Velocity S-wave (km/s) = 2.89097 3.13845 3.01725
# Velocity P-wave (km/s) = 4.81572 5.44751 5.14132
#
# Compressibility (1/GPa) = 0.04107780
#
# Stress axis : x y z
#
# Youngs Moduli (GPa) = 64.12395 38.21154 39.30362
#
# Poissons Ratio (x) = 0.46865 -0.03426
# Poissons Ratio (y) = 0.78646 0.06572
# Poissons Ratio (z) = -0.05589 0.06389
#
# Static dielectric constant tensor:
#      x y z
#    x 1.747220 0.000000 0.000000 
#    y 0.000000 1.735810 0.000000 
#    z 0.000000 0.000000 2.034350 
# 
# From -- ./inp_files/5101.got.cif
#   From: 2010.05.17/outbox.cif.g08.bks.cpg/sg57_3_cif.got.tgz:5101.got - 2010.06.03 13:58:18.
