data_PCOD9435622
_publ_section_title
;
Structure prediction by ZEFSAII (Michael W. Deem and Ramdas Pophale) SiO2 
 PCOD9435622
Probable space group: P B C M
;
_chemical_formula_sum "Si O2"
_cell_formula_units_Z 64
_cell_length_a 14.960374
_cell_length_b 30.511502
_cell_length_c 8.628692
_cell_angle_alpha 90.000000
_cell_angle_beta 90.000000
_cell_angle_gamma 90.000000
_cell_volume 3938.682789
_symmetry_space_group_name_H-M "P B C M"
_symmetry_group_IT_number 57
_symmetry_cell_setting 'orthorhombic'
loop_
_space_group_symop_operation_xyz
x,y,z
-x,-y,1/2+z
x,1/2-y,-z
-x,1/2+y,1/2-z
-x,-y,-z
x,y,1/2-z
-x,1/2+y,z
x,1/2-y,1/2+z
loop_
_atom_site_type_symbol
_atom_site_label
_atom_site_fract_x
_atom_site_fract_y
_atom_site_fract_z
Si Si1 0.993467 0.202830 0.935951
Si Si2 0.797199 0.796259 0.063545
Si Si3 0.169009 0.962753 0.433047
Si Si4 0.957006 0.390105 0.934276
Si Si5 0.293744 0.115152 0.561159
Si Si6 0.538008 0.935148 0.064989
Si Si7 0.364540 0.528467 0.067895
Si Si8 0.874519 0.943808 0.436381
O O1 0.987916 0.202901 0.750000
O O2 0.098615 0.198673 0.981474
O O3 0.962189 0.250000 0.000000
O O4 0.947804 0.159288 0.002192
O O5 0.794831 0.795611 0.250000
O O6 0.740860 0.837749 0.008274
O O7 0.764667 0.750000 0.000000
O O8 0.155276 0.959204 0.250000
O O9 0.124234 0.921332 0.515993
O O10 0.273757 0.965588 0.473958
O O11 0.123687 0.007659 0.493533
O O12 0.966075 0.389056 0.750000
O O13 0.045040 0.413112 0.006930
O O14 0.294781 0.115059 0.750000
O O15 0.392828 0.101909 0.511173
O O16 0.219090 0.079236 0.517732
O O17 0.522554 0.931539 0.250000
O O18 0.592495 0.980499 0.039786
O O19 0.443573 0.938569 0.980340
O O20 0.343832 0.531575 0.250000
O O21 0.877540 0.946712 0.250000
#
# Coordination Sequence:
#
# PCOD9435622 Si02
#       8
#     8   8   8   8   8   8   8   8
#     4  10  19  34  54  76 103 135 172 216 262 306
#     4   9  17  30  48  71  99 133 167 206 252 298
#     4  12  24  37  52  73 101 138 179 219 260 309
#     4  12  24  37  52  75 103 139 179 216 259 311
#     4   9  16  30  51  72  99 136 171 204 249 301
#     4   9  17  31  51  73  98 131 167 204 250 303
#     4  10  19  33  51  73 100 130 165 210 256 300
#     4  11  20  36  53  72 103 140 177 215 254 302
#
# _framework density 16.249085999999998
#
# number of rings (size 3 to 8) (size 9 to 14) (size 15 to 20)
#    0.000    1.750    2.500    3.750    0.000    1.000 
#    0.000    0.625    0.000    0.000    0.000    0.875 
#    0.000    2.000    0.000    0.000    0.000    0.000 
#
# Total GULP energy -357245.416940 kJ/mol
# GULP energy per Si atom -5581.959640 kJ/mol
# Density = 1.621210 g / cm^3
# Si number density = 16.249086 Si / 1000 Ang^3
#
#
#
# Elastic Constant Matrix: (Units=GPa)
#
#
# Indices 1 2 3 4 5 6 
#
# 1 34.1755 18.4218 9.5305 0.0000 0.0000 0.0000
# 2 18.4218 117.2283 24.0581 0.0000 0.0000 0.0000
# 3 9.5305 24.0581 38.7951 0.0000 0.0000 0.0000
# 4 0.0000 0.0000 0.0000 26.1236 0.0000 0.0000
# 5 0.0000 0.0000 0.0000 0.0000 22.7998 0.0000
# 6 0.0000 0.0000 0.0000 0.0000 0.0000 23.0295
#
#
#
# Elastic Compliance Matrix: (Units=1/GPa)
#
#
# Indices 1 2 3 4 5 6 
#
# 1 0.032999 -0.004036 -0.005604 0.000000 0.000000 0.000000
# 2 -0.004036 0.010268 -0.005376 0.000000 0.000000 0.000000
# 3 -0.005604 -0.005376 0.030487 0.000000 0.000000 0.000000
# 4 0.000000 0.000000 0.000000 0.038280 0.000000 0.000000
# 5 0.000000 0.000000 0.000000 0.000000 0.043860 0.000000
# 6 0.000000 0.000000 0.000000 0.000000 0.000000 0.043423
#
#
# Mechanical properties :
#
#
# Convention : Reuss Voigt Hill
#
# Bulk Modulus (GPa) = 22.87152 32.69108 27.78130
# Shear Modulus (GPa) = 20.49842 23.60313 22.05077
#
# Velocity S-wave (km/s) = 3.55563 3.81541 3.68781
# Velocity P-wave (km/s) = 5.56442 6.29064 5.93864
#
# Compressibility (1/GPa) = 0.04372250
#
# Stress axis : x y z
#
# Youngs Moduli (GPa) = 30.30415 97.39165 32.80081
#
# Poissons Ratio (x) = 0.39302 0.18382
# Poissons Ratio (y) = 0.12229 0.17634
# Poissons Ratio (z) = 0.16983 0.52358
#
# Static dielectric constant tensor:
#      x y z
#    x 1.538890 0.000000 0.000000 
#    y 0.000000 1.545740 0.000000 
#    z 0.000000 0.000000 1.548920 
# 
# From -- ./inp_files/6031.got.cif
#   From: 2010.05.17/outbox.cif.g08.bks.cpg/sg57_4_cif.got.tgz:6031.got - 2010.06.03 13:58:18.
