data_PCOD9435880
_publ_section_title
;
Structure prediction by ZEFSAII (Michael W. Deem and Ramdas Pophale) SiO2 
 PCOD9435880
Probable space group: P B C M
;
_chemical_formula_sum "Si O2"
_cell_formula_units_Z 56
_cell_length_a 14.029545
_cell_length_b 22.966202
_cell_length_c 9.228222
_cell_angle_alpha 90.000000
_cell_angle_beta 90.000000
_cell_angle_gamma 90.000000
_cell_volume 2973.382633
_symmetry_space_group_name_H-M "P B C M"
_symmetry_group_IT_number 57
_symmetry_cell_setting 'orthorhombic'
loop_
_space_group_symop_operation_xyz
x,y,z
-x,-y,1/2+z
x,1/2-y,-z
-x,1/2+y,1/2-z
-x,-y,-z
x,y,1/2-z
-x,1/2+y,z
x,1/2-y,1/2+z
loop_
_atom_site_type_symbol
_atom_site_label
_atom_site_fract_x
_atom_site_fract_y
_atom_site_fract_z
Si Si1 0.241786 0.089626 0.421922
Si Si2 0.385126 0.187214 0.077453
Si Si3 0.466733 0.603059 0.915046
Si Si4 0.301292 0.802140 0.409802
Si Si5 0.831349 0.118386 0.078616
Si Si6 0.974401 0.939610 0.576098
Si Si7 0.670599 0.020052 0.422662
O O1 0.251387 0.075906 0.250000
O O2 0.283829 0.154241 0.441940
O O3 0.130941 0.082493 0.462529
O O4 0.302280 0.042223 0.511160
O O5 0.404013 0.193565 0.250000
O O6 0.389933 0.250000 0.000000
O O7 0.457725 0.140670 0.006028
O O8 0.498910 0.589259 0.750000
O O9 0.377343 0.646670 0.901915
O O10 0.421107 0.548493 0.999487
O O11 0.345355 0.750000 0.500000
O O12 0.277092 0.781693 0.250000
O O13 0.210651 0.827839 0.491411
O O14 0.825318 0.129506 0.250000
O O15 0.939287 0.103533 0.038773
O O16 0.761990 0.062727 0.050112
O O17 0.976837 0.947916 0.750000
O O18 0.000000 0.000000 0.500000
O O19 0.656719 0.017809 0.250000
#
# Coordination Sequence:
#
# PCOD9435880 Si02
#       7
#     8   8   8   8   8   8   8
#     4  10  22  38  58  84 117 152 188 234 288 341
#     4  11  24  42  61  82 109 150 197 240 284 332
#     4  10  21  37  59  85 113 149 188 233 287 342
#     4  10  20  33  52  78 108 143 182 226 278 333
#     4   9  18  32  51  79 113 145 180 224 274 328
#     4  10  19  34  57  84 113 147 184 228 279 339
#     4  10  19  33  56  88 120 149 184 230 282 338
#
# _framework density 18.833767999999999
#
# number of rings (size 3 to 8) (size 9 to 14) (size 15 to 20)
#    0.000    2.000    1.429    2.143    0.000    5.714 
#    0.000    0.714    0.000    1.714    0.000    0.000 
#    0.000    0.000    0.000    0.000    0.000    0.000 
#
# Total GULP energy -312538.053418 kJ/mol
# GULP energy per Si atom -5581.036668 kJ/mol
# Density = 1.879090 g / cm^3
# Si number density = 18.833768 Si / 1000 Ang^3
#
#
#
# Elastic Constant Matrix: (Units=GPa)
#
#
# Indices 1 2 3 4 5 6 
#
# 1 108.6516 46.6311 45.8686 0.0000 0.0000 0.0000
# 2 46.6311 59.7335 40.2687 0.0000 0.0000 0.0000
# 3 45.8686 40.2687 82.1796 0.0000 0.0000 0.0000
# 4 0.0000 0.0000 0.0000 28.5170 0.0000 0.0000
# 5 0.0000 0.0000 0.0000 0.0000 13.2928 0.0000
# 6 0.0000 0.0000 0.0000 0.0000 0.0000 20.3241
#
#
#
# Elastic Compliance Matrix: (Units=1/GPa)
#
#
# Indices 1 2 3 4 5 6 
#
# 1 0.014606 -0.008820 -0.003831 0.000000 0.000000 0.000000
# 2 -0.008820 0.030325 -0.009937 0.000000 0.000000 0.000000
# 3 -0.003831 -0.009937 0.019176 0.000000 0.000000 0.000000
# 4 0.000000 0.000000 0.000000 0.035067 0.000000 0.000000
# 5 0.000000 0.000000 0.000000 0.000000 0.075229 0.000000
# 6 0.000000 0.000000 0.000000 0.000000 0.000000 0.049203
#
#
# Mechanical properties :
#
#
# Convention : Reuss Voigt Hill
#
# Bulk Modulus (GPa) = 52.81966 57.34460 55.08213
# Shear Modulus (GPa) = 18.17585 20.27987 19.22786
#
# Velocity S-wave (km/s) = 3.10992 3.28500 3.19866
# Velocity P-wave (km/s) = 6.40325 6.70090 6.55377
#
# Compressibility (1/GPa) = 0.01893234
#
# Stress axis : x y z
#
# Youngs Moduli (GPa) = 68.46382 32.97605 52.14985
#
# Poissons Ratio (x) = 0.29085 0.19976
# Poissons Ratio (y) = 0.60385 0.51819
# Poissons Ratio (z) = 0.26226 0.32767
#
# Static dielectric constant tensor:
#      x y z
#    x 1.668050 0.000000 0.000000 
#    y 0.000000 1.638410 0.000000 
#    z 0.000000 0.000000 1.657880 
# 
# From -- ./inp_files/5144.got.cif
#   From: 2010.05.17/outbox.cif.g08.bks.cpg/sg57_3_cif.got.tgz:5144.got - 2010.06.03 13:58:18.
