data_PCOD9435914
_publ_section_title
;
Structure prediction by ZEFSAII (Michael W. Deem and Ramdas Pophale) SiO2 
 PCOD9435914
Probable space group: P B C M
;
_chemical_formula_sum "Si O2"
_cell_formula_units_Z 40
_cell_length_a 5.336634
_cell_length_b 22.110773
_cell_length_c 13.898040
_cell_angle_alpha 90.000000
_cell_angle_beta 90.000000
_cell_angle_gamma 90.000000
_cell_volume 1639.928457
_symmetry_space_group_name_H-M "P B C M"
_symmetry_group_IT_number 57
_symmetry_cell_setting 'orthorhombic'
loop_
_space_group_symop_operation_xyz
x,y,z
-x,-y,1/2+z
x,1/2-y,-z
-x,1/2+y,1/2-z
-x,-y,-z
x,y,1/2-z
-x,1/2+y,z
x,1/2-y,1/2+z
loop_
_atom_site_type_symbol
_atom_site_label
_atom_site_fract_x
_atom_site_fract_y
_atom_site_fract_z
Si Si1 0.156623 0.169130 0.423136
Si Si2 0.338537 0.734327 0.389054
Si Si3 0.974754 0.970048 0.894612
Si Si4 0.525451 0.979485 0.111379
Si Si5 0.687511 0.658675 0.856910
O O1 0.428743 0.187386 0.381739
O O2 0.172311 0.176981 0.541669
O O3 0.934564 0.206510 0.370104
O O4 0.095614 0.099498 0.404908
O O5 0.319455 0.750000 0.500000
O O6 0.449787 0.796497 0.348683
O O7 0.245540 0.980923 0.850555
O O8 0.745744 0.005641 0.848422
O O9 0.000000 0.000000 0.000000
O O10 0.597063 0.909694 0.124071
O O11 0.500000 0.000000 0.000000
O O12 0.814031 0.660873 0.750000
#
# Coordination Sequence:
#
# PCOD9435914 Si02
#       5
#     8   8   8   8   8
#     4  11  21  41  65  96 123 180 229 278 321 427
#     4  10  23  38  62  92 129 172 233 269 336 416
#     4  10  19  33  65  91 125 158 229 260 318 392
#     4  10  20  37  62  95 131 169 220 273 329 415
#     4  11  24  43  69 106 141 174 228 312 357 387
#
# _framework density 24.391310000000001
#
# number of rings (size 3 to 8) (size 9 to 14) (size 15 to 20)
#    0.000    1.600    4.000    3.000    8.400    1.600 
#    0.000   16.000    0.000    7.200    0.000    0.000 
#    0.000    0.000    0.000    0.000    0.000    0.000 
#
# Total GULP energy -223170.281430 kJ/mol
# GULP energy per Si atom -5579.257036 kJ/mol
# Density = 2.433579 g / cm^3
# Si number density = 24.391310 Si / 1000 Ang^3
#
#
#
# Elastic Constant Matrix: (Units=GPa)
#
#
# Indices 1 2 3 4 5 6 
#
# 1 202.0262 38.0812 14.9370 0.0000 0.0000 0.0000
# 2 38.0812 127.8254 9.6634 0.0000 0.0000 0.0000
# 3 14.9370 9.6634 143.5345 0.0000 0.0000 0.0000
# 4 0.0000 0.0000 0.0000 -225.6964 0.0000 0.0000
# 5 0.0000 0.0000 0.0000 0.0000 -56.1435 0.0000
# 6 0.0000 0.0000 0.0000 0.0000 0.0000 27.3401
#
#
#
# Elastic Compliance Matrix: (Units=1/GPa)
#
#
# Indices 1 2 3 4 5 6 
#
# 1 0.005273 -0.001537 -0.000445 0.000000 0.000000 0.000000
# 2 -0.001537 0.008311 -0.000400 0.000000 0.000000 0.000000
# 3 -0.000445 -0.000400 0.007040 0.000000 0.000000 0.000000
# 4 0.000000 0.000000 0.000000 -0.004431 0.000000 0.000000
# 5 0.000000 0.000000 0.000000 0.000000 -0.017811 0.000000
# 6 0.000000 0.000000 0.000000 0.000000 0.000000 0.036576
#
#
# Mechanical properties :
#
#
# Convention : Reuss Voigt Hill
#
# Bulk Modulus (GPa) = 63.05086 66.52769 64.78928
# Shear Modulus (GPa) = 111.08965 -23.51968 43.78498
#
# Velocity S-wave (km/s) = 6.75601 -3.10863 4.24147
# Velocity P-wave (km/s) = 9.31472 3.80126 7.11385
#
# Compressibility (1/GPa) = 0.01586021
#
# Stress axis : x y z
#
# Youngs Moduli (GPa) = 189.66308 120.31796 142.04144
#
# Poissons Ratio (x) = 0.18494 0.06324
# Poissons Ratio (y) = 0.29153 0.05676
# Poissons Ratio (z) = 0.08444 0.04808
#
# Static dielectric constant tensor:
#      x y z
#    x 0.409170 0.000000 0.000000 
#    y 0.000000 1.891730 0.000000 
#    z 0.000000 0.000000 1.985510 
# 
# From -- ./inp_files/14954.got.cif
#   From: 2010.05.17/outbox.cif.g08.bks.cpg/sg57_8_cif.got.tgz:14954.got - 2010.06.03 13:58:18.
