data_PCOD9435563
_publ_section_title
;
Structure prediction by ZEFSAII (Michael W. Deem and Ramdas Pophale) SiO2 
 PCOD9435563
Probable space group: P B C M
;
_chemical_formula_sum "Si O2"
_cell_formula_units_Z 36
_cell_length_a 10.234417
_cell_length_b 9.006633
_cell_length_c 20.531035
_cell_angle_alpha 90.000000
_cell_angle_beta 90.000000
_cell_angle_gamma 90.000000
_cell_volume 1892.502310
_symmetry_space_group_name_H-M "P B C M"
_symmetry_group_IT_number 57
_symmetry_cell_setting 'orthorhombic'
loop_
_space_group_symop_operation_xyz
x,y,z
-x,-y,1/2+z
x,1/2-y,-z
-x,1/2+y,1/2-z
-x,-y,-z
x,y,1/2-z
-x,1/2+y,z
x,1/2-y,1/2+z
loop_
_atom_site_type_symbol
_atom_site_label
_atom_site_fract_x
_atom_site_fract_y
_atom_site_fract_z
Si Si1 0.819280 0.503846 0.969693
Si Si2 0.014674 0.750000 0.500000
Si Si3 0.412032 0.358320 0.392616
Si Si4 0.445646 0.193948 0.750000
Si Si5 0.683191 0.007805 0.750000
Si Si6 0.682661 0.979016 0.896163
O O1 0.784898 0.497759 0.046468
O O2 0.893543 0.351857 0.955069
O O3 0.919734 0.639394 0.961029
O O4 0.686575 0.539221 0.932492
O O5 0.388425 0.374634 0.315508
O O6 0.379518 0.185783 0.406437
O O7 0.561658 0.406462 0.403761
O O8 0.417918 0.368590 0.750000
O O9 0.598758 0.157567 0.750000
O O10 0.741973 0.992955 0.822809
#
# Coordination Sequence:
#
# PCOD9435563 Si02
#       6
#     8   4   8   4   4   8
#     4  11  21  38  55  74 100 134 180 211 255 297
#     4  10  24  38  54  70 100 142 174 218 252 296
#     4  10  19  32  54  82 108 132 164 209 259 308
#     4   8  16  30  48  75 109 136 156 195 258 312
#     4   8  16  30  48  75 109 136 156 195 258 312
#     4  10  19  32  54  82 108 132 164 209 259 308
#
# _framework density 19.022432999999999
#
# number of rings (size 3 to 8) (size 9 to 14) (size 15 to 20)
#    0.000    2.222    2.222    0.667    3.111    0.000 
#    0.000    0.000    0.000    8.000    0.000    0.000 
#    0.000    0.000    0.000    0.000    0.000    0.000 
#
# Total GULP energy -200557.603707 kJ/mol
# GULP energy per Si atom -5571.044547 kJ/mol
# Density = 1.897914 g / cm^3
# Si number density = 19.022433 Si / 1000 Ang^3
#
#
#
# Elastic Constant Matrix: (Units=GPa)
#
#
# Indices 1 2 3 4 5 6 
#
# 1 47.6868 13.6375 32.4894 0.0000 0.0000 0.0000
# 2 13.6375 53.7710 21.4547 0.0000 0.0000 0.0000
# 3 32.4894 21.4547 70.3782 0.0000 0.0000 0.0000
# 4 0.0000 0.0000 0.0000 12.5697 0.0000 0.0000
# 5 0.0000 0.0000 0.0000 0.0000 -0.1019 0.0000
# 6 0.0000 0.0000 0.0000 0.0000 0.0000 26.6172
#
#
#
# Elastic Compliance Matrix: (Units=1/GPa)
#
#
# Indices 1 2 3 4 5 6 
#
# 1 0.030871 -0.002440 -0.013507 0.000000 0.000000 0.000000
# 2 -0.002440 0.021366 -0.005387 0.000000 0.000000 0.000000
# 3 -0.013507 -0.005387 0.022087 0.000000 0.000000 0.000000
# 4 0.000000 0.000000 0.000000 0.079556 0.000000 0.000000
# 5 0.000000 0.000000 0.000000 0.000000 -9.815983 0.000000
# 6 0.000000 0.000000 0.000000 0.000000 0.000000 0.037570
#
#
# Mechanical properties :
#
#
# Convention : Reuss Voigt Hill
#
# Bulk Modulus (GPa) = 31.59112 34.11103 32.85107
# Shear Modulus (GPa) = -0.52239 14.76732 7.12246
#
# Velocity S-wave (km/s) = -0.52461 2.78926 1.93710
# Velocity P-wave (km/s) = 4.03440 5.32393 4.72338
#
# Compressibility (1/GPa) = 0.03165447
#
# Stress axis : x y z
#
# Youngs Moduli (GPa) = 32.39335 46.80427 45.27634
#
# Poissons Ratio (x) = 0.11420 0.61156
# Poissons Ratio (y) = 0.07904 0.24390
# Poissons Ratio (z) = 0.43754 0.25213
#
# Static dielectric constant tensor:
#      x y z
#    x 1.637060 0.000000 0.000000 
#    y 0.000000 1.727680 0.000000 
#    z 0.000000 0.000000 1.693720 
# 
# From -- ./inp_files/24037.got.cif
#   From: 2010.05.17/outbox.cif.g08.bks.cpg/sg57_13_cif.got.tgz:24037.got - 2010.06.03 13:58:18.
