data_PCOD9435912
_publ_section_title
;
Structure prediction by ZEFSAII (Michael W. Deem and Ramdas Pophale) SiO2 
 PCOD9435912
Probable space group: P B C M
;
_chemical_formula_sum "Si O2"
_cell_formula_units_Z 40
_cell_length_a 9.300834
_cell_length_b 11.481298
_cell_length_c 19.288715
_cell_angle_alpha 90.000000
_cell_angle_beta 90.000000
_cell_angle_gamma 90.000000
_cell_volume 2059.757907
_symmetry_space_group_name_H-M "P B C M"
_symmetry_group_IT_number 57
_symmetry_cell_setting 'orthorhombic'
loop_
_space_group_symop_operation_xyz
x,y,z
-x,-y,1/2+z
x,1/2-y,-z
-x,1/2+y,1/2-z
-x,-y,-z
x,y,1/2-z
-x,1/2+y,z
x,1/2-y,1/2+z
loop_
_atom_site_type_symbol
_atom_site_label
_atom_site_fract_x
_atom_site_fract_y
_atom_site_fract_z
Si Si1 0.169044 0.872284 0.037508
Si Si2 0.298354 0.070886 0.830503
Si Si3 0.565380 0.003203 0.576694
Si Si4 0.050973 0.971789 0.902669
Si Si5 0.790591 0.705287 0.420394
O O1 0.319966 0.891245 0.074614
O O2 0.158333 0.750000 0.000000
O O3 0.145524 0.961598 0.973225
O O4 0.043565 0.910937 0.089379
O O5 0.323295 0.092740 0.750000
O O6 0.248447 0.187156 0.871058
O O7 0.440437 0.022005 0.868031
O O8 0.165596 0.981660 0.842061
O O9 0.661163 0.887956 0.586347
O O10 0.500000 0.000000 0.500000
O O11 0.936240 0.866387 0.901508
O O12 0.800468 0.750000 0.500000
#
# Coordination Sequence:
#
# PCOD9435912 Si02
#       5
#     8   8   8   8   8
#     4  10  19  33  62  93 119 152 208 261 307 364
#     4  12  26  42  61  93 133 172 210 263 332 391
#     4  11  22  39  63  95 124 162 211 264 310 377
#     4  10  20  38  59  92 125 158 209 263 309 375
#     4  11  22  41  70  95 125 167 223 267 316 378
#
# _framework density 19.419757000000001
#
# number of rings (size 3 to 8) (size 9 to 14) (size 15 to 20)
#    0.000    1.200    4.000    4.200    2.800    1.600 
#    0.000    3.000    0.000    0.000    0.000    0.000 
#    0.000    0.000    0.000    0.000    0.000    0.000 
#
# Total GULP energy -223357.627326 kJ/mol
# GULP energy per Si atom -5583.940683 kJ/mol
# Density = 1.937556 g / cm^3
# Si number density = 19.419757 Si / 1000 Ang^3
#
#
#
# Elastic Constant Matrix: (Units=GPa)
#
#
# Indices 1 2 3 4 5 6 
#
# 1 161.4910 65.6048 65.5968 0.0000 0.0000 0.0000
# 2 65.6048 104.6681 33.8723 0.0000 0.0000 0.0000
# 3 65.5968 33.8723 123.3339 0.0000 0.0000 0.0000
# 4 0.0000 0.0000 0.0000 19.3932 0.0000 0.0000
# 5 0.0000 0.0000 0.0000 0.0000 21.3625 0.0000
# 6 0.0000 0.0000 0.0000 0.0000 0.0000 24.0105
#
#
#
# Elastic Compliance Matrix: (Units=1/GPa)
#
#
# Indices 1 2 3 4 5 6 
#
# 1 0.009722 -0.004852 -0.003839 0.000000 0.000000 0.000000
# 2 -0.004852 0.012907 -0.000964 0.000000 0.000000 0.000000
# 3 -0.003839 -0.000964 0.010415 0.000000 0.000000 0.000000
# 4 0.000000 0.000000 0.000000 0.051564 0.000000 0.000000
# 5 0.000000 0.000000 0.000000 0.000000 0.046811 0.000000
# 6 0.000000 0.000000 0.000000 0.000000 0.000000 0.041648
#
#
# Mechanical properties :
#
#
# Convention : Reuss Voigt Hill
#
# Bulk Modulus (GPa) = 72.80755 79.96007 76.38381
# Shear Modulus (GPa) = 25.38646 27.91453 26.65050
#
# Velocity S-wave (km/s) = 3.61951 3.79546 3.70853
# Velocity P-wave (km/s) = 7.41894 7.77633 7.59974
#
# Compressibility (1/GPa) = 0.01373484
#
# Stress axis : x y z
#
# Youngs Moduli (GPa) = 102.85441 77.47680 96.01994
#
# Poissons Ratio (x) = 0.37590 0.36858
# Poissons Ratio (y) = 0.49902 0.09260
# Poissons Ratio (z) = 0.39481 0.07471
#
# Static dielectric constant tensor:
#      x y z
#    x 1.730810 0.000000 0.000000 
#    y 0.000000 1.758790 0.000000 
#    z 0.000000 0.000000 1.648280 
# 
# From -- ./inp_files/20531.got.cif
#   From: 2010.05.17/outbox.cif.g08.bks.cpg/sg57_11_cif.got.tgz:20531.got - 2010.06.03 13:58:18.
