data_PCOD9435952
_publ_section_title
;
Structure prediction by ZEFSAII (Michael W. Deem and Ramdas Pophale) SiO2 
 PCOD9435952
Probable space group: P B C M
;
_chemical_formula_sum "Si O2"
_cell_formula_units_Z 64
_cell_length_a 17.627608
_cell_length_b 9.216433
_cell_length_c 19.923035
_cell_angle_alpha 90.000000
_cell_angle_beta 90.000000
_cell_angle_gamma 90.000000
_cell_volume 3236.769345
_symmetry_space_group_name_H-M "P B C M"
_symmetry_group_IT_number 57
_symmetry_cell_setting 'orthorhombic'
loop_
_space_group_symop_operation_xyz
x,y,z
-x,-y,1/2+z
x,1/2-y,-z
-x,1/2+y,1/2-z
-x,-y,-z
x,y,1/2-z
-x,1/2+y,z
x,1/2-y,1/2+z
loop_
_atom_site_type_symbol
_atom_site_label
_atom_site_fract_x
_atom_site_fract_y
_atom_site_fract_z
Si Si1 0.157235 0.836898 0.571362
Si Si2 0.409646 0.218904 0.667669
Si Si3 0.272791 0.407765 0.673841
Si Si4 0.919411 0.579515 0.498732
Si Si5 0.556655 0.394809 0.830410
Si Si6 0.960948 0.299325 0.324807
Si Si7 0.898444 0.611518 0.149948
Si Si8 0.714693 0.238101 0.669002
O O1 0.164430 0.750000 0.500000
O O2 0.089755 0.768296 0.616234
O O3 0.229224 0.825988 0.620348
O O4 0.133055 0.000668 0.552651
O O5 0.409129 0.210771 0.750000
O O6 0.330234 0.289550 0.644581
O O7 0.478838 0.322199 0.645875
O O8 0.425067 0.055582 0.643630
O O9 0.300637 0.428737 0.750000
O O10 0.185242 0.362722 0.677139
O O11 0.276775 0.570852 0.646315
O O12 0.932971 0.750000 0.500000
O O13 0.883220 0.563730 0.426067
O O14 0.000000 0.500000 0.500000
O O15 0.547440 0.407928 0.750000
O O16 0.629203 0.292354 0.840580
O O17 0.940668 0.244176 0.250000
O O18 0.944090 0.471022 0.323234
O O19 0.046605 0.248649 0.340065
O O20 0.733136 0.250694 0.750000
#
# Coordination Sequence:
#
# PCOD9435952 Si02
#       8
#     8   8   8   8   8   8   8   8
#     4  12  23  41  64  88 118 160 211 256 314 370
#     4   9  17  30  52  83 124 163 200 242 298 371
#     4  10  19  34  54  81 118 157 197 247 309 369
#     4  12  24  41  61  83 108 154 209 261 304 367
#     4   9  17  31  52  84 120 159 198 241 302 368
#     4  12  24  40  62  88 122 159 205 258 314 374
#     4  12  24  41  60  85 121 161 206 257 318 372
#     4  10  20  36  61  89 123 159 200 256 311 367
#
# _framework density 19.772801999999999
#
# number of rings (size 3 to 8) (size 9 to 14) (size 15 to 20)
#    0.000    1.250    3.750    3.375    0.000    4.000 
#    0.000    0.000    0.000    0.000    0.000    8.750 
#    0.000    0.000    0.000    0.000    0.000    0.000 
#
# Total GULP energy -356940.144010 kJ/mol
# GULP energy per Si atom -5577.189750 kJ/mol
# Density = 1.972780 g / cm^3
# Si number density = 19.772802 Si / 1000 Ang^3
#
#
#
# Elastic Constant Matrix: (Units=GPa)
#
#
# Indices 1 2 3 4 5 6 
#
# 1 131.0860 56.3922 12.3533 0.0000 0.0000 0.0000
# 2 56.3922 88.7171 6.6040 0.0000 0.0000 0.0000
# 3 12.3533 6.6040 67.6626 0.0000 0.0000 0.0000
# 4 0.0000 0.0000 0.0000 17.7632 0.0000 0.0000
# 5 0.0000 0.0000 0.0000 0.0000 -19.5318 0.0000
# 6 0.0000 0.0000 0.0000 0.0000 0.0000 25.7267
#
#
#
# Elastic Compliance Matrix: (Units=1/GPa)
#
#
# Indices 1 2 3 4 5 6 
#
# 1 0.010610 -0.006648 -0.001288 0.000000 0.000000 0.000000
# 2 -0.006648 0.015520 -0.000301 0.000000 0.000000 0.000000
# 3 -0.001288 -0.000301 0.015044 0.000000 0.000000 0.000000
# 4 0.000000 0.000000 0.000000 0.056296 0.000000 0.000000
# 5 0.000000 0.000000 0.000000 0.000000 -0.051199 0.000000
# 6 0.000000 0.000000 0.000000 0.000000 0.000000 0.038870
#
#
# Mechanical properties :
#
#
# Convention : Reuss Voigt Hill
#
# Bulk Modulus (GPa) = 40.48756 48.68498 44.58627
# Shear Modulus (GPa) = 45.51671 18.93268 32.22469
#
# Velocity S-wave (km/s) = 4.80311 3.09772 4.04139
# Velocity P-wave (km/s) = 7.16105 6.12129 6.66149
#
# Compressibility (1/GPa) = 0.02469894
#
# Stress axis : x y z
#
# Youngs Moduli (GPa) = 94.25061 64.43257 66.47261
#
# Poissons Ratio (x) = 0.42836 0.08563
# Poissons Ratio (y) = 0.62660 0.02001
# Poissons Ratio (z) = 0.12142 0.01939
#
# Static dielectric constant tensor:
#      x y z
#    x 1.692780 0.000000 0.000000 
#    y 0.000000 1.753460 0.000000 
#    z 0.000000 0.000000 1.749140 
# 
# From -- ./inp_files/25611.got.cif
#   From: 2010.05.17/outbox.cif.g08.bks.cpg/sg57_13_cif.got.tgz:25611.got - 2010.06.03 13:58:18.
