data_PCOD9435128
_publ_section_title
;
Structure prediction by ZEFSAII (Michael W. Deem and Ramdas Pophale) SiO2 
 PCOD9435128
Probable space group: P B C M
;
_chemical_formula_sum "Si O2"
_cell_formula_units_Z 40
_cell_length_a 15.629320
_cell_length_b 13.593650
_cell_length_c 7.842822
_cell_angle_alpha 90.000000
_cell_angle_beta 90.000000
_cell_angle_gamma 90.000000
_cell_volume 1666.282086
_symmetry_space_group_name_H-M "P B C M"
_symmetry_group_IT_number 57
_symmetry_cell_setting 'orthorhombic'
loop_
_space_group_symop_operation_xyz
x,y,z
-x,-y,1/2+z
x,1/2-y,-z
-x,1/2+y,1/2-z
-x,-y,-z
x,y,1/2-z
-x,1/2+y,z
x,1/2-y,1/2+z
loop_
_atom_site_type_symbol
_atom_site_label
_atom_site_fract_x
_atom_site_fract_y
_atom_site_fract_z
Si Si1 0.064015 0.141353 0.949717
Si Si2 0.326803 0.354522 0.440401
Si Si3 0.879130 0.070566 0.043715
Si Si4 0.306446 0.923705 0.959015
Si Si5 0.510505 0.114262 0.454402
O O1 0.075747 0.134881 0.750000
O O2 0.108910 0.042583 0.021055
O O3 0.092381 0.250000 0.000000
O O4 0.963252 0.128526 0.988961
O O5 0.291370 0.250000 0.500000
O O6 0.294788 0.366290 0.250000
O O7 0.310960 0.461749 0.521910
O O8 0.429796 0.342695 0.447120
O O9 0.879028 0.069334 0.250000
O O10 0.787208 0.112305 0.988999
O O11 0.311541 0.925518 0.750000
O O12 0.391969 0.865700 0.011711
O O13 0.501224 0.129718 0.250000
O O14 0.500000 0.000000 0.500000
#
# Coordination Sequence:
#
# PCOD9435128 Si02
#       5
#     8   8   8   8   8
#     4  10  20  34  54  78 104 135 169 207 254 308
#     4  10  19  31  47  70  99 130 166 204 247 294
#     4   9  18  35  56  77 103 134 170 211 256 306
#     4   8  16  31  51  72  95 125 160 202 248 294
#     4   9  16  29  48  68  92 124 159 192 234 284
#
# _framework density 24.00554
#
# number of rings (size 3 to 8) (size 9 to 14) (size 15 to 20)
#    0.000    2.800    0.000    3.000    0.000    1.600 
#    0.000    7.000    0.000    0.000    0.000    0.000 
#    0.000    0.000    0.000    0.000    0.000    0.000 
#
# Total GULP energy -222993.459655 kJ/mol
# GULP energy per Si atom -5574.836491 kJ/mol
# Density = 2.395090 g / cm^3
# Si number density = 24.005540 Si / 1000 Ang^3
#
#
#
# Elastic Constant Matrix: (Units=GPa)
#
#
# Indices 1 2 3 4 5 6 
#
# 1 167.9984 0.0397 0.3231 0.0000 0.0000 0.0000
# 2 0.0397 76.3151 -4.3567 0.0000 0.0000 0.0000
# 3 0.3231 -4.3567 37.8105 0.0000 0.0000 0.0000
# 4 0.0000 0.0000 0.0000 23.8751 0.0000 0.0000
# 5 0.0000 0.0000 0.0000 0.0000 7.8848 0.0000
# 6 0.0000 0.0000 0.0000 0.0000 0.0000 -36.3933
#
#
#
# Elastic Compliance Matrix: (Units=1/GPa)
#
#
# Indices 1 2 3 4 5 6 
#
# 1 0.005953 -0.000006 -0.000052 0.000000 0.000000 0.000000
# 2 -0.000006 0.013190 0.001520 0.000000 0.000000 0.000000
# 3 -0.000052 0.001520 0.026623 0.000000 0.000000 0.000000
# 4 0.000000 0.000000 0.000000 0.041885 0.000000 0.000000
# 5 0.000000 0.000000 0.000000 0.000000 0.126826 0.000000
# 6 0.000000 0.000000 0.000000 0.000000 0.000000 -0.027478
#
#
# Mechanical properties :
#
#
# Convention : Reuss Voigt Hill
#
# Bulk Modulus (GPa) = 20.53777 30.45957 25.49867
# Shear Modulus (GPa) = 24.96200 18.14784 21.55492
#
# Velocity S-wave (km/s) = 3.22816 2.75250 2.99977
# Velocity P-wave (km/s) = 4.74011 4.77680 4.75849
#
# Compressibility (1/GPa) = 0.04869078
#
# Stress axis : x y z
#
# Youngs Moduli (GPa) = 167.99554 75.81305 37.56110
#
# Poissons Ratio (x) = 0.00046 0.00194
# Poissons Ratio (y) = 0.00102 -0.05709
# Poissons Ratio (z) = 0.00866 -0.11523
#
# Static dielectric constant tensor:
#      x y z
#    x 1.959450 0.000000 0.000000 
#    y 0.000000 1.968330 0.000000 
#    z 0.000000 0.000000 1.870500 
# 
# From -- ./inp_files/6366.got.cif
#   From: 2010.05.17/outbox.cif.g08.bks.cpg/sg57_4_cif.got.tgz:6366.got - 2010.06.03 13:58:18.
