data_PCOD9435163
_publ_section_title
;
Structure prediction by ZEFSAII (Michael W. Deem and Ramdas Pophale) SiO2 
 PCOD9435163
Probable space group: P B C M
;
_chemical_formula_sum "Si O2"
_cell_formula_units_Z 64
_cell_length_a 30.618458
_cell_length_b 13.953905
_cell_length_c 9.048187
_cell_angle_alpha 90.000000
_cell_angle_beta 90.000000
_cell_angle_gamma 90.000000
_cell_volume 3865.811241
_symmetry_space_group_name_H-M "P B C M"
_symmetry_group_IT_number 57
_symmetry_cell_setting 'orthorhombic'
loop_
_space_group_symop_operation_xyz
x,y,z
-x,-y,1/2+z
x,1/2-y,-z
-x,1/2+y,1/2-z
-x,-y,-z
x,y,1/2-z
-x,1/2+y,z
x,1/2-y,1/2+z
loop_
_atom_site_type_symbol
_atom_site_label
_atom_site_fract_x
_atom_site_fract_y
_atom_site_fract_z
Si Si1 0.256187 0.648530 0.426706
Si Si2 0.813816 0.501445 0.920219
Si Si3 0.569127 0.478389 0.074827
Si Si4 0.891428 0.346903 0.580774
Si Si5 0.952800 0.006838 0.573308
Si Si6 0.518048 0.646738 0.925212
Si Si7 0.359506 0.851424 0.925986
Si Si8 0.123013 0.145877 0.426794
O O1 0.243289 0.750000 0.500000
O O2 0.249005 0.656858 0.250000
O O3 0.228514 0.556145 0.477418
O O4 0.307789 0.634513 0.452802
O O5 0.806327 0.532657 0.750000
O O6 0.850996 0.419606 0.918127
O O7 0.834889 0.587489 0.013010
O O8 0.575433 0.490620 0.250000
O O9 0.529111 0.403584 0.052791
O O10 0.553196 0.576439 0.000064
O O11 0.611453 0.433737 0.998354
O O12 0.878752 0.250000 0.500000
O O13 0.904610 0.329022 0.750000
O O14 0.929490 0.399035 0.490668
O O15 0.956423 0.011375 0.750000
O O16 0.919991 0.918404 0.536452
O O17 0.000000 0.000000 0.500000
O O18 0.525673 0.653813 0.750000
O O19 0.518424 0.750000 0.000000
O O20 0.366741 0.846903 0.750000
O O21 0.371749 0.750000 0.000000
O O22 0.120304 0.250000 0.500000
O O23 0.125323 0.153914 0.250000
#
# Coordination Sequence:
#
# PCOD9435163 Si02
#       8
#     8   8   8   8   8   8   8   8
#     4   9  18  31  49  75 105 136 166 200 244 294
#     4   9  18  33  52  74 101 130 161 199 241 286
#     4  10  20  33  50  72  99 132 169 208 251 299
#     4  10  19  31  49  72  98 128 159 193 235 281
#     4  10  21  36  52  72  99 129 163 200 239 286
#     4  10  20  33  50  72  98 129 167 210 254 300
#     4  10  19  31  48  72 103 136 169 204 246 296
#     4  10  21  36  55  77  99 128 165 205 248 291
#
# _framework density 16.555388000000001
#
# number of rings (size 3 to 8) (size 9 to 14) (size 15 to 20)
#    0.000    2.250    0.000    3.000    0.000    6.000 
#    0.000    1.250    0.000    0.750    0.000    3.500 
#    0.000    0.000    0.000    0.000    0.000    0.000 
#
# Total GULP energy -357058.820287 kJ/mol
# GULP energy per Si atom -5579.044067 kJ/mol
# Density = 1.651771 g / cm^3
# Si number density = 16.555388 Si / 1000 Ang^3
#
#
#
# Elastic Constant Matrix: (Units=GPa)
#
#
# Indices 1 2 3 4 5 6 
#
# 1 59.2676 29.8721 42.4590 0.0000 0.0000 0.0000
# 2 29.8721 106.2773 62.9106 0.0000 0.0000 0.0000
# 3 42.4590 62.9106 84.9757 0.0000 0.0000 0.0000
# 4 0.0000 0.0000 0.0000 33.6878 0.0000 0.0000
# 5 0.0000 0.0000 0.0000 0.0000 22.8999 0.0000
# 6 0.0000 0.0000 0.0000 0.0000 0.0000 17.8740
#
#
#
# Elastic Compliance Matrix: (Units=1/GPa)
#
#
# Indices 1 2 3 4 5 6 
#
# 1 0.026308 0.000688 -0.013654 0.000000 0.000000 0.000000
# 2 0.000688 0.016768 -0.012758 0.000000 0.000000 0.000000
# 3 -0.013654 -0.012758 0.028036 0.000000 0.000000 0.000000
# 4 0.000000 0.000000 0.000000 0.029684 0.000000 0.000000
# 5 0.000000 0.000000 0.000000 0.000000 0.043668 0.000000
# 6 0.000000 0.000000 0.000000 0.000000 0.000000 0.055947
#
#
# Mechanical properties :
#
#
# Convention : Reuss Voigt Hill
#
# Bulk Modulus (GPa) = 50.85608 57.88935 54.37271
# Shear Modulus (GPa) = 19.34887 22.57760 20.96324
#
# Velocity S-wave (km/s) = 3.42239 3.69692 3.56230
# Velocity P-wave (km/s) = 6.81193 7.29835 7.05933
#
# Compressibility (1/GPa) = 0.01966333
#
# Stress axis : x y z
#
# Youngs Moduli (GPa) = 38.01158 59.63828 35.66895
#
# Poissons Ratio (x) = -0.04104 0.48704
# Poissons Ratio (y) = -0.02616 0.45505
# Poissons Ratio (z) = 0.51903 0.76084
#
# Static dielectric constant tensor:
#      x y z
#    x 1.555750 0.000000 0.000000 
#    y 0.000000 1.487220 0.000000 
#    z 0.000000 0.000000 1.555640 
# 
# From -- ./inp_files/10272.got.cif
#   From: 2010.05.17/outbox.cif.g08.bks.cpg/sg57_6_cif.got.tgz:10272.got - 2010.06.03 13:58:18.
