data_PCOD9435248
_publ_section_title
;
Structure prediction by ZEFSAII (Michael W. Deem and Ramdas Pophale) SiO2 
 PCOD9435248
Probable space group: P B C M
;
_chemical_formula_sum "Si O2"
_cell_formula_units_Z 56
_cell_length_a 18.565483
_cell_length_b 19.622377
_cell_length_c 8.122600
_cell_angle_alpha 90.000000
_cell_angle_beta 90.000000
_cell_angle_gamma 90.000000
_cell_volume 2959.054299
_symmetry_space_group_name_H-M "P B C M"
_symmetry_group_IT_number 57
_symmetry_cell_setting 'orthorhombic'
loop_
_space_group_symop_operation_xyz
x,y,z
-x,-y,1/2+z
x,1/2-y,-z
-x,1/2+y,1/2-z
-x,-y,-z
x,y,1/2-z
-x,1/2+y,z
x,1/2-y,1/2+z
loop_
_atom_site_type_symbol
_atom_site_label
_atom_site_fract_x
_atom_site_fract_y
_atom_site_fract_z
Si Si1 0.035178 0.428505 0.552888
Si Si2 0.367734 0.670947 0.552751
Si Si3 0.475134 0.329105 0.051717
Si Si4 0.800620 0.564480 0.551699
Si Si5 0.911345 0.171907 0.448780
Si Si6 0.771802 0.088346 0.448181
Si Si7 0.317606 0.171165 0.550710
O O1 0.036723 0.426814 0.750000
O O2 0.116393 0.422487 0.490499
O O3 0.000000 0.500000 0.500000
O O4 0.982152 0.368563 0.493540
O O5 0.358722 0.750000 0.500000
O O6 0.367656 0.669955 0.750000
O O7 0.446761 0.645097 0.493284
O O8 0.302268 0.625252 0.491896
O O9 0.475394 0.333874 0.250000
O O10 0.396963 0.355016 0.994560
O O11 0.475034 0.250000 0.000000
O O12 0.794847 0.563622 0.750000
O O13 0.778471 0.489204 0.490818
O O14 0.746309 0.622706 0.490150
O O15 0.910809 0.250000 0.500000
O O16 0.910758 0.169101 0.250000
O O17 0.839920 0.132519 0.508553
O O18 0.776892 0.086028 0.250000
O O19 0.308825 0.250000 0.500000
O O20 0.317518 0.169921 0.750000
#
# Coordination Sequence:
#
# PCOD9435248 Si02
#       7
#     8   8   8   8   8   8   8
#     4  11  22  39  60  81 107 141 180 220 265 319
#     4  10  19  31  50  77 107 139 181 225 268 316
#     4   8  15  29  49  74 103 138 178 220 266 318
#     4  10  21  38  58  80 108 143 180 218 267 324
#     4  10  22  38  56  80 108 138 177 220 262 313
#     4  10  20  36  53  74 108 143 180 219 263 319
#     4   9  18  34  57  80 107 142 179 224 274 319
#
# _framework density 18.924966999999999
#
# number of rings (size 3 to 8) (size 9 to 14) (size 15 to 20)
#    0.000    2.286    1.429    1.286    0.000    5.143 
#    0.000    3.571    0.000    0.000    0.000    0.000 
#    0.000    0.000    0.000    0.000    0.000    0.000 
#
# Total GULP energy -312300.165189 kJ/mol
# GULP energy per Si atom -5576.788664 kJ/mol
# Density = 1.888189 g / cm^3
# Si number density = 18.924967 Si / 1000 Ang^3
#
#
#
# Elastic Constant Matrix: (Units=GPa)
#
#
# Indices 1 2 3 4 5 6 
#
# 1 225.0279 108.1301 8.9512 0.0000 0.0000 0.0000
# 2 108.1301 130.6478 10.8875 0.0000 0.0000 0.0000
# 3 8.9512 10.8875 9.3390 0.0000 0.0000 0.0000
# 4 0.0000 0.0000 0.0000 20.5595 0.0000 0.0000
# 5 0.0000 0.0000 0.0000 0.0000 12.1444 0.0000
# 6 0.0000 0.0000 0.0000 0.0000 0.0000 31.1755
#
#
#
# Elastic Compliance Matrix: (Units=1/GPa)
#
#
# Indices 1 2 3 4 5 6 
#
# 1 0.007378 -0.006111 0.000052 0.000000 0.000000 0.000000
# 2 -0.006111 0.013539 -0.009927 0.000000 0.000000 0.000000
# 3 0.000052 -0.009927 0.118601 0.000000 0.000000 0.000000
# 4 0.000000 0.000000 0.000000 0.048639 0.000000 0.000000
# 5 0.000000 0.000000 0.000000 0.000000 0.082342 0.000000
# 6 0.000000 0.000000 0.000000 0.000000 0.000000 0.032076
#
#
# Mechanical properties :
#
#
# Convention : Reuss Voigt Hill
#
# Bulk Modulus (GPa) = 9.29823 68.99470 39.14646
# Shear Modulus (GPa) = 13.49904 28.57894 21.03899
#
# Velocity S-wave (km/s) = 2.67365 3.89024 3.33784
# Velocity P-wave (km/s) = 3.80198 7.53092 5.96531
#
# Compressibility (1/GPa) = 0.10754741
#
# Stress axis : x y z
#
# Youngs Moduli (GPa) = 135.53405 73.86027 8.43163
#
# Poissons Ratio (x) = 0.45135 -0.00044
# Poissons Ratio (y) = 0.82824 0.08370
# Poissons Ratio (z) = -0.00709 0.73320
#
# Static dielectric constant tensor:
#      x y z
#    x 1.672380 0.000000 0.000000 
#    y 0.000000 1.620260 0.000000 
#    z 0.000000 0.000000 1.673800 
# 
# From -- ./inp_files/5176.got.cif
#   From: 2010.05.17/outbox.cif.g08.bks.cpg/sg57_3_cif.got.tgz:5176.got - 2010.06.03 13:58:18.
