data_PCOD9435461
_publ_section_title
;
Structure prediction by ZEFSAII (Michael W. Deem and Ramdas Pophale) SiO2 
 PCOD9435461
Probable space group: P B C M
;
_chemical_formula_sum "Si O2"
_cell_formula_units_Z 48
_cell_length_a 15.230110
_cell_length_b 20.891685
_cell_length_c 8.786273
_cell_angle_alpha 90.000000
_cell_angle_beta 90.000000
_cell_angle_gamma 90.000000
_cell_volume 2795.639720
_symmetry_space_group_name_H-M "P B C M"
_symmetry_group_IT_number 57
_symmetry_cell_setting 'orthorhombic'
loop_
_space_group_symop_operation_xyz
x,y,z
-x,-y,1/2+z
x,1/2-y,-z
-x,1/2+y,1/2-z
-x,-y,-z
x,y,1/2-z
-x,1/2+y,z
x,1/2-y,1/2+z
loop_
_atom_site_type_symbol
_atom_site_label
_atom_site_fract_x
_atom_site_fract_y
_atom_site_fract_z
Si Si1 0.505225 0.683705 0.569345
Si Si2 0.920315 0.540574 0.567480
Si Si3 0.880009 0.815110 0.067745
Si Si4 0.267065 0.491646 0.925954
Si Si5 0.433708 0.552969 0.068609
Si Si6 0.690669 0.657484 0.074124
O O1 0.470714 0.750000 0.500000
O O2 0.496137 0.682837 0.750000
O O3 0.459872 0.621919 0.496207
O O4 0.607647 0.678941 0.522662
O O5 0.918854 0.535582 0.750000
O O6 0.925156 0.616736 0.529205
O O7 0.828690 0.514318 0.500314
O O8 0.000000 0.500000 0.500000
O O9 0.874775 0.810226 0.250000
O O10 0.920471 0.750000 0.000000
O O11 0.782364 0.820572 0.997371
O O12 0.260359 0.512172 0.750000
O O13 0.306054 0.419631 0.926772
O O14 0.335650 0.534643 0.017100
O O15 0.442045 0.552165 0.250000
O O16 0.500000 0.500000 0.000000
O O17 0.682785 0.678887 0.250000
#
# Coordination Sequence:
#
# PCOD9435461 Si02
#       6
#     8   8   8   8   8   8
#     4  12  24  37  53  75 109 149 191 237 283 333
#     4  10  21  37  58  84 113 145 184 230 282 337
#     4  10  20  33  51  77 110 144 180 220 272 333
#     4  10  20  35  57  83 111 145 186 230 278 330
#     4  12  23  37  57  82 112 148 191 233 277 330
#     4  10  19  32  51  76 109 145 183 222 271 331
#
# _framework density 17.169594
#
# number of rings (size 3 to 8) (size 9 to 14) (size 15 to 20)
#    0.000    1.333    1.667    5.500    0.000    3.333 
#    0.000    0.000    0.000    1.000    0.000    4.667 
#    0.000    0.000    0.000    0.000    0.000    0.000 
#
# Total GULP energy -268210.053500 kJ/mol
# GULP energy per Si atom -5587.709448 kJ/mol
# Density = 1.713052 g / cm^3
# Si number density = 17.169594 Si / 1000 Ang^3
#
#
#
# Elastic Constant Matrix: (Units=GPa)
#
#
# Indices 1 2 3 4 5 6 
#
# 1 82.8805 66.5944 51.2991 0.0000 0.0000 0.0000
# 2 66.5944 148.8606 78.8733 0.0000 0.0000 0.0000
# 3 51.2991 78.8733 157.4035 0.0000 0.0000 0.0000
# 4 0.0000 0.0000 0.0000 30.9087 0.0000 0.0000
# 5 0.0000 0.0000 0.0000 0.0000 29.3898 0.0000
# 6 0.0000 0.0000 0.0000 0.0000 0.0000 17.5879
#
#
#
# Elastic Compliance Matrix: (Units=1/GPa)
#
#
# Indices 1 2 3 4 5 6 
#
# 1 0.019658 -0.007351 -0.002723 0.000000 0.000000 0.000000
# 2 -0.007351 0.011895 -0.003565 0.000000 0.000000 0.000000
# 3 -0.002723 -0.003565 0.009027 0.000000 0.000000 0.000000
# 4 0.000000 0.000000 0.000000 0.032353 0.000000 0.000000
# 5 0.000000 0.000000 0.000000 0.000000 0.034025 0.000000
# 6 0.000000 0.000000 0.000000 0.000000 0.000000 0.056857
#
#
# Mechanical properties :
#
#
# Convention : Reuss Voigt Hill
#
# Bulk Modulus (GPa) = 75.17830 86.96425 81.07128
# Shear Modulus (GPa) = 25.57186 28.40248 26.98717
#
# Velocity S-wave (km/s) = 3.86342 4.07164 3.96889
# Velocity P-wave (km/s) = 7.98637 8.53606 8.26579
#
# Compressibility (1/GPa) = 0.01330171
#
# Stress axis : x y z
#
# Youngs Moduli (GPa) = 50.87051 84.06799 110.78208
#
# Poissons Ratio (x) = 0.61802 0.30165
# Poissons Ratio (y) = 0.37397 0.39490
# Poissons Ratio (z) = 0.13852 0.29967
#
# Static dielectric constant tensor:
#      x y z
#    x 1.551620 0.000000 0.000000 
#    y 0.000000 1.614080 0.000000 
#    z 0.000000 0.000000 1.571840 
# 
# From -- ./inp_files/4608.got.cif
#   From: 2010.05.17/outbox.cif.g08.bks.cpg/sg57_3_cif.got.tgz:4608.got - 2010.06.03 13:58:18.
