data_PCOD9435678
_publ_section_title
;
Structure prediction by ZEFSAII (Michael W. Deem and Ramdas Pophale) SiO2 
 PCOD9435678
Probable space group: P B C M
;
_chemical_formula_sum "Si O2"
_cell_formula_units_Z 36
_cell_length_a 11.484004
_cell_length_b 8.472420
_cell_length_c 19.999451
_cell_angle_alpha 90.000000
_cell_angle_beta 90.000000
_cell_angle_gamma 90.000000
_cell_volume 1945.892687
_symmetry_space_group_name_H-M "P B C M"
_symmetry_group_IT_number 57
_symmetry_cell_setting 'orthorhombic'
loop_
_space_group_symop_operation_xyz
x,y,z
-x,-y,1/2+z
x,1/2-y,-z
-x,1/2+y,1/2-z
-x,-y,-z
x,y,1/2-z
-x,1/2+y,z
x,1/2-y,1/2+z
loop_
_atom_site_type_symbol
_atom_site_label
_atom_site_fract_x
_atom_site_fract_y
_atom_site_fract_z
Si Si1 0.027926 0.750000 0.500000
Si Si2 0.670696 0.543771 0.325315
Si Si3 0.166460 0.020979 0.052737
Si Si4 0.380303 0.927145 0.529988
Si Si5 0.572048 0.311155 0.826885
O O1 0.941105 0.866251 0.537980
O O2 0.111083 0.653286 0.549467
O O3 0.714859 0.554174 0.250000
O O4 0.770462 0.560429 0.378951
O O5 0.567005 0.669237 0.333970
O O6 0.612772 0.369736 0.333876
O O7 0.268794 0.022698 0.996997
O O8 0.373478 0.750000 0.500000
O O9 0.379695 0.909963 0.610295
O O10 0.500000 0.000000 0.500000
O O11 0.600056 0.362500 0.750000
#
# Coordination Sequence:
#
# PCOD9435678 Si02
#       5
#     4   8   8   8   8
#     4  10  24  38  60  76 106 156 196 250 272 328
#     4  10  20  35  57  82 118 151 181 229 287 349
#     4  11  21  40  57  82 113 146 201 235 287 327
#     4  12  21  33  57  89 116 143 186 234 286 348
#     4  10  19  33  52  84 121 152 175 219 295 357
#
# _framework density 18.500506999999999
#
# number of rings (size 3 to 8) (size 9 to 14) (size 15 to 20)
#    0.000    1.333    5.556    0.000    1.556    1.778 
#    0.000    1.111    0.000    5.333    0.000    0.000 
#    0.000    0.000    0.000    0.000    0.000    0.000 
#
# Total GULP energy -200925.179945 kJ/mol
# GULP energy per Si atom -5581.254998 kJ/mol
# Density = 1.845840 g / cm^3
# Si number density = 18.500507 Si / 1000 Ang^3
#
#
#
# Elastic Constant Matrix: (Units=GPa)
#
#
# Indices 1 2 3 4 5 6 
#
# 1 84.5648 5.2819 34.4857 0.0000 0.0000 0.0000
# 2 5.2819 19.7214 2.6946 0.0000 0.0000 0.0000
# 3 34.4857 2.6946 111.2880 0.0000 0.0000 0.0000
# 4 0.0000 0.0000 0.0000 16.3338 0.0000 0.0000
# 5 0.0000 0.0000 0.0000 0.0000 22.4327 0.0000
# 6 0.0000 0.0000 0.0000 0.0000 0.0000 31.4757
#
#
#
# Elastic Compliance Matrix: (Units=1/GPa)
#
#
# Indices 1 2 3 4 5 6 
#
# 1 0.013723 -0.003105 -0.004177 0.000000 0.000000 0.000000
# 2 -0.003105 0.051577 -0.000287 0.000000 0.000000 0.000000
# 3 -0.004177 -0.000287 0.010287 0.000000 0.000000 0.000000
# 4 0.000000 0.000000 0.000000 0.061223 0.000000 0.000000
# 5 0.000000 0.000000 0.000000 0.000000 0.044578 0.000000
# 6 0.000000 0.000000 0.000000 0.000000 0.000000 0.031771
#
#
# Mechanical properties :
#
#
# Convention : Reuss Voigt Hill
#
# Bulk Modulus (GPa) = 16.54266 33.38873 24.96570
# Shear Modulus (GPa) = 20.12519 25.58923 22.85721
#
# Velocity S-wave (km/s) = 3.30179 3.72313 3.51877
# Velocity P-wave (km/s) = 4.84736 6.04722 5.48023
#
# Compressibility (1/GPa) = 0.06044975
#
# Stress axis : x y z
#
# Youngs Moduli (GPa) = 72.87240 19.38844 97.20958
#
# Poissons Ratio (x) = 0.06019 0.40606
# Poissons Ratio (y) = 0.22624 0.02788
# Poissons Ratio (z) = 0.30440 0.00556
#
# Static dielectric constant tensor:
#      x y z
#    x 1.604990 0.000000 0.000000 
#    y 0.000000 1.686760 0.000000 
#    z 0.000000 0.000000 1.651940 
# 
# From -- ./inp_files/24821.got.cif
#   From: 2010.05.17/outbox.cif.g08.bks.cpg/sg57_13_cif.got.tgz:24821.got - 2010.06.03 13:58:18.
