data_PCOD9435935
_publ_section_title
;
Structure prediction by ZEFSAII (Michael W. Deem and Ramdas Pophale) SiO2 
 PCOD9435935
Probable space group: P B C M
;
_chemical_formula_sum "Si O2"
_cell_formula_units_Z 48
_cell_length_a 11.608834
_cell_length_b 26.446067
_cell_length_c 8.679356
_cell_angle_alpha 90.000000
_cell_angle_beta 90.000000
_cell_angle_gamma 90.000000
_cell_volume 2664.631742
_symmetry_space_group_name_H-M "P B C M"
_symmetry_group_IT_number 57
_symmetry_cell_setting 'orthorhombic'
loop_
_space_group_symop_operation_xyz
x,y,z
-x,-y,1/2+z
x,1/2-y,-z
-x,1/2+y,1/2-z
-x,-y,-z
x,y,1/2-z
-x,1/2+y,z
x,1/2-y,1/2+z
loop_
_atom_site_type_symbol
_atom_site_label
_atom_site_fract_x
_atom_site_fract_y
_atom_site_fract_z
Si Si1 0.139722 0.694570 0.434703
Si Si2 0.236513 0.597812 0.929832
Si Si3 0.017361 0.553984 0.425847
Si Si4 0.371645 0.501356 0.066435
Si Si5 0.759337 0.905119 0.925796
Si Si6 0.130417 0.194411 0.063313
O O1 0.165389 0.750000 0.500000
O O2 0.142228 0.694127 0.250000
O O3 0.231188 0.653463 0.495750
O O4 0.004558 0.683859 0.479294
O O5 0.263082 0.600606 0.750000
O O6 0.105713 0.581056 0.962531
O O7 0.310565 0.552448 0.003908
O O8 0.064259 0.552493 0.250000
O O9 0.000000 0.500000 0.500000
O O10 0.892523 0.578257 0.417286
O O11 0.372684 0.503122 0.250000
O O12 0.500000 0.500000 0.000000
O O13 0.306849 0.449773 0.013537
O O14 0.713396 0.903092 0.750000
O O15 0.777722 0.848247 0.989828
O O16 0.133943 0.194158 0.250000
O O17 0.157149 0.250000 0.000000
#
# Coordination Sequence:
#
# PCOD9435935 Si02
#       6
#     8   8   8   8   8   8
#     4  10  19  34  53  82 119 157 194 231 279 334
#     4  12  23  36  56  83 117 154 191 233 283 343
#     4  11  20  32  51  80 116 150 186 228 282 343
#     4  12  26  43  62  83 109 145 191 241 293 347
#     4  10  20  36  56  81 116 152 187 232 282 337
#     4   9  18  32  51  79 117 154 188 226 271 327
#
# _framework density 18.013746000000001
#
# number of rings (size 3 to 8) (size 9 to 14) (size 15 to 20)
#    0.000    1.333    3.333    4.000    0.000    2.000 
#    0.000    0.000    0.000    1.000    0.000    4.667 
#    0.000    0.000    0.000    0.000    0.000    0.000 
#
# Total GULP energy -267591.147097 kJ/mol
# GULP energy per Si atom -5574.815565 kJ/mol
# Density = 1.797275 g / cm^3
# Si number density = 18.013746 Si / 1000 Ang^3
#
#
#
# Elastic Constant Matrix: (Units=GPa)
#
#
# Indices 1 2 3 4 5 6 
#
# 1 73.3077 56.5207 33.4021 0.0000 0.0000 0.0000
# 2 56.5207 179.9244 62.0276 0.0000 0.0000 0.0000
# 3 33.4021 62.0276 100.8130 0.0000 0.0000 0.0000
# 4 0.0000 0.0000 0.0000 28.8855 0.0000 0.0000
# 5 0.0000 0.0000 0.0000 0.0000 24.2592 0.0000
# 6 0.0000 0.0000 0.0000 0.0000 0.0000 7.5283
#
#
#
# Elastic Compliance Matrix: (Units=1/GPa)
#
#
# Indices 1 2 3 4 5 6 
#
# 1 0.018827 -0.004777 -0.003299 0.000000 0.000000 0.000000
# 2 -0.004777 0.008266 -0.003503 0.000000 0.000000 0.000000
# 3 -0.003299 -0.003503 0.013168 0.000000 0.000000 0.000000
# 4 0.000000 0.000000 0.000000 0.034619 0.000000 0.000000
# 5 0.000000 0.000000 0.000000 0.000000 0.041221 0.000000
# 6 0.000000 0.000000 0.000000 0.000000 0.000000 0.132832
#
#
# Mechanical properties :
#
#
# Convention : Reuss Voigt Hill
#
# Bulk Modulus (GPa) = 58.46875 73.10511 65.78693
# Shear Modulus (GPa) = 17.99895 25.60759 21.80327
#
# Velocity S-wave (km/s) = 3.16441 3.77445 3.48281
# Velocity P-wave (km/s) = 6.77345 7.72440 7.26450
#
# Compressibility (1/GPa) = 0.01710315
#
# Stress axis : x y z
#
# Youngs Moduli (GPa) = 53.11412 120.97366 75.94301
#
# Poissons Ratio (x) = 0.57791 0.25052
# Poissons Ratio (y) = 0.25373 0.26605
# Poissons Ratio (z) = 0.17521 0.42380
#
# Static dielectric constant tensor:
#      x y z
#    x 1.612830 0.000000 0.000000 
#    y 0.000000 1.706320 0.000000 
#    z 0.000000 0.000000 1.618200 
# 
# From -- ./inp_files/3281.got.cif
#   From: 2010.05.17/outbox.cif.g08.bks.cpg/sg57_2_cif.got.tgz:3281.got - 2010.06.03 13:58:18.
