data_PCOD9435654
_publ_section_title
;
Structure prediction by ZEFSAII (Michael W. Deem and Ramdas Pophale) SiO2 
 PCOD9435654
Probable space group: P B C M
;
_chemical_formula_sum "Si O2"
_cell_formula_units_Z 64
_cell_length_a 12.412590
_cell_length_b 32.305652
_cell_length_c 8.687812
_cell_angle_alpha 90.000000
_cell_angle_beta 90.000000
_cell_angle_gamma 90.000000
_cell_volume 3483.784924
_symmetry_space_group_name_H-M "P B C M"
_symmetry_group_IT_number 57
_symmetry_cell_setting 'orthorhombic'
loop_
_space_group_symop_operation_xyz
x,y,z
-x,-y,1/2+z
x,1/2-y,-z
-x,1/2+y,1/2-z
-x,-y,-z
x,y,1/2-z
-x,1/2+y,z
x,1/2-y,1/2+z
loop_
_atom_site_type_symbol
_atom_site_label
_atom_site_fract_x
_atom_site_fract_y
_atom_site_fract_z
Si Si1 0.860579 0.388537 0.563835
Si Si2 0.509331 0.546776 0.936217
Si Si3 0.508940 0.704853 0.935746
Si Si4 0.099957 0.132324 0.065907
Si Si5 0.247548 0.060122 0.565073
Si Si6 0.111441 0.982826 0.934723
Si Si7 0.630745 0.374632 0.064123
Si Si8 0.758407 0.705486 0.934050
O O1 0.854050 0.387177 0.750000
O O2 0.866422 0.436470 0.513090
O O3 0.752122 0.370192 0.494735
O O4 0.974963 0.369090 0.516720
O O5 0.504999 0.544020 0.750000
O O6 0.627789 0.564346 0.978655
O O7 0.422131 0.581367 0.987088
O O8 0.500000 0.500000 0.000000
O O9 0.504391 0.706963 0.750000
O O10 0.438937 0.665328 0.985783
O O11 0.633882 0.697615 0.980310
O O12 0.476284 0.750000 0.000000
O O13 0.101516 0.133205 0.250000
O O14 0.165379 0.092045 0.010625
O O15 0.163218 0.170976 0.998588
O O16 0.240490 0.065335 0.750000
O O17 0.206843 0.014196 0.524626
O O18 0.102268 0.982081 0.750000
O O19 0.000000 0.000000 0.000000
O O20 0.629354 0.375293 0.250000
O O21 0.762451 0.705701 0.750000
O O22 0.788703 0.750000 0.000000
#
# Coordination Sequence:
#
# PCOD9435654 Si02
#       8
#     8   8   8   8   8   8   8   8
#     4  10  22  38  54  77 111 148 187 234 276 322
#     4  10  21  37  55  79 112 148 187 231 280 337
#     4   9  19  37  61  88 114 141 178 226 278 334
#     4  11  22  36  55  81 111 142 183 228 272 323
#     4  10  20  34  55  79 107 144 183 226 280 331
#     4  10  19  33  52  75 105 143 184 228 275 321
#     4  10  21  37  57  81 111 149 189 229 278 338
#     4  10  20  37  61  87 116 144 174 219 275 333
#
# _framework density 18.370823999999999
#
# number of rings (size 3 to 8) (size 9 to 14) (size 15 to 20)
#    0.000    2.000    1.250    2.250    0.000    6.500 
#    0.000    1.875    0.000    1.500    0.000    0.000 
#    0.000    0.000    0.000    0.000    0.000    0.000 
#
# Total GULP energy -357258.864170 kJ/mol
# GULP energy per Si atom -5582.169753 kJ/mol
# Density = 1.832901 g / cm^3
# Si number density = 18.370824 Si / 1000 Ang^3
#
#
#
# Elastic Constant Matrix: (Units=GPa)
#
#
# Indices 1 2 3 4 5 6 
#
# 1 119.8585 72.5655 27.0063 0.0000 0.0000 0.0000
# 2 72.5655 137.2457 28.2262 0.0000 0.0000 0.0000
# 3 27.0063 28.2262 13.6510 0.0000 0.0000 0.0000
# 4 0.0000 0.0000 0.0000 30.9392 0.0000 0.0000
# 5 0.0000 0.0000 0.0000 0.0000 27.1134 0.0000
# 6 0.0000 0.0000 0.0000 0.0000 0.0000 37.1423
#
#
#
# Elastic Compliance Matrix: (Units=1/GPa)
#
#
# Indices 1 2 3 4 5 6 
#
# 1 0.015902 -0.003372 -0.024488 0.000000 0.000000 0.000000
# 2 -0.003372 0.013392 -0.021020 0.000000 0.000000 0.000000
# 3 -0.024488 -0.021020 0.165164 0.000000 0.000000 0.000000
# 4 0.000000 0.000000 0.000000 0.032321 0.000000 0.000000
# 5 0.000000 0.000000 0.000000 0.000000 0.036882 0.000000
# 6 0.000000 0.000000 0.000000 0.000000 0.000000 0.026923
#
#
# Mechanical properties :
#
#
# Convention : Reuss Voigt Hill
#
# Bulk Modulus (GPa) = 10.34147 58.48346 34.41247
# Shear Modulus (GPa) = 11.88839 28.56948 20.22893
#
# Velocity S-wave (km/s) = 2.54664 3.94782 3.32195
# Velocity P-wave (km/s) = 3.78004 7.25841 5.78676
#
# Compressibility (1/GPa) = 0.09669807
#
# Stress axis : x y z
#
# Youngs Moduli (GPa) = 62.88501 74.67187 6.05457
#
# Poissons Ratio (x) = 0.25176 0.14827
# Poissons Ratio (y) = 0.21202 0.12727
# Poissons Ratio (z) = 1.53994 1.56963
#
# Static dielectric constant tensor:
#      x y z
#    x 1.631690 0.000000 0.000000 
#    y 0.000000 1.622210 0.000000 
#    z 0.000000 0.000000 1.624070 
# 
# From -- ./inp_files/3762.got.cif
#   From: 2010.05.17/outbox.cif.g08.bks.cpg/sg57_2_cif.got.tgz:3762.got - 2010.06.03 13:58:18.
