data_PCOD9435550
_publ_section_title
;
Structure prediction by ZEFSAII (Michael W. Deem and Ramdas Pophale) SiO2 
 PCOD9435550
Probable space group: P B C M
;
_chemical_formula_sum "Si O2"
_cell_formula_units_Z 64
_cell_length_a 18.207520
_cell_length_b 22.766404
_cell_length_c 8.107323
_cell_angle_alpha 90.000000
_cell_angle_beta 90.000000
_cell_angle_gamma 90.000000
_cell_volume 3360.645553
_symmetry_space_group_name_H-M "P B C M"
_symmetry_group_IT_number 57
_symmetry_cell_setting 'orthorhombic'
loop_
_space_group_symop_operation_xyz
x,y,z
-x,-y,1/2+z
x,1/2-y,-z
-x,1/2+y,1/2-z
-x,-y,-z
x,y,1/2-z
-x,1/2+y,z
x,1/2-y,1/2+z
loop_
_atom_site_type_symbol
_atom_site_label
_atom_site_fract_x
_atom_site_fract_y
_atom_site_fract_z
Si Si1 0.925305 0.314453 0.551879
Si Si2 0.830282 0.074928 0.940293
Si Si3 0.924442 0.970972 0.060360
Si Si4 0.246545 0.186859 0.050597
Si Si5 0.912415 0.842538 0.942227
Si Si6 0.328568 0.553092 0.052984
Si Si7 0.488235 0.932542 0.551640
Si Si8 0.648143 0.918020 0.549521
O O1 0.899541 0.250000 0.500000
O O2 0.926319 0.319365 0.750000
O O3 0.874459 0.366487 0.485617
O O4 0.009098 0.322824 0.487208
O O5 0.843904 0.060752 0.750000
O O6 0.743908 0.079721 0.972887
O O7 0.862380 0.020282 0.042472
O O8 0.932053 0.953042 0.250000
O O9 0.908538 0.912906 0.956690
O O10 0.000000 0.000000 0.000000
O O11 0.244085 0.183671 0.250000
O O12 0.163081 0.181792 0.984121
O O13 0.295022 0.131657 0.994061
O O14 0.277239 0.250000 0.000000
O O15 0.913595 0.825541 0.750000
O O16 0.323401 0.559783 0.250000
O O17 0.405791 0.581634 0.993571
O O18 0.332497 0.483259 0.013305
O O19 0.486183 0.929042 0.750000
O O20 0.564242 0.902443 0.497687
O O21 0.500000 0.000000 0.500000
O O22 0.649981 0.920805 0.750000
#
# Coordination Sequence:
#
# PCOD9435550 Si02
#       8
#     8   8   8   8   8   8   8   8
#     4  11  23  39  58  77 103 139 184 229 271 320
#     4  12  24  38  56  79 109 144 183 225 275 324
#     4  12  23  36  56  82 111 142 177 220 272 326
#     4  10  21  35  52  75 105 143 184 224 265 314
#     4  10  21  37  56  79 109 144 181 222 268 321
#     4  10  19  32  53  83 112 139 176 223 277 331
#     4   8  15  28  49  77 108 139 170 208 258 319
#     4   9  17  32  53  78 110 146 179 215 267 327
#
# _framework density 19.043962000000001
#
# number of rings (size 3 to 8) (size 9 to 14) (size 15 to 20)
#    0.000    1.750    1.250    4.125    0.000    3.000 
#    0.000    0.000    0.000    0.750    0.000    1.750 
#    0.000    0.000    0.000    0.000    0.000    0.000 
#
# Total GULP energy -357230.800216 kJ/mol
# GULP energy per Si atom -5581.731253 kJ/mol
# Density = 1.900062 g / cm^3
# Si number density = 19.043962 Si / 1000 Ang^3
#
#
#
# Elastic Constant Matrix: (Units=GPa)
#
#
# Indices 1 2 3 4 5 6 
#
# 1 128.0034 26.4210 7.8941 0.0000 0.0000 0.0000
# 2 26.4210 65.9244 -10.2047 0.0000 0.0000 0.0000
# 3 7.8941 -10.2047 29.4503 0.0000 0.0000 0.0000
# 4 0.0000 0.0000 0.0000 20.4497 0.0000 0.0000
# 5 0.0000 0.0000 0.0000 0.0000 15.3721 0.0000
# 6 0.0000 0.0000 0.0000 0.0000 0.0000 8.6852
#
#
#
# Elastic Compliance Matrix: (Units=1/GPa)
#
#
# Indices 1 2 3 4 5 6 
#
# 1 0.008908 -0.004163 -0.003830 0.000000 0.000000 0.000000
# 2 -0.004163 0.017974 0.007344 0.000000 0.000000 0.000000
# 3 -0.003830 0.007344 0.037527 0.000000 0.000000 0.000000
# 4 0.000000 0.000000 0.000000 0.048900 0.000000 0.000000
# 5 0.000000 0.000000 0.000000 0.000000 0.065053 0.000000
# 6 0.000000 0.000000 0.000000 0.000000 0.000000 0.115138
#
#
# Mechanical properties :
#
#
# Convention : Reuss Voigt Hill
#
# Bulk Modulus (GPa) = 15.84521 30.17767 23.01144
# Shear Modulus (GPa) = 15.83102 22.18591 19.00847
#
# Velocity S-wave (km/s) = 2.88633 3.41689 3.16276
# Velocity P-wave (km/s) = 4.40980 5.60781 5.04449
#
# Compressibility (1/GPa) = 0.06311058
#
# Stress axis : x y z
#
# Youngs Moduli (GPa) = 112.26153 55.63559 26.64753
#
# Poissons Ratio (x) = 0.23161 0.10207
# Poissons Ratio (y) = 0.46734 -0.19570
# Poissons Ratio (z) = 0.42998 -0.40859
#
# Static dielectric constant tensor:
#      x y z
#    x 1.713580 0.000000 0.000000 
#    y 0.000000 1.645440 0.000000 
#    z 0.000000 0.000000 1.483710 
# 
# From -- ./inp_files/7129.got.cif
#   From: 2010.05.17/outbox.cif.g08.bks.cpg/sg57_4_cif.got.tgz:7129.got - 2010.06.03 13:58:18.
