data_PCOD9435732
_publ_section_title
;
Structure prediction by ZEFSAII (Michael W. Deem and Ramdas Pophale) SiO2 
 PCOD9435732
Probable space group: P B C M
;
_chemical_formula_sum "Si O2"
_cell_formula_units_Z 64
_cell_length_a 10.313676
_cell_length_b 21.652037
_cell_length_c 15.332462
_cell_angle_alpha 90.000000
_cell_angle_beta 90.000000
_cell_angle_gamma 90.000000
_cell_volume 3423.924201
_symmetry_space_group_name_H-M "P B C M"
_symmetry_group_IT_number 57
_symmetry_cell_setting 'orthorhombic'
loop_
_space_group_symop_operation_xyz
x,y,z
-x,-y,1/2+z
x,1/2-y,-z
-x,1/2+y,1/2-z
-x,-y,-z
x,y,1/2-z
-x,1/2+y,z
x,1/2-y,1/2+z
loop_
_atom_site_type_symbol
_atom_site_label
_atom_site_fract_x
_atom_site_fract_y
_atom_site_fract_z
Si Si1 0.141102 0.136483 0.647849
Si Si2 0.358220 0.183647 0.957604
Si Si3 0.354792 0.822767 0.017813
Si Si4 0.414989 0.593346 0.150900
Si Si5 0.788322 0.000216 0.082596
Si Si6 0.860049 0.376993 0.353378
Si Si7 0.052758 0.479889 0.848832
Si Si8 0.305601 0.431914 0.579695
O O1 0.128448 0.134927 0.750000
O O2 0.254498 0.181066 0.618505
O O3 0.182442 0.067896 0.618916
O O4 0.997139 0.152273 0.615884
O O5 0.358405 0.250000 0.000000
O O6 0.506559 0.170179 0.933657
O O7 0.313459 0.131824 0.026430
O O8 0.376926 0.857360 0.924702
O O9 0.328791 0.750000 0.000000
O O10 0.248534 0.854676 0.079366
O O11 0.414023 0.617794 0.250000
O O12 0.309076 0.539542 0.140404
O O13 0.558164 0.565819 0.129965
O O14 0.932228 0.030261 0.085356
O O15 0.717348 0.986928 0.990732
O O16 0.832471 0.362862 0.250000
O O17 0.890193 0.450524 0.356708
O O18 0.002120 0.473574 0.750000
O O19 0.174830 0.435565 0.864234
#
# Coordination Sequence:
#
# PCOD9435732 Si02
#       8
#     8   8   8   8   8   8   8   8
#     4   9  18  34  55  81 107 135 171 218 270 323
#     4   9  20  37  53  73 102 138 182 223 264 316
#     4  10  22  39  56  76 105 145 189 227 270 322
#     4  11  22  36  54  80 112 144 180 228 276 324
#     4  10  19  34  55  79 110 143 175 213 266 332
#     4   9  19  35  56  81 110 139 175 221 270 322
#     4  10  19  33  53  81 111 139 173 216 267 327
#     4  10  20  34  54  77 106 141 178 220 268 322
#
# _framework density 18.692003
#
# number of rings (size 3 to 8) (size 9 to 14) (size 15 to 20)
#    0.000    2.250    0.000    3.750    0.000    5.500 
#    0.000    6.875    0.000    1.500    0.000    0.000 
#    0.000    0.000    0.000    0.000    0.000    0.000 
#
# Total GULP energy -356622.303729 kJ/mol
# GULP energy per Si atom -5572.223496 kJ/mol
# Density = 1.864946 g / cm^3
# Si number density = 18.692003 Si / 1000 Ang^3
#
#
#
# Elastic Constant Matrix: (Units=GPa)
#
#
# Indices 1 2 3 4 5 6 
#
# 1 143.9665 42.3502 52.2916 0.0000 0.0000 0.0000
# 2 42.3502 34.0803 14.1763 0.0000 0.0000 0.0000
# 3 52.2916 14.1763 77.2125 0.0000 0.0000 0.0000
# 4 0.0000 0.0000 0.0000 4.9257 0.0000 0.0000
# 5 0.0000 0.0000 0.0000 0.0000 35.9463 0.0000
# 6 0.0000 0.0000 0.0000 0.0000 0.0000 17.9851
#
#
#
# Elastic Compliance Matrix: (Units=1/GPa)
#
#
# Indices 1 2 3 4 5 6 
#
# 1 0.013426 -0.013969 -0.006528 0.000000 0.000000 0.000000
# 2 -0.013969 0.046302 0.000959 0.000000 0.000000 0.000000
# 3 -0.006528 0.000959 0.017196 0.000000 0.000000 0.000000
# 4 0.000000 0.000000 0.000000 0.203018 0.000000 0.000000
# 5 0.000000 0.000000 0.000000 0.000000 0.027819 0.000000
# 6 0.000000 0.000000 0.000000 0.000000 0.000000 0.055601
#
#
# Mechanical properties :
#
#
# Convention : Reuss Voigt Hill
#
# Bulk Modulus (GPa) = 26.42081 52.54396 39.48238
# Shear Modulus (GPa) = 12.04658 21.53417 16.79037
#
# Velocity S-wave (km/s) = 2.54141 3.39787 3.00036
# Velocity P-wave (km/s) = 4.77255 6.60041 5.75946
#
# Compressibility (1/GPa) = 0.03784896
#
# Stress axis : x y z
#
# Youngs Moduli (GPa) = 74.47972 21.59731 58.15186
#
# Poissons Ratio (x) = 0.30169 0.37963
# Poissons Ratio (y) = 1.04041 -0.05578
# Poissons Ratio (z) = 0.48622 -0.02072
#
# Static dielectric constant tensor:
#      x y z
#    x 1.708290 0.000000 0.000000 
#    y 0.000000 1.629470 0.000000 
#    z 0.000000 0.000000 1.700720 
# 
# From -- ./inp_files/16934.got.cif
#   From: 2010.05.17/outbox.cif.g08.bks.cpg/sg57_9_cif.got.tgz:16934.got - 2010.06.03 13:58:18.
