data_PCOD9435602
_publ_section_title
;
Structure prediction by ZEFSAII (Michael W. Deem and Ramdas Pophale) SiO2 
 PCOD9435602
Probable space group: P B C M
;
_chemical_formula_sum "Si O2"
_cell_formula_units_Z 48
_cell_length_a 9.836988
_cell_length_b 18.274346
_cell_length_c 14.432090
_cell_angle_alpha 90.000000
_cell_angle_beta 90.000000
_cell_angle_gamma 90.000000
_cell_volume 2594.377765
_symmetry_space_group_name_H-M "P B C M"
_symmetry_group_IT_number 57
_symmetry_cell_setting 'orthorhombic'
loop_
_space_group_symop_operation_xyz
x,y,z
-x,-y,1/2+z
x,1/2-y,-z
-x,1/2+y,1/2-z
-x,-y,-z
x,y,1/2-z
-x,1/2+y,z
x,1/2-y,1/2+z
loop_
_atom_site_type_symbol
_atom_site_label
_atom_site_fract_x
_atom_site_fract_y
_atom_site_fract_z
Si Si1 0.838337 0.083337 0.357496
Si Si2 0.934214 0.667622 0.033494
Si Si3 0.564917 0.078304 0.027562
Si Si4 0.956416 0.920637 0.353551
Si Si5 0.315881 0.110171 0.357678
Si Si6 0.722604 0.434096 0.353334
O O1 0.831097 0.106275 0.250000
O O2 0.689482 0.071641 0.400624
O O3 0.928230 0.137937 0.419066
O O4 0.915516 0.005456 0.360723
O O5 0.813708 0.654332 0.106490
O O6 0.948832 0.750000 0.000000
O O7 0.898047 0.620820 0.941775
O O8 0.445212 0.123073 0.076354
O O9 0.633253 0.103946 0.931949
O O10 0.500000 0.000000 0.000000
O O11 0.914911 0.895308 0.250000
O O12 0.119378 0.913710 0.360442
O O13 0.345147 0.125237 0.250000
O O14 0.283207 0.022689 0.364275
O O15 0.673165 0.417235 0.250000
#
# Coordination Sequence:
#
# PCOD9435602 Si02
#       6
#     8   8   8   8   8   8
#     4  11  21  37  63  90 118 154 204 252 299 361
#     4  12  24  38  58  86 117 162 199 252 300 358
#     4  10  19  32  57  91 121 150 192 250 295 358
#     4  10  19  34  59  88 115 147 194 250 301 348
#     4  10  20  36  56  82 117 156 192 235 298 357
#     4   9  16  30  56  87 118 149 184 238 297 345
#
# _framework density 18.501546000000001
#
# number of rings (size 3 to 8) (size 9 to 14) (size 15 to 20)
#    0.000    1.667    3.333    3.500    0.000    2.000 
#    0.000    1.667    0.000    0.000    0.000    0.000 
#    0.000    0.000    0.000    0.000    0.000    0.000 
#
# Total GULP energy -267779.983539 kJ/mol
# GULP energy per Si atom -5578.749657 kJ/mol
# Density = 1.845944 g / cm^3
# Si number density = 18.501546 Si / 1000 Ang^3
#
#
#
# Elastic Constant Matrix: (Units=GPa)
#
#
# Indices 1 2 3 4 5 6 
#
# 1 87.6357 11.0216 27.3087 0.0000 0.0000 0.0000
# 2 11.0216 39.3324 32.1335 0.0000 0.0000 0.0000
# 3 27.3087 32.1335 117.5298 0.0000 0.0000 0.0000
# 4 0.0000 0.0000 0.0000 13.1684 0.0000 0.0000
# 5 0.0000 0.0000 0.0000 0.0000 29.5029 0.0000
# 6 0.0000 0.0000 0.0000 0.0000 0.0000 2.8490
#
#
#
# Elastic Compliance Matrix: (Units=1/GPa)
#
#
# Indices 1 2 3 4 5 6 
#
# 1 0.012365 -0.001439 -0.002480 0.000000 0.000000 0.000000
# 2 -0.001439 0.032904 -0.008662 0.000000 0.000000 0.000000
# 3 -0.002480 -0.008662 0.011453 0.000000 0.000000 0.000000
# 4 0.000000 0.000000 0.000000 0.075939 0.000000 0.000000
# 5 0.000000 0.000000 0.000000 0.000000 0.033895 0.000000
# 6 0.000000 0.000000 0.000000 0.000000 0.000000 0.351002
#
#
# Mechanical properties :
#
#
# Convention : Reuss Voigt Hill
#
# Bulk Modulus (GPa) = 31.68508 42.82502 37.25505
# Shear Modulus (GPa) = 9.03770 20.70634 14.87202
#
# Velocity S-wave (km/s) = 2.21256 3.34903 2.83826
# Velocity P-wave (km/s) = 4.86724 6.17670 5.56065
#
# Compressibility (1/GPa) = 0.03156060
#
# Stress axis : x y z
#
# Youngs Moduli (GPa) = 80.87658 30.39142 87.31478
#
# Poissons Ratio (x) = 0.04373 0.21650
# Poissons Ratio (y) = 0.11638 0.75630
# Poissons Ratio (z) = 0.20053 0.26325
#
# Static dielectric constant tensor:
#      x y z
#    x 1.636380 0.000000 0.000000 
#    y 0.000000 1.601920 0.000000 
#    z 0.000000 0.000000 1.667330 
# 
# From -- ./inp_files/16394.got.cif
#   From: 2010.05.17/outbox.cif.g08.bks.cpg/sg57_9_cif.got.tgz:16394.got - 2010.06.03 13:58:18.
