data_PCOD9435272
_publ_section_title
;
Structure prediction by ZEFSAII (Michael W. Deem and Ramdas Pophale) SiO2 
 PCOD9435272
Probable space group: P B C M
;
_chemical_formula_sum "Si O2"
_cell_formula_units_Z 64
_cell_length_a 29.740570
_cell_length_b 12.721934
_cell_length_c 7.687148
_cell_angle_alpha 90.000000
_cell_angle_beta 90.000000
_cell_angle_gamma 90.000000
_cell_volume 2908.490627
_symmetry_space_group_name_H-M "P B C M"
_symmetry_group_IT_number 57
_symmetry_cell_setting 'orthorhombic'
loop_
_space_group_symop_operation_xyz
x,y,z
-x,-y,1/2+z
x,1/2-y,-z
-x,1/2+y,1/2-z
-x,-y,-z
x,y,1/2-z
-x,1/2+y,z
x,1/2-y,1/2+z
loop_
_atom_site_type_symbol
_atom_site_label
_atom_site_fract_x
_atom_site_fract_y
_atom_site_fract_z
Si Si1 0.238178 0.913397 0.450656
Si Si2 0.011897 0.372234 0.042097
Si Si3 0.423622 0.530019 0.951314
Si Si4 0.108854 0.088628 0.547093
Si Si5 0.208164 0.364760 0.457711
Si Si6 0.861061 0.365293 0.042476
Si Si7 0.506845 0.861741 0.956755
Si Si8 0.336253 0.632583 0.959791
O O1 0.238077 0.877729 0.250000
O O2 0.190572 0.874189 0.526752
O O3 0.285599 0.880297 0.530249
O O4 0.234927 0.039248 0.459886
O O5 0.009671 0.373730 0.250000
O O6 0.063017 0.369090 0.969020
O O7 0.993236 0.250000 0.000000
O O8 0.000000 0.500000 0.000000
O O9 0.416428 0.500679 0.750000
O O10 0.457000 0.444059 0.030311
O O11 0.375033 0.555212 0.027367
O O12 0.457598 0.628305 0.959267
O O13 0.108548 0.117629 0.750000
O O14 0.156618 0.127096 0.473895
O O15 0.111023 0.961830 0.533436
O O16 0.225998 0.250000 0.500000
O O17 0.207555 0.381109 0.250000
O O18 0.860254 0.380014 0.250000
O O19 0.878438 0.250000 0.000000
O O20 0.501944 0.875959 0.750000
O O21 0.526192 0.750000 0.000000
O O22 0.334037 0.619187 0.750000
O O23 0.351261 0.750000 0.000000
#
# Coordination Sequence:
#
# PCOD9435272 Si02
#       8
#     8   8   8   8   8   8   8   8
#     4   9  19  34  50  72 103 138 174 213 258 310
#     4  11  24  43  66  92 123 160 201 246 297 353
#     4   9  19  34  51  73  99 129 165 204 247 298
#     4   9  20  37  57  82 111 144 185 231 278 331
#     4  10  19  33  55  80 105 135 172 216 263 311
#     4  10  19  31  51  78 109 145 184 228 278 329
#     4  10  19  32  51  73  98 127 161 204 252 299
#     4  10  20  34  52  73 100 132 166 205 249 299
#
# _framework density 22.004541
#
# number of rings (size 3 to 8) (size 9 to 14) (size 15 to 20)
#    0.000    2.250    0.000    2.625    0.000    5.000 
#    0.000    0.625    0.000    1.500    0.000    0.000 
#    0.000    0.000    0.000    0.000    0.000    0.000 
#
# Total GULP energy -356448.954178 kJ/mol
# GULP energy per Si atom -5569.514909 kJ/mol
# Density = 2.195446 g / cm^3
# Si number density = 22.004541 Si / 1000 Ang^3
#
#
#
# Elastic Constant Matrix: (Units=GPa)
#
#
# Indices 1 2 3 4 5 6 
#
# 1 83.1824 16.8480 1.6060 0.0000 0.0000 0.0000
# 2 16.8480 112.7353 -10.2896 0.0000 0.0000 0.0000
# 3 1.6060 -10.2896 66.1113 0.0000 0.0000 0.0000
# 4 0.0000 0.0000 0.0000 26.9448 0.0000 0.0000
# 5 0.0000 0.0000 0.0000 0.0000 24.7304 0.0000
# 6 0.0000 0.0000 0.0000 0.0000 0.0000 13.5393
#
#
#
# Elastic Compliance Matrix: (Units=1/GPa)
#
#
# Indices 1 2 3 4 5 6 
#
# 1 0.012420 -0.001911 -0.000599 0.000000 0.000000 0.000000
# 2 -0.001911 0.009292 0.001493 0.000000 0.000000 0.000000
# 3 -0.000599 0.001493 0.015373 0.000000 0.000000 0.000000
# 4 0.000000 0.000000 0.000000 0.037113 0.000000 0.000000
# 5 0.000000 0.000000 0.000000 0.000000 0.040436 0.000000
# 6 0.000000 0.000000 0.000000 0.000000 0.000000 0.073859
#
#
# Mechanical properties :
#
#
# Convention : Reuss Voigt Hill
#
# Bulk Modulus (GPa) = 28.53011 30.92865 29.72938
# Shear Modulus (GPa) = 24.72657 29.96721 27.34689
#
# Velocity S-wave (km/s) = 3.35580 3.69435 3.52914
# Velocity P-wave (km/s) = 5.29235 5.68188 5.49057
#
# Compressibility (1/GPa) = 0.03505069
#
# Stress axis : x y z
#
# Youngs Moduli (GPa) = 80.51281 107.61766 65.04961
#
# Poissons Ratio (x) = 0.20564 0.03897
# Poissons Ratio (y) = 0.15385 -0.09710
# Poissons Ratio (z) = 0.04824 -0.16064
#
# Static dielectric constant tensor:
#      x y z
#    x 1.837430 0.000000 0.000000 
#    y 0.000000 1.918300 0.000000 
#    z 0.000000 0.000000 1.822060 
# 
# From -- ./inp_files/10307.got.cif
#   From: 2010.05.17/outbox.cif.g08.bks.cpg/sg57_6_cif.got.tgz:10307.got - 2010.06.03 13:58:18.
