data_PCOD9435697
_publ_section_title
;
Structure prediction by ZEFSAII (Michael W. Deem and Ramdas Pophale) SiO2 
 PCOD9435697
Probable space group: P B C M
;
_chemical_formula_sum "Si O2"
_cell_formula_units_Z 64
_cell_length_a 22.134716
_cell_length_b 19.136253
_cell_length_c 9.010815
_cell_angle_alpha 90.000000
_cell_angle_beta 90.000000
_cell_angle_gamma 90.000000
_cell_volume 3816.760698
_symmetry_space_group_name_H-M "P B C M"
_symmetry_group_IT_number 57
_symmetry_cell_setting 'orthorhombic'
loop_
_space_group_symop_operation_xyz
x,y,z
-x,-y,1/2+z
x,1/2-y,-z
-x,1/2+y,1/2-z
-x,-y,-z
x,y,1/2-z
-x,1/2+y,z
x,1/2-y,1/2+z
loop_
_atom_site_type_symbol
_atom_site_label
_atom_site_fract_x
_atom_site_fract_y
_atom_site_fract_z
Si Si1 0.812528 0.021823 0.575208
Si Si2 0.101150 0.178012 0.574927
Si Si3 0.228818 0.381308 0.076272
Si Si4 0.516927 0.574107 0.072745
Si Si5 0.940010 0.531957 0.070701
Si Si6 0.405997 0.825672 0.928996
Si Si7 0.642896 0.915634 0.425604
Si Si8 0.302089 0.930289 0.572795
O O1 0.808355 0.032195 0.750000
O O2 0.764653 0.071717 0.495531
O O3 0.789657 0.944692 0.529752
O O4 0.882972 0.018530 0.532773
O O5 0.080685 0.250000 0.500000
O O6 0.086773 0.176444 0.750000
O O7 0.174527 0.173068 0.561671
O O8 0.074592 0.108660 0.496599
O O9 0.227402 0.405607 0.250000
O O10 0.299071 0.365821 0.045923
O O11 0.516708 0.566113 0.250000
O O12 0.465409 0.629759 0.031741
O O13 0.500000 0.500000 0.000000
O O14 0.582669 0.597519 0.016788
O O15 0.943782 0.536623 0.250000
O O16 0.000000 0.500000 0.000000
O O17 0.404223 0.820407 0.750000
O O18 0.347362 0.869934 0.977727
O O19 0.407208 0.750000 0.000000
O O20 0.628805 0.913323 0.250000
O O21 0.666604 0.994482 0.459863
O O22 0.296801 0.926926 0.750000
#
# Coordination Sequence:
#
# PCOD9435697 Si02
#       8
#     8   8   8   8   8   8   8   8
#     4   9  17  28  47  77 104 125 161 209 248 291
#     4  10  19  33  53  77 106 144 183 220 265 317
#     4   8  16  30  47  68  99 134 164 201 252 304
#     4  11  21  34  51  73 100 130 171 218 262 314
#     4  10  20  34  53  80 113 145 180 223 264 309
#     4  10  22  38  52  71  99 131 169 214 264 319
#     4   9  16  30  50  73  99 126 163 211 256 302
#     4   9  17  32  51  71  99 129 159 204 257 310
#
# _framework density 16.768146000000002
#
# number of rings (size 3 to 8) (size 9 to 14) (size 15 to 20)
#    0.000    2.500    1.250    2.250    0.000    5.500 
#    0.000    0.625    0.000    3.750    0.000    1.750 
#    0.000    0.000    0.000    0.000    0.000    0.000 
#
# Total GULP energy -356512.574528 kJ/mol
# GULP energy per Si atom -5570.508977 kJ/mol
# Density = 1.672998 g / cm^3
# Si number density = 16.768146 Si / 1000 Ang^3
#
#
#
# Elastic Constant Matrix: (Units=GPa)
#
#
# Indices 1 2 3 4 5 6 
#
# 1 153.6957 56.2576 58.9766 0.0000 0.0000 0.0000
# 2 56.2576 79.9966 38.8906 0.0000 0.0000 0.0000
# 3 58.9766 38.8906 49.0870 0.0000 0.0000 0.0000
# 4 0.0000 0.0000 0.0000 23.5088 0.0000 0.0000
# 5 0.0000 0.0000 0.0000 0.0000 30.1353 0.0000
# 6 0.0000 0.0000 0.0000 0.0000 0.0000 16.7931
#
#
#
# Elastic Compliance Matrix: (Units=1/GPa)
#
#
# Indices 1 2 3 4 5 6 
#
# 1 0.012347 -0.002393 -0.012939 0.000000 0.000000 0.000000
# 2 -0.002393 0.020795 -0.013601 0.000000 0.000000 0.000000
# 3 -0.012939 -0.013601 0.046693 0.000000 0.000000 0.000000
# 4 0.000000 0.000000 0.000000 0.042537 0.000000 0.000000
# 5 0.000000 0.000000 0.000000 0.000000 0.033184 0.000000
# 6 0.000000 0.000000 0.000000 0.000000 0.000000 0.059548
#
#
# Mechanical properties :
#
#
# Convention : Reuss Voigt Hill
#
# Bulk Modulus (GPa) = 45.51513 65.66987 55.59250
# Shear Modulus (GPa) = 17.83840 22.66441 20.25140
#
# Velocity S-wave (km/s) = 3.26517 3.68045 3.47901
# Velocity P-wave (km/s) = 6.43567 7.57030 7.02593
#
# Compressibility (1/GPa) = 0.02197071
#
# Stress axis : x y z
#
# Youngs Moduli (GPa) = 80.98985 48.08768 21.41627
#
# Poissons Ratio (x) = 0.11507 0.27711
# Poissons Ratio (y) = 0.19379 0.29128
# Poissons Ratio (z) = 1.04793 0.65403
#
# Static dielectric constant tensor:
#      x y z
#    x 1.593860 0.000000 0.000000 
#    y 0.000000 1.549300 0.000000 
#    z 0.000000 0.000000 1.562900 
# 
# From -- ./inp_files/8466.got.cif
#   From: 2010.05.17/outbox.cif.g08.bks.cpg/sg57_5_cif.got.tgz:8466.got - 2010.06.03 13:58:18.
