data_PCOD9435383
_publ_section_title
;
Structure prediction by ZEFSAII (Michael W. Deem and Ramdas Pophale) SiO2 
 PCOD9435383
Probable space group: P B C M
;
_chemical_formula_sum "Si O2"
_cell_formula_units_Z 48
_cell_length_a 15.694803
_cell_length_b 20.277474
_cell_length_c 8.834600
_cell_angle_alpha 90.000000
_cell_angle_beta 90.000000
_cell_angle_gamma 90.000000
_cell_volume 2811.619929
_symmetry_space_group_name_H-M "P B C M"
_symmetry_group_IT_number 57
_symmetry_cell_setting 'orthorhombic'
loop_
_space_group_symop_operation_xyz
x,y,z
-x,-y,1/2+z
x,1/2-y,-z
-x,1/2+y,1/2-z
-x,-y,-z
x,y,1/2-z
-x,1/2+y,z
x,1/2-y,1/2+z
loop_
_atom_site_type_symbol
_atom_site_label
_atom_site_fract_x
_atom_site_fract_y
_atom_site_fract_z
Si Si1 0.914438 0.678228 0.570084
Si Si2 0.035119 0.567841 0.070732
Si Si3 0.418886 0.412413 0.071914
Si Si4 0.599919 0.443784 0.068948
Si Si5 0.211839 0.546915 0.572682
Si Si6 0.753883 0.889796 0.927475
O O1 0.927234 0.750000 0.500000
O O2 0.921789 0.680088 0.750000
O O3 0.821474 0.651480 0.522203
O O4 0.982410 0.627329 0.501411
O O5 0.022101 0.566720 0.250000
O O6 0.134596 0.571255 0.028630
O O7 0.000000 0.500000 0.000000
O O8 0.403972 0.403167 0.250000
O O9 0.518366 0.397756 0.037913
O O10 0.410781 0.489894 0.028773
O O11 0.343331 0.378485 0.979372
O O12 0.595896 0.461136 0.250000
O O13 0.696161 0.420220 0.041813
O O14 0.190503 0.556526 0.750000
O O15 0.225402 0.467929 0.550892
O O16 0.763856 0.875493 0.750000
#
# Coordination Sequence:
#
# PCOD9435383 Si02
#       6
#     8   8   8   8   8   8
#     4  12  25  41  59  79 106 140 179 225 275 330
#     4  12  23  36  55  80 108 142 183 227 273 325
#     4   9  15  24  41  66  97 134 172 209 254 306
#     4   8  15  26  40  63  99 136 170 211 258 307
#     4   9  17  30  49  73 104 139 178 221 267 315
#     4  10  19  32  50  73 104 139 175 215 262 317
#
# _framework density 17.072009000000001
#
# number of rings (size 3 to 8) (size 9 to 14) (size 15 to 20)
#    0.000    2.000    1.667    5.000    0.000    3.333 
#    0.000    0.000    0.000    0.000    0.000    1.167 
#    0.000    0.000    0.000    0.000    0.000    0.000 
#
# Total GULP energy -267661.092984 kJ/mol
# GULP energy per Si atom -5576.272771 kJ/mol
# Density = 1.703315 g / cm^3
# Si number density = 17.072009 Si / 1000 Ang^3
#
#
#
# Elastic Constant Matrix: (Units=GPa)
#
#
# Indices 1 2 3 4 5 6 
#
# 1 133.5473 44.4620 66.4476 0.0000 0.0000 0.0000
# 2 44.4620 59.6543 45.5764 0.0000 0.0000 0.0000
# 3 66.4476 45.5764 121.8927 0.0000 0.0000 0.0000
# 4 0.0000 0.0000 0.0000 19.0898 0.0000 0.0000
# 5 0.0000 0.0000 0.0000 0.0000 31.4088 0.0000
# 6 0.0000 0.0000 0.0000 0.0000 0.0000 8.0078
#
#
#
# Elastic Compliance Matrix: (Units=1/GPa)
#
#
# Indices 1 2 3 4 5 6 
#
# 1 0.011326 -0.005214 -0.004225 0.000000 0.000000 0.000000
# 2 -0.005214 0.025867 -0.006830 0.000000 0.000000 0.000000
# 3 -0.004225 -0.006830 0.013061 0.000000 0.000000 0.000000
# 4 0.000000 0.000000 0.000000 0.052384 0.000000 0.000000
# 5 0.000000 0.000000 0.000000 0.000000 0.031838 0.000000
# 6 0.000000 0.000000 0.000000 0.000000 0.000000 0.124878
#
#
# Mechanical properties :
#
#
# Convention : Reuss Voigt Hill
#
# Bulk Modulus (GPa) = 56.44169 69.78511 63.11340
# Shear Modulus (GPa) = 16.79002 22.27519 19.53261
#
# Velocity S-wave (km/s) = 3.13945 3.61609 3.38617
# Velocity P-wave (km/s) = 6.80252 7.64202 7.23446
#
# Compressibility (1/GPa) = 0.01771740
#
# Stress axis : x y z
#
# Youngs Moduli (GPa) = 88.29404 38.65903 76.56657
#
# Poissons Ratio (x) = 0.20156 0.32346
# Poissons Ratio (y) = 0.46035 0.52292
# Poissons Ratio (z) = 0.37300 0.26403
#
# Static dielectric constant tensor:
#      x y z
#    x 1.613810 0.000000 0.000000 
#    y 0.000000 1.532950 0.000000 
#    z 0.000000 0.000000 1.570620 
# 
# From -- ./inp_files/5353.got.cif
#   From: 2010.05.17/outbox.cif.g08.bks.cpg/sg57_3_cif.got.tgz:5353.got - 2010.06.03 13:58:18.
