data_PCOD9435197
_publ_section_title
;
Structure prediction by ZEFSAII (Michael W. Deem and Ramdas Pophale) SiO2 
 PCOD9435197
Probable space group: P B C M
;
_chemical_formula_sum "Si O2"
_cell_formula_units_Z 48
_cell_length_a 10.369371
_cell_length_b 31.106563
_cell_length_c 8.752838
_cell_angle_alpha 90.000000
_cell_angle_beta 90.000000
_cell_angle_gamma 90.000000
_cell_volume 2823.275970
_symmetry_space_group_name_H-M "P B C M"
_symmetry_group_IT_number 57
_symmetry_cell_setting 'orthorhombic'
loop_
_space_group_symop_operation_xyz
x,y,z
-x,-y,1/2+z
x,1/2-y,-z
-x,1/2+y,1/2-z
-x,-y,-z
x,y,1/2-z
-x,1/2+y,z
x,1/2-y,1/2+z
loop_
_atom_site_type_symbol
_atom_site_label
_atom_site_fract_x
_atom_site_fract_y
_atom_site_fract_z
Si Si1 0.220584 0.389633 0.932751
Si Si2 0.508989 0.387066 0.432929
Si Si3 0.625352 0.023454 0.933240
Si Si4 0.125137 0.476973 0.432196
Si Si5 0.776596 0.706451 0.067029
Si Si6 0.513492 0.207236 0.567974
O O1 0.216926 0.394418 0.750000
O O2 0.171876 0.341252 0.971399
O O3 0.370333 0.392861 0.986265
O O4 0.142465 0.428104 0.009627
O O5 0.483641 0.387956 0.250000
O O6 0.603419 0.426252 0.468151
O O7 0.566155 0.340077 0.470123
O O8 0.630924 0.017897 0.750000
O O9 0.500000 0.000000 0.000000
O O10 0.750347 0.002908 0.008587
O O11 0.120904 0.477334 0.250000
O O12 0.000000 0.500000 0.500000
O O13 0.770577 0.710080 0.250000
O O14 0.838849 0.750000 0.000000
O O15 0.631476 0.705789 0.999582
O O16 0.577346 0.250000 0.500000
O O17 0.506758 0.211736 0.750000
#
# Coordination Sequence:
#
# PCOD9435197 Si02
#       6
#     8   8   8   8   8   8
#     4  10  19  31  49  73 102 135 173 214 258 309
#     4   9  18  30  47  71 101 135 171 209 256 308
#     4  11  21  35  55  80 106 137 176 217 260 310
#     4  12  25  40  56  76 104 140 178 221 271 321
#     4   9  16  25  40  65  96 130 165 205 251 302
#     4   9  15  24  38  61  94 131 165 202 248 301
#
# _framework density 17.001526999999999
#
# number of rings (size 3 to 8) (size 9 to 14) (size 15 to 20)
#    0.000    2.000    1.667    4.500    0.000    3.333 
#    0.000    0.000    0.000    0.000    0.000    1.167 
#    0.000    5.333    0.000    0.000    0.000    0.000 
#
# Total GULP energy -267545.867748 kJ/mol
# GULP energy per Si atom -5573.872245 kJ/mol
# Density = 1.696283 g / cm^3
# Si number density = 17.001527 Si / 1000 Ang^3
#
#
#
# Elastic Constant Matrix: (Units=GPa)
#
#
# Indices 1 2 3 4 5 6 
#
# 1 63.7081 52.3721 31.0920 0.0000 0.0000 0.0000
# 2 52.3721 205.3789 77.5682 0.0000 0.0000 0.0000
# 3 31.0920 77.5682 88.2066 0.0000 0.0000 0.0000
# 4 0.0000 0.0000 0.0000 8.2346 0.0000 0.0000
# 5 0.0000 0.0000 0.0000 0.0000 19.2105 0.0000
# 6 0.0000 0.0000 0.0000 0.0000 0.0000 14.2983
#
#
#
# Elastic Compliance Matrix: (Units=1/GPa)
#
#
# Indices 1 2 3 4 5 6 
#
# 1 0.020755 -0.003787 -0.003985 0.000000 0.000000 0.000000
# 2 -0.003787 0.007982 -0.005684 0.000000 0.000000 0.000000
# 3 -0.003985 -0.005684 0.017740 0.000000 0.000000 0.000000
# 4 0.000000 0.000000 0.000000 0.121439 0.000000 0.000000
# 5 0.000000 0.000000 0.000000 0.000000 0.052055 0.000000
# 6 0.000000 0.000000 0.000000 0.000000 0.000000 0.069938
#
#
# Mechanical properties :
#
#
# Convention : Reuss Voigt Hill
#
# Bulk Modulus (GPa) = 51.11555 75.48423 63.29989
# Shear Modulus (GPa) = 15.46342 21.43277 18.44810
#
# Velocity S-wave (km/s) = 3.01912 3.55440 3.29764
# Velocity P-wave (km/s) = 6.50261 7.83198 7.19805
#
# Compressibility (1/GPa) = 0.01956352
#
# Stress axis : x y z
#
# Youngs Moduli (GPa) = 48.18103 125.28892 56.36912
#
# Poissons Ratio (x) = 0.47452 0.22465
# Poissons Ratio (y) = 0.18248 0.32040
# Poissons Ratio (z) = 0.19202 0.71213
#
# Static dielectric constant tensor:
#      x y z
#    x 1.513000 0.000000 0.000000 
#    y 0.000000 1.661530 0.000000 
#    z 0.000000 0.000000 1.570410 
# 
# From -- ./inp_files/3532.got.cif
#   From: 2010.05.17/outbox.cif.g08.bks.cpg/sg57_2_cif.got.tgz:3532.got - 2010.06.03 13:58:18.
