data_PCOD9435407
_publ_section_title
;
Structure prediction by ZEFSAII (Michael W. Deem and Ramdas Pophale) SiO2 
 PCOD9435407
Probable space group: P B C M
;
_chemical_formula_sum "Si O2"
_cell_formula_units_Z 64
_cell_length_a 23.981783
_cell_length_b 17.917480
_cell_length_c 8.524374
_cell_angle_alpha 90.000000
_cell_angle_beta 90.000000
_cell_angle_gamma 90.000000
_cell_volume 3662.864837
_symmetry_space_group_name_H-M "P B C M"
_symmetry_group_IT_number 57
_symmetry_cell_setting 'orthorhombic'
loop_
_space_group_symop_operation_xyz
x,y,z
-x,-y,1/2+z
x,1/2-y,-z
-x,1/2+y,1/2-z
-x,-y,-z
x,y,1/2-z
-x,1/2+y,z
x,1/2-y,1/2+z
loop_
_atom_site_type_symbol
_atom_site_label
_atom_site_fract_x
_atom_site_fract_y
_atom_site_fract_z
Si Si1 0.572892 0.603669 0.438318
Si Si2 0.631220 0.448469 0.059953
Si Si3 0.066315 0.332668 0.938369
Si Si4 0.866026 0.976547 0.062053
Si Si5 0.742110 0.522925 0.062099
Si Si6 0.033982 0.571317 0.438914
Si Si7 0.316522 0.170456 0.563412
Si Si8 0.457960 0.833655 0.438509
O O1 0.574479 0.610864 0.250000
O O2 0.593679 0.520610 0.481022
O O3 0.619358 0.657814 0.511991
O O4 0.512011 0.622362 0.500347
O O5 0.633330 0.446417 0.250000
O O6 0.694182 0.464927 0.006329
O O7 0.598136 0.375765 0.006681
O O8 0.068466 0.331283 0.750000
O O9 0.003399 0.358129 0.990142
O O10 0.079763 0.250000 0.000000
O O11 0.107027 0.399637 0.995323
O O12 0.868580 0.970860 0.250000
O O13 0.903558 0.048423 0.012038
O O14 0.802909 0.986724 0.008562
O O15 0.745569 0.519107 0.250000
O O16 0.718247 0.603662 0.013728
O O17 0.033416 0.572777 0.250000
O O18 0.000000 0.500000 0.500000
O O19 0.297219 0.250000 0.500000
O O20 0.311936 0.166863 0.750000
O O21 0.460378 0.750000 0.500000
O O22 0.459326 0.833824 0.250000
#
# Coordination Sequence:
#
# PCOD9435407 Si02
#       8
#     8   8   8   8   8   8   8   8
#     4  10  19  34  53  75  99 128 163 203 248 301
#     4   8  18  35  54  72  97 129 165 206 250 295
#     4  10  19  32  50  76 107 139 167 202 246 291
#     4  10  19  33  52  76 101 131 168 207 245 292
#     4  10  20  36  54  74  97 128 168 210 249 292
#     4   8  16  30  49  71  99 130 164 200 239 282
#     4  11  21  34  50  71  99 133 166 202 245 295
#     4  11  21  34  51  75 101 128 160 202 252 304
#
# _framework density 17.472663000000001
#
# number of rings (size 3 to 8) (size 9 to 14) (size 15 to 20)
#    0.000    2.250    0.000    4.500    0.000    1.500 
#    0.000    9.375    0.000    0.750    0.000    5.250 
#    0.000    0.000    0.000    0.000    0.000    0.000 
#
# Total GULP energy -356793.866120 kJ/mol
# GULP energy per Si atom -5574.904158 kJ/mol
# Density = 1.743289 g / cm^3
# Si number density = 17.472663 Si / 1000 Ang^3
#
#
#
# Elastic Constant Matrix: (Units=GPa)
#
#
# Indices 1 2 3 4 5 6 
#
# 1 142.6738 39.2097 18.7489 0.0000 0.0000 0.0000
# 2 39.2097 36.2541 14.7192 0.0000 0.0000 0.0000
# 3 18.7489 14.7192 41.3059 0.0000 0.0000 0.0000
# 4 0.0000 0.0000 0.0000 12.1696 0.0000 0.0000
# 5 0.0000 0.0000 0.0000 0.0000 18.9894 0.0000
# 6 0.0000 0.0000 0.0000 0.0000 0.0000 65.4333
#
#
#
# Elastic Compliance Matrix: (Units=1/GPa)
#
#
# Indices 1 2 3 4 5 6 
#
# 1 0.009996 -0.010486 -0.000801 0.000000 0.000000 0.000000
# 2 -0.010486 0.043248 -0.010652 0.000000 0.000000 0.000000
# 3 -0.000801 -0.010652 0.028369 0.000000 0.000000 0.000000
# 4 0.000000 0.000000 0.000000 0.082172 0.000000 0.000000
# 5 0.000000 0.000000 0.000000 0.000000 0.052661 0.000000
# 6 0.000000 0.000000 0.000000 0.000000 0.000000 0.015283
#
#
# Mechanical properties :
#
#
# Convention : Reuss Voigt Hill
#
# Bulk Modulus (GPa) = 26.49949 40.62102 33.56026
# Shear Modulus (GPa) = 17.35005 29.15554 23.25279
#
# Velocity S-wave (km/s) = 3.15458 4.08933 3.65198
# Velocity P-wave (km/s) = 5.33551 6.75245 6.08536
#
# Compressibility (1/GPa) = 0.03773658
#
# Stress axis : x y z
#
# Youngs Moduli (GPa) = 100.04094 23.12226 35.25001
#
# Poissons Ratio (x) = 0.24245 0.02822
# Poissons Ratio (y) = 1.04901 0.37548
# Poissons Ratio (z) = 0.08009 0.24630
#
# Static dielectric constant tensor:
#      x y z
#    x 1.614940 0.000000 0.000000 
#    y 0.000000 1.526370 0.000000 
#    z 0.000000 0.000000 1.597210 
# 
# From -- ./inp_files/9488.got.cif
#   From: 2010.05.17/outbox.cif.g08.bks.cpg/sg57_5_cif.got.tgz:9488.got - 2010.06.03 13:58:18.
