data_PCOD9435341
_publ_section_title
;
Structure prediction by ZEFSAII (Michael W. Deem and Ramdas Pophale) SiO2 
 PCOD9435341
Probable space group: P B C M
;
_chemical_formula_sum "Si O2"
_cell_formula_units_Z 64
_cell_length_a 17.699788
_cell_length_b 20.354188
_cell_length_c 8.981671
_cell_angle_alpha 90.000000
_cell_angle_beta 90.000000
_cell_angle_gamma 90.000000
_cell_volume 3235.780019
_symmetry_space_group_name_H-M "P B C M"
_symmetry_group_IT_number 57
_symmetry_cell_setting 'orthorhombic'
loop_
_space_group_symop_operation_xyz
x,y,z
-x,-y,1/2+z
x,1/2-y,-z
-x,1/2+y,1/2-z
-x,-y,-z
x,y,1/2-z
-x,1/2+y,z
x,1/2-y,1/2+z
loop_
_atom_site_type_symbol
_atom_site_label
_atom_site_fract_x
_atom_site_fract_y
_atom_site_fract_z
Si Si1 0.833921 0.183368 0.070663
Si Si2 0.203348 0.966191 0.926305
Si Si3 0.242605 0.178924 0.071610
Si Si4 0.591667 0.817842 0.578197
Si Si5 0.504827 0.409152 0.088051
Si Si6 0.001018 0.318972 0.429843
Si Si7 0.888953 0.922482 0.571207
Si Si8 0.625159 0.020960 0.418671
O O1 0.841536 0.191542 0.250000
O O2 0.795830 0.112287 0.043189
O O3 0.798630 0.250000 0.000000
O O4 0.915892 0.178166 0.992509
O O5 0.188312 0.974580 0.750000
O O6 0.287907 0.993751 0.957154
O O7 0.138739 0.006409 0.013851
O O8 0.239680 0.186338 0.250000
O O9 0.326661 0.156152 0.024774
O O10 0.181067 0.125452 0.032293
O O11 0.229353 0.250000 0.000000
O O12 0.578998 0.750000 0.500000
O O13 0.599569 0.806657 0.750000
O O14 0.522507 0.863555 0.543128
O O15 0.504362 0.376887 0.250000
O O16 0.437855 0.463514 0.091112
O O17 0.586774 0.435499 0.046208
O O18 0.033124 0.250000 0.500000
O O19 0.003708 0.315462 0.250000
O O20 0.042821 0.384256 0.490377
O O21 0.900835 0.923660 0.750000
O O22 0.627689 0.049841 0.250000
#
# Coordination Sequence:
#
# PCOD9435341 Si02
#       8
#     8   8   8   8   8   8   8   8
#     4  10  21  40  64  86 109 140 182 228 279 336
#     4  10  22  39  59  84 112 144 183 229 281 333
#     4   9  19  32  48  73 106 147 188 224 267 322
#     4  10  19  32  49  71 102 138 177 220 267 318
#     4  10  19  32  53  79 105 138 180 221 267 322
#     4  11  22  38  60  85 115 151 190 227 268 321
#     4  11  22  35  54  83 117 150 185 228 276 325
#     4   9  19  36  56  78 107 142 178 220 270 324
#
# _framework density 19.778846000000001
#
# number of rings (size 3 to 8) (size 9 to 14) (size 15 to 20)
#    0.000    2.000    0.000    4.500    0.000    5.000 
#    0.000    0.625    0.000    1.500    0.000    0.000 
#    0.000    0.000    0.000    0.000    0.000    0.000 
#
# Total GULP energy -356603.528098 kJ/mol
# GULP energy per Si atom -5571.930127 kJ/mol
# Density = 1.973383 g / cm^3
# Si number density = 19.778846 Si / 1000 Ang^3
#
#
#
# Elastic Constant Matrix: (Units=GPa)
#
#
# Indices 1 2 3 4 5 6 
#
# 1 38.2519 13.2683 16.1417 0.0000 0.0000 0.0000
# 2 13.2683 59.3539 34.1851 0.0000 0.0000 0.0000
# 3 16.1417 34.1851 59.8147 0.0000 0.0000 0.0000
# 4 0.0000 0.0000 0.0000 31.9413 0.0000 0.0000
# 5 0.0000 0.0000 0.0000 0.0000 23.6318 0.0000
# 6 0.0000 0.0000 0.0000 0.0000 0.0000 22.9839
#
#
#
# Elastic Compliance Matrix: (Units=1/GPa)
#
#
# Indices 1 2 3 4 5 6 
#
# 1 0.029864 -0.003032 -0.006326 0.000000 0.000000 0.000000
# 2 -0.003032 0.025423 -0.013711 0.000000 0.000000 0.000000
# 3 -0.006326 -0.013711 0.026262 0.000000 0.000000 0.000000
# 4 0.000000 0.000000 0.000000 0.031307 0.000000 0.000000
# 5 0.000000 0.000000 0.000000 0.000000 0.042316 0.000000
# 6 0.000000 0.000000 0.000000 0.000000 0.000000 0.043509
#
#
# Mechanical properties :
#
#
# Convention : Reuss Voigt Hill
#
# Bulk Modulus (GPa) = 28.24141 31.62340 29.93241
# Shear Modulus (GPa) = 19.48381 21.96642 20.72511
#
# Velocity S-wave (km/s) = 3.14201 3.33618 3.24055
# Velocity P-wave (km/s) = 5.24143 5.55548 5.40074
#
# Compressibility (1/GPa) = 0.03540899
#
# Stress axis : x y z
#
# Youngs Moduli (GPa) = 33.48532 39.33430 38.07830
#
# Poissons Ratio (x) = 0.11928 0.24088
# Poissons Ratio (y) = 0.10154 0.52210
# Poissons Ratio (z) = 0.21183 0.53933
#
# Static dielectric constant tensor:
#      x y z
#    x 1.719160 0.000000 0.000000 
#    y 0.000000 1.729150 0.000000 
#    z 0.000000 0.000000 1.681970 
# 
# From -- ./inp_files/7132.got.cif
#   From: 2010.05.17/outbox.cif.g08.bks.cpg/sg57_4_cif.got.tgz:7132.got - 2010.06.03 13:58:18.
