data_PCOD9435951
_publ_section_title
;
Structure prediction by ZEFSAII (Michael W. Deem and Ramdas Pophale) SiO2 
 PCOD9435951
Probable space group: P B C M
;
_chemical_formula_sum "Si O2"
_cell_formula_units_Z 40
_cell_length_a 23.654776
_cell_length_b 8.550608
_cell_length_c 10.095193
_cell_angle_alpha 90.000000
_cell_angle_beta 90.000000
_cell_angle_gamma 90.000000
_cell_volume 2041.881164
_symmetry_space_group_name_H-M "P B C M"
_symmetry_group_IT_number 57
_symmetry_cell_setting 'orthorhombic'
loop_
_space_group_symop_operation_xyz
x,y,z
-x,-y,1/2+z
x,1/2-y,-z
-x,1/2+y,1/2-z
-x,-y,-z
x,y,1/2-z
-x,1/2+y,z
x,1/2-y,1/2+z
loop_
_atom_site_type_symbol
_atom_site_label
_atom_site_fract_x
_atom_site_fract_y
_atom_site_fract_z
Si Si1 0.047759 0.409066 0.914226
Si Si2 0.563598 0.939145 0.003940
Si Si3 0.773982 0.928965 0.250000
Si Si4 0.631747 0.939999 0.750000
Si Si5 0.359355 0.059766 0.750000
Si Si6 0.166509 0.935711 0.488982
Si Si7 0.760348 0.947478 0.750000
O O1 0.038137 0.394386 0.750000
O O2 0.106748 0.497439 0.938744
O O3 0.052747 0.250000 0.000000
O O4 0.000000 0.500000 0.000000
O O5 0.596808 0.992182 0.875291
O O6 0.561238 0.750000 0.000000
O O7 0.603333 0.990281 0.124841
O O8 0.500000 0.000000 0.000000
O O9 0.707455 0.982866 0.250000
O O10 0.769967 0.740096 0.250000
O O11 0.809309 0.988935 0.376265
O O12 0.637722 0.750191 0.750000
O O13 0.695400 0.994000 0.750000
O O14 0.161755 0.750000 0.500000
O O15 0.211153 0.982143 0.378347
#
# Coordination Sequence:
#
# PCOD9435951 Si02
#       7
#     8   8   4   4   4   8   4
#     4  12  27  48  76 107 144 188 239 288 343 412
#     4  10  19  34  54  81 113 152 199 256 320 390
#     4  11  23  40  71  93 124 176 225 282 322 407
#     4   9  19  34  60  79 113 156 203 264 315 385
#     4   9  19  36  56  85 113 154 213 258 323 385
#     4  12  26  43  66  99 141 176 218 274 344 399
#     4  11  21  44  65  95 122 170 231 272 328 399
#
# _framework density 19.589780000000001
#
# number of rings (size 3 to 8) (size 9 to 14) (size 15 to 20)
#    0.000    1.200    1.000    5.400    2.800    3.200 
#    0.000    6.000    0.000    0.000    0.000    0.000 
#    0.000    0.000    0.000    0.000    0.000    0.000 
#
# Total GULP energy -223200.177455 kJ/mol
# GULP energy per Si atom -5580.004436 kJ/mol
# Density = 1.954519 g / cm^3
# Si number density = 19.589780 Si / 1000 Ang^3
#
#
#
# Elastic Constant Matrix: (Units=GPa)
#
#
# Indices 1 2 3 4 5 6 
#
# 1 180.7282 37.9066 90.1753 0.0000 0.0000 0.0000
# 2 37.9066 90.2882 41.8693 0.0000 0.0000 0.0000
# 3 90.1753 41.8693 220.3574 0.0000 0.0000 0.0000
# 4 0.0000 0.0000 0.0000 -68.6689 0.0000 0.0000
# 5 0.0000 0.0000 0.0000 0.0000 42.5202 0.0000
# 6 0.0000 0.0000 0.0000 0.0000 0.0000 37.7059
#
#
#
# Elastic Compliance Matrix: (Units=1/GPa)
#
#
# Indices 1 2 3 4 5 6 
#
# 1 0.007216 -0.001821 -0.002607 0.000000 0.000000 0.000000
# 2 -0.001821 0.012605 -0.001650 0.000000 0.000000 0.000000
# 3 -0.002607 -0.001650 0.005918 0.000000 0.000000 0.000000
# 4 0.000000 0.000000 0.000000 -0.014563 0.000000 0.000000
# 5 0.000000 0.000000 0.000000 0.000000 0.023518 0.000000
# 6 0.000000 0.000000 0.000000 0.000000 0.000000 0.026521
#
#
# Mechanical properties :
#
#
# Convention : Reuss Voigt Hill
#
# Bulk Modulus (GPa) = 73.61458 92.36402 82.98930
# Shear Modulus (GPa) = 64.18555 23.73962 43.96258
#
# Velocity S-wave (km/s) = 5.73027 3.48492 4.74239
# Velocity P-wave (km/s) = 9.02446 7.96520 8.51132
#
# Compressibility (1/GPa) = 0.01358427
#
# Stress axis : x y z
#
# Youngs Moduli (GPa) = 138.58541 79.33257 168.96393
#
# Poissons Ratio (x) = 0.14443 0.44048
# Poissons Ratio (y) = 0.25230 0.27880
# Poissons Ratio (z) = 0.36128 0.13090
#
# Static dielectric constant tensor:
#      x y z
#    x 1.660720 0.000000 0.000000 
#    y 0.000000 1.702680 0.000000 
#    z 0.000000 0.000000 1.788510 
# 
# From -- ./inp_files/9016.got.cif
#   From: 2010.05.17/outbox.cif.g08.bks.cpg/sg57_5_cif.got.tgz:9016.got - 2010.06.03 13:58:18.
