data_PCOD9435736
_publ_section_title
;
Structure prediction by ZEFSAII (Michael W. Deem and Ramdas Pophale) SiO2 
 PCOD9435736
Probable space group: P B C M
;
_chemical_formula_sum "Si O2"
_cell_formula_units_Z 56
_cell_length_a 19.386518
_cell_length_b 17.342291
_cell_length_c 8.611098
_cell_angle_alpha 90.000000
_cell_angle_beta 90.000000
_cell_angle_gamma 90.000000
_cell_volume 2895.108296
_symmetry_space_group_name_H-M "P B C M"
_symmetry_group_IT_number 57
_symmetry_cell_setting 'orthorhombic'
loop_
_space_group_symop_operation_xyz
x,y,z
-x,-y,1/2+z
x,1/2-y,-z
-x,1/2+y,1/2-z
-x,-y,-z
x,y,1/2-z
-x,1/2+y,z
x,1/2-y,1/2+z
loop_
_atom_site_type_symbol
_atom_site_label
_atom_site_fract_x
_atom_site_fract_y
_atom_site_fract_z
Si Si1 0.290938 0.428438 0.433433
Si Si2 0.037281 0.076252 0.066507
Si Si3 0.834751 0.665323 0.936938
Si Si4 0.780555 0.425151 0.067817
Si Si5 0.644788 0.166148 0.567380
Si Si6 0.424035 0.986687 0.563965
Si Si7 0.084786 0.668191 0.935625
O O1 0.298908 0.416000 0.250000
O O2 0.242040 0.359940 0.492945
O O3 0.245830 0.505105 0.463995
O O4 0.366783 0.451031 0.495614
O O5 0.045343 0.067011 0.250000
O O6 0.110086 0.101894 0.994471
O O7 0.984584 0.144545 0.022777
O O8 0.000000 0.000000 0.000000
O O9 0.836180 0.666417 0.750000
O O10 0.852299 0.750000 0.000000
O O11 0.777695 0.448462 0.250000
O O12 0.725360 0.356314 0.047800
O O13 0.856457 0.395125 0.032780
O O14 0.630460 0.250000 0.500000
O O15 0.629400 0.164751 0.750000
O O16 0.603071 0.097292 0.486575
O O17 0.425108 0.990750 0.750000
O O18 0.500000 0.000000 0.500000
O O19 0.073877 0.671154 0.750000
O O20 0.108968 0.750000 0.000000
#
# Coordination Sequence:
#
# PCOD9435736 Si02
#       7
#     8   8   8   8   8   8   8
#     4   9  20  37  59  83 110 143 184 228 276 332
#     4  12  25  41  59  81 109 145 188 238 289 343
#     4  11  23  41  62  86 114 150 193 243 296 348
#     4   9  19  33  53  80 111 144 182 224 272 328
#     4  10  19  33  53  81 113 147 184 226 274 331
#     4  10  20  37  59  85 115 150 187 230 280 336
#     4  11  22  36  53  78 110 145 182 225 274 326
#
# _framework density 19.342970999999999
#
# number of rings (size 3 to 8) (size 9 to 14) (size 15 to 20)
#    0.000    1.714    0.000    4.714    0.000    5.714 
#    0.000    0.714    0.000    1.714    0.000    0.000 
#    0.000    0.000    0.000    0.000    0.000    0.000 
#
# Total GULP energy -312701.701389 kJ/mol
# GULP energy per Si atom -5583.958953 kJ/mol
# Density = 1.929895 g / cm^3
# Si number density = 19.342971 Si / 1000 Ang^3
#
#
#
# Elastic Constant Matrix: (Units=GPa)
#
#
# Indices 1 2 3 4 5 6 
#
# 1 128.4934 27.8297 33.7582 0.0000 0.0000 0.0000
# 2 27.8297 65.1838 19.8797 0.0000 0.0000 0.0000
# 3 33.7582 19.8797 62.9695 0.0000 0.0000 0.0000
# 4 0.0000 0.0000 0.0000 30.0506 0.0000 0.0000
# 5 0.0000 0.0000 0.0000 0.0000 23.7546 0.0000
# 6 0.0000 0.0000 0.0000 0.0000 0.0000 20.8610
#
#
#
# Elastic Compliance Matrix: (Units=1/GPa)
#
#
# Indices 1 2 3 4 5 6 
#
# 1 0.009489 -0.002766 -0.004214 0.000000 0.000000 0.000000
# 2 -0.002766 0.017782 -0.004131 0.000000 0.000000 0.000000
# 3 -0.004214 -0.004131 0.019444 0.000000 0.000000 0.000000
# 4 0.000000 0.000000 0.000000 0.033277 0.000000 0.000000
# 5 0.000000 0.000000 0.000000 0.000000 0.042097 0.000000
# 6 0.000000 0.000000 0.000000 0.000000 0.000000 0.047936
#
#
# Mechanical properties :
#
#
# Convention : Reuss Voigt Hill
#
# Bulk Modulus (GPa) = 40.82766 46.62019 43.72392
# Shear Modulus (GPa) = 24.94877 26.61185 25.78031
#
# Velocity S-wave (km/s) = 3.59529 3.71319 3.65471
# Velocity P-wave (km/s) = 6.19579 6.52211 6.36104
#
# Compressibility (1/GPa) = 0.02449320
#
# Stress axis : x y z
#
# Youngs Moduli (GPa) = 105.38969 56.23657 51.43030
#
# Poissons Ratio (x) = 0.15555 0.21671
# Poissons Ratio (y) = 0.29151 0.21246
# Poissons Ratio (z) = 0.44407 0.23231
#
# Static dielectric constant tensor:
#      x y z
#    x 1.693420 0.000000 0.000000 
#    y 0.000000 1.542180 0.000000 
#    z 0.000000 0.000000 1.655940 
# 
# From -- ./inp_files/8075.got.cif
#   From: 2010.05.17/outbox.cif.g08.bks.cpg/sg57_5_cif.got.tgz:8075.got - 2010.06.03 13:58:18.
