data_PCOD9435845
_publ_section_title
;
Structure prediction by ZEFSAII (Michael W. Deem and Ramdas Pophale) SiO2 
 PCOD9435845
Probable space group: P B C M
;
_chemical_formula_sum "Si O2"
_cell_formula_units_Z 64
_cell_length_a 19.879273
_cell_length_b 21.125083
_cell_length_c 8.805371
_cell_angle_alpha 90.000000
_cell_angle_beta 90.000000
_cell_angle_gamma 90.000000
_cell_volume 3697.826929
_symmetry_space_group_name_H-M "P B C M"
_symmetry_group_IT_number 57
_symmetry_cell_setting 'orthorhombic'
loop_
_space_group_symop_operation_xyz
x,y,z
-x,-y,1/2+z
x,1/2-y,-z
-x,1/2+y,1/2-z
-x,-y,-z
x,y,1/2-z
-x,1/2+y,z
x,1/2-y,1/2+z
loop_
_atom_site_type_symbol
_atom_site_label
_atom_site_fract_x
_atom_site_fract_y
_atom_site_fract_z
Si Si1 0.324907 0.995475 0.070086
Si Si2 0.827445 0.010334 0.569168
Si Si3 0.825635 0.630531 0.567868
Si Si4 0.464788 0.937750 0.068812
Si Si5 0.461714 0.183439 0.069566
Si Si6 0.958425 0.684795 0.431632
Si Si7 0.040951 0.559143 0.068149
Si Si8 0.672507 0.866181 0.069647
O O1 0.328196 0.012571 0.250000
O O2 0.249882 0.970278 0.040599
O O3 0.385315 0.947351 0.039961
O O4 0.334707 0.059831 0.975563
O O5 0.838329 0.006593 0.750000
O O6 0.883678 0.054134 0.495038
O O7 0.834617 0.940052 0.499262
O O8 0.831725 0.628223 0.750000
O O9 0.884056 0.672698 0.497635
O O10 0.749438 0.651665 0.530618
O O11 0.476001 0.936217 0.250000
O O12 0.495834 0.875348 0.995141
O O13 0.500000 0.000000 0.000000
O O14 0.465924 0.184759 0.250000
O O15 0.484493 0.250000 0.000000
O O16 0.384689 0.171421 0.018431
O O17 0.985200 0.750000 0.500000
O O18 0.955110 0.688536 0.250000
O O19 0.003690 0.624187 0.473644
O O20 0.041168 0.553741 0.250000
O O21 0.000000 0.500000 0.000000
O O22 0.662773 0.858759 0.250000
#
# Coordination Sequence:
#
# PCOD9435845 Si02
#       8
#     8   8   8   8   8   8   8   8
#     4   9  19  34  55  83 115 147 182 226 277 330
#     4  10  19  33  55  84 114 146 183 227 277 328
#     4  10  20  34  54  80 112 149 188 228 272 326
#     4  11  21  36  59  87 115 148 189 233 279 333
#     4  12  25  40  57  80 112 152 192 237 286 338
#     4  11  24  39  56  79 110 148 188 230 278 332
#     4  11  22  36  57  84 111 145 186 231 280 331
#     4  10  20  34  54  81 112 148 189 230 273 329
#
# _framework density 17.307462000000001
#
# number of rings (size 3 to 8) (size 9 to 14) (size 15 to 20)
#    0.000    1.500    2.500    3.375    0.000    4.500 
#    0.000    0.000    0.000    0.750    0.000    1.750 
#    0.000    0.000    0.000    0.000    0.000    0.000 
#
# Total GULP energy -357565.071334 kJ/mol
# GULP energy per Si atom -5586.954240 kJ/mol
# Density = 1.726807 g / cm^3
# Si number density = 17.307462 Si / 1000 Ang^3
#
#
#
# Elastic Constant Matrix: (Units=GPa)
#
#
# Indices 1 2 3 4 5 6 
#
# 1 101.9330 63.2660 49.6227 0.0000 0.0000 0.0000
# 2 63.2660 122.8943 55.4405 0.0000 0.0000 0.0000
# 3 49.6227 55.4405 81.6124 0.0000 0.0000 0.0000
# 4 0.0000 0.0000 0.0000 28.1316 0.0000 0.0000
# 5 0.0000 0.0000 0.0000 0.0000 29.2060 0.0000
# 6 0.0000 0.0000 0.0000 0.0000 0.0000 21.6037
#
#
#
# Elastic Compliance Matrix: (Units=1/GPa)
#
#
# Indices 1 2 3 4 5 6 
#
# 1 0.016257 -0.005638 -0.006055 0.000000 0.000000 0.000000
# 2 -0.005638 0.013688 -0.005870 0.000000 0.000000 0.000000
# 3 -0.006055 -0.005870 0.019923 0.000000 0.000000 0.000000
# 4 0.000000 0.000000 0.000000 0.035547 0.000000 0.000000
# 5 0.000000 0.000000 0.000000 0.000000 0.034240 0.000000
# 6 0.000000 0.000000 0.000000 0.000000 0.000000 0.046288
#
#
# Mechanical properties :
#
#
# Convention : Reuss Voigt Hill
#
# Bulk Modulus (GPa) = 67.83734 71.45536 69.64635
# Shear Modulus (GPa) = 24.27394 24.99561 24.63477
#
# Velocity S-wave (km/s) = 3.74908 3.80440 3.77684
# Velocity P-wave (km/s) = 7.61717 7.78932 7.70372
#
# Compressibility (1/GPa) = 0.01474114
#
# Stress axis : x y z
#
# Youngs Moduli (GPa) = 61.51150 73.05906 50.19439
#
# Poissons Ratio (x) = 0.41188 0.30393
# Poissons Ratio (y) = 0.34678 0.29466
# Poissons Ratio (z) = 0.37246 0.42888
#
# Static dielectric constant tensor:
#      x y z
#    x 1.606640 0.000000 0.000000 
#    y 0.000000 1.567190 0.000000 
#    z 0.000000 0.000000 1.577740 
# 
# From -- ./inp_files/8548.got.cif
#   From: 2010.05.17/outbox.cif.g08.bks.cpg/sg57_5_cif.got.tgz:8548.got - 2010.06.03 13:58:18.
