data_PCOD9435576
_publ_section_title
;
Structure prediction by ZEFSAII (Michael W. Deem and Ramdas Pophale) SiO2 
 PCOD9435576
Probable space group: P B C M
;
_chemical_formula_sum "Si O2"
_cell_formula_units_Z 64
_cell_length_a 12.608716
_cell_length_b 28.797826
_cell_length_c 9.363666
_cell_angle_alpha 90.000000
_cell_angle_beta 90.000000
_cell_angle_gamma 90.000000
_cell_volume 3399.980922
_symmetry_space_group_name_H-M "P B C M"
_symmetry_group_IT_number 57
_symmetry_cell_setting 'orthorhombic'
loop_
_space_group_symop_operation_xyz
x,y,z
-x,-y,1/2+z
x,1/2-y,-z
-x,1/2+y,1/2-z
-x,-y,-z
x,y,1/2-z
-x,1/2+y,z
x,1/2-y,1/2+z
loop_
_atom_site_type_symbol
_atom_site_label
_atom_site_fract_x
_atom_site_fract_y
_atom_site_fract_z
Si Si1 0.059191 0.297871 0.588413
Si Si2 0.817452 0.304661 0.531024
Si Si3 0.689747 0.044452 0.078847
Si Si4 0.897587 0.610766 0.917996
Si Si5 0.489995 0.392550 0.922445
Si Si6 0.277090 0.447139 0.577682
Si Si7 0.147518 0.898709 0.094538
Si Si8 0.577958 0.202815 0.411230
O O1 0.068599 0.250000 0.500000
O O2 0.101340 0.293995 0.750000
O O3 0.109753 0.339616 0.497820
O O4 0.933121 0.309553 0.601379
O O5 0.813951 0.250000 0.500000
O O6 0.825962 0.343750 0.409663
O O7 0.701739 0.312885 0.597033
O O8 0.689736 0.037301 0.250000
O O9 0.583128 0.072008 0.035568
O O10 0.788117 0.076335 0.029827
O O11 0.698472 0.996576 0.993453
O O12 0.868722 0.613956 0.750000
O O13 0.021546 0.596567 0.923101
O O14 0.826125 0.574528 0.003547
O O15 0.496962 0.389307 0.750000
O O16 0.375850 0.413211 0.956735
O O17 0.514664 0.340745 0.975980
O O18 0.266610 0.450387 0.750000
O O19 0.178601 0.917769 0.250000
O O20 0.570456 0.250000 0.500000
O O21 0.541433 0.212032 0.250000
#
# Coordination Sequence:
#
# PCOD9435576 Si02
#       8
#     8   8   8   8   8   8   8   8
#     4  10  19  32  54  85 117 154 195 236 285 341
#     4   9  18  30  51  81 119 154 186 226 279 336
#     4  11  22  39  62  88 117 148 185 237 298 350
#     4  10  22  40  59  83 117 154 194 241 290 342
#     4   9  20  39  61  85 117 152 189 237 287 336
#     4  11  23  41  63  84 109 149 199 246 291 344
#     4  10  21  37  58  86 119 152 191 237 284 344
#     4  10  19  34  54  83 119 153 185 223 276 336
#
# _framework density 18.823634999999999
#
# number of rings (size 3 to 8) (size 9 to 14) (size 15 to 20)
#    0.000    2.000    1.250    2.250    0.000    8.000 
#    0.000    3.750    0.000    1.500    0.000    0.000 
#    0.000    0.000    0.000    0.000    0.000    0.000 
#
# Total GULP energy -356638.786686 kJ/mol
# GULP energy per Si atom -5572.481042 kJ/mol
# Density = 1.878079 g / cm^3
# Si number density = 18.823635 Si / 1000 Ang^3
#
#
#
# Elastic Constant Matrix: (Units=GPa)
#
#
# Indices 1 2 3 4 5 6 
#
# 1 58.5747 37.2976 29.7340 0.0000 0.0000 0.0000
# 2 37.2976 103.2529 37.9311 0.0000 0.0000 0.0000
# 3 29.7340 37.9311 103.5507 0.0000 0.0000 0.0000
# 4 0.0000 0.0000 0.0000 27.4782 0.0000 0.0000
# 5 0.0000 0.0000 0.0000 0.0000 8.9302 0.0000
# 6 0.0000 0.0000 0.0000 0.0000 0.0000 103.4565
#
#
#
# Elastic Compliance Matrix: (Units=1/GPa)
#
#
# Indices 1 2 3 4 5 6 
#
# 1 0.023678 -0.006997 -0.004236 0.000000 0.000000 0.000000
# 2 -0.006997 0.013258 -0.002848 0.000000 0.000000 0.000000
# 3 -0.004236 -0.002848 0.011916 0.000000 0.000000 0.000000
# 4 0.000000 0.000000 0.000000 0.036393 0.000000 0.000000
# 5 0.000000 0.000000 0.000000 0.000000 0.111980 0.000000
# 6 0.000000 0.000000 0.000000 0.000000 0.000000 0.009666
#
#
# Mechanical properties :
#
#
# Convention : Reuss Voigt Hill
#
# Bulk Modulus (GPa) = 48.32782 52.81154 50.56968
# Shear Modulus (GPa) = 20.66552 38.66736 29.66644
#
# Velocity S-wave (km/s) = 3.31698 4.53724 3.97422
# Velocity P-wave (km/s) = 6.35606 7.45423 6.92694
#
# Compressibility (1/GPa) = 0.02069202
#
# Stress axis : x y z
#
# Youngs Moduli (GPa) = 42.23367 75.42342 83.91730
#
# Poissons Ratio (x) = 0.52773 0.35547
# Poissons Ratio (y) = 0.29550 0.23896
# Poissons Ratio (z) = 0.17890 0.21477
#
# Static dielectric constant tensor:
#      x y z
#    x 1.643560 0.000000 0.000000 
#    y 0.000000 1.705530 0.000000 
#    z 0.000000 0.000000 1.634440 
# 
# From -- ./inp_files/3900.got.cif
#   From: 2010.05.17/outbox.cif.g08.bks.cpg/sg57_2_cif.got.tgz:3900.got - 2010.06.03 13:58:18.
