data_PCOD9435543
_publ_section_title
;
Structure prediction by ZEFSAII (Michael W. Deem and Ramdas Pophale) SiO2 
 PCOD9435543
Probable space group: P B C M
;
_chemical_formula_sum "Si O2"
_cell_formula_units_Z 48
_cell_length_a 7.164856
_cell_length_b 18.272081
_cell_length_c 15.257487
_cell_angle_alpha 90.000000
_cell_angle_beta 90.000000
_cell_angle_gamma 90.000000
_cell_volume 1997.461819
_symmetry_space_group_name_H-M "P B C M"
_symmetry_group_IT_number 57
_symmetry_cell_setting 'orthorhombic'
loop_
_space_group_symop_operation_xyz
x,y,z
-x,-y,1/2+z
x,1/2-y,-z
-x,1/2+y,1/2-z
-x,-y,-z
x,y,1/2-z
-x,1/2+y,z
x,1/2-y,1/2+z
loop_
_atom_site_type_symbol
_atom_site_label
_atom_site_fract_x
_atom_site_fract_y
_atom_site_fract_z
Si Si1 0.657870 0.653480 0.855285
Si Si2 0.189983 0.442261 0.847260
Si Si3 0.917137 0.784455 0.643530
Si Si4 0.239736 0.988116 0.652321
Si Si5 0.181928 0.549847 0.976434
Si Si6 0.225861 0.680880 0.854920
O O1 0.682036 0.654674 0.750000
O O2 0.790655 0.717723 0.888968
O O3 0.709718 0.570361 0.877688
O O4 0.444730 0.674774 0.872623
O O5 0.271616 0.436647 0.750000
O O6 0.153033 0.362714 0.888295
O O7 0.296833 0.497491 0.910375
O O8 0.983469 0.477177 0.835741
O O9 0.903277 0.790537 0.750000
O O10 0.128526 0.758597 0.626882
O O11 0.317784 0.973996 0.750000
O O12 0.281158 0.936411 0.569153
O O13 0.137783 0.620861 0.919554
O O14 0.000000 0.500000 0.000000
O O15 0.194406 0.664254 0.750000
#
# Coordination Sequence:
#
# PCOD9435543 Si02
#       6
#     8   8   8   8   8   8
#     4   9  18  34  56  79 106 146 190 226 265 323
#     4   9  17  31  54  83 113 143 176 223 281 331
#     4   9  17  32  55  80 111 148 180 219 273 330
#     4   9  18  34  53  75 107 145 187 232 276 324
#     4  10  19  32  53  81 108 142 184 226 273 324
#     4  10  20  35  57  83 110 146 189 225 267 330
#
# _framework density 24.030495999999999
#
# number of rings (size 3 to 8) (size 9 to 14) (size 15 to 20)
#    0.000    2.667    0.000    2.500    0.000    5.333 
#    0.000    9.167    0.000   12.000    0.000    0.000 
#    0.000    0.000    0.000    0.000    0.000    0.000 
#
# Total GULP energy -267680.249710 kJ/mol
# GULP energy per Si atom -5576.671869 kJ/mol
# Density = 2.397580 g / cm^3
# Si number density = 24.030496 Si / 1000 Ang^3
#
#
#
# Elastic Constant Matrix: (Units=GPa)
#
#
# Indices 1 2 3 4 5 6 
#
# 1 78.2852 15.5459 -2.1046 0.0000 0.0000 0.0000
# 2 15.5459 93.1925 36.5271 0.0000 0.0000 0.0000
# 3 -2.1046 36.5271 117.8048 0.0000 0.0000 0.0000
# 4 0.0000 0.0000 0.0000 17.6875 0.0000 0.0000
# 5 0.0000 0.0000 0.0000 0.0000 2.9132 0.0000
# 6 0.0000 0.0000 0.0000 0.0000 0.0000 14.5820
#
#
#
# Elastic Compliance Matrix: (Units=1/GPa)
#
#
# Indices 1 2 3 4 5 6 
#
# 1 0.013326 -0.002637 0.001056 0.000000 0.000000 0.000000
# 2 -0.002637 0.012737 -0.003996 0.000000 0.000000 0.000000
# 3 0.001056 -0.003996 0.009747 0.000000 0.000000 0.000000
# 4 0.000000 0.000000 0.000000 0.056537 0.000000 0.000000
# 5 0.000000 0.000000 0.000000 0.000000 0.343262 0.000000
# 6 0.000000 0.000000 0.000000 0.000000 0.000000 0.068578
#
#
# Mechanical properties :
#
#
# Convention : Reuss Voigt Hill
#
# Bulk Modulus (GPa) = 40.56089 43.24659 41.90374
# Shear Modulus (GPa) = 9.55003 22.99081 16.27042
#
# Velocity S-wave (km/s) = 1.99568 3.09647 2.60489
# Velocity P-wave (km/s) = 4.71444 5.55156 5.15003
#
# Compressibility (1/GPa) = 0.02465429
#
# Stress axis : x y z
#
# Youngs Moduli (GPa) = 75.04252 78.51343 102.60004
#
# Poissons Ratio (x) = 0.20702 -0.10831
# Poissons Ratio (y) = 0.19786 0.41002
# Poissons Ratio (z) = -0.07922 0.31376
#
# Static dielectric constant tensor:
#      x y z
#    x 2.001800 0.000000 0.000000 
#    y 0.000000 1.920020 0.000000 
#    z 0.000000 0.000000 2.072970 
# 
# From -- ./inp_files/21138.got.cif
#   From: 2010.05.17/outbox.cif.g08.bks.cpg/sg57_11_cif.got.tgz:21138.got - 2010.06.03 13:58:18.
