data_PCOD9435059
_publ_section_title
;
Structure prediction by ZEFSAII (Michael W. Deem and Ramdas Pophale) SiO2 
 PCOD9435059
Probable space group: P B C M
;
_chemical_formula_sum "Si O2"
_cell_formula_units_Z 40
_cell_length_a 11.569698
_cell_length_b 22.422297
_cell_length_c 8.585457
_cell_angle_alpha 90.000000
_cell_angle_beta 90.000000
_cell_angle_gamma 90.000000
_cell_volume 2227.232427
_symmetry_space_group_name_H-M "P B C M"
_symmetry_group_IT_number 57
_symmetry_cell_setting 'orthorhombic'
loop_
_space_group_symop_operation_xyz
x,y,z
-x,-y,1/2+z
x,1/2-y,-z
-x,1/2+y,1/2-z
-x,-y,-z
x,y,1/2-z
-x,1/2+y,z
x,1/2-y,1/2+z
loop_
_atom_site_type_symbol
_atom_site_label
_atom_site_fract_x
_atom_site_fract_y
_atom_site_fract_z
Si Si1 0.127799 0.682280 0.935917
Si Si2 0.305209 0.511049 0.569145
Si Si3 0.602117 0.315516 0.435730
Si Si4 0.927572 0.055924 0.068207
Si Si5 0.480049 0.420514 0.567425
O O1 0.115387 0.685162 0.750000
O O2 0.263587 0.668240 0.971223
O O3 0.103135 0.750000 0.000000
O O4 0.060730 0.623120 0.997116
O O5 0.270538 0.517024 0.750000
O O6 0.204089 0.535192 0.463085
O O7 0.351484 0.444440 0.535728
O O8 0.423074 0.547252 0.538029
O O9 0.590991 0.250000 0.500000
O O10 0.587620 0.320125 0.250000
O O11 0.507032 0.353402 0.525973
O O12 0.952762 0.060461 0.250000
O O13 0.000000 0.000000 0.000000
O O14 0.502738 0.432958 0.750000
#
# Coordination Sequence:
#
# PCOD9435059 Si02
#       5
#     8   8   8   8   8
#     4  10  20  35  55  81 112 145 182 228 279 333
#     4  10  20  34  51  76 107 140 177 217 265 321
#     4  10  19  30  49  75 109 143 178 221 268 324
#     4  12  24  38  58  82 112 148 188 236 283 333
#     4  10  19  31  51  76 107 141 174 214 263 319
#
# _framework density 17.959509000000001
#
# number of rings (size 3 to 8) (size 9 to 14) (size 15 to 20)
#    0.000    1.600    2.000    4.200    0.000    4.000 
#    0.000    0.000    0.000    1.200    0.000    2.800 
#    0.000    0.000    0.000    0.000    0.000    0.000 
#
# Total GULP energy -222795.709438 kJ/mol
# GULP energy per Si atom -5569.892736 kJ/mol
# Density = 1.791863 g / cm^3
# Si number density = 17.959509 Si / 1000 Ang^3
#
#
#
# Elastic Constant Matrix: (Units=GPa)
#
#
# Indices 1 2 3 4 5 6 
#
# 1 24.2471 34.0694 12.7296 0.0000 0.0000 0.0000
# 2 34.0694 139.5925 55.8313 0.0000 0.0000 0.0000
# 3 12.7296 55.8313 75.0915 0.0000 0.0000 0.0000
# 4 0.0000 0.0000 0.0000 35.8192 0.0000 0.0000
# 5 0.0000 0.0000 0.0000 0.0000 20.9277 0.0000
# 6 0.0000 0.0000 0.0000 0.0000 0.0000 34.4097
#
#
#
# Elastic Compliance Matrix: (Units=1/GPa)
#
#
# Indices 1 2 3 4 5 6 
#
# 1 0.062827 -0.015761 0.001068 0.000000 0.000000 0.000000
# 2 -0.015761 0.014149 -0.007848 0.000000 0.000000 0.000000
# 3 0.001068 -0.007848 0.018971 0.000000 0.000000 0.000000
# 4 0.000000 0.000000 0.000000 0.027918 0.000000 0.000000
# 5 0.000000 0.000000 0.000000 0.000000 0.047783 0.000000
# 6 0.000000 0.000000 0.000000 0.000000 0.000000 0.029062
#
#
# Mechanical properties :
#
#
# Convention : Reuss Voigt Hill
#
# Bulk Modulus (GPa) = 19.65996 49.35464 34.50730
# Shear Modulus (GPa) = 19.02963 27.31807 23.17385
#
# Velocity S-wave (km/s) = 3.25866 3.90435 3.59603
# Velocity P-wave (km/s) = 5.01289 6.91852 6.04132
#
# Compressibility (1/GPa) = 0.05086481
#
# Stress axis : x y z
#
# Youngs Moduli (GPa) = 15.91680 70.67440 52.71077
#
# Poissons Ratio (x) = 1.11389 -0.05629
# Poissons Ratio (y) = 0.25086 0.41370
# Poissons Ratio (z) = -0.01700 0.55468
#
# Static dielectric constant tensor:
#      x y z
#    x 1.625450 0.000000 0.000000 
#    y 0.000000 1.680520 0.000000 
#    z 0.000000 0.000000 1.613900 
# 
# From -- ./inp_files/2903.got.cif
#   From: 2010.05.17/outbox.cif.g08.bks.cpg/sg57_2_cif.got.tgz:2903.got - 2010.06.03 13:58:18.
