data_PCOD9435541
_publ_section_title
;
Structure prediction by ZEFSAII (Michael W. Deem and Ramdas Pophale) SiO2 
 PCOD9435541
Probable space group: P B C M
;
_chemical_formula_sum "Si O2"
_cell_formula_units_Z 64
_cell_length_a 18.189116
_cell_length_b 23.052879
_cell_length_c 7.757422
_cell_angle_alpha 90.000000
_cell_angle_beta 90.000000
_cell_angle_gamma 90.000000
_cell_volume 3252.776179
_symmetry_space_group_name_H-M "P B C M"
_symmetry_group_IT_number 57
_symmetry_cell_setting 'orthorhombic'
loop_
_space_group_symop_operation_xyz
x,y,z
-x,-y,1/2+z
x,1/2-y,-z
-x,1/2+y,1/2-z
-x,-y,-z
x,y,1/2-z
-x,1/2+y,z
x,1/2-y,1/2+z
loop_
_atom_site_type_symbol
_atom_site_label
_atom_site_fract_x
_atom_site_fract_y
_atom_site_fract_z
Si Si1 0.086093 0.660470 0.949948
Si Si2 0.924866 0.686439 0.542154
Si Si3 0.486103 0.432624 0.454848
Si Si4 0.645822 0.415652 0.461393
Si Si5 0.753487 0.186262 0.957542
Si Si6 0.078527 0.971779 0.956593
Si Si7 0.672994 0.547627 0.451582
Si Si8 0.170203 0.421143 0.452748
O O1 0.085871 0.678983 0.750000
O O2 0.163076 0.681536 0.027583
O O3 0.008453 0.680804 0.026946
O O4 0.085987 0.590798 0.958985
O O5 0.895621 0.750000 0.500000
O O6 0.928535 0.681341 0.750000
O O7 0.874238 0.633897 0.476001
O O8 0.500000 0.500000 0.500000
O O9 0.482177 0.426337 0.250000
O O10 0.561489 0.402432 0.515226
O O11 0.405053 0.420491 0.524848
O O12 0.645904 0.416896 0.250000
O O13 0.702886 0.366818 0.519416
O O14 0.666094 0.481142 0.520099
O O15 0.756918 0.180497 0.750000
O O16 0.723908 0.250000 0.000000
O O17 0.084210 0.963757 0.750000
O O18 0.139119 0.017754 0.020901
O O19 0.000000 0.000000 0.000000
O O20 0.687256 0.542300 0.250000
O O21 0.742652 0.580286 0.528017
O O22 0.152838 0.422706 0.250000
#
# Coordination Sequence:
#
# PCOD9435541 Si02
#       8
#     8   8   8   8   8   8   8   8
#     4  10  20  36  54  74 105 139 172 217 265 308
#     4  10  21  37  53  71  98 133 176 219 260 305
#     4   9  16  29  50  76 107 137 167 203 252 309
#     4   8  16  31  50  74 104 138 168 202 252 310
#     4  10  20  34  52  73 103 140 179 220 259 304
#     4  11  21  34  53  77 106 136 171 212 262 319
#     4  10  19  32  53  81 106 132 172 212 262 324
#     4  10  21  36  51  73 107 138 167 212 265 309
#
# _framework density 19.6755
#
# number of rings (size 3 to 8) (size 9 to 14) (size 15 to 20)
#    0.000    2.250    1.250    3.000    0.000    3.500 
#    0.000    3.750    0.000    0.750    0.000    1.750 
#    0.000    0.000    0.000    0.000    0.000    0.000 
#
# Total GULP energy -357040.481376 kJ/mol
# GULP energy per Si atom -5578.757521 kJ/mol
# Density = 1.963072 g / cm^3
# Si number density = 19.675500 Si / 1000 Ang^3
#
#
#
# Elastic Constant Matrix: (Units=GPa)
#
#
# Indices 1 2 3 4 5 6 
#
# 1 115.4237 35.9911 -6.1928 0.0000 0.0000 0.0000
# 2 35.9911 80.9011 -4.5084 0.0000 0.0000 0.0000
# 3 -6.1928 -4.5084 28.4809 0.0000 0.0000 0.0000
# 4 0.0000 0.0000 0.0000 20.0612 0.0000 0.0000
# 5 0.0000 0.0000 0.0000 0.0000 13.0599 0.0000
# 6 0.0000 0.0000 0.0000 0.0000 0.0000 10.0319
#
#
#
# Elastic Compliance Matrix: (Units=1/GPa)
#
#
# Indices 1 2 3 4 5 6 
#
# 1 0.010122 -0.004420 0.001501 0.000000 0.000000 0.000000
# 2 -0.004420 0.014400 0.001319 0.000000 0.000000 0.000000
# 3 0.001501 0.001319 0.035646 0.000000 0.000000 0.000000
# 4 0.000000 0.000000 0.000000 0.049847 0.000000 0.000000
# 5 0.000000 0.000000 0.000000 0.000000 0.076570 0.000000
# 6 0.000000 0.000000 0.000000 0.000000 0.000000 0.099682
#
#
# Mechanical properties :
#
#
# Convention : Reuss Voigt Hill
#
# Bulk Modulus (GPa) = 17.55311 30.59841 24.07576
# Shear Modulus (GPa) = 16.20963 21.93165 19.07064
#
# Velocity S-wave (km/s) = 2.87339 3.34229 3.11667
# Velocity P-wave (km/s) = 4.46645 5.52085 5.02140
#
# Compressibility (1/GPa) = 0.05696995
#
# Stress axis : x y z
#
# Youngs Moduli (GPa) = 98.79099 69.44246 28.05330
#
# Poissons Ratio (x) = 0.30690 -0.04212
# Poissons Ratio (y) = 0.43661 -0.03699
# Poissons Ratio (z) = -0.14832 -0.09156
#
# Static dielectric constant tensor:
#      x y z
#    x 1.722720 0.000000 0.000000 
#    y 0.000000 1.656120 0.000000 
#    z 0.000000 0.000000 1.719570 
# 
# From -- ./inp_files/7118.got.cif
#   From: 2010.05.17/outbox.cif.g08.bks.cpg/sg57_4_cif.got.tgz:7118.got - 2010.06.03 13:58:18.
