data_PCOD9435593
_publ_section_title
;
Structure prediction by ZEFSAII (Michael W. Deem and Ramdas Pophale) SiO2 
 PCOD9435593
Probable space group: P B C M
;
_chemical_formula_sum "Si O2"
_cell_formula_units_Z 64
_cell_length_a 20.359390
_cell_length_b 10.003266
_cell_length_c 14.541305
_cell_angle_alpha 90.000000
_cell_angle_beta 90.000000
_cell_angle_gamma 90.000000
_cell_volume 2961.487902
_symmetry_space_group_name_H-M "P B C M"
_symmetry_group_IT_number 57
_symmetry_cell_setting 'orthorhombic'
loop_
_space_group_symop_operation_xyz
x,y,z
-x,-y,1/2+z
x,1/2-y,-z
-x,1/2+y,1/2-z
-x,-y,-z
x,y,1/2-z
-x,1/2+y,z
x,1/2-y,1/2+z
loop_
_atom_site_type_symbol
_atom_site_label
_atom_site_fract_x
_atom_site_fract_y
_atom_site_fract_z
Si Si1 0.804156 0.104703 0.143779
Si Si2 0.785479 0.092157 0.640006
Si Si3 0.320981 0.023466 0.855274
Si Si4 0.602324 0.253490 0.851321
Si Si5 0.349677 0.005648 0.057763
Si Si6 0.476324 0.123832 0.435460
Si Si7 0.936573 0.416902 0.107454
Si Si8 0.048721 0.885442 0.611316
O O1 0.790157 0.125268 0.250000
O O2 0.790015 0.253006 0.103932
O O3 0.755512 0.986129 0.118080
O O4 0.879129 0.062983 0.135679
O O5 0.774360 0.089975 0.750000
O O6 0.724790 0.012097 0.594191
O O7 0.860377 0.044100 0.622292
O O8 0.331675 0.078160 0.750000
O O9 0.343443 0.868769 0.849715
O O10 0.352922 0.062904 0.953029
O O11 0.601299 0.188540 0.750000
O O12 0.620768 0.143851 0.927196
O O13 0.534613 0.332303 0.867871
O O14 0.405781 0.091080 0.109225
O O15 0.468674 0.250000 0.500000
O O16 0.500000 0.000000 0.500000
O O17 0.950599 0.267915 0.144828
O O18 0.987519 0.526752 0.142852
O O19 0.949980 0.395732 0.999272
#
# Coordination Sequence:
#
# PCOD9435593 Si02
#       8
#     8   8   8   8   8   8   8   8
#     4   9  17  29  50  83 114 143 196 249 294 345
#     4  10  20  33  55  88 117 154 204 253 302 366
#     4  10  19  32  55  89 122 154 200 256 304 356
#     4  11  22  37  61  96 126 159 202 254 310 370
#     4  12  22  38  66  86 125 163 204 252 318 369
#     4  12  24  44  65  91 123 164 208 255 311 380
#     4   9  18  32  53  79 114 148 197 245 293 358
#     4   9  17  31  51  79 110 151 191 242 302 353
#
# _framework density 21.610758000000001
#
# number of rings (size 3 to 8) (size 9 to 14) (size 15 to 20)
#    0.000    1.750    3.750    1.500    0.000    2.500 
#    0.000    0.625    8.250    0.750    0.000    0.000 
#    0.000    0.000    0.000    0.000    0.000    0.000 
#
# Total GULP energy -356341.668758 kJ/mol
# GULP energy per Si atom -5567.838574 kJ/mol
# Density = 2.156157 g / cm^3
# Si number density = 21.610758 Si / 1000 Ang^3
#
#
#
# Elastic Constant Matrix: (Units=GPa)
#
#
# Indices 1 2 3 4 5 6 
#
# 1 179.6036 45.2842 27.2485 0.0000 0.0000 0.0000
# 2 45.2842 43.5120 6.4026 0.0000 0.0000 0.0000
# 3 27.2485 6.4026 98.7032 0.0000 0.0000 0.0000
# 4 0.0000 0.0000 0.0000 6.8949 0.0000 0.0000
# 5 0.0000 0.0000 0.0000 0.0000 11.1613 0.0000
# 6 0.0000 0.0000 0.0000 0.0000 0.0000 24.2422
#
#
#
# Elastic Compliance Matrix: (Units=1/GPa)
#
#
# Indices 1 2 3 4 5 6 
#
# 1 0.007804 -0.007880 -0.001643 0.000000 0.000000 0.000000
# 2 -0.007880 0.031160 0.000154 0.000000 0.000000 0.000000
# 3 -0.001643 0.000154 0.010575 0.000000 0.000000 0.000000
# 4 0.000000 0.000000 0.000000 0.145036 0.000000 0.000000
# 5 0.000000 0.000000 0.000000 0.000000 0.089595 0.000000
# 6 0.000000 0.000000 0.000000 0.000000 0.000000 0.041250
#
#
# Mechanical properties :
#
#
# Convention : Reuss Voigt Hill
#
# Bulk Modulus (GPa) = 32.46638 53.29884 42.88261
# Shear Modulus (GPa) = 14.10732 24.65191 19.37962
#
# Velocity S-wave (km/s) = 2.55775 3.38112 2.99784
# Velocity P-wave (km/s) = 4.87634 6.32134 5.64526
#
# Compressibility (1/GPa) = 0.03080109
#
# Stress axis : x y z
#
# Youngs Moduli (GPa) = 128.14047 32.09202 94.56237
#
# Poissons Ratio (x) = 0.25288 0.15539
# Poissons Ratio (y) = 1.00974 -0.01457
# Poissons Ratio (z) = 0.21057 -0.00494
#
# Static dielectric constant tensor:
#      x y z
#    x 1.905200 0.000000 0.000000 
#    y 0.000000 1.793970 0.000000 
#    z 0.000000 0.000000 1.828750 
# 
# From -- ./inp_files/19120.got.cif
#   From: 2010.05.17/outbox.cif.g08.bks.cpg/sg57_10_cif.got.tgz:19120.got - 2010.06.03 13:58:18.
