data_PCOD9435419
_publ_section_title
;
Structure prediction by ZEFSAII (Michael W. Deem and Ramdas Pophale) SiO2 
 PCOD9435419
Probable space group: P B C M
;
_chemical_formula_sum "Si O2"
_cell_formula_units_Z 64
_cell_length_a 29.448699
_cell_length_b 12.767560
_cell_length_c 7.874700
_cell_angle_alpha 90.000000
_cell_angle_beta 90.000000
_cell_angle_gamma 90.000000
_cell_volume 2960.792951
_symmetry_space_group_name_H-M "P B C M"
_symmetry_group_IT_number 57
_symmetry_cell_setting 'orthorhombic'
loop_
_space_group_symop_operation_xyz
x,y,z
-x,-y,1/2+z
x,1/2-y,-z
-x,1/2+y,1/2-z
-x,-y,-z
x,y,1/2-z
-x,1/2+y,z
x,1/2-y,1/2+z
loop_
_atom_site_type_symbol
_atom_site_label
_atom_site_fract_x
_atom_site_fract_y
_atom_site_fract_z
Si Si1 0.235608 0.916355 0.447136
Si Si2 0.006376 0.372747 0.938747
Si Si3 0.423715 0.533437 0.948609
Si Si4 0.103130 0.085066 0.551400
Si Si5 0.205108 0.364080 0.452507
Si Si6 0.864345 0.364273 0.046599
Si Si7 0.508182 0.860324 0.952441
Si Si8 0.334659 0.633317 0.955367
O O1 0.235616 0.883816 0.250000
O O2 0.187835 0.874674 0.520259
O O3 0.283568 0.882386 0.523489
O O4 0.231692 0.041383 0.461371
O O5 0.988040 0.376406 0.750000
O O6 0.993093 0.250000 0.000000
O O7 0.061003 0.369670 0.951013
O O8 0.000000 0.500000 0.000000
O O9 0.417379 0.508903 0.750000
O O10 0.456057 0.444332 0.023702
O O11 0.374184 0.556779 0.020507
O O12 0.458447 0.629927 0.965254
O O13 0.097009 0.109449 0.750000
O O14 0.152311 0.126258 0.492672
O O15 0.107075 0.959573 0.528147
O O16 0.222324 0.250000 0.500000
O O17 0.206251 0.379662 0.250000
O O18 0.864108 0.377299 0.250000
O O19 0.881477 0.250000 0.000000
O O20 0.503398 0.872748 0.750000
O O21 0.528079 0.750000 0.000000
O O22 0.332780 0.622332 0.750000
O O23 0.349166 0.750000 0.000000
#
# Coordination Sequence:
#
# PCOD9435419 Si02
#       8
#     8   8   8   8   8   8   8   8
#     4   9  19  34  51  73 105 141 178 220 268 322
#     4  12  26  46  70  98 131 169 211 257 309 367
#     4   9  19  34  51  73 100 130 167 208 252 306
#     4  10  21  38  60  88 118 152 195 243 292 346
#     4  10  20  34  56  82 109 141 180 225 272 322
#     4  10  19  32  52  80 113 151 192 238 290 344
#     4  10  19  32  51  73  98 128 163 207 257 307
#     4  10  20  34  52  74 101 134 169 209 256 308
#
# _framework density 21.615829999999999
#
# number of rings (size 3 to 8) (size 9 to 14) (size 15 to 20)
#    0.000    2.000    0.000    3.750    0.000    6.000 
#    0.000    3.125    0.000    1.500    0.000    0.000 
#    0.000    0.000    0.000    0.000    0.000    0.000 
#
# Total GULP energy -356613.839139 kJ/mol
# GULP energy per Si atom -5572.091237 kJ/mol
# Density = 2.156663 g / cm^3
# Si number density = 21.615830 Si / 1000 Ang^3
#
#
#
# Elastic Constant Matrix: (Units=GPa)
#
#
# Indices 1 2 3 4 5 6 
#
# 1 94.4624 11.2181 5.4671 0.0000 0.0000 0.0000
# 2 11.2181 116.1882 -3.6805 0.0000 0.0000 0.0000
# 3 5.4671 -3.6805 45.8143 0.0000 0.0000 0.0000
# 4 0.0000 0.0000 0.0000 27.7443 0.0000 0.0000
# 5 0.0000 0.0000 0.0000 0.0000 36.0411 0.0000
# 6 0.0000 0.0000 0.0000 0.0000 0.0000 11.5238
#
#
#
# Elastic Compliance Matrix: (Units=1/GPa)
#
#
# Indices 1 2 3 4 5 6 
#
# 1 0.010795 -0.001086 -0.001375 0.000000 0.000000 0.000000
# 2 -0.001086 0.008738 0.000832 0.000000 0.000000 0.000000
# 3 -0.001375 0.000832 0.022058 0.000000 0.000000 0.000000
# 4 0.000000 0.000000 0.000000 0.036043 0.000000 0.000000
# 5 0.000000 0.000000 0.000000 0.000000 0.027746 0.000000
# 6 0.000000 0.000000 0.000000 0.000000 0.000000 0.086777
#
#
# Mechanical properties :
#
#
# Convention : Reuss Voigt Hill
#
# Bulk Modulus (GPa) = 26.08820 31.38603 28.73712
# Shear Modulus (GPa) = 24.01613 31.29255 27.65434
#
# Velocity S-wave (km/s) = 3.33685 3.80895 3.58069
# Velocity P-wave (km/s) = 5.19050 5.82199 5.51529
#
# Compressibility (1/GPa) = 0.03833151
#
# Stress axis : x y z
#
# Youngs Moduli (GPa) = 92.63745 114.44398 45.33467
#
# Poissons Ratio (x) = 0.12426 0.06235
# Poissons Ratio (y) = 0.10059 -0.03770
# Poissons Ratio (z) = 0.12741 -0.09516
#
# Static dielectric constant tensor:
#      x y z
#    x 1.795140 0.000000 0.000000 
#    y 0.000000 1.903190 0.000000 
#    z 0.000000 0.000000 1.806690 
# 
# From -- ./inp_files/10277.got.cif
#   From: 2010.05.17/outbox.cif.g08.bks.cpg/sg57_6_cif.got.tgz:10277.got - 2010.06.03 13:58:18.
