data_PCOD9435262
_publ_section_title
;
Structure prediction by ZEFSAII (Michael W. Deem and Ramdas Pophale) SiO2 
 PCOD9435262
Probable space group: P B C M
;
_chemical_formula_sum "Si O2"
_cell_formula_units_Z 48
_cell_length_a 7.923231
_cell_length_b 14.492577
_cell_length_c 14.973955
_cell_angle_alpha 90.000000
_cell_angle_beta 90.000000
_cell_angle_gamma 90.000000
_cell_volume 1719.429834
_symmetry_space_group_name_H-M "P B C M"
_symmetry_group_IT_number 57
_symmetry_cell_setting 'orthorhombic'
loop_
_space_group_symop_operation_xyz
x,y,z
-x,-y,1/2+z
x,1/2-y,-z
-x,1/2+y,1/2-z
-x,-y,-z
x,y,1/2-z
-x,1/2+y,z
x,1/2-y,1/2+z
loop_
_atom_site_type_symbol
_atom_site_label
_atom_site_fract_x
_atom_site_fract_y
_atom_site_fract_z
Si Si1 0.113520 0.387659 0.859708
Si Si2 0.946308 0.561074 0.648101
Si Si3 0.612347 0.441321 0.879597
Si Si4 0.296847 0.215516 0.859160
Si Si5 0.199074 0.767336 0.648142
Si Si6 0.613568 0.405508 0.086903
O O1 0.111767 0.391477 0.750000
O O2 0.266926 0.321527 0.885953
O O3 0.084284 0.491514 0.894327
O O4 0.949584 0.329500 0.891671
O O5 0.000571 0.576009 0.750000
O O6 0.775696 0.498055 0.653119
O O7 0.869420 0.656199 0.613091
O O8 0.638772 0.335960 0.850126
O O9 0.447701 0.503620 0.857837
O O10 0.627900 0.435875 0.985738
O O11 0.308845 0.210226 0.750000
O O12 0.452414 0.162664 0.901390
O O13 0.151088 0.753761 0.750000
O O14 0.239369 0.666775 0.610577
#
# Coordination Sequence:
#
# PCOD9435262 Si02
#       6
#     8   8   8   8   8   8
#     4   8  15  28  46  69  96 127 164 203 244 294
#     4   8  14  27  49  73  98 133 170 201 245 305
#     4   9  18  32  50  71 101 135 168 203 245 298
#     4   9  16  28  48  74 102 130 163 205 251 299
#     4  10  19  32  52  75  99 131 170 208 247 297
#     4  10  19  31  51  75 100 133 169 206 250 296
#
# _framework density 27.916229999999999
#
# number of rings (size 3 to 8) (size 9 to 14) (size 15 to 20)
#    0.000    3.000    0.000    2.500    0.000    2.000 
#    0.000    1.667    0.000   21.000    0.000    0.000 
#    0.000    0.000    0.000    0.000    0.000    0.000 
#
# Total GULP energy -268497.356141 kJ/mol
# GULP energy per Si atom -5593.694920 kJ/mol
# Density = 2.785269 g / cm^3
# Si number density = 27.916230 Si / 1000 Ang^3
#
#
#
# Elastic Constant Matrix: (Units=GPa)
#
#
# Indices 1 2 3 4 5 6 
#
# 1 81.9009 6.5057 8.5194 0.0000 0.0000 0.0000
# 2 6.5057 215.2811 16.6916 0.0000 0.0000 0.0000
# 3 8.5194 16.6916 86.0343 0.0000 0.0000 0.0000
# 4 0.0000 0.0000 0.0000 5.6305 0.0000 0.0000
# 5 0.0000 0.0000 0.0000 0.0000 18.2535 0.0000
# 6 0.0000 0.0000 0.0000 0.0000 0.0000 61.8580
#
#
#
# Elastic Compliance Matrix: (Units=1/GPa)
#
#
# Indices 1 2 3 4 5 6 
#
# 1 0.012354 -0.000283 -0.001168 0.000000 0.000000 0.000000
# 2 -0.000283 0.004722 -0.000888 0.000000 0.000000 0.000000
# 3 -0.001168 -0.000888 0.011911 0.000000 0.000000 0.000000
# 4 0.000000 0.000000 0.000000 0.177603 0.000000 0.000000
# 5 0.000000 0.000000 0.000000 0.000000 0.054784 0.000000
# 6 0.000000 0.000000 0.000000 0.000000 0.000000 0.016166
#
#
# Mechanical properties :
#
#
# Convention : Reuss Voigt Hill
#
# Bulk Modulus (GPa) = 41.13730 49.62775 45.38252
# Shear Modulus (GPa) = 17.22224 40.58173 28.90199
#
# Velocity S-wave (km/s) = 2.48649 3.81687 3.22112
# Velocity P-wave (km/s) = 4.79703 6.10251 5.48872
#
# Compressibility (1/GPa) = 0.02430884
#
# Stress axis : x y z
#
# Youngs Moduli (GPa) = 80.94624 211.75225 83.95388
#
# Poissons Ratio (x) = 0.05987 0.09810
# Poissons Ratio (y) = 0.02289 0.07457
# Poissons Ratio (z) = 0.09458 0.18808
#
# Static dielectric constant tensor:
#      x y z
#    x 2.338850 0.000000 0.000000 
#    y 0.000000 2.189420 0.000000 
#    z 0.000000 0.000000 2.034960 
# 
# From -- ./inp_files/21099.got.cif
#   From: 2010.05.17/outbox.cif.g08.bks.cpg/sg57_11_cif.got.tgz:21099.got - 2010.06.03 13:58:18.
