data_PCOD9435502
_publ_section_title
;
Structure prediction by ZEFSAII (Michael W. Deem and Ramdas Pophale) SiO2 
 PCOD9435502
Probable space group: P B C M
;
_chemical_formula_sum "Si O2"
_cell_formula_units_Z 48
_cell_length_a 16.432030
_cell_length_b 7.140216
_cell_length_c 16.441357
_cell_angle_alpha 90.000000
_cell_angle_beta 90.000000
_cell_angle_gamma 90.000000
_cell_volume 1929.035538
_symmetry_space_group_name_H-M "P B C M"
_symmetry_group_IT_number 57
_symmetry_cell_setting 'orthorhombic'
loop_
_space_group_symop_operation_xyz
x,y,z
-x,-y,1/2+z
x,1/2-y,-z
-x,1/2+y,1/2-z
-x,-y,-z
x,y,1/2-z
-x,1/2+y,z
x,1/2-y,1/2+z
loop_
_atom_site_type_symbol
_atom_site_label
_atom_site_fract_x
_atom_site_fract_y
_atom_site_fract_z
Si Si1 0.607889 0.188849 0.907130
Si Si2 0.718177 0.810406 0.408436
Si Si3 0.553834 0.574285 0.658596
Si Si4 0.767074 0.226678 0.348809
Si Si5 0.938649 0.347136 0.656797
Si Si6 0.887934 0.780885 0.842409
O O1 0.525335 0.073419 0.898289
O O2 0.587918 0.366068 0.850175
O O3 0.696682 0.129644 0.875710
O O4 0.616202 0.250000 0.000000
O O5 0.701280 0.750000 0.500000
O O6 0.630894 0.795345 0.363511
O O7 0.799846 0.703421 0.381599
O O8 0.743133 0.029683 0.392846
O O9 0.528270 0.613763 0.750000
O O10 0.766581 0.202598 0.250000
O O11 0.860599 0.269199 0.373959
O O12 0.953430 0.281541 0.750000
O O13 0.906292 0.558174 0.660743
O O14 0.028039 0.353065 0.617660
O O15 0.880291 0.853987 0.750000
#
# Coordination Sequence:
#
# PCOD9435502 Si02
#       6
#     8   8   8   8   8   8
#     4  11  22  37  58  85 114 142 178 228 278 321
#     4  10  19  32  52  78 107 140 178 222 269 321
#     4  11  22  40  61  82 108 147 187 222 265 328
#     4   9  18  37  58  77 105 150 190 219 264 332
#     4   8  15  29  53  76 100 135 182 225 262 311
#     4   9  16  31  51  74 101 138 180 222 266 317
#
# _framework density 24.882902999999999
#
# number of rings (size 3 to 8) (size 9 to 14) (size 15 to 20)
#    0.000    2.333    0.000    6.000    0.000    1.333 
#    0.000    9.167    0.000    4.000    0.000    0.000 
#    0.000    0.000    0.000    0.000    0.000    0.000 
#
# Total GULP energy -267938.190589 kJ/mol
# GULP energy per Si atom -5582.045637 kJ/mol
# Density = 2.482627 g / cm^3
# Si number density = 24.882903 Si / 1000 Ang^3
#
#
#
# Elastic Constant Matrix: (Units=GPa)
#
#
# Indices 1 2 3 4 5 6 
#
# 1 197.1111 44.5446 19.0691 0.0000 0.0000 0.0000
# 2 44.5446 48.8331 1.5121 0.0000 0.0000 0.0000
# 3 19.0691 1.5121 74.7710 0.0000 0.0000 0.0000
# 4 0.0000 0.0000 0.0000 19.5459 0.0000 0.0000
# 5 0.0000 0.0000 0.0000 0.0000 46.7763 0.0000
# 6 0.0000 0.0000 0.0000 0.0000 0.0000 43.9779
#
#
#
# Elastic Compliance Matrix: (Units=1/GPa)
#
#
# Indices 1 2 3 4 5 6 
#
# 1 0.006566 -0.005942 -0.001554 0.000000 0.000000 0.000000
# 2 -0.005942 0.025867 0.000992 0.000000 0.000000 0.000000
# 3 -0.001554 0.000992 0.013751 0.000000 0.000000 0.000000
# 4 0.000000 0.000000 0.000000 0.051162 0.000000 0.000000
# 5 0.000000 0.000000 0.000000 0.000000 0.021378 0.000000
# 6 0.000000 0.000000 0.000000 0.000000 0.000000 0.022739
#
#
# Mechanical properties :
#
#
# Convention : Reuss Voigt Hill
#
# Bulk Modulus (GPa) = 30.14213 50.10743 40.12478
# Shear Modulus (GPa) = 30.20617 39.09931 34.65274
#
# Velocity S-wave (km/s) = 3.48793 3.96830 3.73585
# Velocity P-wave (km/s) = 5.32549 6.41698 5.89654
#
# Compressibility (1/GPa) = 0.03317616
#
# Stress axis : x y z
#
# Youngs Moduli (GPa) = 152.29052 38.65926 72.72439
#
# Poissons Ratio (x) = 0.22970 0.11305
# Poissons Ratio (y) = 0.90485 -0.07216
# Poissons Ratio (z) = 0.23673 -0.03836
#
# Static dielectric constant tensor:
#      x y z
#    x 2.104720 0.000000 0.000000 
#    y 0.000000 2.096390 0.000000 
#    z 0.000000 0.000000 1.896650 
# 
# From -- ./inp_files/18951.got.cif
#   From: 2010.05.17/outbox.cif.g08.bks.cpg/sg57_10_cif.got.tgz:18951.got - 2010.06.03 13:58:18.
