data_PCOD9435254
_publ_section_title
;
Structure prediction by ZEFSAII (Michael W. Deem and Ramdas Pophale) SiO2 
 PCOD9435254
Probable space group: P B C M
;
_chemical_formula_sum "Si O2"
_cell_formula_units_Z 56
_cell_length_a 12.057974
_cell_length_b 11.994575
_cell_length_c 19.727645
_cell_angle_alpha 90.000000
_cell_angle_beta 90.000000
_cell_angle_gamma 90.000000
_cell_volume 2853.214692
_symmetry_space_group_name_H-M "P B C M"
_symmetry_group_IT_number 57
_symmetry_cell_setting 'orthorhombic'
loop_
_space_group_symop_operation_xyz
x,y,z
-x,-y,1/2+z
x,1/2-y,-z
-x,1/2+y,1/2-z
-x,-y,-z
x,y,1/2-z
-x,1/2+y,z
x,1/2-y,1/2+z
loop_
_atom_site_type_symbol
_atom_site_label
_atom_site_fract_x
_atom_site_fract_y
_atom_site_fract_z
Si Si1 0.848325 0.980906 0.674341
Si Si2 0.671481 0.646217 0.102727
Si Si3 0.570257 0.308984 0.572349
Si Si4 0.858474 0.681919 0.933561
Si Si5 0.790907 0.304586 0.410503
Si Si6 0.981284 0.210918 0.167814
Si Si7 0.263894 0.974846 0.983596
O O1 0.863309 0.018688 0.750000
O O2 0.738347 0.905918 0.665181
O O3 0.951058 0.902946 0.655651
O O4 0.832206 0.087484 0.629509
O O5 0.543612 0.674029 0.111330
O O6 0.742793 0.754261 0.081691
O O7 0.685981 0.553741 0.043011
O O8 0.542072 0.250000 0.500000
O O9 0.664180 0.229539 0.603885
O O10 0.634063 0.426096 0.559667
O O11 0.939408 0.698495 0.869835
O O12 0.827080 0.555000 0.950026
O O13 0.904087 0.750000 0.000000
O O14 0.788526 0.360504 0.485759
O O15 0.869762 0.212304 0.376664
O O16 0.969271 0.224953 0.250000
#
# Coordination Sequence:
#
# PCOD9435254 Si02
#       7
#     8   8   8   8   8   8   8
#     4   9  19  37  57  74  99 139 182 222 268 321
#     4   9  17  32  54  80 106 137 176 216 265 321
#     4  10  19  31  50  78 111 139 170 216 266 320
#     4   9  18  32  54  81 106 137 181 227 268 318
#     4  10  21  34  52  80 108 140 178 219 271 322
#     4  10  21  37  56  76 103 142 186 229 273 325
#     4   9  18  31  51  80 110 139 170 215 273 325
#
# _framework density 19.626985000000001
#
# number of rings (size 3 to 8) (size 9 to 14) (size 15 to 20)
#    0.000    2.571    0.000    3.000    0.000    5.714 
#    0.000    1.429    0.000    5.143    0.000    0.000 
#    0.000    0.000    0.000    0.000    0.000    0.000 
#
# Total GULP energy -311900.779087 kJ/mol
# GULP energy per Si atom -5569.656769 kJ/mol
# Density = 1.958231 g / cm^3
# Si number density = 19.626985 Si / 1000 Ang^3
#
#
#
# Elastic Constant Matrix: (Units=GPa)
#
#
# Indices 1 2 3 4 5 6 
#
# 1 117.0155 17.3314 32.0368 0.0000 0.0000 0.0000
# 2 17.3314 66.2688 4.6991 0.0000 0.0000 0.0000
# 3 32.0368 4.6991 31.4064 0.0000 0.0000 0.0000
# 4 0.0000 0.0000 0.0000 2.1022 0.0000 0.0000
# 5 0.0000 0.0000 0.0000 0.0000 13.0819 0.0000
# 6 0.0000 0.0000 0.0000 0.0000 0.0000 19.3672
#
#
#
# Elastic Compliance Matrix: (Units=1/GPa)
#
#
# Indices 1 2 3 4 5 6 
#
# 1 0.012204 -0.002334 -0.012100 0.000000 0.000000 0.000000
# 2 -0.002334 0.015698 0.000032 0.000000 0.000000 0.000000
# 3 -0.012100 0.000032 0.044179 0.000000 0.000000 0.000000
# 4 0.000000 0.000000 0.000000 0.475702 0.000000 0.000000
# 5 0.000000 0.000000 0.000000 0.000000 0.076441 0.000000
# 6 0.000000 0.000000 0.000000 0.000000 0.000000 0.051634
#
#
# Mechanical properties :
#
#
# Convention : Reuss Voigt Hill
#
# Bulk Modulus (GPa) = 23.10687 35.86948 29.48818
# Shear Modulus (GPa) = 6.95325 17.61850 12.28588
#
# Velocity S-wave (km/s) = 1.88425 2.99936 2.50465
# Velocity P-wave (km/s) = 4.06601 5.50547 4.83955
#
# Compressibility (1/GPa) = 0.04327718
#
# Stress axis : x y z
#
# Youngs Moduli (GPa) = 81.93814 63.70172 22.63531
#
# Poissons Ratio (x) = 0.14867 0.27389
# Poissons Ratio (y) = 0.19123 -0.00072
# Poissons Ratio (z) = 0.99146 -0.00203
#
# Static dielectric constant tensor:
#      x y z
#    x 1.749260 0.000000 0.000000 
#    y 0.000000 1.759720 0.000000 
#    z 0.000000 0.000000 1.782250 
# 
# From -- ./inp_files/25039.got.cif
#   From: 2010.05.17/outbox.cif.g08.bks.cpg/sg57_13_cif.got.tgz:25039.got - 2010.06.03 13:58:18.
