data_PCOD9435040
_publ_section_title
;
Structure prediction by ZEFSAII (Michael W. Deem and Ramdas Pophale) SiO2 
 PCOD9435040
Probable space group: P B C M
;
_chemical_formula_sum "Si O2"
_cell_formula_units_Z 64
_cell_length_a 17.581129
_cell_length_b 21.530687
_cell_length_c 7.382464
_cell_angle_alpha 90.000000
_cell_angle_beta 90.000000
_cell_angle_gamma 90.000000
_cell_volume 2794.512045
_symmetry_space_group_name_H-M "P B C M"
_symmetry_group_IT_number 57
_symmetry_cell_setting 'orthorhombic'
loop_
_space_group_symop_operation_xyz
x,y,z
-x,-y,1/2+z
x,1/2-y,-z
-x,1/2+y,1/2-z
-x,-y,-z
x,y,1/2-z
-x,1/2+y,z
x,1/2-y,1/2+z
loop_
_atom_site_type_symbol
_atom_site_label
_atom_site_fract_x
_atom_site_fract_y
_atom_site_fract_z
Si Si1 0.716475 0.058536 0.529236
Si Si2 0.443055 0.176290 0.532766
Si Si3 0.727263 0.676695 0.534381
Si Si4 0.111804 0.133701 0.955707
Si Si5 0.050116 0.635847 0.528550
Si Si6 0.453535 0.937529 0.466345
Si Si7 0.792576 0.316717 0.035350
Si Si8 0.874963 0.494696 0.469010
O O1 0.715777 0.055707 0.750000
O O2 0.631408 0.049436 0.463831
O O3 0.742453 0.126849 0.468919
O O4 0.786807 0.015173 0.475019
O O5 0.458502 0.250000 0.500000
O O6 0.440855 0.170529 0.750000
O O7 0.357330 0.160345 0.464343
O O8 0.503645 0.124943 0.466061
O O9 0.734980 0.750000 0.500000
O O10 0.724948 0.664177 0.750000
O O11 0.805138 0.646375 0.461664
O O12 0.116101 0.158130 0.750000
O O13 0.032481 0.156991 0.038279
O O14 0.098889 0.059753 0.953872
O O15 0.046446 0.636384 0.750000
O O16 0.121138 0.677319 0.466763
O O17 0.076149 0.565679 0.477130
O O18 0.446769 0.928904 0.250000
O O19 0.500000 0.000000 0.500000
O O20 0.797718 0.325480 0.250000
O O21 0.758999 0.250000 0.000000
O O22 0.877983 0.497892 0.250000
#
# Coordination Sequence:
#
# PCOD9435040 Si02
#       8
#     8   8   8   8   8   8   8   8
#     4   8  17  34  51  70  99 134 162 193 245 307
#     4   9  19  36  55  74 101 136 172 210 254 306
#     4   9  19  34  49  68  95 126 160 199 243 290
#     4  10  19  30  48  71  96 126 160 202 252 289
#     4   8  16  31  47  66  96 132 162 196 245 297
#     4  10  21  36  55  80 109 137 170 214 264 313
#     4   9  17  32  52  71  97 131 167 204 245 293
#     4   9  17  31  50  69  93 127 167 197 232 294
#
# _framework density 22.902028999999999
#
# number of rings (size 3 to 8) (size 9 to 14) (size 15 to 20)
#    0.000    3.000    0.000    1.875    1.750    2.000 
#    0.000    3.750    0.000    0.000    0.000    0.000 
#    0.000    0.000    0.000    0.000    0.000    0.000 
#
# Total GULP energy -356976.402484 kJ/mol
# GULP energy per Si atom -5577.756289 kJ/mol
# Density = 2.284990 g / cm^3
# Si number density = 22.902029 Si / 1000 Ang^3
#
#
#
# Elastic Constant Matrix: (Units=GPa)
#
#
# Indices 1 2 3 4 5 6 
#
# 1 156.2401 23.1878 5.6747 0.0000 0.0000 0.0000
# 2 23.1878 36.6959 -13.1416 0.0000 0.0000 0.0000
# 3 5.6747 -13.1416 82.0297 0.0000 0.0000 0.0000
# 4 0.0000 0.0000 0.0000 19.5481 0.0000 0.0000
# 5 0.0000 0.0000 0.0000 0.0000 -20.8585 0.0000
# 6 0.0000 0.0000 0.0000 0.0000 0.0000 9.6993
#
#
#
# Elastic Compliance Matrix: (Units=1/GPa)
#
#
# Indices 1 2 3 4 5 6 
#
# 1 0.007191 -0.005010 -0.001300 0.000000 0.000000 0.000000
# 2 -0.005010 0.032399 0.005537 0.000000 0.000000 0.000000
# 3 -0.001300 0.005537 0.013168 0.000000 0.000000 0.000000
# 4 0.000000 0.000000 0.000000 0.051156 0.000000 0.000000
# 5 0.000000 0.000000 0.000000 0.000000 -0.047942 0.000000
# 6 0.000000 0.000000 0.000000 0.000000 0.000000 0.103100
#
#
# Mechanical properties :
#
#
# Convention : Reuss Voigt Hill
#
# Bulk Modulus (GPa) = 19.52616 34.04528 26.78572
# Shear Modulus (GPa) = 28.13918 18.96077 23.54997
#
# Velocity S-wave (km/s) = 3.50905 2.88046 3.21018
# Velocity P-wave (km/s) = 4.99624 5.09516 5.04594
#
# Compressibility (1/GPa) = 0.05121336
#
# Stress axis : x y z
#
# Youngs Moduli (GPa) = 139.06078 30.86469 75.94331
#
# Poissons Ratio (x) = 0.15462 0.09873
# Poissons Ratio (y) = 0.69663 -0.42051
# Poissons Ratio (z) = 0.18078 -0.17090
#
# Static dielectric constant tensor:
#      x y z
#    x 1.898510 0.000000 0.000000 
#    y 0.000000 1.820840 0.000000 
#    z 0.000000 0.000000 1.884400 
# 
# From -- ./inp_files/13920.got.cif
#   From: 2010.05.17/outbox.cif.g08.bks.cpg/sg57_7_cif.got.tgz:13920.got - 2010.06.03 13:58:18.
