data_PCOD9435300
_publ_section_title
;
Structure prediction by ZEFSAII (Michael W. Deem and Ramdas Pophale) SiO2 
 PCOD9435300
Probable space group: P B C M
;
_chemical_formula_sum "Si O2"
_cell_formula_units_Z 56
_cell_length_a 17.445436
_cell_length_b 18.826347
_cell_length_c 9.256280
_cell_angle_alpha 90.000000
_cell_angle_beta 90.000000
_cell_angle_gamma 90.000000
_cell_volume 3040.075508
_symmetry_space_group_name_H-M "P B C M"
_symmetry_group_IT_number 57
_symmetry_cell_setting 'orthorhombic'
loop_
_space_group_symop_operation_xyz
x,y,z
-x,-y,1/2+z
x,1/2-y,-z
-x,1/2+y,1/2-z
-x,-y,-z
x,y,1/2-z
-x,1/2+y,z
x,1/2-y,1/2+z
loop_
_atom_site_type_symbol
_atom_site_label
_atom_site_fract_x
_atom_site_fract_y
_atom_site_fract_z
Si Si1 0.590084 0.073172 0.418096
Si Si2 0.823406 0.552380 0.078528
Si Si3 0.138807 0.615519 0.581458
Si Si4 0.274060 0.683578 0.084432
Si Si5 0.974140 0.573007 0.576963
Si Si6 0.473439 0.175195 0.578975
Si Si7 0.336517 0.425420 0.078009
O O1 0.564539 0.072593 0.250000
O O2 0.669395 0.116935 0.425352
O O3 0.530448 0.116058 0.514513
O O4 0.610724 0.993290 0.463160
O O5 0.826262 0.566001 0.250000
O O6 0.837775 0.467405 0.058367
O O7 0.893267 0.591134 0.995651
O O8 0.741862 0.572272 0.010655
O O9 0.152711 0.630904 0.750000
O O10 0.193263 0.662786 0.484428
O O11 0.048032 0.622878 0.552990
O O12 0.264819 0.703257 0.250000
O O13 0.308660 0.750000 0.000000
O O14 0.966284 0.562843 0.750000
O O15 0.000000 0.500000 0.500000
O O16 0.484289 0.250000 0.500000
O O17 0.486689 0.182910 0.750000
O O18 0.387810 0.144354 0.556646
O O19 0.320056 0.433190 0.250000
#
# Coordination Sequence:
#
# PCOD9435300 Si02
#       7
#     8   8   8   8   8   8   8
#     4  10  21  38  59  84 111 142 185 232 284 337
#     4  10  19  31  52  83 112 143 180 225 277 328
#     4   9  18  32  49  74 107 142 183 225 270 323
#     4  11  22  34  52  76 108 149 186 229 280 336
#     4   9  17  29  48  75 108 143 179 224 272 321
#     4  11  24  40  60  83 112 149 186 229 280 336
#     4  10  21  38  59  85 114 145 185 233 284 332
#
# _framework density 18.420594999999999
#
# number of rings (size 3 to 8) (size 9 to 14) (size 15 to 20)
#    0.000    2.000    1.429    3.429    0.000    6.857 
#    0.000    0.000    0.000    0.857    0.000    4.000 
#    0.000    0.000    0.000    0.000    0.000    0.000 
#
# Total GULP energy -312522.614209 kJ/mol
# GULP energy per Si atom -5580.760968 kJ/mol
# Density = 1.837867 g / cm^3
# Si number density = 18.420595 Si / 1000 Ang^3
#
#
#
# Elastic Constant Matrix: (Units=GPa)
#
#
# Indices 1 2 3 4 5 6 
#
# 1 112.8353 19.2845 61.9818 0.0000 0.0000 0.0000
# 2 19.2845 31.2599 22.2146 0.0000 0.0000 0.0000
# 3 61.9818 22.2146 83.2489 0.0000 0.0000 0.0000
# 4 0.0000 0.0000 0.0000 19.5194 0.0000 0.0000
# 5 0.0000 0.0000 0.0000 0.0000 29.8047 0.0000
# 6 0.0000 0.0000 0.0000 0.0000 0.0000 6.1879
#
#
#
# Elastic Compliance Matrix: (Units=1/GPa)
#
#
# Indices 1 2 3 4 5 6 
#
# 1 0.015062 -0.001632 -0.010779 0.000000 0.000000 0.000000
# 2 -0.001632 0.039653 -0.009366 0.000000 0.000000 0.000000
# 3 -0.010779 -0.009366 0.022537 0.000000 0.000000 0.000000
# 4 0.000000 0.000000 0.000000 0.051231 0.000000 0.000000
# 5 0.000000 0.000000 0.000000 0.000000 0.033552 0.000000
# 6 0.000000 0.000000 0.000000 0.000000 0.000000 0.161605
#
#
# Mechanical properties :
#
#
# Convention : Reuss Voigt Hill
#
# Bulk Modulus (GPa) = 29.67562 48.25620 38.96591
# Shear Modulus (GPa) = 13.21260 19.35996 16.28628
#
# Velocity S-wave (km/s) = 2.68110 3.24542 2.97667
# Velocity P-wave (km/s) = 5.07242 6.34803 5.74573
#
# Compressibility (1/GPa) = 0.03369770
#
# Stress axis : x y z
#
# Youngs Moduli (GPa) = 66.39023 25.21902 44.37193
#
# Poissons Ratio (x) = 0.04116 0.47829
# Poissons Ratio (y) = 0.10836 0.41558
# Poissons Ratio (z) = 0.71562 0.23620
#
# Static dielectric constant tensor:
#      x y z
#    x 1.651760 0.000000 0.000000 
#    y 0.000000 1.620220 0.000000 
#    z 0.000000 0.000000 1.620250 
# 
# From -- ./inp_files/5170.got.cif
#   From: 2010.05.17/outbox.cif.g08.bks.cpg/sg57_3_cif.got.tgz:5170.got - 2010.06.03 13:58:18.
