data_PCOD9435626
_publ_section_title
;
Structure prediction by ZEFSAII (Michael W. Deem and Ramdas Pophale) SiO2 
 PCOD9435626
Probable space group: P B C M
;
_chemical_formula_sum "Si O2"
_cell_formula_units_Z 64
_cell_length_a 15.093333
_cell_length_b 30.456455
_cell_length_c 8.753269
_cell_angle_alpha 90.000000
_cell_angle_beta 90.000000
_cell_angle_gamma 90.000000
_cell_volume 4023.785126
_symmetry_space_group_name_H-M "P B C M"
_symmetry_group_IT_number 57
_symmetry_cell_setting 'orthorhombic'
loop_
_space_group_symop_operation_xyz
x,y,z
-x,-y,1/2+z
x,1/2-y,-z
-x,1/2+y,1/2-z
-x,-y,-z
x,y,1/2-z
-x,1/2+y,z
x,1/2-y,1/2+z
loop_
_atom_site_type_symbol
_atom_site_label
_atom_site_fract_x
_atom_site_fract_y
_atom_site_fract_z
Si Si1 0.174567 0.037734 0.068154
Si Si2 0.787626 0.203446 0.933114
Si Si3 0.444130 0.560521 0.568479
Si Si4 0.700339 0.117435 0.432081
Si Si5 0.869582 0.056631 0.433036
Si Si6 0.633416 0.971100 0.431257
Si Si7 0.960152 0.893283 0.434068
Si Si8 0.003911 0.703577 0.566912
O O1 0.165884 0.036926 0.250000
O O2 0.277170 0.040019 0.019194
O O3 0.120122 0.078218 0.999196
O O4 0.135895 0.992243 0.000274
O O5 0.780782 0.202826 0.750000
O O6 0.891905 0.198710 0.974195
O O7 0.757805 0.250000 0.000000
O O8 0.734479 0.163544 0.005408
O O9 0.432808 0.554168 0.750000
O O10 0.389740 0.602158 0.511760
O O11 0.549218 0.560233 0.537385
O O12 0.401101 0.519002 0.481998
O O13 0.689559 0.118623 0.250000
O O14 0.777550 0.081788 0.467129
O O15 0.880250 0.054497 0.250000
O O16 0.949927 0.084183 0.504529
O O17 0.651546 0.971567 0.250000
O O18 0.960820 0.895032 0.250000
O O19 0.958192 0.841966 0.481259
O O20 0.971956 0.750000 0.500000
O O21 0.998694 0.706445 0.750000
#
# Coordination Sequence:
#
# PCOD9435626 Si02
#       8
#     8   8   8   8   8   8   8   8
#     4  12  24  36  52  73 101 139 178 218 259 303
#     4  10  19  33  51  74 103 134 172 212 258 307
#     4  10  20  33  53  76 101 132 168 209 254 304
#     4  11  21  32  51  76 105 139 174 210 255 305
#     4  11  22  35  50  72 103 140 178 215 251 299
#     4  10  20  35  52  74 101 132 169 212 256 300
#     4  11  22  37  53  73 102 138 176 213 257 307
#     4   9  19  33  52  74  98 130 165 209 256 300
#
# _framework density 15.905421
#
# number of rings (size 3 to 8) (size 9 to 14) (size 15 to 20)
#    0.000    1.500    2.500    3.750    0.000    4.000 
#    0.000    0.000    0.000    0.000    0.000    0.875 
#    0.000    4.000    0.000    0.000    0.000    0.000 
#
# Total GULP energy -357423.055773 kJ/mol
# GULP energy per Si atom -5584.735246 kJ/mol
# Density = 1.586922 g / cm^3
# Si number density = 15.905421 Si / 1000 Ang^3
#
#
#
# Elastic Constant Matrix: (Units=GPa)
#
#
# Indices 1 2 3 4 5 6 
#
# 1 60.0597 45.5673 27.4752 0.0000 0.0000 0.0000
# 2 45.5673 137.5185 38.6786 0.0000 0.0000 0.0000
# 3 27.4752 38.6786 55.4606 0.0000 0.0000 0.0000
# 4 0.0000 0.0000 0.0000 27.4210 0.0000 0.0000
# 5 0.0000 0.0000 0.0000 0.0000 23.5629 0.0000
# 6 0.0000 0.0000 0.0000 0.0000 0.0000 21.6409
#
#
#
# Elastic Compliance Matrix: (Units=1/GPa)
#
#
# Indices 1 2 3 4 5 6 
#
# 1 0.024912 -0.005951 -0.008191 0.000000 0.000000 0.000000
# 2 -0.005951 0.010468 -0.004352 0.000000 0.000000 0.000000
# 3 -0.008191 -0.004352 0.025124 0.000000 0.000000 0.000000
# 4 0.000000 0.000000 0.000000 0.036468 0.000000 0.000000
# 5 0.000000 0.000000 0.000000 0.000000 0.042440 0.000000
# 6 0.000000 0.000000 0.000000 0.000000 0.000000 0.046209
#
#
# Mechanical properties :
#
#
# Convention : Reuss Voigt Hill
#
# Bulk Modulus (GPa) = 42.52568 52.94233 47.73401
# Shear Modulus (GPa) = 21.69686 23.94615 22.82150
#
# Velocity S-wave (km/s) = 3.69740 3.88433 3.79202
# Velocity P-wave (km/s) = 6.70987 7.31268 7.01775
#
# Compressibility (1/GPa) = 0.02351520
#
# Stress axis : x y z
#
# Youngs Moduli (GPa) = 40.14079 95.53207 39.80245
#
# Poissons Ratio (x) = 0.56850 0.32604
# Poissons Ratio (y) = 0.23887 0.17323
# Poissons Ratio (z) = 0.32881 0.41577
#
# Static dielectric constant tensor:
#      x y z
#    x 1.524760 0.000000 0.000000 
#    y 0.000000 1.527120 0.000000 
#    z 0.000000 0.000000 1.529120 
# 
# From -- ./inp_files/6006.got.cif
#   From: 2010.05.17/outbox.cif.g08.bks.cpg/sg57_4_cif.got.tgz:6006.got - 2010.06.03 13:58:18.
