data_PCOD9435237
_publ_section_title
;
Structure prediction by ZEFSAII (Michael W. Deem and Ramdas Pophale) SiO2 
 PCOD9435237
Probable space group: P B C M
;
_chemical_formula_sum "Si O2"
_cell_formula_units_Z 48
_cell_length_a 9.893233
_cell_length_b 24.463797
_cell_length_c 7.724845
_cell_angle_alpha 90.000000
_cell_angle_beta 90.000000
_cell_angle_gamma 90.000000
_cell_volume 1869.613674
_symmetry_space_group_name_H-M "P B C M"
_symmetry_group_IT_number 57
_symmetry_cell_setting 'orthorhombic'
loop_
_space_group_symop_operation_xyz
x,y,z
-x,-y,1/2+z
x,1/2-y,-z
-x,1/2+y,1/2-z
-x,-y,-z
x,y,1/2-z
-x,1/2+y,z
x,1/2-y,1/2+z
loop_
_atom_site_type_symbol
_atom_site_label
_atom_site_fract_x
_atom_site_fract_y
_atom_site_fract_z
Si Si1 0.746503 0.067641 0.962978
Si Si2 0.209183 0.810179 0.058192
Si Si3 0.363483 0.191735 0.546317
Si Si4 0.550906 0.575240 0.541481
Si Si5 0.931929 0.842072 0.952585
Si Si6 0.849924 0.958608 0.549805
O O1 0.753334 0.067314 0.750000
O O2 0.767402 0.129798 0.025654
O O3 0.593060 0.051762 0.013862
O O4 0.849688 0.020205 0.024358
O O5 0.266127 0.816167 0.250000
O O6 0.253187 0.750000 0.000000
O O7 0.045701 0.809749 0.054453
O O8 0.422554 0.250000 0.500000
O O9 0.340468 0.189314 0.750000
O O10 0.454158 0.140073 0.500041
O O11 0.216247 0.184003 0.462972
O O12 0.563490 0.569053 0.750000
O O13 0.689468 0.555721 0.457222
O O14 0.969490 0.843601 0.750000
O O15 0.918128 0.904175 0.026360
O O16 0.889348 0.961207 0.750000
#
# Coordination Sequence:
#
# PCOD9435237 Si02
#       6
#     8   8   8   8   8   8
#     4   9  19  36  56  78 107 142 174 209 258 311
#     4  11  23  39  57  76 104 142 180 217 258 307
#     4  10  19  31  50  76 104 136 175 218 263 310
#     4   9  18  33  53  78 108 140 173 211 259 312
#     4  10  20  35  55  79 106 134 170 218 266 312
#     4   9  18  34  57  83 108 135 170 213 261 311
#
# _framework density 25.673753000000001
#
# number of rings (size 3 to 8) (size 9 to 14) (size 15 to 20)
#    0.000    2.333    0.000    2.500    0.000    2.667 
#    0.000    3.333    0.000    0.000    0.000    0.000 
#    0.000    0.000    0.000    0.000    0.000    0.000 
#
# Total GULP energy -268215.137592 kJ/mol
# GULP energy per Si atom -5587.815366 kJ/mol
# Density = 2.561532 g / cm^3
# Si number density = 25.673753 Si / 1000 Ang^3
#
#
#
# Elastic Constant Matrix: (Units=GPa)
#
#
# Indices 1 2 3 4 5 6 
#
# 1 64.2902 7.2083 4.8055 0.0000 0.0000 0.0000
# 2 7.2083 178.2818 10.1271 0.0000 0.0000 0.0000
# 3 4.8055 10.1271 56.0915 0.0000 0.0000 0.0000
# 4 0.0000 0.0000 0.0000 17.9318 0.0000 0.0000
# 5 0.0000 0.0000 0.0000 0.0000 18.6315 0.0000
# 6 0.0000 0.0000 0.0000 0.0000 0.0000 4.3313
#
#
#
# Elastic Compliance Matrix: (Units=1/GPa)
#
#
# Indices 1 2 3 4 5 6 
#
# 1 0.015711 -0.000565 -0.001244 0.000000 0.000000 0.000000
# 2 -0.000565 0.005688 -0.000978 0.000000 0.000000 0.000000
# 3 -0.001244 -0.000978 0.018111 0.000000 0.000000 0.000000
# 4 0.000000 0.000000 0.000000 0.055767 0.000000 0.000000
# 5 0.000000 0.000000 0.000000 0.000000 0.053672 0.000000
# 6 0.000000 0.000000 0.000000 0.000000 0.000000 0.230878
#
#
# Mechanical properties :
#
#
# Convention : Reuss Voigt Hill
#
# Bulk Modulus (GPa) = 29.46780 38.10503 33.78641
# Shear Modulus (GPa) = 12.60356 26.61375 19.60865
#
# Velocity S-wave (km/s) = 2.21806 3.22314 2.76662
# Velocity P-wave (km/s) = 4.24999 5.35964 4.83674
#
# Compressibility (1/GPa) = 0.03393535
#
# Stress axis : x y z
#
# Youngs Moduli (GPa) = 63.65062 175.82400 55.21424
#
# Poissons Ratio (x) = 0.09926 0.06869
# Poissons Ratio (y) = 0.03593 0.05403
# Poissons Ratio (z) = 0.07918 0.17204
#
# Static dielectric constant tensor:
#      x y z
#    x 2.002970 0.000000 0.000000 
#    y 0.000000 2.315610 0.000000 
#    z 0.000000 0.000000 1.981930 
# 
# From -- ./inp_files/3189.got.cif
#   From: 2010.05.17/outbox.cif.g08.bks.cpg/sg57_2_cif.got.tgz:3189.got - 2010.06.03 13:58:18.
