data_PCOD9435666
_publ_section_title
;
Structure prediction by ZEFSAII (Michael W. Deem and Ramdas Pophale) SiO2 
 PCOD9435666
Probable space group: P B C M
;
_chemical_formula_sum "Si O2"
_cell_formula_units_Z 48
_cell_length_a 16.079661
_cell_length_b 18.319898
_cell_length_c 8.313887
_cell_angle_alpha 90.000000
_cell_angle_beta 90.000000
_cell_angle_gamma 90.000000
_cell_volume 2449.086121
_symmetry_space_group_name_H-M "P B C M"
_symmetry_group_IT_number 57
_symmetry_cell_setting 'orthorhombic'
loop_
_space_group_symop_operation_xyz
x,y,z
-x,-y,1/2+z
x,1/2-y,-z
-x,1/2+y,1/2-z
-x,-y,-z
x,y,1/2-z
-x,1/2+y,z
x,1/2-y,1/2+z
loop_
_atom_site_type_symbol
_atom_site_label
_atom_site_fract_x
_atom_site_fract_y
_atom_site_fract_z
Si Si1 0.858967 0.069108 0.053198
Si Si2 0.340485 0.165953 0.057067
Si Si3 0.478473 0.834090 0.943964
Si Si4 0.991324 0.830111 0.941866
Si Si5 0.702989 0.166214 0.444542
Si Si6 0.828186 0.595310 0.557958
O O1 0.859377 0.068608 0.250000
O O2 0.779243 0.116397 0.000971
O O3 0.942889 0.109383 0.999056
O O4 0.850508 0.985926 0.998223
O O5 0.339025 0.166054 0.250000
O O6 0.431545 0.136629 0.001831
O O7 0.332622 0.250000 0.000000
O O8 0.262856 0.120244 0.995324
O O9 0.478562 0.836563 0.750000
O O10 0.388261 0.862824 0.998184
O O11 0.478422 0.750000 0.000000
O O12 0.992822 0.830502 0.750000
O O13 0.016299 0.750000 0.000000
O O14 0.899047 0.849791 0.998406
O O15 0.712542 0.250000 0.500000
O O16 0.703713 0.166490 0.250000
O O17 0.830242 0.594597 0.750000
#
# Coordination Sequence:
#
# PCOD9435666 Si02
#       6
#     8   8   8   8   8   8
#     4   9  20  36  55  77 105 137 170 205 252 306
#     4  10  19  33  52  77 104 135 173 215 256 300
#     4   8  15  27  48  74 102 132 167 209 254 296
#     4  11  22  38  58  81 104 131 167 211 255 303
#     4   9  16  31  53  78 104 134 170 211 253 301
#     4  11  22  37  54  75 103 139 174 209 252 302
#
# _framework density 19.599148
#
# number of rings (size 3 to 8) (size 9 to 14) (size 15 to 20)
#    0.000    2.333    0.000    3.000    0.000    0.667 
#    0.000    5.833    0.000    0.000    0.000    0.000 
#    0.000    0.000    0.000    0.000    0.000    0.000 
#
# Total GULP energy -267758.378754 kJ/mol
# GULP energy per Si atom -5578.299557 kJ/mol
# Density = 1.955454 g / cm^3
# Si number density = 19.599148 Si / 1000 Ang^3
#
#
#
# Elastic Constant Matrix: (Units=GPa)
#
#
# Indices 1 2 3 4 5 6 
#
# 1 84.7905 -7.2693 7.0720 0.0000 0.0000 0.0000
# 2 -7.2693 39.4192 2.9702 0.0000 0.0000 0.0000
# 3 7.0720 2.9702 25.4620 0.0000 0.0000 0.0000
# 4 0.0000 0.0000 0.0000 17.0891 0.0000 0.0000
# 5 0.0000 0.0000 0.0000 0.0000 8.0966 0.0000
# 6 0.0000 0.0000 0.0000 0.0000 0.0000 -6.8425
#
#
#
# Elastic Compliance Matrix: (Units=1/GPa)
#
#
# Indices 1 2 3 4 5 6 
#
# 1 0.012323 0.002553 -0.003720 0.000000 0.000000 0.000000
# 2 0.002553 0.026122 -0.003756 0.000000 0.000000 0.000000
# 3 -0.003720 -0.003756 0.040746 0.000000 0.000000 0.000000
# 4 0.000000 0.000000 0.000000 0.058517 0.000000 0.000000
# 5 0.000000 0.000000 0.000000 0.000000 0.123508 0.000000
# 6 0.000000 0.000000 0.000000 0.000000 0.000000 -0.146145
#
#
# Mechanical properties :
#
#
# Convention : Reuss Voigt Hill
#
# Bulk Modulus (GPa) = 14.42105 17.24637 15.83371
# Shear Modulus (GPa) = 33.77625 13.46189 23.61907
#
# Velocity S-wave (km/s) = 4.15583 2.62365 3.47523
# Velocity P-wave (km/s) = 5.51379 4.24225 4.91928
#
# Compressibility (1/GPa) = 0.06934310
#
# Stress axis : x y z
#
# Youngs Moduli (GPa) = 81.14948 38.28166 24.54245
#
# Poissons Ratio (x) = -0.09773 0.09131
# Poissons Ratio (y) = -0.20716 0.09219
# Poissons Ratio (z) = 0.30191 0.14380
#
# Static dielectric constant tensor:
#      x y z
#    x 1.723840 0.000000 0.000000 
#    y 0.000000 1.648970 0.000000 
#    z 0.000000 0.000000 1.673310 
# 
# From -- ./inp_files/4618.got.cif
#   From: 2010.05.17/outbox.cif.g08.bks.cpg/sg57_3_cif.got.tgz:4618.got - 2010.06.03 13:58:18.
