data_PCOD9435114
_publ_section_title
;
Structure prediction by ZEFSAII (Michael W. Deem and Ramdas Pophale) SiO2 
 PCOD9435114
Probable space group: P B C M
;
_chemical_formula_sum "Si O2"
_cell_formula_units_Z 64
_cell_length_a 15.237762
_cell_length_b 9.673935
_cell_length_c 27.382219
_cell_angle_alpha 90.000000
_cell_angle_beta 90.000000
_cell_angle_gamma 90.000000
_cell_volume 4036.388783
_symmetry_space_group_name_H-M "P B C M"
_symmetry_group_IT_number 57
_symmetry_cell_setting 'orthorhombic'
loop_
_space_group_symop_operation_xyz
x,y,z
-x,-y,1/2+z
x,1/2-y,-z
-x,1/2+y,1/2-z
-x,-y,-z
x,y,1/2-z
-x,1/2+y,z
x,1/2-y,1/2+z
loop_
_atom_site_type_symbol
_atom_site_label
_atom_site_fract_x
_atom_site_fract_y
_atom_site_fract_z
Si Si1 0.919478 0.208522 0.690675
Si Si2 0.259320 0.212366 0.808293
Si Si3 0.597534 0.802812 0.615963
Si Si4 0.252988 0.614885 0.191825
Si Si5 0.605142 0.064637 0.947873
Si Si6 0.401820 0.074410 0.544215
Si Si7 0.087319 0.387938 0.809413
Si Si8 0.606463 0.187080 0.386663
O O1 0.923161 0.204069 0.750000
O O2 0.832729 0.296023 0.678236
O O3 0.004656 0.295155 0.674345
O O4 0.916841 0.048229 0.674200
O O5 0.272677 0.226194 0.750000
O O6 0.343427 0.263597 0.838255
O O7 0.176644 0.308009 0.822523
O O8 0.241497 0.049466 0.817918
O O9 0.602746 0.959325 0.597420
O O10 0.630916 0.712713 0.569711
O O11 0.494392 0.771373 0.624796
O O12 0.267096 0.629895 0.250000
O O13 0.334439 0.671111 0.160801
O O14 0.505602 0.102123 0.964866
O O15 0.644236 0.203936 0.926032
O O16 0.641221 0.985924 0.995360
O O17 0.397086 0.958016 0.585527
O O18 0.084538 0.391080 0.750000
#
# Coordination Sequence:
#
# PCOD9435114 Si02
#       8
#     8   8   8   8   8   8   8   8
#     4   9  17  30  49  71  93 119 154 197 242 282
#     4  10  20  33  47  65  96 135 167 195 229 276
#     4  10  19  31  47  68  96 129 164 199 235 281
#     4  10  20  33  47  65  96 135 167 195 229 276
#     4   9  18  28  49  69  90 117 157 207 253 284
#     4   9  16  32  47  67  90 121 157 201 251 290
#     4   9  17  30  49  71  93 119 154 197 242 282
#     4  10  19  31  47  68  96 129 164 199 235 281
#
# _framework density 15.855757000000001
#
# number of rings (size 3 to 8) (size 9 to 14) (size 15 to 20)
#    0.000    2.500    1.250    1.500    1.750    6.500 
#    0.000    0.000    0.000    0.000    0.000    0.000 
#    0.000    6.000    0.000    0.000    0.000    0.000 
#
# Total GULP energy -356283.515647 kJ/mol
# GULP energy per Si atom -5566.929932 kJ/mol
# Density = 1.581967 g / cm^3
# Si number density = 15.855757 Si / 1000 Ang^3
#
#
#
# Elastic Constant Matrix: (Units=GPa)
#
#
# Indices 1 2 3 4 5 6 
#
# 1 83.2604 35.4542 32.8730 0.0000 0.0000 0.0000
# 2 35.4542 81.5518 13.6927 0.0000 0.0000 0.0000
# 3 32.8730 13.6927 34.0595 0.0000 0.0000 0.0000
# 4 0.0000 0.0000 0.0000 22.3888 0.0000 0.0000
# 5 0.0000 0.0000 0.0000 0.0000 -1.6234 0.0000
# 6 0.0000 0.0000 0.0000 0.0000 0.0000 21.9000
#
#
#
# Elastic Compliance Matrix: (Units=1/GPa)
#
#
# Indices 1 2 3 4 5 6 
#
# 1 0.022208 -0.006494 -0.018823 0.000000 0.000000 0.000000
# 2 -0.006494 0.015049 0.000218 0.000000 0.000000 0.000000
# 3 -0.018823 0.000218 0.047440 0.000000 0.000000 0.000000
# 4 0.000000 0.000000 0.000000 0.044665 0.000000 0.000000
# 5 0.000000 0.000000 0.000000 0.000000 -0.616004 0.000000
# 6 0.000000 0.000000 0.000000 0.000000 0.000000 0.045662
#
#
# Mechanical properties :
#
#
# Convention : Reuss Voigt Hill
#
# Bulk Modulus (GPa) = 28.98725 40.32347 34.65536
# Shear Modulus (GPa) = -13.18284 16.32319 1.57018
#
# Velocity S-wave (km/s) = -2.88657 3.21203 0.99621
# Velocity P-wave (km/s) = 2.68549 6.26441 4.81948
#
# Compressibility (1/GPa) = 0.03449792
#
# Stress axis : x y z
#
# Youngs Moduli (GPa) = 45.02937 66.45014 21.07912
#
# Poissons Ratio (x) = 0.43154 0.39678
# Poissons Ratio (y) = 0.29243 -0.00460
# Poissons Ratio (z) = 0.84760 -0.01449
#
# Static dielectric constant tensor:
#      x y z
#    x 1.518520 0.000000 0.000000 
#    y 0.000000 1.563810 0.000000 
#    z 0.000000 0.000000 1.530170 
# 
# From -- ./inp_files/27461.got.cif
#   From: 2010.05.17/outbox.cif.g08.bks.cpg/sg57_14_cif.got.tgz:27461.got - 2010.06.03 13:58:18.
