data_PCOD9435444
_publ_section_title
;
Structure prediction by ZEFSAII (Michael W. Deem and Ramdas Pophale) SiO2 
 PCOD9435444
Probable space group: P B C M
;
_chemical_formula_sum "Si O2"
_cell_formula_units_Z 64
_cell_length_a 20.889854
_cell_length_b 19.937790
_cell_length_c 8.641435
_cell_angle_alpha 90.000000
_cell_angle_beta 90.000000
_cell_angle_gamma 90.000000
_cell_volume 3599.136266
_symmetry_space_group_name_H-M "P B C M"
_symmetry_group_IT_number 57
_symmetry_cell_setting 'orthorhombic'
loop_
_space_group_symop_operation_xyz
x,y,z
-x,-y,1/2+z
x,1/2-y,-z
-x,1/2+y,1/2-z
-x,-y,-z
x,y,1/2-z
-x,1/2+y,z
x,1/2-y,1/2+z
loop_
_atom_site_type_symbol
_atom_site_label
_atom_site_fract_x
_atom_site_fract_y
_atom_site_fract_z
Si Si1 0.766431 0.936503 0.563218
Si Si2 0.615353 0.173871 0.063767
Si Si3 0.964273 0.404732 0.935958
Si Si4 0.269080 0.914156 0.064342
Si Si5 0.525587 0.674536 0.063845
Si Si6 0.907481 0.549889 0.565530
Si Si7 0.334137 0.174391 0.437407
Si Si8 0.843540 0.323083 0.935502
O O1 0.767601 0.935535 0.750000
O O2 0.839020 0.932587 0.504651
O O3 0.721686 0.875397 0.509891
O O4 0.736665 0.008223 0.515539
O O5 0.619013 0.177077 0.250000
O O6 0.544191 0.147634 0.016742
O O7 0.623259 0.250000 0.000000
O O8 0.669929 0.125215 0.001108
O O9 0.971501 0.406084 0.750000
O O10 0.929441 0.474608 0.982499
O O11 0.915356 0.345962 0.978221
O O12 0.033985 0.403505 0.011096
O O13 0.270743 0.911438 0.250000
O O14 0.206364 0.875872 0.004015
O O15 0.525239 0.675885 0.250000
O O16 0.595056 0.646643 0.016522
O O17 0.526026 0.750000 0.000000
O O18 0.902688 0.550664 0.750000
O O19 0.327067 0.250000 0.500000
O O20 0.332560 0.177458 0.250000
O O21 0.838269 0.323803 0.750000
O O22 0.828794 0.250000 0.000000
#
# Coordination Sequence:
#
# PCOD9435444 Si02
#       8
#     8   8   8   8   8   8   8   8
#     4  10  21  36  55  78 108 142 175 215 264 317
#     4  10  19  32  51  75 104 139 178 222 264 309
#     4   9  19  35  54  77 104 134 170 214 260 307
#     4  11  22  35  51  74 105 144 182 217 259 313
#     4   8  15  29  51  75 100 132 172 215 262 313
#     4  10  19  33  56  81 104 132 172 216 257 307
#     4   9  18  35  57  81 105 133 171 217 268 321
#     4  11  22  37  55  78 109 143 179 221 265 311
#
# _framework density 17.782043999999999
#
# number of rings (size 3 to 8) (size 9 to 14) (size 15 to 20)
#    0.000    2.250    1.250    1.875    0.000    3.000 
#    0.000    1.250    0.000    0.000    0.000    0.000 
#    0.000    0.000    0.000    0.000    0.000    0.000 
#
# Total GULP energy -356837.675093 kJ/mol
# GULP energy per Si atom -5575.588673 kJ/mol
# Density = 1.774157 g / cm^3
# Si number density = 17.782044 Si / 1000 Ang^3
#
#
#
# Elastic Constant Matrix: (Units=GPa)
#
#
# Indices 1 2 3 4 5 6 
#
# 1 171.7335 65.9295 33.7198 0.0000 0.0000 0.0000
# 2 65.9295 84.0185 23.7202 0.0000 0.0000 0.0000
# 3 33.7198 23.7202 27.3015 0.0000 0.0000 0.0000
# 4 0.0000 0.0000 0.0000 16.7731 0.0000 0.0000
# 5 0.0000 0.0000 0.0000 0.0000 11.4883 0.0000
# 6 0.0000 0.0000 0.0000 0.0000 0.0000 32.3063
#
#
#
# Elastic Compliance Matrix: (Units=1/GPa)
#
#
# Indices 1 2 3 4 5 6 
#
# 1 0.009181 -0.005304 -0.006731 0.000000 0.000000 0.000000
# 2 -0.005304 0.018835 -0.009813 0.000000 0.000000 0.000000
# 3 -0.006731 -0.009813 0.053467 0.000000 0.000000 0.000000
# 4 0.000000 0.000000 0.000000 0.059619 0.000000 0.000000
# 5 0.000000 0.000000 0.000000 0.000000 0.087045 0.000000
# 6 0.000000 0.000000 0.000000 0.000000 0.000000 0.030954
#
#
# Mechanical properties :
#
#
# Convention : Reuss Voigt Hill
#
# Bulk Modulus (GPa) = 26.46441 58.86582 42.66512
# Shear Modulus (GPa) = 15.85329 22.75914 19.30622
#
# Velocity S-wave (km/s) = 2.98910 3.58144 3.29859
# Velocity P-wave (km/s) = 5.17956 7.09072 6.20911
#
# Compressibility (1/GPa) = 0.03778659
#
# Stress axis : x y z
#
# Youngs Moduli (GPa) = 108.92309 53.09387 18.70309
#
# Poissons Ratio (x) = 0.28160 0.12589
# Poissons Ratio (y) = 0.57772 0.18354
# Poissons Ratio (z) = 0.73315 0.52102
#
# Static dielectric constant tensor:
#      x y z
#    x 1.628630 0.000000 0.000000 
#    y 0.000000 1.578210 0.000000 
#    z 0.000000 0.000000 1.601100 
# 
# From -- ./inp_files/8555.got.cif
#   From: 2010.05.17/outbox.cif.g08.bks.cpg/sg57_5_cif.got.tgz:8555.got - 2010.06.03 13:58:18.
