data_PCOD9435164
_publ_section_title
;
Structure prediction by ZEFSAII (Michael W. Deem and Ramdas Pophale) SiO2 
 PCOD9435164
Probable space group: P B C M
;
_chemical_formula_sum "Si O2"
_cell_formula_units_Z 40
_cell_length_a 9.739148
_cell_length_b 14.338873
_cell_length_c 11.212924
_cell_angle_alpha 90.000000
_cell_angle_beta 90.000000
_cell_angle_gamma 90.000000
_cell_volume 1565.866967
_symmetry_space_group_name_H-M "P B C M"
_symmetry_group_IT_number 57
_symmetry_cell_setting 'orthorhombic'
loop_
_space_group_symop_operation_xyz
x,y,z
-x,-y,1/2+z
x,1/2-y,-z
-x,1/2+y,1/2-z
-x,-y,-z
x,y,1/2-z
-x,1/2+y,z
x,1/2-y,1/2+z
loop_
_atom_site_type_symbol
_atom_site_label
_atom_site_fract_x
_atom_site_fract_y
_atom_site_fract_z
Si Si1 0.028296 0.112338 0.505984
Si Si2 0.971058 0.417970 0.250000
Si Si3 0.350833 0.800995 0.750000
Si Si4 0.644738 0.594427 0.250000
Si Si5 0.066202 0.365115 0.750000
Si Si6 0.568792 0.250000 0.500000
Si Si7 0.276854 0.999591 0.750000
Si Si8 0.654127 0.912949 0.010034
O O1 0.949982 0.136503 0.627373
O O2 0.997751 0.154355 0.376842
O O3 0.191639 0.128825 0.518583
O O4 0.000000 0.000000 0.500000
O O5 0.133271 0.445908 0.250000
O O6 0.906908 0.521332 0.250000
O O7 0.505705 0.845532 0.750000
O O8 0.345305 0.751747 0.877686
O O9 0.253471 0.890280 0.750000
O O10 0.774406 0.666904 0.250000
O O11 0.650167 0.542299 0.377522
O O12 0.465811 0.162286 0.511326
O O13 0.353621 0.023996 0.627457
#
# Coordination Sequence:
#
# PCOD9435164 Si02
#       8
#     8   4   4   4   4   4   4   8
#     4   8  13  22  39  64  92 119 152 194 238 287
#     4   8  14  23  39  63  89 119 150 192 235 274
#     4  10  21  35  50  70  96 127 167 211 261 310
#     4   8  16  27  43  67  95 123 152 194 249 296
#     4   8  12  22  38  60  88 116 144 180 232 282
#     4  10  20  34  50  70 100 134 166 210 268 312
#     4  10  19  31  48  72  98 127 169 211 247 298
#     4   9  17  30  47  70 100 130 166 210 254 307
#
# _framework density 25.544955000000002
#
# number of rings (size 3 to 8) (size 9 to 14) (size 15 to 20)
#    0.000    3.200    0.000    0.600    0.000    3.200 
#    0.000    1.000    0.000    0.000    0.000   35.000 
#    0.000   48.000    0.000    0.000    0.000    0.000 
#
# Total GULP energy -223135.194478 kJ/mol
# GULP energy per Si atom -5578.379862 kJ/mol
# Density = 2.548681 g / cm^3
# Si number density = 25.544955 Si / 1000 Ang^3
#
#
#
# Elastic Constant Matrix: (Units=GPa)
#
#
# Indices 1 2 3 4 5 6 
#
# 1 67.2258 17.7671 27.5230 0.0000 0.0000 0.0000
# 2 17.7671 70.6600 34.0421 0.0000 0.0000 0.0000
# 3 27.5230 34.0421 292.9710 0.0000 0.0000 0.0000
# 4 0.0000 0.0000 0.0000 9.6454 0.0000 0.0000
# 5 0.0000 0.0000 0.0000 0.0000 -72.7493 0.0000
# 6 0.0000 0.0000 0.0000 0.0000 0.0000 7.3695
#
#
#
# Elastic Compliance Matrix: (Units=1/GPa)
#
#
# Indices 1 2 3 4 5 6 
#
# 1 0.016271 -0.003554 -0.001116 0.000000 0.000000 0.000000
# 2 -0.003554 0.015768 -0.001498 0.000000 0.000000 0.000000
# 3 -0.001116 -0.001498 0.003692 0.000000 0.000000 0.000000
# 4 0.000000 0.000000 0.000000 0.103676 0.000000 0.000000
# 5 0.000000 0.000000 0.000000 0.000000 -0.013746 0.000000
# 6 0.000000 0.000000 0.000000 0.000000 0.000000 0.135694
#
#
# Mechanical properties :
#
#
# Convention : Reuss Voigt Hill
#
# Bulk Modulus (GPa) = 42.74305 65.50236 54.12270
# Shear Modulus (GPa) = 17.76266 12.28809 15.02538
#
# Velocity S-wave (km/s) = 2.63981 2.19564 2.42790
# Velocity P-wave (km/s) = 5.10492 5.66793 5.39378
#
# Compressibility (1/GPa) = 0.02339562
#
# Stress axis : x y z
#
# Youngs Moduli (GPa) = 61.45815 63.42079 270.84036
#
# Poissons Ratio (x) = 0.22539 0.30216
# Poissons Ratio (y) = 0.21841 0.40580
# Poissons Ratio (z) = 0.06857 0.09502
#
# Static dielectric constant tensor:
#      x y z
#    x 2.037830 0.000000 0.000000 
#    y 0.000000 1.918680 0.000000 
#    z 0.000000 0.000000 2.148650 
# 
# From -- ./inp_files/12796.got.cif
#   From: 2010.05.17/outbox.cif.g08.bks.cpg/sg57_7_cif.got.tgz:12796.got - 2010.06.03 13:58:18.
