data_PCOD9435689
_publ_section_title
;
Structure prediction by ZEFSAII (Michael W. Deem and Ramdas Pophale) SiO2 
 PCOD9435689
Probable space group: P B C M
;
_chemical_formula_sum "Si O2"
_cell_formula_units_Z 40
_cell_length_a 11.795944
_cell_length_b 22.065285
_cell_length_c 8.709427
_cell_angle_alpha 90.000000
_cell_angle_beta 90.000000
_cell_angle_gamma 90.000000
_cell_volume 2266.897204
_symmetry_space_group_name_H-M "P B C M"
_symmetry_group_IT_number 57
_symmetry_cell_setting 'orthorhombic'
loop_
_space_group_symop_operation_xyz
x,y,z
-x,-y,1/2+z
x,1/2-y,-z
-x,1/2+y,1/2-z
-x,-y,-z
x,y,1/2-z
-x,1/2+y,z
x,1/2-y,1/2+z
loop_
_atom_site_type_symbol
_atom_site_label
_atom_site_fract_x
_atom_site_fract_y
_atom_site_fract_z
Si Si1 0.214124 0.812689 0.570866
Si Si2 0.832525 0.970804 0.067754
Si Si3 0.427427 0.443580 0.434954
Si Si4 0.062607 0.589828 0.572501
Si Si5 0.461846 0.683529 0.565973
O O1 0.172879 0.750000 0.500000
O O2 0.238373 0.806207 0.750000
O O3 0.120541 0.862469 0.537971
O O4 0.332183 0.827301 0.486134
O O5 0.834599 0.987819 0.250000
O O6 0.705150 0.952428 0.027412
O O7 0.928467 0.919472 0.049256
O O8 0.876329 0.026376 0.966033
O O9 0.500000 0.500000 0.500000
O O10 0.438368 0.445398 0.250000
O O11 0.469931 0.376688 0.485071
O O12 0.083019 0.606256 0.750000
O O13 0.495424 0.750000 0.500000
O O14 0.467913 0.687323 0.750000
#
# Coordination Sequence:
#
# PCOD9435689 Si02
#       5
#     8   8   8   8   8
#     4  11  21  34  53  76 102 132 169 210 254 303
#     4   9  19  35  53  74 103 137 170 207 254 304
#     4  10  21  35  53  78 106 137 174 215 258 306
#     4  10  19  33  53  76 103 133 168 211 255 301
#     4  10  20  35  54  77 105 137 173 212 258 310
#
# _framework density 17.645264999999998
#
# number of rings (size 3 to 8) (size 9 to 14) (size 15 to 20)
#    0.000    2.000    0.000    5.400    0.000    6.400 
#    0.000    1.000    0.000    2.400    0.000    0.000 
#    0.000    0.000    0.000    0.000    0.000    0.000 
#
# Total GULP energy -223124.942808 kJ/mol
# GULP energy per Si atom -5578.123570 kJ/mol
# Density = 1.760510 g / cm^3
# Si number density = 17.645265 Si / 1000 Ang^3
#
#
#
# Elastic Constant Matrix: (Units=GPa)
#
#
# Indices 1 2 3 4 5 6 
#
# 1 97.0142 66.4882 23.4374 0.0000 0.0000 0.0000
# 2 66.4882 92.2345 22.8382 0.0000 0.0000 0.0000
# 3 23.4374 22.8382 43.2095 0.0000 0.0000 0.0000
# 4 0.0000 0.0000 0.0000 32.6690 0.0000 0.0000
# 5 0.0000 0.0000 0.0000 0.0000 12.6284 0.0000
# 6 0.0000 0.0000 0.0000 0.0000 0.0000 28.2238
#
#
#
# Elastic Compliance Matrix: (Units=1/GPa)
#
#
# Indices 1 2 3 4 5 6 
#
# 1 0.020925 -0.014122 -0.003886 0.000000 0.000000 0.000000
# 2 -0.014122 0.022005 -0.003971 0.000000 0.000000 0.000000
# 3 -0.003886 -0.003971 0.027350 0.000000 0.000000 0.000000
# 4 0.000000 0.000000 0.000000 0.030610 0.000000 0.000000
# 5 0.000000 0.000000 0.000000 0.000000 0.079187 0.000000
# 6 0.000000 0.000000 0.000000 0.000000 0.000000 0.035431
#
#
# Mechanical properties :
#
#
# Convention : Reuss Voigt Hill
#
# Bulk Modulus (GPa) = 37.99039 50.88731 44.43885
# Shear Modulus (GPa) = 18.64015 22.68385 20.66200
#
# Velocity S-wave (km/s) = 3.25373 3.58934 3.42565
# Velocity P-wave (km/s) = 5.97432 6.78819 6.39422
#
# Compressibility (1/GPa) = 0.02632245
#
# Stress axis : x y z
#
# Youngs Moduli (GPa) = 47.79023 45.44439 36.56361
#
# Poissons Ratio (x) = 0.64175 0.14208
# Poissons Ratio (y) = 0.67488 0.14519
# Poissons Ratio (z) = 0.18571 0.18045
#
# Static dielectric constant tensor:
#      x y z
#    x 1.583620 0.000000 0.000000 
#    y 0.000000 1.606500 0.000000 
#    z 0.000000 0.000000 1.597600 
# 
# From -- ./inp_files/2693.got.cif
#   From: 2010.05.17/outbox.cif.g08.bks.cpg/sg57_2_cif.got.tgz:2693.got - 2010.06.03 13:58:18.
