data_PCOD9435553
_publ_section_title
;
Structure prediction by ZEFSAII (Michael W. Deem and Ramdas Pophale) SiO2 
 PCOD9435553
Probable space group: P B C M
;
_chemical_formula_sum "Si O2"
_cell_formula_units_Z 56
_cell_length_a 23.158038
_cell_length_b 5.334908
_cell_length_c 19.890767
_cell_angle_alpha 90.000000
_cell_angle_beta 90.000000
_cell_angle_gamma 90.000000
_cell_volume 2457.424743
_symmetry_space_group_name_H-M "P B C M"
_symmetry_group_IT_number 57
_symmetry_cell_setting 'orthorhombic'
loop_
_space_group_symop_operation_xyz
x,y,z
-x,-y,1/2+z
x,1/2-y,-z
-x,1/2+y,1/2-z
-x,-y,-z
x,y,1/2-z
-x,1/2+y,z
x,1/2-y,1/2+z
loop_
_atom_site_type_symbol
_atom_site_label
_atom_site_fract_x
_atom_site_fract_y
_atom_site_fract_z
Si Si1 0.320149 0.565597 0.327012
Si Si2 0.537975 0.475674 0.327217
Si Si3 0.379744 0.269131 0.575168
Si Si4 0.272832 0.921674 0.438304
Si Si5 0.842143 0.135955 0.886276
Si Si6 0.803139 0.638848 0.677513
Si Si7 0.962325 0.092694 0.828487
O O1 0.336975 0.621967 0.250000
O O2 0.372298 0.459777 0.372418
O O3 0.289699 0.787039 0.368384
O O4 0.266245 0.372302 0.322394
O O5 0.559608 0.490016 0.250000
O O6 0.504502 0.214958 0.335643
O O7 0.587108 0.520392 0.382361
O O8 0.405928 0.250000 0.500000
O O9 0.313350 0.341030 0.562221
O O10 0.292551 0.750000 0.500000
O O11 0.203847 0.950629 0.443244
O O12 0.826890 0.427140 0.872717
O O13 0.910772 0.115514 0.882438
O O14 0.823788 0.920785 0.832830
O O15 0.823798 0.547442 0.750000
O O16 0.941311 0.104311 0.750000
O O17 0.004945 0.329053 0.836317
#
# Coordination Sequence:
#
# PCOD9435553 Si02
#       7
#     8   8   8   8   8   8   8
#     4  10  22  38  60  95 133 174 221 271 330 405
#     4  10  25  48  72 101 138 181 232 287 341 398
#     4  12  24  42  70  98 139 180 228 281 340 409
#     4  11  24  42  64  96 139 180 219 274 348 409
#     4  11  21  36  58  84 123 171 215 263 329 410
#     4  10  19  32  53  85 122 158 204 259 319 392
#     4  10  20  34  54  82 119 162 213 276 337 390
#
# _framework density 22.788084999999999
#
# number of rings (size 3 to 8) (size 9 to 14) (size 15 to 20)
#    0.000    1.429    2.857    2.571    2.000    4.000 
#    0.000    0.000    0.000    0.857    0.000    0.000 
#    0.000    0.000    0.000    0.000    0.000    0.000 
#
# Total GULP energy -312229.964510 kJ/mol
# GULP energy per Si atom -5575.535081 kJ/mol
# Density = 2.273622 g / cm^3
# Si number density = 22.788085 Si / 1000 Ang^3
#
#
#
# Elastic Constant Matrix: (Units=GPa)
#
#
# Indices 1 2 3 4 5 6 
#
# 1 80.2053 21.5263 32.9923 0.0000 0.0000 0.0000
# 2 21.5263 88.8689 22.2997 0.0000 0.0000 0.0000
# 3 32.9923 22.2997 103.8393 0.0000 0.0000 0.0000
# 4 0.0000 0.0000 0.0000 19.0752 0.0000 0.0000
# 5 0.0000 0.0000 0.0000 0.0000 19.1126 0.0000
# 6 0.0000 0.0000 0.0000 0.0000 0.0000 35.7084
#
#
#
# Elastic Compliance Matrix: (Units=1/GPa)
#
#
# Indices 1 2 3 4 5 6 
#
# 1 0.014872 -0.002554 -0.004177 0.000000 0.000000 0.000000
# 2 -0.002554 0.012332 -0.001837 0.000000 0.000000 0.000000
# 3 -0.004177 -0.001837 0.011352 0.000000 0.000000 0.000000
# 4 0.000000 0.000000 0.000000 0.052424 0.000000 0.000000
# 5 0.000000 0.000000 0.000000 0.000000 0.052322 0.000000
# 6 0.000000 0.000000 0.000000 0.000000 0.000000 0.028005
#
#
# Mechanical properties :
#
#
# Convention : Reuss Voigt Hill
#
# Bulk Modulus (GPa) = 46.68484 47.39445 47.03964
# Shear Modulus (GPa) = 25.56487 27.85225 26.70856
#
# Velocity S-wave (km/s) = 3.35304 3.49983 3.42722
# Velocity P-wave (km/s) = 5.95999 6.09712 6.02894
#
# Compressibility (1/GPa) = 0.02142023
#
# Stress axis : x y z
#
# Youngs Moduli (GPa) = 67.24256 81.08889 88.09247
#
# Poissons Ratio (x) = 0.20712 0.36792
# Poissons Ratio (y) = 0.17175 0.16181
# Poissons Ratio (z) = 0.28084 0.14894
#
# Static dielectric constant tensor:
#      x y z
#    x 1.898890 0.000000 0.000000 
#    y 0.000000 1.865040 0.000000 
#    z 0.000000 0.000000 1.953260 
# 
# From -- ./inp_files/25831.got.cif
#   From: 2010.05.17/outbox.cif.g08.bks.cpg/sg57_13_cif.got.tgz:25831.got - 2010.06.03 13:58:18.
