data_PCOD9435967
_publ_section_title
;
Structure prediction by ZEFSAII (Michael W. Deem and Ramdas Pophale) SiO2 
 PCOD9435967
Probable space group: P B C M
;
_chemical_formula_sum "Si O2"
_cell_formula_units_Z 56
_cell_length_a 16.968921
_cell_length_b 21.921100
_cell_length_c 8.725816
_cell_angle_alpha 90.000000
_cell_angle_beta 90.000000
_cell_angle_gamma 90.000000
_cell_volume 3245.806472
_symmetry_space_group_name_H-M "P B C M"
_symmetry_group_IT_number 57
_symmetry_cell_setting 'orthorhombic'
loop_
_space_group_symop_operation_xyz
x,y,z
-x,-y,1/2+z
x,1/2-y,-z
-x,1/2+y,1/2-z
-x,-y,-z
x,y,1/2-z
-x,1/2+y,z
x,1/2-y,1/2+z
loop_
_atom_site_type_symbol
_atom_site_label
_atom_site_fract_x
_atom_site_fract_y
_atom_site_fract_z
Si Si1 0.858231 0.816578 0.565898
Si Si2 0.872914 0.474691 0.068150
Si Si3 0.455490 0.315302 0.065794
Si Si4 0.299536 0.988445 0.932360
Si Si5 0.694357 0.622361 0.434287
Si Si6 0.015276 0.409190 0.566007
Si Si7 0.454291 0.559366 0.566282
O O1 0.849757 0.750000 0.500000
O O2 0.858906 0.814530 0.750000
O O3 0.782155 0.856417 0.522927
O O4 0.939065 0.848689 0.516739
O O5 0.859311 0.473755 0.250000
O O6 0.922526 0.536240 0.032218
O O7 0.789311 0.473844 0.984754
O O8 0.933133 0.422213 0.015949
O O9 0.452234 0.311764 0.250000
O O10 0.506539 0.375593 0.023584
O O11 0.482908 0.250000 0.000000
O O12 0.369284 0.330308 0.998062
O O13 0.305670 0.987209 0.750000
O O14 0.319389 0.056243 0.993297
O O15 0.365141 0.944872 0.005917
O O16 0.688642 0.618426 0.250000
O O17 0.003276 0.409384 0.750000
O O18 0.500000 0.500000 0.500000
O O19 0.456355 0.554630 0.750000
#
# Coordination Sequence:
#
# PCOD9435967 Si02
#       7
#     8   8   8   8   8   8   8
#     4  10  21  35  51  76 111 150 186 224 271 327
#     4  10  19  34  55  79 107 140 179 225 278 327
#     4  11  24  40  59  85 115 153 195 236 287 348
#     4  12  23  35  56  85 116 150 188 233 287 342
#     4  11  21  36  56  80 115 154 190 235 283 334
#     4   9  18  34  52  76 108 141 180 223 271 324
#     4  11  23  39  60  86 116 151 193 238 287 343
#
# _framework density 17.253029999999999
#
# number of rings (size 3 to 8) (size 9 to 14) (size 15 to 20)
#    0.000    1.429    2.857    3.429    0.000    5.143 
#    0.000    0.000    0.000    0.857    0.000    6.000 
#    0.000    0.000    0.000    0.000    0.000    0.000 
#
# Total GULP energy -312724.221460 kJ/mol
# GULP energy per Si atom -5584.361098 kJ/mol
# Density = 1.721376 g / cm^3
# Si number density = 17.253030 Si / 1000 Ang^3
#
#
#
# Elastic Constant Matrix: (Units=GPa)
#
#
# Indices 1 2 3 4 5 6 
#
# 1 86.6855 40.7945 30.9492 0.0000 0.0000 0.0000
# 2 40.7945 91.3448 34.5109 0.0000 0.0000 0.0000
# 3 30.9492 34.5109 52.5655 0.0000 0.0000 0.0000
# 4 0.0000 0.0000 0.0000 27.0987 0.0000 0.0000
# 5 0.0000 0.0000 0.0000 0.0000 30.0066 0.0000
# 6 0.0000 0.0000 0.0000 0.0000 0.0000 25.7421
#
#
#
# Elastic Compliance Matrix: (Units=1/GPa)
#
#
# Indices 1 2 3 4 5 6 
#
# 1 0.016036 -0.004780 -0.006303 0.000000 0.000000 0.000000
# 2 -0.004780 0.015984 -0.007679 0.000000 0.000000 0.000000
# 3 -0.006303 -0.007679 0.027777 0.000000 0.000000 0.000000
# 4 0.000000 0.000000 0.000000 0.036902 0.000000 0.000000
# 5 0.000000 0.000000 0.000000 0.000000 0.033326 0.000000
# 6 0.000000 0.000000 0.000000 0.000000 0.000000 0.038847
#
#
# Mechanical properties :
#
#
# Convention : Reuss Voigt Hill
#
# Bulk Modulus (GPa) = 44.90158 49.23389 47.06773
# Shear Modulus (GPa) = 23.38409 24.85888 24.12148
#
# Velocity S-wave (km/s) = 3.68552 3.79996 3.74318
# Velocity P-wave (km/s) = 6.64775 6.91746 6.78394
#
# Compressibility (1/GPa) = 0.02227093
#
# Stress axis : x y z
#
# Youngs Moduli (GPa) = 62.35987 62.56369 36.00135
#
# Poissons Ratio (x) = 0.29907 0.22692
# Poissons Ratio (y) = 0.29810 0.27647
# Poissons Ratio (z) = 0.39306 0.48045
#
# Static dielectric constant tensor:
#      x y z
#    x 1.591240 0.000000 0.000000 
#    y 0.000000 1.589450 0.000000 
#    z 0.000000 0.000000 1.579890 
# 
# From -- ./inp_files/5263.got.cif
#   From: 2010.05.17/outbox.cif.g08.bks.cpg/sg57_3_cif.got.tgz:5263.got - 2010.06.03 13:58:18.
