data_PCOD9435080
_publ_section_title
;
Structure prediction by ZEFSAII (Michael W. Deem and Ramdas Pophale) SiO2 
 PCOD9435080
Probable space group: P B C M
;
_chemical_formula_sum "Si O2"
_cell_formula_units_Z 64
_cell_length_a 17.147233
_cell_length_b 24.136551
_cell_length_c 8.587840
_cell_angle_alpha 90.000000
_cell_angle_beta 90.000000
_cell_angle_gamma 90.000000
_cell_volume 3554.292828
_symmetry_space_group_name_H-M "P B C M"
_symmetry_group_IT_number 57
_symmetry_cell_setting 'orthorhombic'
loop_
_space_group_symop_operation_xyz
x,y,z
-x,-y,1/2+z
x,1/2-y,-z
-x,1/2+y,1/2-z
-x,-y,-z
x,y,1/2-z
-x,1/2+y,z
x,1/2-y,1/2+z
loop_
_atom_site_type_symbol
_atom_site_label
_atom_site_fract_x
_atom_site_fract_y
_atom_site_fract_z
Si Si1 0.565017 0.808656 0.564288
Si Si2 0.556289 0.392168 0.063594
Si Si3 0.223199 0.071693 0.560671
Si Si4 0.659101 0.483271 0.564955
Si Si5 0.085538 0.988220 0.937051
Si Si6 0.201141 0.592603 0.936759
Si Si7 0.302521 0.810934 0.064459
Si Si8 0.259010 0.192526 0.936823
O O1 0.530405 0.750000 0.500000
O O2 0.565264 0.805812 0.750000
O O3 0.519238 0.863065 0.507694
O O4 0.652521 0.810919 0.498785
O O5 0.550025 0.392510 0.250000
O O6 0.625628 0.349847 0.014205
O O7 0.584497 0.453089 0.010062
O O8 0.224206 0.070202 0.750000
O O9 0.148787 0.035076 0.511878
O O10 0.218628 0.135408 0.512432
O O11 0.305086 0.042400 0.511727
O O12 0.647092 0.485082 0.750000
O O13 0.732342 0.443752 0.521733
O O14 0.085361 0.986607 0.750000
O O15 0.119838 0.931012 0.004504
O O16 0.000000 0.000000 0.000000
O O17 0.208872 0.585040 0.750000
O O18 0.223694 0.655593 0.974750
O O19 0.307637 0.807873 0.250000
O O20 0.306455 0.750000 0.000000
O O21 0.260791 0.194720 0.750000
O O22 0.224743 0.250000 0.000000
#
# Coordination Sequence:
#
# PCOD9435080 Si02
#       8
#     8   8   8   8   8   8   8   8
#     4  11  21  33  48  69  95 128 169 216 262 306
#     4  10  19  31  45  67  97 131 169 213 258 300
#     4   8  17  33  54  76 102 131 161 196 243 297
#     4   9  16  29  48  71  96 128 165 203 247 298
#     4  10  19  33  54  81 104 127 156 192 238 291
#     4   9  17  30  45  67  98 130 160 197 238 282
#     4   9  18  28  42  64  92 125 164 200 236 279
#     4  10  19  35  55  75  98 128 164 207 251 297
#
# _framework density 18.006395000000001
#
# number of rings (size 3 to 8) (size 9 to 14) (size 15 to 20)
#    0.000    2.500    0.000    5.625    0.000    4.000 
#    0.000    8.125    0.000    0.750    0.000    1.750 
#    0.000    0.000    0.000    0.000    0.000    0.000 
#
# Total GULP energy -356652.335164 kJ/mol
# GULP energy per Si atom -5572.692737 kJ/mol
# Density = 1.796541 g / cm^3
# Si number density = 18.006395 Si / 1000 Ang^3
#
#
#
# Elastic Constant Matrix: (Units=GPa)
#
#
# Indices 1 2 3 4 5 6 
#
# 1 42.6939 19.5230 8.4500 0.0000 0.0000 0.0000
# 2 19.5230 96.0739 17.7369 0.0000 0.0000 0.0000
# 3 8.4500 17.7369 53.5205 0.0000 0.0000 0.0000
# 4 0.0000 0.0000 0.0000 23.9592 0.0000 0.0000
# 5 0.0000 0.0000 0.0000 0.0000 10.7206 0.0000
# 6 0.0000 0.0000 0.0000 0.0000 0.0000 20.3738
#
#
#
# Elastic Compliance Matrix: (Units=1/GPa)
#
#
# Indices 1 2 3 4 5 6 
#
# 1 0.026137 -0.004846 -0.002521 0.000000 0.000000 0.000000
# 2 -0.004846 0.011985 -0.003207 0.000000 0.000000 0.000000
# 3 -0.002521 -0.003207 0.020145 0.000000 0.000000 0.000000
# 4 0.000000 0.000000 0.000000 0.041738 0.000000 0.000000
# 5 0.000000 0.000000 0.000000 0.000000 0.093278 0.000000
# 6 0.000000 0.000000 0.000000 0.000000 0.000000 0.049083
#
#
# Mechanical properties :
#
#
# Convention : Reuss Voigt Hill
#
# Bulk Modulus (GPa) = 26.93903 31.52313 29.23108
# Shear Modulus (GPa) = 18.12336 20.78263 19.45299
#
# Velocity S-wave (km/s) = 3.17597 3.40101 3.29042
# Velocity P-wave (km/s) = 5.33314 5.74170 5.54119
#
# Compressibility (1/GPa) = 0.03712087
#
# Stress axis : x y z
#
# Youngs Moduli (GPa) = 38.25932 83.43453 49.63963
#
# Poissons Ratio (x) = 0.40432 0.12513
# Poissons Ratio (y) = 0.18540 0.15919
# Poissons Ratio (z) = 0.09644 0.26757
#
# Static dielectric constant tensor:
#      x y z
#    x 1.625550 0.000000 0.000000 
#    y 0.000000 1.686220 0.000000 
#    z 0.000000 0.000000 1.609520 
# 
# From -- ./inp_files/7350.got.cif
#   From: 2010.05.17/outbox.cif.g08.bks.cpg/sg57_4_cif.got.tgz:7350.got - 2010.06.03 13:58:18.
