data_PCOD9435547
_publ_section_title
;
Structure prediction by ZEFSAII (Michael W. Deem and Ramdas Pophale) SiO2 
 PCOD9435547
Probable space group: P B C M
;
_chemical_formula_sum "Si O2"
_cell_formula_units_Z 64
_cell_length_a 18.913558
_cell_length_b 18.866463
_cell_length_c 9.401597
_cell_angle_alpha 90.000000
_cell_angle_beta 90.000000
_cell_angle_gamma 90.000000
_cell_volume 3354.790117
_symmetry_space_group_name_H-M "P B C M"
_symmetry_group_IT_number 57
_symmetry_cell_setting 'orthorhombic'
loop_
_space_group_symop_operation_xyz
x,y,z
-x,-y,1/2+z
x,1/2-y,-z
-x,1/2+y,1/2-z
-x,-y,-z
x,y,1/2-z
-x,1/2+y,z
x,1/2-y,1/2+z
loop_
_atom_site_type_symbol
_atom_site_label
_atom_site_fract_x
_atom_site_fract_y
_atom_site_fract_z
Si Si1 0.295455 0.560389 0.414053
Si Si2 0.437287 0.315124 0.588750
Si Si3 0.791207 0.576698 0.587033
Si Si4 0.935528 0.094119 0.912138
Si Si5 0.070810 0.077832 0.087271
Si Si6 0.212998 0.674787 0.580150
Si Si7 0.727668 0.811179 0.905736
Si Si8 0.565718 0.963564 0.077912
O O1 0.302784 0.584658 0.250000
O O2 0.229461 0.505552 0.419110
O O3 0.274821 0.624642 0.516532
O O4 0.364928 0.513098 0.448230
O O5 0.470750 0.250000 0.500000
O O6 0.466538 0.325727 0.750000
O O7 0.354958 0.295356 0.609485
O O8 0.434146 0.385954 0.494138
O O9 0.786004 0.599435 0.750000
O O10 0.865656 0.595806 0.518304
O O11 0.734871 0.616963 0.491357
O O12 0.956624 0.113468 0.750000
O O13 0.862102 0.133995 0.943409
O O14 0.928615 0.008442 0.912979
O O15 0.997696 0.107403 0.024654
O O16 0.081911 0.100182 0.250000
O O17 0.212248 0.750000 0.500000
O O18 0.221264 0.683569 0.750000
O O19 0.759426 0.816601 0.750000
O O20 0.761707 0.750000 0.000000
O O21 0.441208 0.042088 0.750000
O O22 0.500000 0.000000 0.000000
#
# Coordination Sequence:
#
# PCOD9435547 Si02
#       8
#     8   8   8   8   8   8   8   8
#     4  10  22  39  61  88 119 154 198 248 300 359
#     4  10  20  35  58  87 119 156 195 240 293 355
#     4  11  20  33  55  83 116 152 192 241 293 350
#     4   9  19  35  53  79 112 148 190 241 297 355
#     4  10  19  32  53  82 113 146 191 243 296 354
#     4  11  23  40  63  89 121 159 206 256 309 367
#     4  10  20  33  52  79 113 149 188 230 279 339
#     4  11  23  41  63  92 126 161 203 251 307 371
#
# _framework density 19.077199
#
# number of rings (size 3 to 8) (size 9 to 14) (size 15 to 20)
#    0.000    1.750    2.500    2.250    0.000    4.000 
#    0.000    1.250    0.000    4.500    0.000    0.000 
#    0.000    0.000    0.000    0.000    0.000    0.000 
#
# Total GULP energy -356650.545702 kJ/mol
# GULP energy per Si atom -5572.664777 kJ/mol
# Density = 1.903378 g / cm^3
# Si number density = 19.077199 Si / 1000 Ang^3
#
#
#
# Elastic Constant Matrix: (Units=GPa)
#
#
# Indices 1 2 3 4 5 6 
#
# 1 66.4697 30.8710 52.2395 0.0000 0.0000 0.0000
# 2 30.8710 99.9381 75.8564 0.0000 0.0000 0.0000
# 3 52.2395 75.8564 168.4805 0.0000 0.0000 0.0000
# 4 0.0000 0.0000 0.0000 26.8621 0.0000 0.0000
# 5 0.0000 0.0000 0.0000 0.0000 20.8493 0.0000
# 6 0.0000 0.0000 0.0000 0.0000 0.0000 16.6081
#
#
#
# Elastic Compliance Matrix: (Units=1/GPa)
#
#
# Indices 1 2 3 4 5 6 
#
# 1 0.020222 -0.002260 -0.005253 0.000000 0.000000 0.000000
# 2 -0.002260 0.015454 -0.006257 0.000000 0.000000 0.000000
# 3 -0.005253 -0.006257 0.010381 0.000000 0.000000 0.000000
# 4 0.000000 0.000000 0.000000 0.037227 0.000000 0.000000
# 5 0.000000 0.000000 0.000000 0.000000 0.047963 0.000000
# 6 0.000000 0.000000 0.000000 0.000000 0.000000 0.060212
#
#
# Mechanical properties :
#
#
# Convention : Reuss Voigt Hill
#
# Bulk Modulus (GPa) = 54.00171 72.53576 63.26874
# Shear Modulus (GPa) = 22.20537 24.59200 23.39868
#
# Velocity S-wave (km/s) = 3.41541 3.59427 3.50598
# Velocity P-wave (km/s) = 6.62735 7.43840 7.04456
#
# Compressibility (1/GPa) = 0.01851793
#
# Stress axis : x y z
#
# Youngs Moduli (GPa) = 49.45081 64.70981 96.32686
#
# Poissons Ratio (x) = 0.14622 0.50598
# Poissons Ratio (y) = 0.11174 0.60274
# Poissons Ratio (z) = 0.25975 0.40490
#
# Static dielectric constant tensor:
#      x y z
#    x 1.697540 0.000000 0.000000 
#    y 0.000000 1.701590 0.000000 
#    z 0.000000 0.000000 1.689560 
# 
# From -- ./inp_files/7218.got.cif
#   From: 2010.05.17/outbox.cif.g08.bks.cpg/sg57_4_cif.got.tgz:7218.got - 2010.06.03 13:58:18.
