data_PCOD9435280
_publ_section_title
;
Structure prediction by ZEFSAII (Michael W. Deem and Ramdas Pophale) SiO2 
 PCOD9435280
Probable space group: P B C M
;
_chemical_formula_sum "Si O2"
_cell_formula_units_Z 56
_cell_length_a 26.375606
_cell_length_b 5.349564
_cell_length_c 20.540854
_cell_angle_alpha 90.000000
_cell_angle_beta 90.000000
_cell_angle_gamma 90.000000
_cell_volume 2898.273260
_symmetry_space_group_name_H-M "P B C M"
_symmetry_group_IT_number 57
_symmetry_cell_setting 'orthorhombic'
loop_
_space_group_symop_operation_xyz
x,y,z
-x,-y,1/2+z
x,1/2-y,-z
-x,1/2+y,1/2-z
-x,-y,-z
x,y,1/2-z
-x,1/2+y,z
x,1/2-y,1/2+z
loop_
_atom_site_type_symbol
_atom_site_label
_atom_site_fract_x
_atom_site_fract_y
_atom_site_fract_z
Si Si1 0.142175 0.250406 0.074511
Si Si2 0.466287 0.264852 0.174656
Si Si3 0.628825 0.749134 0.578975
Si Si4 0.948767 0.050138 0.043142
Si Si5 0.030733 0.740567 0.817864
Si Si6 0.309245 0.748703 0.578502
Si Si7 0.192875 0.751926 0.079881
O O1 0.082261 0.305556 0.065277
O O2 0.166748 0.497683 0.104219
O O3 0.160874 0.991972 0.103178
O O4 0.161609 0.250000 0.000000
O O5 0.447240 0.263735 0.250000
O O6 0.499495 0.516431 0.166738
O O7 0.422098 0.261530 0.121217
O O8 0.619835 0.750000 0.500000
O O9 0.662547 0.505786 0.595855
O O10 0.659052 0.002464 0.596214
O O11 0.952095 0.200993 0.110022
O O12 0.917585 0.250000 0.000000
O O13 0.000000 0.000000 0.000000
O O14 0.060564 0.786055 0.750000
O O15 0.013070 0.454296 0.815313
O O16 0.306923 0.750000 0.500000
O O17 0.251229 0.735213 0.601596
O O18 0.193931 0.750000 0.000000
#
# Coordination Sequence:
#
# PCOD9435280 Si02
#       7
#     8   8   8   8   8   8   8
#     4  10  20  30  45  72 106 136 171 205 262 330
#     4  10  21  36  52  73 110 157 192 220 263 324
#     4  10  19  31  51  82 105 134 181 233 270 318
#     4  12  22  34  56  82 113 143 176 228 277 312
#     4  10  22  39  55  74 101 138 178 211 256 319
#     4   9  17  30  51  75 105 135 171 223 284 318
#     4   9  17  32  47  69 104 140 166 209 269 334
#
# _framework density 19.321849
#
# number of rings (size 3 to 8) (size 9 to 14) (size 15 to 20)
#    0.000    2.000    1.429    3.429    0.000    5.143 
#    0.000    0.000    0.000    0.000    0.000    6.000 
#    0.000    0.000    0.000    3.000    0.000    0.000 
#
# Total GULP energy -311742.125931 kJ/mol
# GULP energy per Si atom -5566.823677 kJ/mol
# Density = 1.927787 g / cm^3
# Si number density = 19.321849 Si / 1000 Ang^3
#
#
#
# Elastic Constant Matrix: (Units=GPa)
#
#
# Indices 1 2 3 4 5 6 
#
# 1 130.6844 71.2000 42.5872 0.0000 0.0000 0.0000
# 2 71.2000 167.2437 24.1924 0.0000 0.0000 0.0000
# 3 42.5872 24.1924 84.6346 0.0000 0.0000 0.0000
# 4 0.0000 0.0000 0.0000 -305.4005 0.0000 0.0000
# 5 0.0000 0.0000 0.0000 0.0000 0.5223 0.0000
# 6 0.0000 0.0000 0.0000 0.0000 0.0000 29.3277
#
#
#
# Elastic Compliance Matrix: (Units=1/GPa)
#
#
# Indices 1 2 3 4 5 6 
#
# 1 0.011425 -0.004206 -0.004547 0.000000 0.000000 0.000000
# 2 -0.004206 0.007786 -0.000109 0.000000 0.000000 0.000000
# 3 -0.004547 -0.000109 0.014135 0.000000 0.000000 0.000000
# 4 0.000000 0.000000 0.000000 -0.003274 0.000000 0.000000
# 5 0.000000 0.000000 0.000000 0.000000 1.914439 0.000000
# 6 0.000000 0.000000 0.000000 0.000000 0.000000 0.034097
#
#
# Mechanical properties :
#
#
# Convention : Reuss Voigt Hill
#
# Bulk Modulus (GPa) = 64.01400 73.16911 68.59155
# Shear Modulus (GPa) = 2.49808 -38.80456 -18.15324
#
# Velocity S-wave (km/s) = 1.13828 -4.48630 -3.06848
# Velocity P-wave (km/s) = 5.91015 3.33392 4.79817
#
# Compressibility (1/GPa) = 0.01562158
#
# Stress axis : x y z
#
# Youngs Moduli (GPa) = 87.52362 128.43841 70.74871
#
# Poissons Ratio (x) = 0.54027 0.32168
# Poissons Ratio (y) = 0.36816 0.00771
# Poissons Ratio (z) = 0.39795 0.01399
#
# Static dielectric constant tensor:
#      x y z
#    x 1.706560 0.000000 0.000000 
#    y 0.000000 1.789870 0.000000 
#    z 0.000000 0.000000 1.713390 
# 
# From -- ./inp_files/27687.got.cif
#   From: 2010.05.17/outbox.cif.g08.bks.cpg/sg57_14_cif.got.tgz:27687.got - 2010.06.03 13:58:18.
