data_PCOD9435275
_publ_section_title
;
Structure prediction by ZEFSAII (Michael W. Deem and Ramdas Pophale) SiO2 
 PCOD9435275
Probable space group: P B C M
;
_chemical_formula_sum "Si O2"
_cell_formula_units_Z 48
_cell_length_a 26.570168
_cell_length_b 5.401342
_cell_length_c 14.171682
_cell_angle_alpha 90.000000
_cell_angle_beta 90.000000
_cell_angle_gamma 90.000000
_cell_volume 2033.842769
_symmetry_space_group_name_H-M "P B C M"
_symmetry_group_IT_number 57
_symmetry_cell_setting 'orthorhombic'
loop_
_space_group_symop_operation_xyz
x,y,z
-x,-y,1/2+z
x,1/2-y,-z
-x,1/2+y,1/2-z
-x,-y,-z
x,y,1/2-z
-x,1/2+y,z
x,1/2-y,1/2+z
loop_
_atom_site_type_symbol
_atom_site_label
_atom_site_fract_x
_atom_site_fract_y
_atom_site_fract_z
Si Si1 0.806976 0.618442 0.865428
Si Si2 0.979344 0.471594 0.105856
Si Si3 0.863050 0.118926 0.635447
Si Si4 0.481104 0.797894 0.106328
Si Si5 0.634492 0.390777 0.135506
Si Si6 0.309090 0.390774 0.365382
O O1 0.807187 0.617130 0.750000
O O2 0.838612 0.377974 0.895664
O O3 0.748988 0.602053 0.895278
O O4 0.831556 0.878003 0.894862
O O5 0.920620 0.411792 0.105624
O O6 0.991147 0.739199 0.148953
O O7 0.000000 0.500000 0.000000
O O8 0.862715 0.120863 0.750000
O O9 0.487751 0.524902 0.149240
O O10 0.423327 0.879431 0.105217
O O11 0.500041 0.750000 0.000000
O O12 0.634497 0.392956 0.250000
O O13 0.663114 0.639075 0.104590
O O14 0.662181 0.139290 0.105170
O O15 0.309133 0.389248 0.250000
#
# Coordination Sequence:
#
# PCOD9435275 Si02
#       6
#     8   8   8   8   8   8
#     4   9  17  30  49  77 109 135 162 207 258 308
#     4  10  21  36  52  73  98 135 175 203 252 310
#     4  10  19  31  51  79 105 131 169 213 256 298
#     4  10  21  36  52  73 101 139 182 218 264 310
#     4  10  19  31  51  79 105 138 174 212 259 309
#     4   9  17  30  49  77 109 134 166 205 255 316
#
# _framework density 23.600643999999999
#
# number of rings (size 3 to 8) (size 9 to 14) (size 15 to 20)
#    0.000    2.333    0.000    3.000    0.000    5.333 
#    0.000    0.000    0.000    0.000   43.333    0.000 
#    0.000    0.000    0.000    0.000    0.000    0.000 
#
# Total GULP energy -268599.261187 kJ/mol
# GULP energy per Si atom -5595.817941 kJ/mol
# Density = 2.354693 g / cm^3
# Si number density = 23.600644 Si / 1000 Ang^3
#
#
#
# Elastic Constant Matrix: (Units=GPa)
#
#
# Indices 1 2 3 4 5 6 
#
# 1 195.6169 108.2900 -0.4453 0.0000 0.0000 0.0000
# 2 108.2900 250.0930 24.5010 0.0000 0.0000 0.0000
# 3 -0.4453 24.5010 86.9916 0.0000 0.0000 0.0000
# 4 0.0000 0.0000 0.0000 5.0133 0.0000 0.0000
# 5 0.0000 0.0000 0.0000 0.0000 30.3698 0.0000
# 6 0.0000 0.0000 0.0000 0.0000 0.0000 54.6127
#
#
#
# Elastic Compliance Matrix: (Units=1/GPa)
#
#
# Indices 1 2 3 4 5 6 
#
# 1 0.006790 -0.003027 0.000887 0.000000 0.000000 0.000000
# 2 -0.003027 0.005461 -0.001554 0.000000 0.000000 0.000000
# 3 0.000887 -0.001554 0.011937 0.000000 0.000000 0.000000
# 4 0.000000 0.000000 0.000000 0.199469 0.000000 0.000000
# 5 0.000000 0.000000 0.000000 0.000000 0.032927 0.000000
# 6 0.000000 0.000000 0.000000 0.000000 0.000000 0.018311
#
#
# Mechanical properties :
#
#
# Convention : Reuss Voigt Hill
#
# Bulk Modulus (GPa) = 59.51676 88.59923 74.05800
# Shear Modulus (GPa) = 17.36819 44.68955 31.02887
#
# Velocity S-wave (km/s) = 2.71573 4.35624 3.62988
# Velocity P-wave (km/s) = 5.92508 7.93253 7.00113
#
# Compressibility (1/GPa) = 0.01680199
#
# Stress axis : x y z
#
# Youngs Moduli (GPa) = 147.28290 183.10531 83.76967
#
# Poissons Ratio (x) = 0.55423 -0.07433
# Poissons Ratio (y) = 0.44580 0.13015
# Poissons Ratio (z) = -0.13068 0.28449
#
# Static dielectric constant tensor:
#      x y z
#    x 1.786180 0.000000 0.000000 
#    y 0.000000 1.941860 0.000000 
#    z 0.000000 0.000000 1.878030 
# 
# From -- ./inp_files/23119.got.cif
#   From: 2010.05.17/outbox.cif.g08.bks.cpg/sg57_12_cif.got.tgz:23119.got - 2010.06.03 13:58:18.
