data_PCOD9435026
_publ_section_title
;
Structure prediction by ZEFSAII (Michael W. Deem and Ramdas Pophale) SiO2 
 PCOD9435026
Probable space group: P B C M
;
_chemical_formula_sum "Si O2"
_cell_formula_units_Z 64
_cell_length_a 31.325822
_cell_length_b 14.222714
_cell_length_c 8.626788
_cell_angle_alpha 90.000000
_cell_angle_beta 90.000000
_cell_angle_gamma 90.000000
_cell_volume 3843.563659
_symmetry_space_group_name_H-M "P B C M"
_symmetry_group_IT_number 57
_symmetry_cell_setting 'orthorhombic'
loop_
_space_group_symop_operation_xyz
x,y,z
-x,-y,1/2+z
x,1/2-y,-z
-x,1/2+y,1/2-z
-x,-y,-z
x,y,1/2-z
-x,1/2+y,z
x,1/2-y,1/2+z
loop_
_atom_site_type_symbol
_atom_site_label
_atom_site_fract_x
_atom_site_fract_y
_atom_site_fract_z
Si Si1 0.111999 0.353419 0.434472
Si Si2 0.355842 0.148600 0.936889
Si Si3 0.257152 0.352834 0.064320
Si Si4 0.516714 0.145672 0.564945
Si Si5 0.185948 0.482417 0.565194
Si Si6 0.952135 0.500129 0.437109
Si Si7 0.877368 0.355374 0.063421
Si Si8 0.566034 0.524842 0.937069
O O1 0.108766 0.250000 0.500000
O O2 0.118104 0.354550 0.250000
O O3 0.150976 0.405116 0.518457
O O4 0.070655 0.411492 0.484170
O O5 0.356716 0.152076 0.750000
O O6 0.306631 0.134286 0.984510
O O7 0.388910 0.068551 0.987200
O O8 0.369854 0.250000 0.000000
O O9 0.254867 0.348062 0.250000
O O10 0.242939 0.250000 0.000000
O O11 0.229004 0.440509 0.007199
O O12 0.520260 0.250000 0.500000
O O13 0.517459 0.148808 0.750000
O O14 0.471863 0.096953 0.516736
O O15 0.553445 0.075652 0.505494
O O16 0.190817 0.486927 0.750000
O O17 0.163337 0.580250 0.512843
O O18 0.951768 0.507955 0.250000
O O19 0.921126 0.411546 0.478417
O O20 0.000000 0.500000 0.500000
O O21 0.876153 0.352087 0.250000
O O22 0.876456 0.250000 0.000000
O O23 0.565702 0.518154 0.750000
#
# Coordination Sequence:
#
# PCOD9435026 Si02
#       8
#     8   8   8   8   8   8   8   8
#     4  11  21  34  52  74  99 130 163 199 242 289
#     4   9  18  31  48  71 100 131 163 199 241 292
#     4  10  19  31  49  75 103 133 164 196 241 296
#     4  10  19  30  47  70  95 126 164 206 251 297
#     4  10  20  35  52  74 102 129 160 202 244 289
#     4  10  21  37  53  75 104 134 167 203 242 288
#     4   9  20  36  55  76  99 127 163 204 245 286
#     4   9  18  32  48  68  96 129 164 204 248 295
#
# _framework density 16.651214
#
# number of rings (size 3 to 8) (size 9 to 14) (size 15 to 20)
#    0.000    2.250    0.000    4.125    0.000    5.000 
#    0.000    1.250    0.000    0.750    0.000    1.750 
#    0.000    0.000    0.000    0.000    0.000    0.000 
#
# Total GULP energy -356885.288602 kJ/mol
# GULP energy per Si atom -5576.332634 kJ/mol
# Density = 1.661332 g / cm^3
# Si number density = 16.651214 Si / 1000 Ang^3
#
#
#
# Elastic Constant Matrix: (Units=GPa)
#
#
# Indices 1 2 3 4 5 6 
#
# 1 67.1117 42.3659 2.4869 0.0000 0.0000 0.0000
# 2 42.3659 138.1994 13.3851 0.0000 0.0000 0.0000
# 3 2.4869 13.3851 13.3674 0.0000 0.0000 0.0000
# 4 0.0000 0.0000 0.0000 29.8210 0.0000 0.0000
# 5 0.0000 0.0000 0.0000 0.0000 19.7667 0.0000
# 6 0.0000 0.0000 0.0000 0.0000 0.0000 15.4678
#
#
#
# Elastic Compliance Matrix: (Units=1/GPa)
#
#
# Indices 1 2 3 4 5 6 
#
# 1 0.018550 -0.005927 0.002484 0.000000 0.000000 0.000000
# 2 -0.005927 0.009907 -0.008817 0.000000 0.000000 0.000000
# 3 0.002484 -0.008817 0.083176 0.000000 0.000000 0.000000
# 4 0.000000 0.000000 0.000000 0.033533 0.000000 0.000000
# 5 0.000000 0.000000 0.000000 0.000000 0.050590 0.000000
# 6 0.000000 0.000000 0.000000 0.000000 0.000000 0.064650
#
#
# Mechanical properties :
#
#
# Convention : Reuss Voigt Hill
#
# Bulk Modulus (GPa) = 11.47950 37.23935 24.35942
# Shear Modulus (GPa) = 15.92532 23.70716 19.81624
#
# Velocity S-wave (km/s) = 3.09594 3.77735 3.45349
# Velocity P-wave (km/s) = 4.43721 6.43719 5.52839
#
# Compressibility (1/GPa) = 0.08711182
#
# Stress axis : x y z
#
# Youngs Moduli (GPa) = 53.90776 100.93930 12.02270
#
# Poissons Ratio (x) = 0.59829 -0.02986
# Poissons Ratio (y) = 0.31952 0.10601
# Poissons Ratio (z) = -0.13390 0.89001
#
# Static dielectric constant tensor:
#      x y z
#    x 1.563580 0.000000 0.000000 
#    y 0.000000 1.518790 0.000000 
#    z 0.000000 0.000000 1.559330 
# 
# From -- ./inp_files/10334.got.cif
#   From: 2010.05.17/outbox.cif.g08.bks.cpg/sg57_6_cif.got.tgz:10334.got - 2010.06.03 13:58:18.
