data_PCOD9435812
_publ_section_title
;
Structure prediction by ZEFSAII (Michael W. Deem and Ramdas Pophale) SiO2 
 PCOD9435812
Probable space group: P B C M
;
_chemical_formula_sum "Si O2"
_cell_formula_units_Z 56
_cell_length_a 15.068389
_cell_length_b 23.034611
_cell_length_c 8.747822
_cell_angle_alpha 90.000000
_cell_angle_beta 90.000000
_cell_angle_gamma 90.000000
_cell_volume 3036.320720
_symmetry_space_group_name_H-M "P B C M"
_symmetry_group_IT_number 57
_symmetry_cell_setting 'orthorhombic'
loop_
_space_group_symop_operation_xyz
x,y,z
-x,-y,1/2+z
x,1/2-y,-z
-x,1/2+y,1/2-z
-x,-y,-z
x,y,1/2-z
-x,1/2+y,z
x,1/2-y,1/2+z
loop_
_atom_site_type_symbol
_atom_site_label
_atom_site_fract_x
_atom_site_fract_y
_atom_site_fract_z
Si Si1 0.423842 0.188524 0.067415
Si Si2 0.914018 0.420843 0.932584
Si Si3 0.295164 0.091471 0.566042
Si Si4 0.406083 0.980482 0.566592
Si Si5 0.622761 0.151851 0.065126
Si Si6 0.191845 0.688778 0.932023
Si Si7 0.895105 0.945229 0.065519
O O1 0.421827 0.189309 0.250000
O O2 0.526120 0.176238 0.021232
O O3 0.396317 0.250000 0.000000
O O4 0.358087 0.139146 0.007900
O O5 0.906668 0.414756 0.750000
O O6 0.881074 0.486310 0.972528
O O7 0.861122 0.367816 0.008194
O O8 0.016443 0.422294 0.985388
O O9 0.300373 0.097170 0.750000
O O10 0.192033 0.091039 0.522685
O O11 0.334441 0.028616 0.524227
O O12 0.414126 0.979576 0.750000
O O13 0.378934 0.915975 0.520234
O O14 0.500000 0.000000 0.500000
O O15 0.632148 0.156257 0.250000
O O16 0.706353 0.181590 0.987001
O O17 0.187608 0.690944 0.750000
O O18 0.157834 0.750000 0.000000
O O19 0.906575 0.942643 0.250000
#
# Coordination Sequence:
#
# PCOD9435812 Si02
#       7
#     8   8   8   8   8   8   8
#     4  11  23  38  56  77 108 149 194 239 280 331
#     4  10  20  38  63  90 121 151 185 234 290 347
#     4  10  20  35  57  83 116 152 187 230 280 332
#     4  10  19  33  54  83 117 151 186 231 283 332
#     4  10  21  38  58  83 116 152 192 237 286 339
#     4  12  25  40  60  86 117 155 198 242 291 351
#     4   9  19  37  62  90 119 152 189 233 287 345
#
# _framework density 18.443373999999999
#
# number of rings (size 3 to 8) (size 9 to 14) (size 15 to 20)
#    0.000    1.714    1.429    3.429    0.000    6.286 
#    0.000    2.143    0.000    3.429    0.000    0.000 
#    0.000    0.000    0.000    0.000    0.000    0.000 
#
# Total GULP energy -312806.026607 kJ/mol
# GULP energy per Si atom -5585.821904 kJ/mol
# Density = 1.840140 g / cm^3
# Si number density = 18.443374 Si / 1000 Ang^3
#
#
#
# Elastic Constant Matrix: (Units=GPa)
#
#
# Indices 1 2 3 4 5 6 
#
# 1 111.6301 47.4424 39.8963 0.0000 0.0000 0.0000
# 2 47.4424 106.6394 36.9560 0.0000 0.0000 0.0000
# 3 39.8963 36.9560 49.1656 0.0000 0.0000 0.0000
# 4 0.0000 0.0000 0.0000 24.8758 0.0000 0.0000
# 5 0.0000 0.0000 0.0000 0.0000 32.2339 0.0000
# 6 0.0000 0.0000 0.0000 0.0000 0.0000 18.5357
#
#
#
# Elastic Compliance Matrix: (Units=1/GPa)
#
#
# Indices 1 2 3 4 5 6 
#
# 1 0.013264 -0.002936 -0.008557 0.000000 0.000000 0.000000
# 2 -0.002936 0.013330 -0.007638 0.000000 0.000000 0.000000
# 3 -0.008557 -0.007638 0.033024 0.000000 0.000000 0.000000
# 4 0.000000 0.000000 0.000000 0.040200 0.000000 0.000000
# 5 0.000000 0.000000 0.000000 0.000000 0.031023 0.000000
# 6 0.000000 0.000000 0.000000 0.000000 0.000000 0.053950
#
#
# Mechanical properties :
#
#
# Convention : Reuss Voigt Hill
#
# Bulk Modulus (GPa) = 46.82067 57.33604 52.07836
# Shear Modulus (GPa) = 21.72306 24.67178 23.19742
#
# Velocity S-wave (km/s) = 3.43567 3.66143 3.55035
# Velocity P-wave (km/s) = 6.41714 7.00213 6.71601
#
# Compressibility (1/GPa) = 0.02135809
#
# Stress axis : x y z
#
# Youngs Moduli (GPa) = 75.39256 75.01721 30.28117
#
# Poissons Ratio (x) = 0.22022 0.25910
# Poissons Ratio (y) = 0.22132 0.23128
# Poissons Ratio (z) = 0.64511 0.57296
#
# Static dielectric constant tensor:
#      x y z
#    x 1.624240 0.000000 0.000000 
#    y 0.000000 1.619550 0.000000 
#    z 0.000000 0.000000 1.619220 
# 
# From -- ./inp_files/5242.got.cif
#   From: 2010.05.17/outbox.cif.g08.bks.cpg/sg57_3_cif.got.tgz:5242.got - 2010.06.03 13:58:18.
