data_PCOD9435791
_publ_section_title
;
Structure prediction by ZEFSAII (Michael W. Deem and Ramdas Pophale) SiO2 
 PCOD9435791
Probable space group: P B C M
;
_chemical_formula_sum "Si O2"
_cell_formula_units_Z 40
_cell_length_a 25.276975
_cell_length_b 8.670626
_cell_length_c 9.808450
_cell_angle_alpha 90.000000
_cell_angle_beta 90.000000
_cell_angle_gamma 90.000000
_cell_volume 2149.690490
_symmetry_space_group_name_H-M "P B C M"
_symmetry_group_IT_number 57
_symmetry_cell_setting 'orthorhombic'
loop_
_space_group_symop_operation_xyz
x,y,z
-x,-y,1/2+z
x,1/2-y,-z
-x,1/2+y,1/2-z
-x,-y,-z
x,y,1/2-z
-x,1/2+y,z
x,1/2-y,1/2+z
loop_
_atom_site_type_symbol
_atom_site_label
_atom_site_fract_x
_atom_site_fract_y
_atom_site_fract_z
Si Si1 0.955626 0.431548 0.750000
Si Si2 0.882527 0.567124 0.982654
Si Si3 0.223781 0.903245 0.908507
Si Si4 0.544706 0.089561 0.416134
Si Si5 0.660352 0.403149 0.909383
Si Si6 0.071062 0.929719 0.250000
O O1 0.926836 0.508564 0.878183
O O2 0.944697 0.249300 0.750000
O O3 0.017338 0.470247 0.750000
O O4 0.824439 0.517874 0.934092
O O5 0.886385 0.750000 0.000000
O O6 0.894972 0.476411 0.120233
O O7 0.221779 0.856338 0.750000
O O8 0.282047 0.976964 0.934223
O O9 0.218068 0.750000 0.000000
O O10 0.547593 0.250000 0.500000
O O11 0.534730 0.104181 0.250000
O O12 0.603754 0.015953 0.432308
O O13 0.500000 0.000000 0.500000
O O14 0.659180 0.358472 0.750000
O O15 0.660954 0.250000 0.000000
#
# Coordination Sequence:
#
# PCOD9435791 Si02
#       6
#     4   8   8   8   8   4
#     4  12  24  46  64  92 114 156 195 242 293 350
#     4  12  25  41  61  89 123 156 192 239 297 352
#     4  10  20  37  61  87 115 149 195 241 292 353
#     4  10  19  33  54  81 115 153 198 246 300 356
#     4   8  16  31  53  80 110 147 191 241 288 343
#     4  12  26  42  68  88 122 152 197 240 289 354
#
# _framework density 18.607329
#
# number of rings (size 3 to 8) (size 9 to 14) (size 15 to 20)
#    0.000    1.600    1.000    4.800    1.400    0.800 
#    0.000    1.000    0.000    0.000    0.000    0.000 
#    0.000    0.000    0.000    0.000    0.000    0.000 
#
# Total GULP energy -222940.382429 kJ/mol
# GULP energy per Si atom -5573.509561 kJ/mol
# Density = 1.856498 g / cm^3
# Si number density = 18.607329 Si / 1000 Ang^3
#
#
#
# Elastic Constant Matrix: (Units=GPa)
#
#
# Indices 1 2 3 4 5 6 
#
# 1 126.4904 13.5023 32.5132 0.0000 0.0000 0.0000
# 2 13.5023 75.1883 9.8330 0.0000 0.0000 0.0000
# 3 32.5132 9.8330 96.4068 0.0000 0.0000 0.0000
# 4 0.0000 0.0000 0.0000 18.3503 0.0000 0.0000
# 5 0.0000 0.0000 0.0000 0.0000 30.5682 0.0000
# 6 0.0000 0.0000 0.0000 0.0000 0.0000 28.3683
#
#
#
# Elastic Compliance Matrix: (Units=1/GPa)
#
#
# Indices 1 2 3 4 5 6 
#
# 1 0.008762 -0.001203 -0.002832 0.000000 0.000000 0.000000
# 2 -0.001203 0.013645 -0.000986 0.000000 0.000000 0.000000
# 3 -0.002832 -0.000986 0.011428 0.000000 0.000000 0.000000
# 4 0.000000 0.000000 0.000000 0.054495 0.000000 0.000000
# 5 0.000000 0.000000 0.000000 0.000000 0.032714 0.000000
# 6 0.000000 0.000000 0.000000 0.000000 0.000000 0.035251
#
#
# Mechanical properties :
#
#
# Convention : Reuss Voigt Hill
#
# Bulk Modulus (GPa) = 42.02955 45.53141 43.78048
# Shear Modulus (GPa) = 28.69131 31.60649 30.14890
#
# Velocity S-wave (km/s) = 3.93101 4.12588 4.02962
# Velocity P-wave (km/s) = 6.57575 6.87168 6.72534
#
# Compressibility (1/GPa) = 0.02379278
#
# Stress axis : x y z
#
# Youngs Moduli (GPa) = 114.12672 73.28728 87.50071
#
# Poissons Ratio (x) = 0.08817 0.24783
# Poissons Ratio (y) = 0.13731 0.08627
# Poissons Ratio (z) = 0.32325 0.07226
#
# Static dielectric constant tensor:
#      x y z
#    x 1.695040 0.000000 0.000000 
#    y 0.000000 1.608850 0.000000 
#    z 0.000000 0.000000 1.624020 
# 
# From -- ./inp_files/8948.got.cif
#   From: 2010.05.17/outbox.cif.g08.bks.cpg/sg57_5_cif.got.tgz:8948.got - 2010.06.03 13:58:18.
