data_PCOD9435734
_publ_section_title
;
Structure prediction by ZEFSAII (Michael W. Deem and Ramdas Pophale) SiO2 
 PCOD9435734
Probable space group: P B C M
;
_chemical_formula_sum "Si O2"
_cell_formula_units_Z 56
_cell_length_a 20.192028
_cell_length_b 18.860361
_cell_length_c 8.689710
_cell_angle_alpha 90.000000
_cell_angle_beta 90.000000
_cell_angle_gamma 90.000000
_cell_volume 3309.293026
_symmetry_space_group_name_H-M "P B C M"
_symmetry_group_IT_number 57
_symmetry_cell_setting 'orthorhombic'
loop_
_space_group_symop_operation_xyz
x,y,z
-x,-y,1/2+z
x,1/2-y,-z
-x,1/2+y,1/2-z
-x,-y,-z
x,y,1/2-z
-x,1/2+y,z
x,1/2-y,1/2+z
loop_
_atom_site_type_symbol
_atom_site_label
_atom_site_fract_x
_atom_site_fract_y
_atom_site_fract_z
Si Si1 0.959557 0.067168 0.564925
Si Si2 0.154079 0.033538 0.063295
Si Si3 0.519726 0.327540 0.430692
Si Si4 0.636422 0.827310 0.069240
Si Si5 0.303616 0.461569 0.931903
Si Si6 0.936160 0.830097 0.564407
Si Si7 0.566927 0.034104 0.430562
O O1 0.965440 0.071663 0.750000
O O2 0.993443 0.136627 0.492081
O O3 0.886177 0.038548 0.525341
O O4 0.000000 0.000000 0.500000
O O5 0.154705 0.037839 0.250000
O O6 0.229327 0.026327 0.008493
O O7 0.116913 0.107497 0.015199
O O8 0.528362 0.250000 0.500000
O O9 0.535784 0.329672 0.250000
O O10 0.441531 0.345814 0.445567
O O11 0.561367 0.383923 0.524865
O O12 0.652933 0.830275 0.250000
O O13 0.644711 0.750000 0.000000
O O14 0.679282 0.880744 0.970714
O O15 0.304631 0.474450 0.750000
O O16 0.364437 0.503922 0.005611
O O17 0.925170 0.750000 0.500000
O O18 0.935242 0.826776 0.750000
O O19 0.564867 0.021851 0.250000
O O20 0.500000 0.000000 0.500000
#
# Coordination Sequence:
#
# PCOD9435734 Si02
#       7
#     8   8   8   8   8   8   8
#     4   9  16  31  53  77 104 136 175 215 254 301
#     4   8  18  34  52  75 106 142 178 215 261 316
#     4  10  20  35  55  77 102 131 167 215 270 321
#     4  10  20  33  49  71 101 134 172 212 260 318
#     4  11  21  35  54  76 105 141 177 220 270 316
#     4  10  19  33  53  81 112 143 179 216 258 307
#     4  12  23  36  54  78 105 137 179 228 272 319
#
# _framework density 16.922042999999999
#
# number of rings (size 3 to 8) (size 9 to 14) (size 15 to 20)
#    0.000    2.000    1.429    4.286    0.000    1.714 
#    0.000   10.000    0.000    0.857    0.000    4.000 
#    0.000    0.000    0.000    0.000    0.000    0.000 
#
# Total GULP energy -312033.578120 kJ/mol
# GULP energy per Si atom -5572.028181 kJ/mol
# Density = 1.688353 g / cm^3
# Si number density = 16.922043 Si / 1000 Ang^3
#
#
#
# Elastic Constant Matrix: (Units=GPa)
#
#
# Indices 1 2 3 4 5 6 
#
# 1 124.5105 55.6438 43.0414 0.0000 0.0000 0.0000
# 2 55.6438 58.4345 21.5812 0.0000 0.0000 0.0000
# 3 43.0414 21.5812 70.8080 0.0000 0.0000 0.0000
# 4 0.0000 0.0000 0.0000 30.9187 0.0000 0.0000
# 5 0.0000 0.0000 0.0000 0.0000 18.1446 0.0000
# 6 0.0000 0.0000 0.0000 0.0000 0.0000 -111.6099
#
#
#
# Elastic Compliance Matrix: (Units=1/GPa)
#
#
# Indices 1 2 3 4 5 6 
#
# 1 0.015754 -0.012919 -0.005639 0.000000 0.000000 0.000000
# 2 -0.012919 0.029879 -0.001253 0.000000 0.000000 0.000000
# 3 -0.005639 -0.001253 0.017932 0.000000 0.000000 0.000000
# 4 0.000000 0.000000 0.000000 0.032343 0.000000 0.000000
# 5 0.000000 0.000000 0.000000 0.000000 0.055113 0.000000
# 6 0.000000 0.000000 0.000000 0.000000 0.000000 -0.008960
#
#
# Mechanical properties :
#
#
# Convention : Reuss Voigt Hill
#
# Bulk Modulus (GPa) = 41.76747 54.92061 48.34404
# Shear Modulus (GPa) = 26.36229 -3.61020 11.37604
#
# Velocity S-wave (km/s) = 3.95126 -1.46221 2.59561
# Velocity P-wave (km/s) = 6.74926 5.44746 6.13300
#
# Compressibility (1/GPa) = 0.02394208
#
# Stress axis : x y z
#
# Youngs Moduli (GPa) = 63.47421 33.46887 55.76528
#
# Poissons Ratio (x) = 0.43240 0.31445
# Poissons Ratio (y) = 0.82005 0.06989
# Poissons Ratio (z) = 0.35792 0.04195
#
# Static dielectric constant tensor:
#      x y z
#    x 1.604690 0.000000 0.000000 
#    y 0.000000 1.577780 0.000000 
#    z 0.000000 0.000000 1.571510 
# 
# From -- ./inp_files/8346.got.cif
#   From: 2010.05.17/outbox.cif.g08.bks.cpg/sg57_5_cif.got.tgz:8346.got - 2010.06.03 13:58:18.
