data_PCOD9435645
_publ_section_title
;
Structure prediction by ZEFSAII (Michael W. Deem and Ramdas Pophale) SiO2 
 PCOD9435645
Probable space group: P B C M
;
_chemical_formula_sum "Si O2"
_cell_formula_units_Z 48
_cell_length_a 26.776782
_cell_length_b 5.108361
_cell_length_c 14.578915
_cell_angle_alpha 90.000000
_cell_angle_beta 90.000000
_cell_angle_gamma 90.000000
_cell_volume 1994.183724
_symmetry_space_group_name_H-M "P B C M"
_symmetry_group_IT_number 57
_symmetry_cell_setting 'orthorhombic'
loop_
_space_group_symop_operation_xyz
x,y,z
-x,-y,1/2+z
x,1/2-y,-z
-x,1/2+y,1/2-z
-x,-y,-z
x,y,1/2-z
-x,1/2+y,z
x,1/2-y,1/2+z
loop_
_atom_site_type_symbol
_atom_site_label
_atom_site_fract_x
_atom_site_fract_y
_atom_site_fract_z
Si Si1 0.637426 0.398840 0.862696
Si Si2 0.867048 0.099127 0.352722
Si Si3 0.971210 0.879798 0.362238
Si Si4 0.305363 0.398935 0.639837
Si Si5 0.808518 0.890448 0.596650
Si Si6 0.471022 0.094743 0.862271
O O1 0.636058 0.392003 0.750000
O O2 0.678361 0.612359 0.891869
O O3 0.583007 0.494706 0.892415
O O4 0.655664 0.115846 0.894083
O O5 0.879393 0.195301 0.250000
O O6 0.841430 0.348592 0.398828
O O7 0.918004 0.986824 0.395183
O O8 0.830737 0.848778 0.344692
O O9 0.969045 0.875072 0.250000
O O10 0.986587 0.588955 0.390038
O O11 0.309780 0.396209 0.750000
O O12 0.248298 0.463042 0.619129
O O13 0.809097 0.750000 0.500000
O O14 0.470015 0.097699 0.750000
O O15 0.512807 0.884077 0.890655
#
# Coordination Sequence:
#
# PCOD9435645 Si02
#       6
#     8   8   8   8   8   8
#     4   9  17  28  45  70  99 134 175 220 267 321
#     4  11  22  39  64  89 115 152 195 233 278 339
#     4   9  17  31  55  87 115 140 181 235 277 317
#     4  10  19  33  52  73 101 138 183 227 270 325
#     4  12  25  40  58  84 119 152 189 240 294 340
#     4   9  15  23  37  61  97 134 163 201 264 330
#
# _framework density 24.069996
#
# number of rings (size 3 to 8) (size 9 to 14) (size 15 to 20)
#    0.000    2.000    0.000    5.000    0.000    8.000 
#    0.000    0.000    0.000   10.000    0.000    0.000 
#    0.000   13.333    0.000    0.000    0.000    0.000 
#
# Total GULP energy -268567.259221 kJ/mol
# GULP energy per Si atom -5595.151234 kJ/mol
# Density = 2.401521 g / cm^3
# Si number density = 24.069996 Si / 1000 Ang^3
#
#
#
# Elastic Constant Matrix: (Units=GPa)
#
#
# Indices 1 2 3 4 5 6 
#
# 1 81.1808 4.2459 -5.9221 0.0000 0.0000 0.0000
# 2 4.2459 86.6503 24.8691 0.0000 0.0000 0.0000
# 3 -5.9221 24.8691 15.9003 0.0000 0.0000 0.0000
# 4 0.0000 0.0000 0.0000 8.9056 0.0000 0.0000
# 5 0.0000 0.0000 0.0000 0.0000 -3.5773 0.0000
# 6 0.0000 0.0000 0.0000 0.0000 0.0000 35.1481
#
#
#
# Elastic Compliance Matrix: (Units=1/GPa)
#
#
# Indices 1 2 3 4 5 6 
#
# 1 0.013306 -0.003764 0.010843 0.000000 0.000000 0.000000
# 2 -0.003764 0.022006 -0.035820 0.000000 0.000000 0.000000
# 3 0.010843 -0.035820 0.122955 0.000000 0.000000 0.000000
# 4 0.000000 0.000000 0.000000 0.112289 0.000000 0.000000
# 5 0.000000 0.000000 0.000000 0.000000 -0.279542 0.000000
# 6 0.000000 0.000000 0.000000 0.000000 0.000000 0.028451
#
#
# Mechanical properties :
#
#
# Convention : Reuss Voigt Hill
#
# Bulk Modulus (GPa) = 9.92214 25.56857 17.74535
# Shear Modulus (GPa) = 45.23191 18.79785 32.01488
#
# Velocity S-wave (km/s) = 4.33966 2.79761 3.65097
# Velocity P-wave (km/s) = 5.40752 4.59142 5.01610
#
# Compressibility (1/GPa) = 0.10078466
#
# Stress axis : x y z
#
# Youngs Moduli (GPa) = 75.15378 45.44298 8.13306
#
# Poissons Ratio (x) = 0.17105 -0.08819
# Poissons Ratio (y) = 0.28288 0.29133
# Poissons Ratio (z) = -0.81490 1.62777
#
# Static dielectric constant tensor:
#      x y z
#    x 1.900650 0.000000 0.000000 
#    y 0.000000 1.842610 0.000000 
#    z 0.000000 0.000000 2.038270 
# 
# From -- ./inp_files/23116.got.cif
#   From: 2010.05.17/outbox.cif.g08.bks.cpg/sg57_12_cif.got.tgz:23116.got - 2010.06.03 13:58:18.
