data_PCOD9435684
_publ_section_title
;
Structure prediction by ZEFSAII (Michael W. Deem and Ramdas Pophale) SiO2 
 PCOD9435684
Probable space group: P B C M
;
_chemical_formula_sum "Si O2"
_cell_formula_units_Z 48
_cell_length_a 18.944900
_cell_length_b 16.803852
_cell_length_c 8.919306
_cell_angle_alpha 90.000000
_cell_angle_beta 90.000000
_cell_angle_gamma 90.000000
_cell_volume 2839.436945
_symmetry_space_group_name_H-M "P B C M"
_symmetry_group_IT_number 57
_symmetry_cell_setting 'orthorhombic'
loop_
_space_group_symop_operation_xyz
x,y,z
-x,-y,1/2+z
x,1/2-y,-z
-x,1/2+y,1/2-z
-x,-y,-z
x,y,1/2-z
-x,1/2+y,z
x,1/2-y,1/2+z
loop_
_atom_site_type_symbol
_atom_site_label
_atom_site_fract_x
_atom_site_fract_y
_atom_site_fract_z
Si Si1 0.709745 0.581775 0.426833
Si Si2 0.075847 0.011028 0.928488
Si Si3 0.576497 0.486755 0.069541
Si Si4 0.654630 0.165581 0.427714
Si Si5 0.165907 0.167120 0.928970
Si Si6 0.214477 0.566937 0.072255
O O1 0.714338 0.597385 0.250000
O O2 0.629022 0.560841 0.466967
O O3 0.754820 0.647018 0.514997
O O4 0.749414 0.499922 0.470120
O O5 0.222392 0.955593 0.750000
O O6 0.131510 0.939547 0.960870
O O7 0.115565 0.092996 0.974319
O O8 0.000000 0.000000 0.000000
O O9 0.573689 0.480359 0.250000
O O10 0.611079 0.406625 0.001869
O O11 0.500000 0.500000 0.000000
O O12 0.637664 0.250000 0.500000
O O13 0.067020 0.014569 0.750000
O O14 0.738031 0.144661 0.449418
O O15 0.165551 0.171780 0.750000
O O16 0.142500 0.250000 0.000000
O O17 0.359020 0.666446 0.250000
#
# Coordination Sequence:
#
# PCOD9435684 Si02
#       6
#     8   8   8   8   8   8
#     4   9  17  30  50  74  97 124 161 201 241 290
#     4   9  18  32  50  73 100 131 166 203 246 297
#     4  10  20  34  53  77 104 135 170 205 247 301
#     4  10  19  33  53  75 101 132 167 211 257 299
#     4  10  20  34  52  74 100 130 166 208 253 298
#     4   8  16  31  49  69  95 128 165 202 242 291
#
# _framework density 16.904761000000001
#
# number of rings (size 3 to 8) (size 9 to 14) (size 15 to 20)
#    0.000    2.667    0.000    3.000    0.000    6.000 
#    0.000    1.667    0.000    8.000    0.000    0.000 
#    0.000    0.000    0.000    0.000    0.000    0.000 
#
# Total GULP energy -267233.512543 kJ/mol
# GULP energy per Si atom -5567.364845 kJ/mol
# Density = 1.686628 g / cm^3
# Si number density = 16.904761 Si / 1000 Ang^3
#
#
#
# Elastic Constant Matrix: (Units=GPa)
#
#
# Indices 1 2 3 4 5 6 
#
# 1 144.5809 41.5524 45.6287 0.0000 0.0000 0.0000
# 2 41.5524 75.7689 31.7956 0.0000 0.0000 0.0000
# 3 45.6287 31.7956 50.3974 0.0000 0.0000 0.0000
# 4 0.0000 0.0000 0.0000 26.5219 0.0000 0.0000
# 5 0.0000 0.0000 0.0000 0.0000 30.9068 0.0000
# 6 0.0000 0.0000 0.0000 0.0000 0.0000 14.0859
#
#
#
# Elastic Compliance Matrix: (Units=1/GPa)
#
#
# Indices 1 2 3 4 5 6 
#
# 1 0.009966 -0.002284 -0.007582 0.000000 0.000000 0.000000
# 2 -0.002284 0.018474 -0.009587 0.000000 0.000000 0.000000
# 3 -0.007582 -0.009587 0.032756 0.000000 0.000000 0.000000
# 4 0.000000 0.000000 0.000000 0.037705 0.000000 0.000000
# 5 0.000000 0.000000 0.000000 0.000000 0.032355 0.000000
# 6 0.000000 0.000000 0.000000 0.000000 0.000000 0.070993
#
#
# Mechanical properties :
#
#
# Convention : Reuss Voigt Hill
#
# Bulk Modulus (GPa) = 44.86560 56.52230 50.69395
# Shear Modulus (GPa) = 20.11396 24.42096 22.26746
#
# Velocity S-wave (km/s) = 3.45315 3.80494 3.63330
# Velocity P-wave (km/s) = 6.51896 7.26717 6.90321
#
# Compressibility (1/GPa) = 0.02228879
#
# Stress axis : x y z
#
# Youngs Moduli (GPa) = 100.34453 54.13123 30.52915
#
# Poissons Ratio (x) = 0.12361 0.23147
# Poissons Ratio (y) = 0.22914 0.29270
# Poissons Ratio (z) = 0.76081 0.51898
#
# Static dielectric constant tensor:
#      x y z
#    x 1.591380 0.000000 0.000000 
#    y 0.000000 1.576300 0.000000 
#    z 0.000000 0.000000 1.568440 
# 
# From -- ./inp_files/6577.got.cif
#   From: 2010.05.17/outbox.cif.g08.bks.cpg/sg57_4_cif.got.tgz:6577.got - 2010.06.03 13:58:18.
