data_PCOD9435733
_publ_section_title
;
Structure prediction by ZEFSAII (Michael W. Deem and Ramdas Pophale) SiO2 
 PCOD9435733
Probable space group: P B C M
;
_chemical_formula_sum "Si O2"
_cell_formula_units_Z 64
_cell_length_a 21.109637
_cell_length_b 20.013667
_cell_length_c 8.518350
_cell_angle_alpha 90.000000
_cell_angle_beta 90.000000
_cell_angle_gamma 90.000000
_cell_volume 3598.843117
_symmetry_space_group_name_H-M "P B C M"
_symmetry_group_IT_number 57
_symmetry_cell_setting 'orthorhombic'
loop_
_space_group_symop_operation_xyz
x,y,z
-x,-y,1/2+z
x,1/2-y,-z
-x,1/2+y,1/2-z
-x,-y,-z
x,y,1/2-z
-x,1/2+y,z
x,1/2-y,1/2+z
loop_
_atom_site_type_symbol
_atom_site_label
_atom_site_fract_x
_atom_site_fract_y
_atom_site_fract_z
Si Si1 0.814434 0.035807 0.060062
Si Si2 0.938380 0.961211 0.561243
Si Si3 0.489183 0.822435 0.437939
Si Si4 0.637012 0.822401 0.439096
Si Si5 0.440185 0.958458 0.937971
Si Si6 0.313757 0.036037 0.558225
Si Si7 0.009667 0.321618 0.561277
Si Si8 0.137464 0.822246 0.560704
O O1 0.813877 0.463678 0.750000
O O2 0.875611 0.994898 0.005194
O O3 0.823203 0.112928 0.008494
O O4 0.750457 0.999683 0.005183
O O5 0.937450 0.964033 0.750000
O O6 0.948180 0.884224 0.511198
O O7 0.000000 0.000000 0.500000
O O8 0.469282 0.750000 0.500000
O O9 0.487276 0.823500 0.250000
O O10 0.563144 0.832127 0.486611
O O11 0.448268 0.882954 0.504195
O O12 0.658002 0.750000 0.500000
O O13 0.638155 0.820738 0.250000
O O14 0.676504 0.887034 0.492162
O O15 0.441380 0.960036 0.750000
O O16 0.375356 0.993780 0.990517
O O17 0.500000 0.000000 0.000000
O O18 0.313106 0.036524 0.750000
O O19 0.031296 0.250000 0.500000
O O20 0.009033 0.320257 0.750000
O O21 0.936214 0.331500 0.510011
O O22 0.159011 0.750000 0.500000
O O23 0.138050 0.820603 0.750000
#
# Coordination Sequence:
#
# PCOD9435733 Si02
#       8
#     8   8   8   8   8   8   8   8
#     4  10  20  37  57  78 107 145 183 219 268 326
#     4  11  21  35  55  81 110 137 175 222 267 318
#     4  10  19  33  53  81 111 141 181 230 279 332
#     4   9  17  32  52  77 104 137 180 222 267 323
#     4  11  20  34  55  81 109 143 183 228 277 327
#     4   9  19  36  56  77 108 146 183 220 268 329
#     4   9  18  32  50  77 106 134 172 217 261 309
#     4   9  17  31  51  76 102 133 174 216 260 314
#
# _framework density 17.783493
#
# number of rings (size 3 to 8) (size 9 to 14) (size 15 to 20)
#    0.000    2.250    2.500    1.125    0.000    2.000 
#    0.000    3.125    0.000    4.500    0.000    0.000 
#    0.000    0.000    0.000    0.000    0.000    0.000 
#
# Total GULP energy -357026.234762 kJ/mol
# GULP energy per Si atom -5578.534918 kJ/mol
# Density = 1.774302 g / cm^3
# Si number density = 17.783493 Si / 1000 Ang^3
#
#
#
# Elastic Constant Matrix: (Units=GPa)
#
#
# Indices 1 2 3 4 5 6 
#
# 1 115.7332 89.9693 17.0765 0.0000 0.0000 0.0000
# 2 89.9693 205.9355 25.6179 0.0000 0.0000 0.0000
# 3 17.0765 25.6179 13.6081 0.0000 0.0000 0.0000
# 4 0.0000 0.0000 0.0000 32.3711 0.0000 0.0000
# 5 0.0000 0.0000 0.0000 0.0000 15.8679 0.0000
# 6 0.0000 0.0000 0.0000 0.0000 0.0000 27.8334
#
#
#
# Elastic Compliance Matrix: (Units=1/GPa)
#
#
# Indices 1 2 3 4 5 6 
#
# 1 0.013679 -0.005015 -0.007724 0.000000 0.000000 0.000000
# 2 -0.005015 0.008180 -0.009105 0.000000 0.000000 0.000000
# 3 -0.007724 -0.009105 0.100319 0.000000 0.000000 0.000000
# 4 0.000000 0.000000 0.000000 0.030892 0.000000 0.000000
# 5 0.000000 0.000000 0.000000 0.000000 0.063020 0.000000
# 6 0.000000 0.000000 0.000000 0.000000 0.000000 0.035928
#
#
# Mechanical properties :
#
#
# Convention : Reuss Voigt Hill
#
# Bulk Modulus (GPa) = 12.74062 66.73381 39.73721
# Shear Modulus (GPa) = 15.53425 28.72201 22.12813
#
# Velocity S-wave (km/s) = 2.95874 4.02318 3.53130
# Velocity P-wave (km/s) = 4.34190 7.69341 6.24662
#
# Compressibility (1/GPa) = 0.07848912
#
# Stress axis : x y z
#
# Youngs Moduli (GPa) = 73.10455 122.25540 9.96820
#
# Poissons Ratio (x) = 0.61314 0.07699
# Poissons Ratio (y) = 0.36664 0.09076
# Poissons Ratio (z) = 0.56466 1.11313
#
# Static dielectric constant tensor:
#      x y z
#    x 1.584510 0.000000 0.000000 
#    y 0.000000 1.615940 0.000000 
#    z 0.000000 0.000000 1.612170 
# 
# From -- ./inp_files/8613.got.cif
#   From: 2010.05.17/outbox.cif.g08.bks.cpg/sg57_5_cif.got.tgz:8613.got - 2010.06.03 13:58:18.
