data_PCOD9435942
_publ_section_title
;
Structure prediction by ZEFSAII (Michael W. Deem and Ramdas Pophale) SiO2 
 PCOD9435942
Probable space group: P B C M
;
_chemical_formula_sum "Si O2"
_cell_formula_units_Z 48
_cell_length_a 19.373556
_cell_length_b 15.770292
_cell_length_c 8.399875
_cell_angle_alpha 90.000000
_cell_angle_beta 90.000000
_cell_angle_gamma 90.000000
_cell_volume 2566.385545
_symmetry_space_group_name_H-M "P B C M"
_symmetry_group_IT_number 57
_symmetry_cell_setting 'orthorhombic'
loop_
_space_group_symop_operation_xyz
x,y,z
-x,-y,1/2+z
x,1/2-y,-z
-x,1/2+y,1/2-z
-x,-y,-z
x,y,1/2-z
-x,1/2+y,z
x,1/2-y,1/2+z
loop_
_atom_site_type_symbol
_atom_site_label
_atom_site_fract_x
_atom_site_fract_y
_atom_site_fract_z
Si Si1 0.428174 0.156115 0.559026
Si Si2 0.583319 0.343766 0.559226
Si Si3 0.829668 0.995812 0.442398
Si Si4 0.328373 0.004635 0.944521
Si Si5 0.913563 0.156405 0.559291
Si Si6 0.927650 0.843492 0.057855
O O1 0.409127 0.250000 0.500000
O O2 0.429602 0.156773 0.750000
O O3 0.505607 0.137837 0.499141
O O4 0.374824 0.084328 0.504513
O O5 0.602523 0.250000 0.500000
O O6 0.582461 0.342658 0.750000
O O7 0.634956 0.417418 0.504700
O O8 0.829180 0.993440 0.250000
O O9 0.750659 0.989509 0.497777
O O10 0.864638 0.083188 0.494793
O O11 0.876620 0.917163 0.498663
O O12 0.328223 0.004856 0.750000
O O13 0.893746 0.250000 0.500000
O O14 0.912398 0.155509 0.750000
O O15 0.993072 0.140929 0.505765
O O16 0.927268 0.843380 0.250000
O O17 0.907330 0.750000 0.000000
#
# Coordination Sequence:
#
# PCOD9435942 Si02
#       6
#     8   8   8   8   8   8
#     4  10  19  34  54  77 102 132 168 210 252 298
#     4  10  19  34  54  76  99 130 169 211 252 298
#     4  10  20  36  54  76 106 140 171 210 260 308
#     4   9  20  35  52  74 105 138 168 203 253 305
#     4  10  20  35  54  79 104 134 174 216 257 304
#     4   9  19  34  55  78 104 136 173 214 258 303
#
# _framework density 18.703346
#
# number of rings (size 3 to 8) (size 9 to 14) (size 15 to 20)
#    0.000    2.333    0.000    3.500    0.000    2.667 
#    0.000    7.500    0.000    0.000    0.000    0.000 
#    0.000    0.000    0.000    0.000    0.000    0.000 
#
# Total GULP energy -267982.091892 kJ/mol
# GULP energy per Si atom -5582.960248 kJ/mol
# Density = 1.866078 g / cm^3
# Si number density = 18.703346 Si / 1000 Ang^3
#
#
#
# Elastic Constant Matrix: (Units=GPa)
#
#
# Indices 1 2 3 4 5 6 
#
# 1 65.5496 52.4219 5.1295 0.0000 0.0000 0.0000
# 2 52.4219 84.6096 2.3990 0.0000 0.0000 0.0000
# 3 5.1295 2.3990 22.0012 0.0000 0.0000 0.0000
# 4 0.0000 0.0000 0.0000 22.7399 0.0000 0.0000
# 5 0.0000 0.0000 0.0000 0.0000 15.3195 0.0000
# 6 0.0000 0.0000 0.0000 0.0000 0.0000 0.7282
#
#
#
# Elastic Compliance Matrix: (Units=1/GPa)
#
#
# Indices 1 2 3 4 5 6 
#
# 1 0.030802 -0.018939 -0.005116 0.000000 0.000000 0.000000
# 2 -0.018939 0.023501 0.001853 0.000000 0.000000 0.000000
# 3 -0.005116 0.001853 0.046443 0.000000 0.000000 0.000000
# 4 0.000000 0.000000 0.000000 0.043976 0.000000 0.000000
# 5 0.000000 0.000000 0.000000 0.000000 0.065276 0.000000
# 6 0.000000 0.000000 0.000000 0.000000 0.000000 1.373262
#
#
# Mechanical properties :
#
#
# Convention : Reuss Voigt Hill
#
# Bulk Modulus (GPa) = 17.74906 32.45125 25.10015
# Shear Modulus (GPa) = 3.03685 15.23818 9.13751
#
# Velocity S-wave (km/s) = 1.27562 2.85744 2.21271
# Velocity P-wave (km/s) = 3.41760 5.31741 4.46961
#
# Compressibility (1/GPa) = 0.05634102
#
# Stress axis : x y z
#
# Youngs Moduli (GPa) = 32.46527 42.55205 21.53181
#
# Poissons Ratio (x) = 0.80590 0.11016
# Poissons Ratio (y) = 0.61486 -0.03990
# Poissons Ratio (z) = 0.16610 -0.07885
#
# Static dielectric constant tensor:
#      x y z
#    x 1.633250 0.000000 0.000000 
#    y 0.000000 1.623130 0.000000 
#    z 0.000000 0.000000 1.641780 
# 
# From -- ./inp_files/6529.got.cif
#   From: 2010.05.17/outbox.cif.g08.bks.cpg/sg57_4_cif.got.tgz:6529.got - 2010.06.03 13:58:18.
