data_PCOD9435515
_publ_section_title
;
Structure prediction by ZEFSAII (Michael W. Deem and Ramdas Pophale) SiO2 
 PCOD9435515
Probable space group: P B C M
;
_chemical_formula_sum "Si O2"
_cell_formula_units_Z 64
_cell_length_a 21.071363
_cell_length_b 17.658163
_cell_length_c 7.654515
_cell_angle_alpha 90.000000
_cell_angle_beta 90.000000
_cell_angle_gamma 90.000000
_cell_volume 2848.103901
_symmetry_space_group_name_H-M "P B C M"
_symmetry_group_IT_number 57
_symmetry_cell_setting 'orthorhombic'
loop_
_space_group_symop_operation_xyz
x,y,z
-x,-y,1/2+z
x,1/2-y,-z
-x,1/2+y,1/2-z
-x,-y,-z
x,y,1/2-z
-x,1/2+y,z
x,1/2-y,1/2+z
loop_
_atom_site_type_symbol
_atom_site_label
_atom_site_fract_x
_atom_site_fract_y
_atom_site_fract_z
Si Si1 0.373680 0.380692 0.548148
Si Si2 0.024412 0.164727 0.958109
Si Si3 0.135224 0.447490 0.546512
Si Si4 0.749795 0.166802 0.542831
Si Si5 0.239966 0.166425 0.460677
Si Si6 0.114306 0.617496 0.964045
Si Si7 0.508216 0.089191 0.459204
Si Si8 0.358792 0.553026 0.454845
O O1 0.377238 0.356047 0.750000
O O2 0.311621 0.342020 0.468535
O O3 0.444405 0.371215 0.469796
O O4 0.358943 0.471107 0.544856
O O5 0.025262 0.154328 0.750000
O O6 0.952527 0.151595 0.023118
O O7 0.044342 0.250000 0.000000
O O8 0.073022 0.104222 0.034545
O O9 0.150803 0.459975 0.750000
O O10 0.193551 0.399113 0.470514
O O11 0.121519 0.530645 0.475331
O O12 0.724533 0.250000 0.500000
O O13 0.751489 0.157856 0.750000
O O14 0.822008 0.159561 0.476604
O O15 0.704928 0.100330 0.475083
O O16 0.214892 0.250000 0.500000
O O17 0.242407 0.158757 0.250000
O O18 0.112714 0.619503 0.750000
O O19 0.506279 0.099906 0.250000
O O20 0.580437 0.102726 0.518579
O O21 0.500000 0.000000 0.500000
O O22 0.368940 0.536980 0.250000
#
# Coordination Sequence:
#
# PCOD9435515 Si02
#       8
#     8   8   8   8   8   8   8   8
#     4   9  17  33  55  77 102 140 181 219 265 318
#     4  11  22  37  57  83 112 143 174 211 258 310
#     4  10  20  37  58  81 107 138 175 217 260 309
#     4  11  22  38  57  78 106 142 179 219 267 320
#     4  10  21  35  53  75 104 140 178 218 264 312
#     4   9  20  38  60  82 106 136 176 221 264 310
#     4   8  15  28  49  75 104 134 172 217 262 312
#     4  10  19  32  52  81 110 137 172 220 268 317
#
# _framework density 22.471091999999999
#
# number of rings (size 3 to 8) (size 9 to 14) (size 15 to 20)
#    0.000    2.250    0.000    3.000    0.000    4.500 
#    0.000    5.625    0.000    1.500    0.000    0.000 
#    0.000    0.000    0.000    0.000    0.000    0.000 
#
# Total GULP energy -357310.294968 kJ/mol
# GULP energy per Si atom -5582.973359 kJ/mol
# Density = 2.241995 g / cm^3
# Si number density = 22.471092 Si / 1000 Ang^3
#
#
#
# Elastic Constant Matrix: (Units=GPa)
#
#
# Indices 1 2 3 4 5 6 
#
# 1 91.6314 -1.9424 -7.2643 0.0000 0.0000 0.0000
# 2 -1.9424 62.2401 -12.1989 0.0000 0.0000 0.0000
# 3 -7.2643 -12.1989 48.3034 0.0000 0.0000 0.0000
# 4 0.0000 0.0000 0.0000 16.1742 0.0000 0.0000
# 5 0.0000 0.0000 0.0000 0.0000 1.4200 0.0000
# 6 0.0000 0.0000 0.0000 0.0000 0.0000 -2.5752
#
#
#
# Elastic Compliance Matrix: (Units=1/GPa)
#
#
# Indices 1 2 3 4 5 6 
#
# 1 0.011074 0.000707 0.001844 0.000000 0.000000 0.000000
# 2 0.000707 0.016949 0.004387 0.000000 0.000000 0.000000
# 3 0.001844 0.004387 0.022088 0.000000 0.000000 0.000000
# 4 0.000000 0.000000 0.000000 0.061827 0.000000 0.000000
# 5 0.000000 0.000000 0.000000 0.000000 0.704241 0.000000
# 6 0.000000 0.000000 0.000000 0.000000 0.000000 -0.388322
#
#
# Mechanical properties :
#
#
# Convention : Reuss Voigt Hill
#
# Bulk Modulus (GPa) = 15.62835 17.70707 16.66771
# Shear Modulus (GPa) = 11.48606 17.90917 14.69761
#
# Velocity S-wave (km/s) = 2.26331 2.82616 2.56025
# Velocity P-wave (km/s) = 3.71485 4.30658 4.02161
#
# Compressibility (1/GPa) = 0.06398628
#
# Stress axis : x y z
#
# Youngs Moduli (GPa) = 90.29776 59.00178 45.27418
#
# Poissons Ratio (x) = -0.04172 -0.08349
# Poissons Ratio (y) = -0.06384 -0.19860
# Poissons Ratio (z) = -0.16651 -0.25882
#
# Static dielectric constant tensor:
#      x y z
#    x 1.883870 0.000000 0.000000 
#    y 0.000000 1.775770 0.000000 
#    z 0.000000 0.000000 1.863210 
# 
# From -- ./inp_files/8496.got.cif
#   From: 2010.05.17/outbox.cif.g08.bks.cpg/sg57_5_cif.got.tgz:8496.got - 2010.06.03 13:58:18.
