data_PCOD9435938
_publ_section_title
;
Structure prediction by ZEFSAII (Michael W. Deem and Ramdas Pophale) SiO2 
 PCOD9435938
Probable space group: P B C M
;
_chemical_formula_sum "Si O2"
_cell_formula_units_Z 48
_cell_length_a 19.057507
_cell_length_b 16.924482
_cell_length_c 8.607867
_cell_angle_alpha 90.000000
_cell_angle_beta 90.000000
_cell_angle_gamma 90.000000
_cell_volume 2776.367944
_symmetry_space_group_name_H-M "P B C M"
_symmetry_group_IT_number 57
_symmetry_cell_setting 'orthorhombic'
loop_
_space_group_symop_operation_xyz
x,y,z
-x,-y,1/2+z
x,1/2-y,-z
-x,1/2+y,1/2-z
-x,-y,-z
x,y,1/2-z
-x,1/2+y,z
x,1/2-y,1/2+z
loop_
_atom_site_type_symbol
_atom_site_label
_atom_site_fract_x
_atom_site_fract_y
_atom_site_fract_z
Si Si1 0.659812 0.663736 0.433551
Si Si2 0.161420 0.834375 0.561654
Si Si3 0.705022 0.417321 0.571377
Si Si4 0.922054 0.491053 0.937877
Si Si5 0.209649 0.416591 0.071153
Si Si6 0.577619 0.513022 0.937521
O O1 0.644003 0.750000 0.500000
O O2 0.650246 0.662582 0.250000
O O3 0.740266 0.640657 0.475278
O O4 0.610939 0.596022 0.508473
O O5 0.138344 0.750000 0.500000
O O6 0.163428 0.834052 0.750000
O O7 0.240415 0.854791 0.502315
O O8 0.111200 0.906752 0.514554
O O9 0.692096 0.393298 0.750000
O O10 0.749689 0.499006 0.574963
O O11 0.630653 0.443857 0.503193
O O12 0.922055 0.492988 0.750000
O O13 0.867715 0.560252 0.987633
O O14 0.000000 0.500000 0.000000
O O15 0.205892 0.388534 0.250000
O O16 0.578406 0.511424 0.750000
O O17 0.500000 0.500000 0.000000
#
# Coordination Sequence:
#
# PCOD9435938 Si02
#       6
#     8   8   8   8   8   8
#     4  11  21  34  53  77 102 131 168 213 260 308
#     4   9  17  31  49  71  96 126 161 201 246 291
#     4   7  13  28  49  67  90 124 160 196 238 285
#     4   9  18  32  51  73 101 133 167 204 248 299
#     4   8  15  31  51  70  93 126 164 204 247 294
#     4  10  19  34  54  76 103 136 171 208 251 303
#
# _framework density 17.288774
#
# number of rings (size 3 to 8) (size 9 to 14) (size 15 to 20)
#    0.000    3.000    0.000    5.000    0.000    1.333 
#    0.000    9.167    0.000    4.000    0.000    0.000 
#    0.000    0.000    0.000    0.000    0.000    0.000 
#
# Total GULP energy -267203.282645 kJ/mol
# GULP energy per Si atom -5566.735055 kJ/mol
# Density = 1.724942 g / cm^3
# Si number density = 17.288774 Si / 1000 Ang^3
#
#
#
# Elastic Constant Matrix: (Units=GPa)
#
#
# Indices 1 2 3 4 5 6 
#
# 1 150.8224 44.3712 27.0593 0.0000 0.0000 0.0000
# 2 44.3712 77.9949 22.4620 0.0000 0.0000 0.0000
# 3 27.0593 22.4620 46.3421 0.0000 0.0000 0.0000
# 4 0.0000 0.0000 0.0000 22.9671 0.0000 0.0000
# 5 0.0000 0.0000 0.0000 0.0000 26.6749 0.0000
# 6 0.0000 0.0000 0.0000 0.0000 0.0000 16.3478
#
#
#
# Elastic Compliance Matrix: (Units=1/GPa)
#
#
# Indices 1 2 3 4 5 6 
#
# 1 0.008301 -0.003866 -0.002973 0.000000 0.000000 0.000000
# 2 -0.003866 0.016702 -0.005838 0.000000 0.000000 0.000000
# 3 -0.002973 -0.005838 0.026144 0.000000 0.000000 0.000000
# 4 0.000000 0.000000 0.000000 0.043541 0.000000 0.000000
# 5 0.000000 0.000000 0.000000 0.000000 0.037488 0.000000
# 6 0.000000 0.000000 0.000000 0.000000 0.000000 0.061170
#
#
# Mechanical properties :
#
#
# Convention : Reuss Voigt Hill
#
# Bulk Modulus (GPa) = 38.77035 51.43827 45.10431
# Shear Modulus (GPa) = 21.99741 25.28242 23.63991
#
# Velocity S-wave (km/s) = 3.57087 3.82823 3.70179
# Velocity P-wave (km/s) = 6.28294 7.02549 6.66456
#
# Compressibility (1/GPa) = 0.02579290
#
# Stress axis : x y z
#
# Youngs Moduli (GPa) = 120.46503 59.87240 38.24920
#
# Poissons Ratio (x) = 0.23148 0.11372
# Poissons Ratio (y) = 0.46575 0.22330
# Poissons Ratio (z) = 0.35815 0.34954
#
# Static dielectric constant tensor:
#      x y z
#    x 1.611250 0.000000 0.000000 
#    y 0.000000 1.584240 0.000000 
#    z 0.000000 0.000000 1.593070 
# 
# From -- ./inp_files/6705.got.cif
#   From: 2010.05.17/outbox.cif.g08.bks.cpg/sg57_4_cif.got.tgz:6705.got - 2010.06.03 13:58:18.
