data_PCOD9435119
_publ_section_title
;
Structure prediction by ZEFSAII (Michael W. Deem and Ramdas Pophale) SiO2 
 PCOD9435119
Probable space group: P B C M
;
_chemical_formula_sum "Si O2"
_cell_formula_units_Z 56
_cell_length_a 21.221053
_cell_length_b 14.031534
_cell_length_c 7.549438
_cell_angle_alpha 90.000000
_cell_angle_beta 90.000000
_cell_angle_gamma 90.000000
_cell_volume 2247.950303
_symmetry_space_group_name_H-M "P B C M"
_symmetry_group_IT_number 57
_symmetry_cell_setting 'orthorhombic'
loop_
_space_group_symop_operation_xyz
x,y,z
-x,-y,1/2+z
x,1/2-y,-z
-x,1/2+y,1/2-z
-x,-y,-z
x,y,1/2-z
-x,1/2+y,z
x,1/2-y,1/2+z
loop_
_atom_site_type_symbol
_atom_site_label
_atom_site_fract_x
_atom_site_fract_y
_atom_site_fract_z
Si Si1 0.280764 0.562820 0.960397
Si Si2 0.312825 0.148627 0.038623
Si Si3 0.874504 0.854158 0.944437
Si Si4 0.855264 0.069113 0.532605
Si Si5 0.581113 0.387521 0.950256
Si Si6 0.010770 0.611308 0.539304
Si Si7 0.551196 0.606834 0.032291
O O1 0.274482 0.555915 0.750000
O O2 0.286984 0.453104 0.028724
O O3 0.213879 0.604064 0.023775
O O4 0.346691 0.618094 0.987823
O O5 0.314911 0.139198 0.250000
O O6 0.384740 0.155559 0.972113
O O7 0.281744 0.250000 0.000000
O O8 0.847507 0.867173 0.750000
O O9 0.861037 0.957702 0.030450
O O10 0.852421 0.750000 0.000000
O O11 0.950480 0.845121 0.944798
O O12 0.859852 0.068642 0.750000
O O13 0.917488 0.127354 0.476497
O O14 0.582757 0.352469 0.750000
O O15 0.515368 0.351806 0.034839
O O16 0.564415 0.499883 0.963415
O O17 0.005528 0.629529 0.750000
O O18 0.000000 0.500000 0.500000
O O19 0.549029 0.603318 0.250000
#
# Coordination Sequence:
#
# PCOD9435119 Si02
#       7
#     8   8   8   8   8   8   8
#     4   9  17  30  43  58  85 117 142 167 208 257
#     4   9  17  27  39  55  79 111 141 169 203 244
#     4  10  19  31  47  69  94 121 153 188 227 269
#     4   8  16  30  47  64  87 121 154 180 214 267
#     4   9  15  24  40  61  79  97 131 175 211 245
#     4   9  16  29  48  68  89 116 151 191 230 267
#     4   8  15  27  40  54  76 105 133 168 214 251
#
# _framework density 24.911583
#
# number of rings (size 3 to 8) (size 9 to 14) (size 15 to 20)
#    0.000    3.143    0.000    3.000    0.000    3.429 
#    0.000    4.286    0.000    0.000    0.000    1.000 
#    0.000    4.571    0.000    0.000    0.000    0.000 
#
# Total GULP energy -311738.140455 kJ/mol
# GULP energy per Si atom -5566.752508 kJ/mol
# Density = 2.485488 g / cm^3
# Si number density = 24.911583 Si / 1000 Ang^3
#
#
#
# Elastic Constant Matrix: (Units=GPa)
#
#
# Indices 1 2 3 4 5 6 
#
# 1 247.1139 -4.2803 2.1659 0.0000 0.0000 0.0000
# 2 -4.2803 45.2332 -11.4126 0.0000 0.0000 0.0000
# 3 2.1659 -11.4126 64.1365 0.0000 0.0000 0.0000
# 4 0.0000 0.0000 0.0000 6.3096 0.0000 0.0000
# 5 0.0000 0.0000 0.0000 0.0000 52.6863 0.0000
# 6 0.0000 0.0000 0.0000 0.0000 0.0000 -15.6800
#
#
#
# Elastic Compliance Matrix: (Units=1/GPa)
#
#
# Indices 1 2 3 4 5 6 
#
# 1 0.004054 0.000365 -0.000072 0.000000 0.000000 0.000000
# 2 0.000365 0.023180 0.004112 0.000000 0.000000 0.000000
# 3 -0.000072 0.004112 0.016326 0.000000 0.000000 0.000000
# 4 0.000000 0.000000 0.000000 0.158489 0.000000 0.000000
# 5 0.000000 0.000000 0.000000 0.000000 0.018980 0.000000
# 6 0.000000 0.000000 0.000000 0.000000 0.000000 -0.063775
#
#
# Mechanical properties :
#
#
# Convention : Reuss Voigt Hill
#
# Bulk Modulus (GPa) = 19.09443 36.60328 27.84885
# Shear Modulus (GPa) = 30.13890 33.33053 31.73472
#
# Velocity S-wave (km/s) = 3.48204 3.66177 3.57304
# Velocity P-wave (km/s) = 4.88341 5.70993 5.31277
#
# Compressibility (1/GPa) = 0.05237130
#
# Stress axis : x y z
#
# Youngs Moduli (GPa) = 246.68957 43.14095 61.25226
#
# Poissons Ratio (x) = -0.01577 0.00440
# Poissons Ratio (y) = -0.09015 -0.25189
# Poissons Ratio (z) = 0.01773 -0.17741
#
# Static dielectric constant tensor:
#      x y z
#    x 2.061520 0.000000 0.000000 
#    y 0.000000 1.808420 0.000000 
#    z 0.000000 0.000000 1.935030 
# 
# From -- ./inp_files/8350.got.cif
#   From: 2010.05.17/outbox.cif.g08.bks.cpg/sg57_5_cif.got.tgz:8350.got - 2010.06.03 13:58:18.
