data_PCOD9435500
_publ_section_title
;
Structure prediction by ZEFSAII (Michael W. Deem and Ramdas Pophale) SiO2 
 PCOD9435500
Probable space group: P B C M
;
_chemical_formula_sum "Si O2"
_cell_formula_units_Z 64
_cell_length_a 21.142875
_cell_length_b 19.967957
_cell_length_c 8.519200
_cell_angle_alpha 90.000000
_cell_angle_beta 90.000000
_cell_angle_gamma 90.000000
_cell_volume 3596.636017
_symmetry_space_group_name_H-M "P B C M"
_symmetry_group_IT_number 57
_symmetry_cell_setting 'orthorhombic'
loop_
_space_group_symop_operation_xyz
x,y,z
-x,-y,1/2+z
x,1/2-y,-z
-x,1/2+y,1/2-z
-x,-y,-z
x,y,1/2-z
-x,1/2+y,z
x,1/2-y,1/2+z
loop_
_atom_site_type_symbol
_atom_site_label
_atom_site_fract_x
_atom_site_fract_y
_atom_site_fract_z
Si Si1 0.137669 0.822663 0.560894
Si Si2 0.508766 0.177878 0.438805
Si Si3 0.813700 0.464628 0.941685
Si Si4 0.561131 0.039190 0.060210
Si Si5 0.638082 0.823094 0.938054
Si Si6 0.940277 0.958441 0.062085
Si Si7 0.990086 0.677357 0.437906
Si Si8 0.686455 0.539155 0.559961
O O1 0.158371 0.750000 0.500000
O O2 0.138880 0.820901 0.750000
O O3 0.177188 0.887424 0.507915
O O4 0.063906 0.832666 0.513606
O O5 0.529208 0.250000 0.500000
O O6 0.508481 0.179406 0.250000
O O7 0.551912 0.116069 0.490747
O O8 0.435535 0.166684 0.489569
O O9 0.813137 0.463841 0.750000
O O10 0.875496 0.506411 0.990851
O O11 0.749934 0.501504 0.992887
O O12 0.560710 0.038016 0.250000
O O13 0.624972 0.002950 0.007119
O O14 0.500000 0.000000 0.000000
O O15 0.639434 0.822730 0.750000
O O16 0.657720 0.750000 0.000000
O O17 0.678492 0.885152 0.000589
O O18 0.941354 0.960200 0.250000
O O19 0.948696 0.882809 0.004424
O O20 0.000000 0.000000 0.000000
O O21 0.970522 0.750000 0.500000
O O22 0.988136 0.676189 0.250000
O O23 0.686577 0.540583 0.750000
#
# Coordination Sequence:
#
# PCOD9435500 Si02
#       8
#     8   8   8   8   8   8   8   8
#     4   9  17  32  52  75 104 137 172 214 259 309
#     4   9  18  31  48  74 105 135 168 212 260 306
#     4   9  19  36  54  76 108 143 177 217 264 316
#     4  10  19  32  52  78 104 133 172 215 260 310
#     4  10  19  33  53  77 107 136 173 219 264 314
#     4  11  20  34  55  79 107 139 177 222 269 317
#     4  10  19  33  53  81 110 139 177 221 272 320
#     4  10  20  35  56  78 104 142 181 214 262 317
#
# _framework density 17.794405000000001
#
# number of rings (size 3 to 8) (size 9 to 14) (size 15 to 20)
#    0.000    2.250    2.500    1.125    0.000    1.500 
#    0.000    3.125    0.000    0.000    0.000    0.000 
#    0.000    0.000    0.000    0.000    0.000    0.000 
#
# Total GULP energy -357042.642926 kJ/mol
# GULP energy per Si atom -5578.791296 kJ/mol
# Density = 1.775390 g / cm^3
# Si number density = 17.794405 Si / 1000 Ang^3
#
#
#
# Elastic Constant Matrix: (Units=GPa)
#
#
# Indices 1 2 3 4 5 6 
#
# 1 116.2024 90.1224 20.5081 0.0000 0.0000 0.0000
# 2 90.1224 199.5788 26.9437 0.0000 0.0000 0.0000
# 3 20.5081 26.9437 16.1550 0.0000 0.0000 0.0000
# 4 0.0000 0.0000 0.0000 32.3827 0.0000 0.0000
# 5 0.0000 0.0000 0.0000 0.0000 14.4058 0.0000
# 6 0.0000 0.0000 0.0000 0.0000 0.0000 29.3721
#
#
#
# Elastic Compliance Matrix: (Units=1/GPa)
#
#
# Indices 1 2 3 4 5 6 
#
# 1 0.014296 -0.005170 -0.009527 0.000000 0.000000 0.000000
# 2 -0.005170 0.008336 -0.007340 0.000000 0.000000 0.000000
# 3 -0.009527 -0.007340 0.086236 0.000000 0.000000 0.000000
# 4 0.000000 0.000000 0.000000 0.030881 0.000000 0.000000
# 5 0.000000 0.000000 0.000000 0.000000 0.069417 0.000000
# 6 0.000000 0.000000 0.000000 0.000000 0.000000 0.034046
#
#
# Mechanical properties :
#
#
# Convention : Reuss Voigt Hill
#
# Bulk Modulus (GPa) = 15.43320 67.45384 41.44352
# Shear Modulus (GPa) = 16.18738 28.18960 22.18849
#
# Velocity S-wave (km/s) = 3.01938 3.98450 3.53503
# Velocity P-wave (km/s) = 4.56590 7.69142 6.32477
#
# Compressibility (1/GPa) = 0.06479537
#
# Stress axis : x y z
#
# Youngs Moduli (GPa) = 69.94810 119.96324 11.59608
#
# Poissons Ratio (x) = 0.62016 0.11047
# Poissons Ratio (y) = 0.36160 0.08512
# Poissons Ratio (z) = 0.66637 0.88056
#
# Static dielectric constant tensor:
#      x y z
#    x 1.593710 0.000000 0.000000 
#    y 0.000000 1.608210 0.000000 
#    z 0.000000 0.000000 1.607540 
# 
# From -- ./inp_files/8621.got.cif
#   From: 2010.05.17/outbox.cif.g08.bks.cpg/sg57_5_cif.got.tgz:8621.got - 2010.06.03 13:58:18.
