data_PCOD9435405
_publ_section_title
;
Structure prediction by ZEFSAII (Michael W. Deem and Ramdas Pophale) SiO2 
 PCOD9435405
Probable space group: P B C M
;
_chemical_formula_sum "Si O2"
_cell_formula_units_Z 48
_cell_length_a 9.954678
_cell_length_b 31.540511
_cell_length_c 8.648743
_cell_angle_alpha 90.000000
_cell_angle_beta 90.000000
_cell_angle_gamma 90.000000
_cell_volume 2715.494540
_symmetry_space_group_name_H-M "P B C M"
_symmetry_group_IT_number 57
_symmetry_cell_setting 'orthorhombic'
loop_
_space_group_symop_operation_xyz
x,y,z
-x,-y,1/2+z
x,1/2-y,-z
-x,1/2+y,1/2-z
-x,-y,-z
x,y,1/2-z
-x,1/2+y,z
x,1/2-y,1/2+z
loop_
_atom_site_type_symbol
_atom_site_label
_atom_site_fract_x
_atom_site_fract_y
_atom_site_fract_z
Si Si1 0.214876 0.569127 0.563196
Si Si2 0.302653 0.110839 0.063618
Si Si3 0.806001 0.203111 0.935239
Si Si4 0.409191 0.858825 0.564456
Si Si5 0.015860 0.130701 0.564087
Si Si6 0.356002 0.485266 0.563255
O O1 0.223411 0.572284 0.750000
O O2 0.329062 0.599593 0.493108
O O3 0.247126 0.520999 0.518374
O O4 0.072533 0.589506 0.516701
O O5 0.299913 0.110521 0.250000
O O6 0.436077 0.136329 0.015711
O O7 0.319855 0.062003 0.010467
O O8 0.163647 0.129366 0.003764
O O9 0.802535 0.204028 0.750000
O O10 0.927177 0.171496 0.982716
O O11 0.822701 0.250000 0.000000
O O12 0.670106 0.181044 0.995899
O O13 0.403140 0.857347 0.750000
O O14 0.024353 0.130739 0.750000
O O15 0.500000 0.500000 0.500000
O O16 0.363960 0.484567 0.750000
#
# Coordination Sequence:
#
# PCOD9435405 Si02
#       6
#     8   8   8   8   8   8
#     4   9  18  33  52  74 104 143 186 229 267 310
#     4  10  21  34  50  78 112 144 181 224 268 315
#     4  10  21  39  62  86 107 133 173 216 264 324
#     4  10  19  33  54  80 109 139 176 218 263 315
#     4   9  20  36  53  77 108 143 179 216 268 326
#     4  10  19  32  50  75 107 143 187 233 271 311
#
# _framework density 17.676338000000001
#
# number of rings (size 3 to 8) (size 9 to 14) (size 15 to 20)
#    0.000    2.333    1.667    2.000    0.000    6.000 
#    0.000    0.833    0.000    2.000    0.000    0.000 
#    0.000    0.000    0.000    0.000    0.000    0.000 
#
# Total GULP energy -267771.256519 kJ/mol
# GULP energy per Si atom -5578.567844 kJ/mol
# Density = 1.763611 g / cm^3
# Si number density = 17.676338 Si / 1000 Ang^3
#
#
#
# Elastic Constant Matrix: (Units=GPa)
#
#
# Indices 1 2 3 4 5 6 
#
# 1 158.3413 63.1045 25.8623 0.0000 0.0000 0.0000
# 2 63.1045 113.4306 21.9805 0.0000 0.0000 0.0000
# 3 25.8623 21.9805 14.8328 0.0000 0.0000 0.0000
# 4 0.0000 0.0000 0.0000 23.3190 0.0000 0.0000
# 5 0.0000 0.0000 0.0000 0.0000 31.0210 0.0000
# 6 0.0000 0.0000 0.0000 0.0000 0.0000 14.5742
#
#
#
# Elastic Compliance Matrix: (Units=1/GPa)
#
#
# Indices 1 2 3 4 5 6 
#
# 1 0.009465 -0.002901 -0.012205 0.000000 0.000000 0.000000
# 2 -0.002901 0.013256 -0.014587 0.000000 0.000000 0.000000
# 3 -0.012205 -0.014587 0.110314 0.000000 0.000000 0.000000
# 4 0.000000 0.000000 0.000000 0.042884 0.000000 0.000000
# 5 0.000000 0.000000 0.000000 0.000000 0.032236 0.000000
# 6 0.000000 0.000000 0.000000 0.000000 0.000000 0.068614
#
#
# Mechanical properties :
#
#
# Convention : Reuss Voigt Hill
#
# Bulk Modulus (GPa) = 13.57752 56.49992 35.03872
# Shear Modulus (GPa) = 13.86182 25.49334 19.67758
#
# Velocity S-wave (km/s) = 2.80340 3.80179 3.34011
# Velocity P-wave (km/s) = 4.26340 7.16271 5.89411
#
# Compressibility (1/GPa) = 0.07365113
#
# Stress axis : x y z
#
# Youngs Moduli (GPa) = 105.65408 75.43615 9.06505
#
# Poissons Ratio (x) = 0.21881 0.11063
# Poissons Ratio (y) = 0.30646 0.13223
# Poissons Ratio (z) = 1.28946 1.10037
#
# Static dielectric constant tensor:
#      x y z
#    x 1.588280 0.000000 0.000000 
#    y 0.000000 1.599930 0.000000 
#    z 0.000000 0.000000 1.590840 
# 
# From -- ./inp_files/1978.got.cif
#   From: 2010.05.17/outbox.cif.g08.bks.cpg/sg57_1_cif.got.tgz:1978.got - 2010.06.03 13:58:18.
