data_PCOD9435291
_publ_section_title
;
Structure prediction by ZEFSAII (Michael W. Deem and Ramdas Pophale) SiO2 
 PCOD9435291
Probable space group: P B C M
;
_chemical_formula_sum "Si O2"
_cell_formula_units_Z 64
_cell_length_a 18.245629
_cell_length_b 20.542514
_cell_length_c 7.928959
_cell_angle_alpha 90.000000
_cell_angle_beta 90.000000
_cell_angle_gamma 90.000000
_cell_volume 2971.861759
_symmetry_space_group_name_H-M "P B C M"
_symmetry_group_IT_number 57
_symmetry_cell_setting 'orthorhombic'
loop_
_space_group_symop_operation_xyz
x,y,z
-x,-y,1/2+z
x,1/2-y,-z
-x,1/2+y,1/2-z
-x,-y,-z
x,y,1/2-z
-x,1/2+y,z
x,1/2-y,1/2+z
loop_
_atom_site_type_symbol
_atom_site_label
_atom_site_fract_x
_atom_site_fract_y
_atom_site_fract_z
Si Si1 0.432992 0.587688 0.046481
Si Si2 0.324178 0.495022 0.939120
Si Si3 0.877854 0.676752 0.945009
Si Si4 0.712824 0.656614 0.445726
Si Si5 0.444303 0.181758 0.453689
Si Si6 0.193107 0.931009 0.560537
Si Si7 0.293132 0.675148 0.047043
Si Si8 0.076337 0.466006 0.454670
O O1 0.435216 0.584050 0.250000
O O2 0.507660 0.621057 0.987060
O O3 0.367250 0.637468 0.994874
O O4 0.406429 0.518531 0.975846
O O5 0.305635 0.517197 0.750000
O O6 0.306050 0.419700 0.946615
O O7 0.269920 0.530346 0.066516
O O8 0.896452 0.674457 0.750000
O O9 0.910851 0.608490 0.019059
O O10 0.899732 0.750000 0.000000
O O11 0.789800 0.671133 0.968361
O O12 0.721072 0.677647 0.250000
O O13 0.638054 0.683725 0.524642
O O14 0.481454 0.250000 0.500000
O O15 0.438638 0.176791 0.250000
O O16 0.165476 0.917573 0.750000
O O17 0.220728 0.863272 0.481630
O O18 0.137675 0.982778 0.480397
O O19 0.290579 0.670367 0.250000
O O20 0.294763 0.750000 0.000000
O O21 0.083549 0.462989 0.250000
O O22 0.000000 0.500000 0.500000
#
# Coordination Sequence:
#
# PCOD9435291 Si02
#       8
#     8   8   8   8   8   8   8   8
#     4   9  19  34  50  69 102 147 188 235 293 349
#     4  10  19  31  52  81 108 139 184 237 284 335
#     4  11  23  40  64  92 121 158 198 237 284 342
#     4  10  21  36  55  82 115 148 189 243 294 342
#     4  10  21  36  51  71 103 144 190 240 296 352
#     4   9  18  36  56  78 110 147 185 226 276 339
#     4   9  17  29  49  74 102 138 182 230 280 330
#     4  10  22  40  64  91 119 153 190 228 280 341
#
# _framework density 21.535321
#
# number of rings (size 3 to 8) (size 9 to 14) (size 15 to 20)
#    0.000    2.250    1.250    2.250    0.000    6.500 
#    0.000    0.625    0.000    3.000    0.000    0.000 
#    0.000    0.000    0.000    0.000    0.000    0.000 
#
# Total GULP energy -356699.109270 kJ/mol
# GULP energy per Si atom -5573.423582 kJ/mol
# Density = 2.148631 g / cm^3
# Si number density = 21.535321 Si / 1000 Ang^3
#
#
#
# Elastic Constant Matrix: (Units=GPa)
#
#
# Indices 1 2 3 4 5 6 
#
# 1 78.9940 42.7451 -4.5892 0.0000 0.0000 0.0000
# 2 42.7451 130.8318 12.0591 0.0000 0.0000 0.0000
# 3 -4.5892 12.0591 25.6461 0.0000 0.0000 0.0000
# 4 0.0000 0.0000 0.0000 22.3977 0.0000 0.0000
# 5 0.0000 0.0000 0.0000 0.0000 8.1319 0.0000
# 6 0.0000 0.0000 0.0000 0.0000 0.0000 2.5481
#
#
#
# Elastic Compliance Matrix: (Units=1/GPa)
#
#
# Indices 1 2 3 4 5 6 
#
# 1 0.016113 -0.005781 0.005601 0.000000 0.000000 0.000000
# 2 -0.005781 0.010064 -0.005766 0.000000 0.000000 0.000000
# 3 0.005601 -0.005766 0.042706 0.000000 0.000000 0.000000
# 4 0.000000 0.000000 0.000000 0.044647 0.000000 0.000000
# 5 0.000000 0.000000 0.000000 0.000000 0.122973 0.000000
# 6 0.000000 0.000000 0.000000 0.000000 0.000000 0.392449
#
#
# Mechanical properties :
#
#
# Convention : Reuss Voigt Hill
#
# Bulk Modulus (GPa) = 17.54667 37.32243 27.43455
# Shear Modulus (GPa) = 7.57760 18.96600 13.27180
#
# Velocity S-wave (km/s) = 1.87785 2.97087 2.48519
# Velocity P-wave (km/s) = 3.58710 5.39782 4.58278
#
# Compressibility (1/GPa) = 0.05699086
#
# Stress axis : x y z
#
# Youngs Moduli (GPa) = 62.06332 99.36884 23.41593
#
# Poissons Ratio (x) = 0.57441 -0.13116
# Poissons Ratio (y) = 0.35876 0.13502
# Poissons Ratio (z) = -0.34764 0.57300
#
# Static dielectric constant tensor:
#      x y z
#    x 1.796800 0.000000 0.000000 
#    y 0.000000 1.861530 0.000000 
#    z 0.000000 0.000000 1.798460 
# 
# From -- ./inp_files/7234.got.cif
#   From: 2010.05.17/outbox.cif.g08.bks.cpg/sg57_4_cif.got.tgz:7234.got - 2010.06.03 13:58:18.
