data_PCOD9435468
_publ_section_title
;
Structure prediction by ZEFSAII (Michael W. Deem and Ramdas Pophale) SiO2 
 PCOD9435468
Probable space group: P B C M
;
_chemical_formula_sum "Si O2"
_cell_formula_units_Z 56
_cell_length_a 14.337563
_cell_length_b 23.905042
_cell_length_c 8.481278
_cell_angle_alpha 90.000000
_cell_angle_beta 90.000000
_cell_angle_gamma 90.000000
_cell_volume 2906.873609
_symmetry_space_group_name_H-M "P B C M"
_symmetry_group_IT_number 57
_symmetry_cell_setting 'orthorhombic'
loop_
_space_group_symop_operation_xyz
x,y,z
-x,-y,1/2+z
x,1/2-y,-z
-x,1/2+y,1/2-z
-x,-y,-z
x,y,1/2-z
-x,1/2+y,z
x,1/2-y,1/2+z
loop_
_atom_site_type_symbol
_atom_site_label
_atom_site_fract_x
_atom_site_fract_y
_atom_site_fract_z
Si Si1 0.164798 0.902554 0.065045
Si Si2 0.968297 0.560452 0.561606
Si Si3 0.368528 0.186397 0.440858
Si Si4 0.536407 0.391975 0.935049
Si Si5 0.310344 0.688349 0.934733
Si Si6 0.234389 0.406706 0.562189
Si Si7 0.675000 0.483274 0.562100
O O1 0.167775 0.919512 0.250000
O O2 0.211430 0.842252 0.052094
O O3 0.057706 0.902387 0.014733
O O4 0.232994 0.946102 0.977554
O O5 0.960453 0.558832 0.750000
O O6 0.868971 0.579499 0.497008
O O7 0.000000 0.500000 0.500000
O O8 0.377833 0.250000 0.500000
O O9 0.374998 0.188682 0.250000
O O10 0.448399 0.142837 0.499157
O O11 0.273460 0.154121 0.486340
O O12 0.517996 0.401891 0.750000
O O13 0.583662 0.449293 0.000227
O O14 0.619617 0.347993 0.960880
O O15 0.338616 0.686432 0.750000
O O16 0.308596 0.750000 0.000000
O O17 0.233640 0.408395 0.750000
O O18 0.304628 0.455793 0.506593
O O19 0.666767 0.487340 0.750000
#
# Coordination Sequence:
#
# PCOD9435468 Si02
#       7
#     8   8   8   8   8   8   8
#     4   9  19  34  52  76 110 144 178 221 274 332
#     4  11  21  35  58  85 111 145 185 228 278 338
#     4  10  23  42  61  80 109 150 195 240 282 328
#     4   9  19  36  57  83 112 144 185 232 281 336
#     4  10  19  32  51  78 109 144 181 223 275 331
#     4  11  23  38  56  82 116 151 187 232 284 336
#     4  10  19  32  55  86 116 144 179 226 280 337
#
# _framework density 19.264683000000002
#
# number of rings (size 3 to 8) (size 9 to 14) (size 15 to 20)
#    0.000    2.000    1.429    2.143    0.000    5.143 
#    0.000    0.714    0.000    3.429    0.000    0.000 
#    0.000    0.000    0.000    0.000    0.000    0.000 
#
# Total GULP energy -312273.251610 kJ/mol
# GULP energy per Si atom -5576.308064 kJ/mol
# Density = 1.922084 g / cm^3
# Si number density = 19.264683 Si / 1000 Ang^3
#
#
#
# Elastic Constant Matrix: (Units=GPa)
#
#
# Indices 1 2 3 4 5 6 
#
# 1 118.7799 53.8521 13.7572 0.0000 0.0000 0.0000
# 2 53.8521 69.9392 2.6162 0.0000 0.0000 0.0000
# 3 13.7572 2.6162 16.2563 0.0000 0.0000 0.0000
# 4 0.0000 0.0000 0.0000 22.3580 0.0000 0.0000
# 5 0.0000 0.0000 0.0000 0.0000 18.6150 0.0000
# 6 0.0000 0.0000 0.0000 0.0000 0.0000 12.2062
#
#
#
# Elastic Compliance Matrix: (Units=1/GPa)
#
#
# Indices 1 2 3 4 5 6 
#
# 1 0.014539 -0.010800 -0.010566 0.000000 0.000000 0.000000
# 2 -0.010800 0.022407 0.005533 0.000000 0.000000 0.000000
# 3 -0.010566 0.005533 0.069566 0.000000 0.000000 0.000000
# 4 0.000000 0.000000 0.000000 0.044727 0.000000 0.000000
# 5 0.000000 0.000000 0.000000 0.000000 0.053720 0.000000
# 6 0.000000 0.000000 0.000000 0.000000 0.000000 0.081925
#
#
# Mechanical properties :
#
#
# Convention : Reuss Voigt Hill
#
# Bulk Modulus (GPa) = 13.36058 38.38071 25.87064
# Shear Modulus (GPa) = 14.55619 19.61918 17.08769
#
# Velocity S-wave (km/s) = 2.75178 3.19470 2.98148
# Velocity P-wave (km/s) = 4.12877 5.79433 5.03095
#
# Compressibility (1/GPa) = 0.07484708
#
# Stress axis : x y z
#
# Youngs Moduli (GPa) = 68.78088 44.62966 14.37493
#
# Poissons Ratio (x) = 0.48198 0.15188
# Poissons Ratio (y) = 0.74280 -0.07954
# Poissons Ratio (z) = 0.72673 -0.24695
#
# Static dielectric constant tensor:
#      x y z
#    x 1.670390 0.000000 0.000000 
#    y 0.000000 1.681280 0.000000 
#    z 0.000000 0.000000 1.677940 
# 
# From -- ./inp_files/5261.got.cif
#   From: 2010.05.17/outbox.cif.g08.bks.cpg/sg57_3_cif.got.tgz:5261.got - 2010.06.03 13:58:18.
