data_PCOD9435296
_publ_section_title
;
Structure prediction by ZEFSAII (Michael W. Deem and Ramdas Pophale) SiO2 
 PCOD9435296
Probable space group: P B C M
;
_chemical_formula_sum "Si O2"
_cell_formula_units_Z 56
_cell_length_a 23.209096
_cell_length_b 14.815226
_cell_length_c 8.479660
_cell_angle_alpha 90.000000
_cell_angle_beta 90.000000
_cell_angle_gamma 90.000000
_cell_volume 2915.714153
_symmetry_space_group_name_H-M "P B C M"
_symmetry_group_IT_number 57
_symmetry_cell_setting 'orthorhombic'
loop_
_space_group_symop_operation_xyz
x,y,z
-x,-y,1/2+z
x,1/2-y,-z
-x,1/2+y,1/2-z
-x,-y,-z
x,y,1/2-z
-x,1/2+y,z
x,1/2-y,1/2+z
loop_
_atom_site_type_symbol
_atom_site_label
_atom_site_fract_x
_atom_site_fract_y
_atom_site_fract_z
Si Si1 0.101549 0.652036 0.561633
Si Si2 0.517772 0.901835 0.439786
Si Si3 0.753004 0.647939 0.938623
Si Si4 0.639485 0.958337 0.441141
Si Si5 0.972210 0.848370 0.939090
Si Si6 0.604494 0.155961 0.560730
Si Si7 0.861970 0.961899 0.940557
O O1 0.119581 0.750000 0.500000
O O2 0.101880 0.654767 0.750000
O O3 0.138937 0.566410 0.508485
O O4 0.035630 0.635560 0.507816
O O5 0.517714 0.897307 0.250000
O O6 0.584371 0.896283 0.490999
O O7 0.462800 0.845033 0.495360
O O8 0.500000 0.000000 0.500000
O O9 0.751366 0.650741 0.750000
O O10 0.698044 0.589346 0.994102
O O11 0.750910 0.750000 0.000000
O O12 0.810919 0.597975 0.992185
O O13 0.639007 0.962888 0.250000
O O14 0.631397 0.061030 0.502109
O O15 0.976531 0.846713 0.750000
O O16 0.923865 0.920065 0.986370
O O17 0.953406 0.750000 0.000000
O O18 0.630894 0.250000 0.500000
O O19 0.606064 0.155346 0.750000
O O20 0.858869 0.958755 0.750000
#
# Coordination Sequence:
#
# PCOD9435296 Si02
#       7
#     8   8   8   8   8   8   8
#     4  10  20  35  55  81 111 142 176 218 268 322
#     4   8  15  29  49  73 103 136 173 215 261 310
#     4  11  24  40  60  82 106 139 179 222 269 317
#     4   9  19  37  56  77 107 143 183 226 268 317
#     4  10  19  32  52  80 111 143 178 218 266 319
#     4  10  19  31  52  82 112 145 179 218 269 323
#     4  10  22  38  56  79 109 144 183 225 267 312
#
# _framework density 19.206271999999998
#
# number of rings (size 3 to 8) (size 9 to 14) (size 15 to 20)
#    0.000    2.286    0.000    3.429    0.000    5.714 
#    0.000    0.714    0.000    1.714    0.000    0.000 
#    0.000    0.000    0.000    0.000    0.000    0.000 
#
# Total GULP energy -312212.390789 kJ/mol
# GULP energy per Si atom -5575.221264 kJ/mol
# Density = 1.916256 g / cm^3
# Si number density = 19.206272 Si / 1000 Ang^3
#
#
#
# Elastic Constant Matrix: (Units=GPa)
#
#
# Indices 1 2 3 4 5 6 
#
# 1 45.7497 64.2571 13.0815 0.0000 0.0000 0.0000
# 2 64.2571 167.6162 29.0012 0.0000 0.0000 0.0000
# 3 13.0815 29.0012 24.7190 0.0000 0.0000 0.0000
# 4 0.0000 0.0000 0.0000 21.6990 0.0000 0.0000
# 5 0.0000 0.0000 0.0000 0.0000 19.3076 0.0000
# 6 0.0000 0.0000 0.0000 0.0000 0.0000 26.7586
#
#
#
# Elastic Compliance Matrix: (Units=1/GPa)
#
#
# Indices 1 2 3 4 5 6 
#
# 1 0.047800 -0.017500 -0.004764 0.000000 0.000000 0.000000
# 2 -0.017500 0.013893 -0.007038 0.000000 0.000000 0.000000
# 3 -0.004764 -0.007038 0.051233 0.000000 0.000000 0.000000
# 4 0.000000 0.000000 0.000000 0.046085 0.000000 0.000000
# 5 0.000000 0.000000 0.000000 0.000000 0.051793 0.000000
# 6 0.000000 0.000000 0.000000 0.000000 0.000000 0.037371
#
#
# Mechanical properties :
#
#
# Convention : Reuss Voigt Hill
#
# Bulk Modulus (GPa) = 18.40914 50.08492 34.24703
# Shear Modulus (GPa) = 15.38996 22.33606 18.86301
#
# Velocity S-wave (km/s) = 2.83379 3.41391 3.13729
# Velocity P-wave (km/s) = 4.50699 6.45552 5.56717
#
# Compressibility (1/GPa) = 0.05432084
#
# Stress axis : x y z
#
# Youngs Moduli (GPa) = 20.92044 71.98070 19.51862
#
# Poissons Ratio (x) = 1.25968 0.09299
# Poissons Ratio (y) = 0.36611 0.13737
# Poissons Ratio (z) = 0.09967 0.50660
#
# Static dielectric constant tensor:
#      x y z
#    x 1.680750 0.000000 0.000000 
#    y 0.000000 1.677950 0.000000 
#    z 0.000000 0.000000 1.654550 
# 
# From -- ./inp_files/8125.got.cif
#   From: 2010.05.17/outbox.cif.g08.bks.cpg/sg57_5_cif.got.tgz:8125.got - 2010.06.03 13:58:18.
