data_PCOD9435718
_publ_section_title
;
Structure prediction by ZEFSAII (Michael W. Deem and Ramdas Pophale) SiO2 
 PCOD9435718
Probable space group: P B C M
;
_chemical_formula_sum "Si O2"
_cell_formula_units_Z 56
_cell_length_a 14.902696
_cell_length_b 23.000775
_cell_length_c 9.189201
_cell_angle_alpha 90.000000
_cell_angle_beta 90.000000
_cell_angle_gamma 90.000000
_cell_volume 3149.815118
_symmetry_space_group_name_H-M "P B C M"
_symmetry_group_IT_number 57
_symmetry_cell_setting 'orthorhombic'
loop_
_space_group_symop_operation_xyz
x,y,z
-x,-y,1/2+z
x,1/2-y,-z
-x,1/2+y,1/2-z
-x,-y,-z
x,y,1/2-z
-x,1/2+y,z
x,1/2-y,1/2+z
loop_
_atom_site_type_symbol
_atom_site_label
_atom_site_fract_x
_atom_site_fract_y
_atom_site_fract_z
Si Si1 0.573117 0.190862 0.923854
Si Si2 0.190600 0.309293 0.574989
Si Si3 0.407779 0.016824 0.423286
Si Si4 0.715504 0.410673 0.423754
Si Si5 0.091307 0.428542 0.923168
Si Si6 0.117525 0.950176 0.921919
Si Si7 0.390451 0.347832 0.923605
O O1 0.566928 0.197332 0.750000
O O2 0.644020 0.139803 0.956243
O O3 0.603278 0.250000 0.000000
O O4 0.475485 0.175415 0.988385
O O5 0.158729 0.250000 0.500000
O O6 0.183253 0.304077 0.750000
O O7 0.137550 0.368054 0.532175
O O8 0.295762 0.318772 0.538919
O O9 0.420221 0.010505 0.250000
O O10 0.382625 0.083253 0.452380
O O11 0.500000 0.000000 0.500000
O O12 0.331805 0.971237 0.466941
O O13 0.730822 0.411013 0.250000
O O14 0.809126 0.408346 0.506533
O O15 0.108658 0.436302 0.750000
O O16 0.983989 0.427848 0.946192
O O17 0.125083 0.485988 0.005503
O O18 0.131873 0.954841 0.750000
O O19 0.406183 0.339949 0.750000
#
# Coordination Sequence:
#
# PCOD9435718 Si02
#       7
#     8   8   8   8   8   8   8
#     4  11  23  38  55  74 103 144 186 225 267 316
#     4  10  21  37  56  79 110 148 184 223 272 327
#     4  10  19  33  53  79 109 141 177 219 270 320
#     4  10  21  37  55  78 111 147 177 217 275 326
#     4   9  19  38  59  81 114 146 174 219 281 334
#     4  10  20  34  59  89 110 138 181 227 272 326
#     4  10  20  34  55  80 108 142 179 220 269 321
#
# _framework density 17.77882
#
# number of rings (size 3 to 8) (size 9 to 14) (size 15 to 20)
#    0.000    2.000    1.429    2.143    0.000    6.857 
#    0.000    2.143    0.000    3.429    0.000    0.000 
#    0.000    0.000    0.000    0.000    0.000    0.000 
#
# Total GULP energy -312666.962047 kJ/mol
# GULP energy per Si atom -5583.338608 kJ/mol
# Density = 1.773835 g / cm^3
# Si number density = 17.778820 Si / 1000 Ang^3
#
#
#
# Elastic Constant Matrix: (Units=GPa)
#
#
# Indices 1 2 3 4 5 6 
#
# 1 96.0164 52.0683 48.7126 0.0000 0.0000 0.0000
# 2 52.0683 102.2713 45.8636 0.0000 0.0000 0.0000
# 3 48.7126 45.8636 35.8838 0.0000 0.0000 0.0000
# 4 0.0000 0.0000 0.0000 30.1143 0.0000 0.0000
# 5 0.0000 0.0000 0.0000 0.0000 28.8484 0.0000
# 6 0.0000 0.0000 0.0000 0.0000 0.0000 18.4767
#
#
#
# Elastic Compliance Matrix: (Units=1/GPa)
#
#
# Indices 1 2 3 4 5 6 
#
# 1 0.036352 0.008487 -0.060196 0.000000 0.000000 0.000000
# 2 0.008487 0.024890 -0.043334 0.000000 0.000000 0.000000
# 3 -0.060196 -0.043334 0.164969 0.000000 0.000000 0.000000
# 4 0.000000 0.000000 0.000000 0.033207 0.000000 0.000000
# 5 0.000000 0.000000 0.000000 0.000000 0.034664 0.000000
# 6 0.000000 0.000000 0.000000 0.000000 0.000000 0.054122
#
#
# Mechanical properties :
#
#
# Convention : Reuss Voigt Hill
#
# Bulk Modulus (GPa) = 27.68021 58.60670 43.14346
# Shear Modulus (GPa) = 9.08546 21.32301 15.20424
#
# Velocity S-wave (km/s) = 2.26304 3.46692 2.92753
# Velocity P-wave (km/s) = 4.73619 7.00442 5.97886
#
# Compressibility (1/GPa) = 0.03612689
#
# Stress axis : x y z
#
# Youngs Moduli (GPa) = 27.50904 40.17707 6.06174
#
# Poissons Ratio (x) = -0.34100 0.36489
# Poissons Ratio (y) = -0.23348 0.26268
# Poissons Ratio (z) = 1.65592 1.74102
#
# Static dielectric constant tensor:
#      x y z
#    x 1.605090 0.000000 0.000000 
#    y 0.000000 1.577180 0.000000 
#    z 0.000000 0.000000 1.591560 
# 
# From -- ./inp_files/5260.got.cif
#   From: 2010.05.17/outbox.cif.g08.bks.cpg/sg57_3_cif.got.tgz:5260.got - 2010.06.03 13:58:18.
