data_PCOD9435105
_publ_section_title
;
Structure prediction by ZEFSAII (Michael W. Deem and Ramdas Pophale) SiO2 
 PCOD9435105
Probable space group: P B C M
;
_chemical_formula_sum "Si O2"
_cell_formula_units_Z 64
_cell_length_a 22.105062
_cell_length_b 14.884828
_cell_length_c 9.151057
_cell_angle_alpha 90.000000
_cell_angle_beta 90.000000
_cell_angle_gamma 90.000000
_cell_volume 3010.972704
_symmetry_space_group_name_H-M "P B C M"
_symmetry_group_IT_number 57
_symmetry_cell_setting 'orthorhombic'
loop_
_space_group_symop_operation_xyz
x,y,z
-x,-y,1/2+z
x,1/2-y,-z
-x,1/2+y,1/2-z
-x,-y,-z
x,y,1/2-z
-x,1/2+y,z
x,1/2-y,1/2+z
loop_
_atom_site_type_symbol
_atom_site_label
_atom_site_fract_x
_atom_site_fract_y
_atom_site_fract_z
Si Si1 0.702847 0.652573 0.074803
Si Si2 0.177588 0.607687 0.086478
Si Si3 0.823200 0.603708 0.912608
Si Si4 0.060979 0.890099 0.415724
Si Si5 0.441859 0.651162 0.426501
Si Si6 0.427923 0.348419 0.925923
Si Si7 0.059745 0.110372 0.083909
Si Si8 0.311612 0.847362 0.926793
O O1 0.707858 0.657945 0.250000
O O2 0.637302 0.609153 0.036937
O O3 0.700838 0.750000 0.000000
O O4 0.762683 0.610582 0.007220
O O5 0.174375 0.648188 0.250000
O O6 0.165175 0.502118 0.102197
O O7 0.246356 0.614356 0.029432
O O8 0.124538 0.641665 0.982699
O O9 0.814063 0.642264 0.750000
O O10 0.882234 0.641384 0.992068
O O11 0.053818 0.859534 0.250000
O O12 0.003520 0.863041 0.511753
O O13 0.060843 0.000229 0.413676
O O14 0.442140 0.750000 0.500000
O O15 0.441649 0.660715 0.250000
O O16 0.507097 0.608912 0.466779
O O17 0.376712 0.608865 0.467125
O O18 0.427619 0.337515 0.750000
O O19 0.428133 0.250000 0.000000
O O20 0.064034 0.141428 0.250000
O O21 0.310552 0.842661 0.750000
O O22 0.313220 0.750000 0.000000
#
# Coordination Sequence:
#
# PCOD9435105 Si02
#       8
#     8   8   8   8   8   8   8   8
#     4  10  19  31  47  68  93 120 151 187 229 275
#     4   9  18  31  46  66  93 124 155 187 226 272
#     4  10  19  31  47  67  92 122 155 189 225 268
#     4   9  16  26  43  67  91 116 149 188 227 267
#     4   8  13  23  40  62  86 112 145 185 226 265
#     4   8  14  24  40  62  86 112 144 184 226 266
#     4   9  16  27  44  66  91 117 147 186 229 270
#     4   9  17  29  46  68  93 121 153 189 229 272
#
# _framework density 21.255590000000002
#
# number of rings (size 3 to 8) (size 9 to 14) (size 15 to 20)
#    0.000    3.000    0.000    1.500    0.000    4.500 
#    0.000    0.000    0.000    1.500    0.000    3.500 
#    0.000    0.000    0.000    0.000    0.000    1.250 
#
# Total GULP energy -356384.765562 kJ/mol
# GULP energy per Si atom -5568.511962 kJ/mol
# Density = 2.120721 g / cm^3
# Si number density = 21.255590 Si / 1000 Ang^3
#
#
#
# Elastic Constant Matrix: (Units=GPa)
#
#
# Indices 1 2 3 4 5 6 
#
# 1 227.5322 1.6436 80.9798 0.0000 0.0000 0.0000
# 2 1.6436 30.7246 8.0378 0.0000 0.0000 0.0000
# 3 80.9798 8.0378 84.0602 0.0000 0.0000 0.0000
# 4 0.0000 0.0000 0.0000 6.8583 0.0000 0.0000
# 5 0.0000 0.0000 0.0000 0.0000 226.0769 0.0000
# 6 0.0000 0.0000 0.0000 0.0000 0.0000 8.8321
#
#
#
# Elastic Compliance Matrix: (Units=1/GPa)
#
#
# Indices 1 2 3 4 5 6 
#
# 1 0.006744 0.001373 -0.006628 0.000000 0.000000 0.000000
# 2 0.001373 0.033662 -0.004542 0.000000 0.000000 0.000000
# 3 -0.006628 -0.004542 0.018716 0.000000 0.000000 0.000000
# 4 0.000000 0.000000 0.000000 0.145808 0.000000 0.000000
# 5 0.000000 0.000000 0.000000 0.000000 0.004423 0.000000
# 6 0.000000 0.000000 0.000000 0.000000 0.000000 0.113223
#
#
# Mechanical properties :
#
#
# Convention : Reuss Voigt Hill
#
# Bulk Modulus (GPa) = 25.29819 58.18215 41.74017
# Shear Modulus (GPa) = 14.07081 65.13052 39.60066
#
# Velocity S-wave (km/s) = 2.57569 5.54149 4.32101
# Velocity P-wave (km/s) = 4.55778 8.26899 6.67643
#
# Compressibility (1/GPa) = 0.03952852
#
# Stress axis : x y z
#
# Youngs Moduli (GPa) = 148.27803 29.70715 53.43064
#
# Poissons Ratio (x) = -0.04079 0.35415
# Poissons Ratio (y) = -0.20362 0.24266
# Poissons Ratio (z) = 0.98282 0.13492
#
# Static dielectric constant tensor:
#      x y z
#    x 1.830890 0.000000 0.000000 
#    y 0.000000 1.784660 0.000000 
#    z 0.000000 0.000000 1.735360 
# 
# From -- ./inp_files/8730.got.cif
#   From: 2010.05.17/outbox.cif.g08.bks.cpg/sg57_5_cif.got.tgz:8730.got - 2010.06.03 13:58:18.
