data_PCOD9435188
_publ_section_title
;
Structure prediction by ZEFSAII (Michael W. Deem and Ramdas Pophale) SiO2 
 PCOD9435188
Probable space group: P B C M
;
_chemical_formula_sum "Si O2"
_cell_formula_units_Z 64
_cell_length_a 15.990886
_cell_length_b 25.012248
_cell_length_c 8.478993
_cell_angle_alpha 90.000000
_cell_angle_beta 90.000000
_cell_angle_gamma 90.000000
_cell_volume 3391.325926
_symmetry_space_group_name_H-M "P B C M"
_symmetry_group_IT_number 57
_symmetry_cell_setting 'orthorhombic'
loop_
_space_group_symop_operation_xyz
x,y,z
-x,-y,1/2+z
x,1/2-y,-z
-x,1/2+y,1/2-z
-x,-y,-z
x,y,1/2-z
-x,1/2+y,z
x,1/2-y,1/2+z
loop_
_atom_site_type_symbol
_atom_site_label
_atom_site_fract_x
_atom_site_fract_y
_atom_site_fract_z
Si Si1 0.423109 0.691746 0.561598
Si Si2 0.224234 0.380905 0.058784
Si Si3 0.118630 0.810134 0.059565
Si Si4 0.728452 0.116670 0.939884
Si Si5 0.251521 0.001479 0.930498
Si Si6 0.596502 0.846857 0.928354
Si Si7 0.932194 0.810256 0.059630
Si Si8 0.578655 0.528645 0.070426
O O1 0.395039 0.750000 0.500000
O O2 0.419684 0.692246 0.750000
O O3 0.359277 0.644376 0.506122
O O4 0.519765 0.682985 0.511638
O O5 0.227387 0.382970 0.250000
O O6 0.213848 0.442765 0.002268
O O7 0.144201 0.347048 0.006461
O O8 0.310785 0.352921 0.003105
O O9 0.120338 0.809885 0.250000
O O10 0.194971 0.846360 0.004228
O O11 0.025391 0.828509 0.010259
O O12 0.129253 0.750000 0.000000
O O13 0.725611 0.117391 0.750000
O O14 0.750852 0.056325 0.989391
O O15 0.224482 0.995769 0.750000
O O16 0.348434 0.016502 0.948209
O O17 0.605371 0.826055 0.750000
O O18 0.566324 0.908254 0.922694
O O19 0.930651 0.809774 0.250000
O O20 0.920969 0.750000 0.000000
O O21 0.599281 0.510447 0.250000
O O22 0.500000 0.500000 0.000000
#
# Coordination Sequence:
#
# PCOD9435188 Si02
#       8
#     8   8   8   8   8   8   8   8
#     4  11  23  37  53  74 103 138 175 217 264 315
#     4   9  19  36  55  77 108 144 178 216 263 311
#     4   9  18  34  56  81 107 136 172 216 266 318
#     4  10  21  36  54  77 106 140 175 216 268 317
#     4  10  20  33  51  74 102 139 181 220 259 309
#     4  10  21  35  51  73 101 134 171 210 254 305
#     4   9  18  34  57  82 107 135 170 213 261 315
#     4  10  19  31  49  72  98 130 170 214 257 302
#
# _framework density 18.871675
#
# number of rings (size 3 to 8) (size 9 to 14) (size 15 to 20)
#    0.000    2.250    0.000    2.625    0.000    6.500 
#    0.000    1.875    0.000    0.000    0.000    0.000 
#    0.000    0.000    0.000    0.000    0.000    0.000 
#
# Total GULP energy -356524.142024 kJ/mol
# GULP energy per Si atom -5570.689719 kJ/mol
# Density = 1.882872 g / cm^3
# Si number density = 18.871675 Si / 1000 Ang^3
#
#
#
# Elastic Constant Matrix: (Units=GPa)
#
#
# Indices 1 2 3 4 5 6 
#
# 1 96.9356 67.5051 17.7374 0.0000 0.0000 0.0000
# 2 67.5051 86.0664 14.0960 0.0000 0.0000 0.0000
# 3 17.7374 14.0960 29.0903 0.0000 0.0000 0.0000
# 4 0.0000 0.0000 0.0000 27.5417 0.0000 0.0000
# 5 0.0000 0.0000 0.0000 0.0000 9.8539 0.0000
# 6 0.0000 0.0000 0.0000 0.0000 0.0000 24.2739
#
#
#
# Elastic Compliance Matrix: (Units=1/GPa)
#
#
# Indices 1 2 3 4 5 6 
#
# 1 0.023628 -0.017567 -0.005895 0.000000 0.000000 0.000000
# 2 -0.017567 0.025681 -0.001733 0.000000 0.000000 0.000000
# 3 -0.005895 -0.001733 0.038810 0.000000 0.000000 0.000000
# 4 0.000000 0.000000 0.000000 0.036309 0.000000 0.000000
# 5 0.000000 0.000000 0.000000 0.000000 0.101483 0.000000
# 6 0.000000 0.000000 0.000000 0.000000 0.000000 0.041197
#
#
# Mechanical properties :
#
#
# Convention : Reuss Voigt Hill
#
# Bulk Modulus (GPa) = 26.50418 45.64104 36.07261
# Shear Modulus (GPa) = 15.14817 19.85083 17.49950
#
# Velocity S-wave (km/s) = 2.83626 3.24680 3.04845
# Velocity P-wave (km/s) = 4.98003 6.18814 5.61666
#
# Compressibility (1/GPa) = 0.03772989
#
# Stress axis : x y z
#
# Youngs Moduli (GPa) = 42.32196 38.93881 25.76681
#
# Poissons Ratio (x) = 0.68405 0.15189
# Poissons Ratio (y) = 0.74348 0.04465
# Poissons Ratio (z) = 0.24948 0.06747
#
# Static dielectric constant tensor:
#      x y z
#    x 1.663980 0.000000 0.000000 
#    y 0.000000 1.707700 0.000000 
#    z 0.000000 0.000000 1.167730 
# 
# From -- ./inp_files/5695.got.cif
#   From: 2010.05.17/outbox.cif.g08.bks.cpg/sg57_3_cif.got.tgz:5695.got - 2010.06.03 13:58:18.
