data_PCOD9435642
_publ_section_title
;
Structure prediction by ZEFSAII (Michael W. Deem and Ramdas Pophale) SiO2 
 PCOD9435642
Probable space group: P B C M
;
_chemical_formula_sum "Si O2"
_cell_formula_units_Z 64
_cell_length_a 15.308797
_cell_length_b 30.458196
_cell_length_c 8.652214
_cell_angle_alpha 90.000000
_cell_angle_beta 90.000000
_cell_angle_gamma 90.000000
_cell_volume 4034.339977
_symmetry_space_group_name_H-M "P B C M"
_symmetry_group_IT_number 57
_symmetry_cell_setting 'orthorhombic'
loop_
_space_group_symop_operation_xyz
x,y,z
-x,-y,1/2+z
x,1/2-y,-z
-x,1/2+y,1/2-z
-x,-y,-z
x,y,1/2-z
-x,1/2+y,z
x,1/2-y,1/2+z
loop_
_atom_site_type_symbol
_atom_site_label
_atom_site_fract_x
_atom_site_fract_y
_atom_site_fract_z
Si Si1 0.681686 0.040922 0.935473
Si Si2 0.205446 0.117920 0.064643
Si Si3 0.709377 0.703759 0.565842
Si Si4 0.948823 0.935890 0.434760
Si Si5 0.874991 0.032606 0.065186
Si Si6 0.367260 0.443669 0.562379
Si Si7 0.457484 0.892582 0.563113
Si Si8 0.486923 0.296775 0.564341
O O1 0.681457 0.041158 0.750000
O O2 0.640109 0.994180 0.988820
O O3 0.780865 0.042497 0.994537
O O4 0.623975 0.080789 0.997796
O O5 0.207815 0.121077 0.250000
O O6 0.280475 0.082911 0.015996
O O7 0.231827 0.163838 0.990361
O O8 0.112343 0.100812 0.008355
O O9 0.742253 0.750000 0.500000
O O10 0.703463 0.705419 0.750000
O O11 0.612106 0.697688 0.496416
O O12 0.950555 0.932134 0.250000
O O13 0.046740 0.937680 0.499754
O O14 0.903441 0.982675 0.475232
O O15 0.871496 0.036095 0.250000
O O16 0.368851 0.443830 0.750000
O O17 0.453890 0.417818 0.511250
O O18 0.455554 0.894167 0.750000
O O19 0.462750 0.841259 0.518464
O O20 0.519738 0.250000 0.500000
O O21 0.484487 0.294466 0.750000
#
# Coordination Sequence:
#
# PCOD9435642 Si02
#       8
#     8   8   8   8   8   8   8   8
#     4  11  21  33  50  73 100 136 176 218 255 295
#     4  11  19  33  53  74 103 137 172 209 254 305
#     4  11  21  33  50  74 102 133 171 211 256 306
#     4  10  20  33  51  76 101 129 168 211 252 299
#     4  10  20  34  51  72  99 134 170 209 254 300
#     4   9  18  32  48  68 100 138 173 206 247 294
#     4  10  20  35  50  69  99 138 173 209 256 307
#     4  10  19  33  52  72  98 131 168 212 261 305
#
# _framework density 15.863809
#
# number of rings (size 3 to 8) (size 9 to 14) (size 15 to 20)
#    0.000    1.750    2.500    4.125    0.000    2.000 
#    0.000    0.625    0.000    0.000    0.000    0.875 
#    0.000    2.000    0.000    0.000    0.000    0.000 
#
# Total GULP energy -357269.063752 kJ/mol
# GULP energy per Si atom -5582.329121 kJ/mol
# Density = 1.582770 g / cm^3
# Si number density = 15.863809 Si / 1000 Ang^3
#
#
#
# Elastic Constant Matrix: (Units=GPa)
#
#
# Indices 1 2 3 4 5 6 
#
# 1 95.1113 66.1602 28.4562 0.0000 0.0000 0.0000
# 2 66.1602 142.0700 46.5450 0.0000 0.0000 0.0000
# 3 28.4562 46.5450 48.0222 0.0000 0.0000 0.0000
# 4 0.0000 0.0000 0.0000 24.0903 0.0000 0.0000
# 5 0.0000 0.0000 0.0000 0.0000 24.6839 0.0000
# 6 0.0000 0.0000 0.0000 0.0000 0.0000 18.8134
#
#
#
# Elastic Compliance Matrix: (Units=1/GPa)
#
#
# Indices 1 2 3 4 5 6 
#
# 1 0.015899 -0.006326 -0.003289 0.000000 0.000000 0.000000
# 2 -0.006326 0.012831 -0.008688 0.000000 0.000000 0.000000
# 3 -0.003289 -0.008688 0.031193 0.000000 0.000000 0.000000
# 4 0.000000 0.000000 0.000000 0.041511 0.000000 0.000000
# 5 0.000000 0.000000 0.000000 0.000000 0.040512 0.000000
# 6 0.000000 0.000000 0.000000 0.000000 0.000000 0.053154
#
#
# Mechanical properties :
#
#
# Convention : Reuss Voigt Hill
#
# Bulk Modulus (GPa) = 42.88804 63.05846 52.97325
# Shear Modulus (GPa) = 20.87873 23.12032 21.99953
#
# Velocity S-wave (km/s) = 3.63178 3.82177 3.72798
# Velocity P-wave (km/s) = 6.68433 7.70134 7.21079
#
# Compressibility (1/GPa) = 0.02331652
#
# Stress axis : x y z
#
# Youngs Moduli (GPa) = 62.89838 77.93594 32.05810
#
# Poissons Ratio (x) = 0.49303 0.10545
# Poissons Ratio (y) = 0.39790 0.27851
# Poissons Ratio (z) = 0.20690 0.67709
#
# Static dielectric constant tensor:
#      x y z
#    x 1.501960 0.000000 0.000000 
#    y 0.000000 1.541800 0.000000 
#    z 0.000000 0.000000 1.527630 
# 
# From -- ./inp_files/6040.got.cif
#   From: 2010.05.17/outbox.cif.g08.bks.cpg/sg57_4_cif.got.tgz:6040.got - 2010.06.03 13:58:18.
