data_PCOD9435853
_publ_section_title
;
Structure prediction by ZEFSAII (Michael W. Deem and Ramdas Pophale) SiO2 
 PCOD9435853
Probable space group: P B C M
;
_chemical_formula_sum "Si O2"
_cell_formula_units_Z 64
_cell_length_a 9.046147
_cell_length_b 19.716477
_cell_length_c 18.253562
_cell_angle_alpha 90.000000
_cell_angle_beta 90.000000
_cell_angle_gamma 90.000000
_cell_volume 3255.671536
_symmetry_space_group_name_H-M "P B C M"
_symmetry_group_IT_number 57
_symmetry_cell_setting 'orthorhombic'
loop_
_space_group_symop_operation_xyz
x,y,z
-x,-y,1/2+z
x,1/2-y,-z
-x,1/2+y,1/2-z
-x,-y,-z
x,y,1/2-z
-x,1/2+y,z
x,1/2-y,1/2+z
loop_
_atom_site_type_symbol
_atom_site_label
_atom_site_fract_x
_atom_site_fract_y
_atom_site_fract_z
Si Si1 0.492435 0.636940 0.881752
Si Si2 0.297073 0.514522 0.580933
Si Si3 0.179925 0.360583 0.171134
Si Si4 0.196121 0.904784 0.944677
Si Si5 0.360687 0.134945 0.456448
Si Si6 0.607466 0.275703 0.917241
Si Si7 0.050956 0.176120 0.979127
Si Si8 0.013427 0.504137 0.335158
O O1 0.393664 0.569990 0.876022
O O2 0.643005 0.636606 0.836022
O O3 0.395941 0.705694 0.871650
O O4 0.554716 0.636045 0.965525
O O5 0.282880 0.541592 0.496479
O O6 0.366980 0.439690 0.577391
O O7 0.138408 0.507510 0.620383
O O8 0.138870 0.331705 0.250000
O O9 0.108329 0.322079 0.103398
O O10 0.110928 0.435686 0.164987
O O11 0.288102 0.841673 0.911262
O O12 0.108592 0.941406 0.880063
O O13 0.079303 0.875006 0.003113
O O14 0.442755 0.192945 0.410801
O O15 0.192207 0.154238 0.472760
O O16 0.633588 0.250000 0.000000
O O17 0.998052 0.250000 0.000000
O O18 0.985242 0.522366 0.250000
#
# Coordination Sequence:
#
# PCOD9435853 Si02
#       8
#     8   8   8   8   8   8   8   8
#     4  10  21  36  60  94 125 154 208 256 316 370
#     4  12  21  36  62  93 118 160 210 264 308 371
#     4  10  22  41  63  89 127 165 202 260 325 377
#     4  12  21  37  62  89 124 158 215 260 314 367
#     4  10  19  33  55  90 121 153 194 258 306 355
#     4  10  20  36  57  92 127 152 194 262 313 365
#     4  11  21  35  63  91 120 162 213 257 304 369
#     4  11  25  42  59  89 130 167 207 263 323 382
#
# _framework density 19.658003999999998
#
# number of rings (size 3 to 8) (size 9 to 14) (size 15 to 20)
#    0.000    1.250    5.000    4.500    1.750    0.500 
#    0.000    1.250    0.000    0.000    0.000    0.000 
#    0.000    0.000    0.000    0.000    0.000    0.000 
#
# Total GULP energy -357123.137912 kJ/mol
# GULP energy per Si atom -5580.049030 kJ/mol
# Density = 1.961326 g / cm^3
# Si number density = 19.658004 Si / 1000 Ang^3
#
#
#
# Elastic Constant Matrix: (Units=GPa)
#
#
# Indices 1 2 3 4 5 6 
#
# 1 43.3850 3.7682 9.2674 0.0000 0.0000 0.0000
# 2 3.7682 81.1579 26.7733 0.0000 0.0000 0.0000
# 3 9.2674 26.7733 72.5762 0.0000 0.0000 0.0000
# 4 0.0000 0.0000 0.0000 3.6149 0.0000 0.0000
# 5 0.0000 0.0000 0.0000 0.0000 8.9335 0.0000
# 6 0.0000 0.0000 0.0000 0.0000 0.0000 28.2130
#
#
#
# Elastic Compliance Matrix: (Units=1/GPa)
#
#
# Indices 1 2 3 4 5 6 
#
# 1 0.023697 -0.000116 -0.002983 0.000000 0.000000 0.000000
# 2 -0.000116 0.014030 -0.005161 0.000000 0.000000 0.000000
# 3 -0.002983 -0.005161 0.016063 0.000000 0.000000 0.000000
# 4 0.000000 0.000000 0.000000 0.276632 0.000000 0.000000
# 5 0.000000 0.000000 0.000000 0.000000 0.111938 0.000000
# 6 0.000000 0.000000 0.000000 0.000000 0.000000 0.035445
#
#
# Mechanical properties :
#
#
# Convention : Reuss Voigt Hill
#
# Bulk Modulus (GPa) = 26.83132 30.74852 28.78992
# Shear Modulus (GPa) = 9.86686 18.63964 14.25325
#
# Velocity S-wave (km/s) = 2.24280 3.08262 2.69562
# Velocity P-wave (km/s) = 4.51504 5.32407 4.93616
#
# Compressibility (1/GPa) = 0.03726988
#
# Stress axis : x y z
#
# Youngs Moduli (GPa) = 42.19992 71.27834 62.25382
#
# Poissons Ratio (x) = 0.00828 0.18570
# Poissons Ratio (y) = 0.00490 0.32127
# Poissons Ratio (z) = 0.12588 0.36784
#
# Static dielectric constant tensor:
#      x y z
#    x 1.715760 0.000000 0.000000 
#    y 0.000000 1.696720 0.000000 
#    z 0.000000 0.000000 1.707390 
# 
# From -- ./inp_files/21449.got.cif
#   From: 2010.05.17/outbox.cif.g08.bks.cpg/sg57_11_cif.got.tgz:21449.got - 2010.06.03 13:58:18.
