data_PCOD9435027
_publ_section_title
;
Structure prediction by ZEFSAII (Michael W. Deem and Ramdas Pophale) SiO2 
 PCOD9435027
Probable space group: P B C M
;
_chemical_formula_sum "Si O2"
_cell_formula_units_Z 64
_cell_length_a 31.141360
_cell_length_b 14.036603
_cell_length_c 8.787674
_cell_angle_alpha 90.000000
_cell_angle_beta 90.000000
_cell_angle_gamma 90.000000
_cell_volume 3841.258456
_symmetry_space_group_name_H-M "P B C M"
_symmetry_group_IT_number 57
_symmetry_cell_setting 'orthorhombic'
loop_
_space_group_symop_operation_xyz
x,y,z
-x,-y,1/2+z
x,1/2-y,-z
-x,1/2+y,1/2-z
-x,-y,-z
x,y,1/2-z
-x,1/2+y,z
x,1/2-y,1/2+z
loop_
_atom_site_type_symbol
_atom_site_label
_atom_site_fract_x
_atom_site_fract_y
_atom_site_fract_z
Si Si1 0.045100 0.973259 0.575048
Si Si2 0.254009 0.145355 0.066773
Si Si3 0.516755 0.354189 0.568611
Si Si4 0.877679 0.143856 0.932939
Si Si5 0.894263 0.655452 0.578041
Si Si6 0.819487 0.976603 0.434940
Si Si7 0.433003 0.023359 0.066739
Si Si8 0.645884 0.852124 0.932727
O O1 0.039448 0.940843 0.750000
O O2 0.076346 0.899816 0.487515
O O3 0.071326 0.071862 0.577413
O O4 0.000000 0.000000 0.500000
O O5 0.249201 0.147099 0.250000
O O6 0.304340 0.130529 0.027970
O O7 0.241907 0.250000 0.000000
O O8 0.225987 0.060169 0.995413
O O9 0.519930 0.250000 0.500000
O O10 0.518664 0.349772 0.750000
O O11 0.553602 0.424008 0.506911
O O12 0.471149 0.402751 0.525977
O O13 0.875873 0.144938 0.750000
O O14 0.872941 0.250000 0.000000
O O15 0.840683 0.073094 0.998981
O O16 0.909938 0.750000 0.500000
O O17 0.883622 0.681710 0.750000
O O18 0.851664 0.607831 0.510907
O O19 0.820479 0.982191 0.250000
O O20 0.433020 0.013165 0.250000
O O21 0.387634 0.067341 0.017580
O O22 0.643369 0.845942 0.750000
O O23 0.633166 0.750000 0.000000
#
# Coordination Sequence:
#
# PCOD9435027 Si02
#       8
#     8   8   8   8   8   8   8   8
#     4  10  21  37  53  75 105 137 173 212 250 293
#     4  10  19  31  49  76 106 137 169 203 249 303
#     4  10  19  30  47  70  95 126 165 208 253 300
#     4  11  22  38  59  81 104 135 173 215 259 303
#     4   9  19  32  48  70  97 126 158 194 235 282
#     4  10  20  35  53  76 104 132 165 207 248 294
#     4   9  18  32  48  68  96 130 166 206 251 299
#     4   9  18  31  48  71 101 134 167 204 247 298
#
# _framework density 16.661206
#
# number of rings (size 3 to 8) (size 9 to 14) (size 15 to 20)
#    0.000    2.250    0.000    4.125    0.000    6.000 
#    0.000    1.250    0.000    0.750    0.000    3.500 
#    0.000    0.000    0.000    0.000    0.000    0.000 
#
# Total GULP energy -356827.494209 kJ/mol
# GULP energy per Si atom -5575.429597 kJ/mol
# Density = 1.662328 g / cm^3
# Si number density = 16.661206 Si / 1000 Ang^3
#
#
#
# Elastic Constant Matrix: (Units=GPa)
#
#
# Indices 1 2 3 4 5 6 
#
# 1 85.3585 51.3609 36.9515 0.0000 0.0000 0.0000
# 2 51.3609 115.7847 49.8805 0.0000 0.0000 0.0000
# 3 36.9515 49.8805 72.6497 0.0000 0.0000 0.0000
# 4 0.0000 0.0000 0.0000 29.8978 0.0000 0.0000
# 5 0.0000 0.0000 0.0000 0.0000 22.2087 0.0000
# 6 0.0000 0.0000 0.0000 0.0000 0.0000 15.3296
#
#
#
# Elastic Compliance Matrix: (Units=1/GPa)
#
#
# Indices 1 2 3 4 5 6 
#
# 1 0.017159 -0.005469 -0.004972 0.000000 0.000000 0.000000
# 2 -0.005469 0.014008 -0.006836 0.000000 0.000000 0.000000
# 3 -0.004972 -0.006836 0.020987 0.000000 0.000000 0.000000
# 4 0.000000 0.000000 0.000000 0.033447 0.000000 0.000000
# 5 0.000000 0.000000 0.000000 0.000000 0.045027 0.000000
# 6 0.000000 0.000000 0.000000 0.000000 0.000000 0.065233
#
#
# Mechanical properties :
#
#
# Convention : Reuss Voigt Hill
#
# Bulk Modulus (GPa) = 56.82155 61.13097 58.97626
# Shear Modulus (GPa) = 21.16113 22.52721 21.84417
#
# Velocity S-wave (km/s) = 3.56769 3.68105 3.62481
# Velocity P-wave (km/s) = 7.15188 7.40521 7.27964
#
# Compressibility (1/GPa) = 0.01759896
#
# Stress axis : x y z
#
# Youngs Moduli (GPa) = 58.27945 71.38915 47.64868
#
# Poissons Ratio (x) = 0.39046 0.23691
# Poissons Ratio (y) = 0.31875 0.32571
# Poissons Ratio (z) = 0.28977 0.48799
#
# Static dielectric constant tensor:
#      x y z
#    x 1.578690 0.000000 0.000000 
#    y 0.000000 1.540400 0.000000 
#    z 0.000000 0.000000 1.569390 
# 
# From -- ./inp_files/10292.got.cif
#   From: 2010.05.17/outbox.cif.g08.bks.cpg/sg57_6_cif.got.tgz:10292.got - 2010.06.03 13:58:18.
