data_PCOD9435065
_publ_section_title
;
Structure prediction by ZEFSAII (Michael W. Deem and Ramdas Pophale) SiO2 
 PCOD9435065
Probable space group: P B C M
;
_chemical_formula_sum "Si O2"
_cell_formula_units_Z 52
_cell_length_a 20.769527
_cell_length_b 5.281533
_cell_length_c 26.854735
_cell_angle_alpha 90.000000
_cell_angle_beta 90.000000
_cell_angle_gamma 90.000000
_cell_volume 2945.828605
_symmetry_space_group_name_H-M "P B C M"
_symmetry_group_IT_number 57
_symmetry_cell_setting 'orthorhombic'
loop_
_space_group_symop_operation_xyz
x,y,z
-x,-y,1/2+z
x,1/2-y,-z
-x,1/2+y,1/2-z
-x,-y,-z
x,y,1/2-z
-x,1/2+y,z
x,1/2-y,1/2+z
loop_
_atom_site_type_symbol
_atom_site_label
_atom_site_fract_x
_atom_site_fract_y
_atom_site_fract_z
Si Si1 0.752284 0.663589 0.861758
Si Si2 0.043287 0.694894 0.846055
Si Si3 0.526779 0.042716 0.056477
Si Si4 0.865356 0.329454 0.250000
Si Si5 0.172410 0.846062 0.397072
Si Si6 0.224104 0.330503 0.250000
Si Si7 0.225978 0.750000 0.500000
Si Si8 0.335365 0.415482 0.047623
O O1 0.789444 0.400155 0.875240
O O2 0.737938 0.664382 0.802625
O O3 0.692112 0.695057 0.900336
O O4 0.799562 0.900687 0.871860
O O5 0.087733 0.676972 0.797158
O O6 0.096876 0.684706 0.888801
O O7 0.996075 0.455202 0.847079
O O8 0.487861 0.271518 0.080232
O O9 0.602870 0.091462 0.057452
O O10 0.500000 0.000000 0.000000
O O11 0.821145 0.580192 0.250000
O O12 0.821103 0.079661 0.250000
O O13 0.186210 0.867981 0.455520
O O14 0.273511 0.551287 0.474804
O O15 0.358165 0.250000 0.000000
#
# Coordination Sequence:
#
# PCOD9435065 Si02
#       8
#     8   8   8   4   8   4   4   8
#     4  11  22  36  57  82 111 147 178 231 277 332
#     4  12  23  38  55  80 107 135 181 226 276 347
#     4  10  19  30  49  77 117 147 171 220 269 310
#     4  12  22  37  60  80 106 137 174 230 288 340
#     4  11  22  39  56  81 106 143 180 227 286 321
#     4  12  20  39  58  82 114 139 180 224 288 332
#     4  10  22  36  58  80 112 144 188 232 270 338
#     4  11  20  33  56  85 114 145 189 220 272 330
#
# _framework density 17.652077999999999
#
# number of rings (size 3 to 8) (size 9 to 14) (size 15 to 20)
#    0.000    0.923    6.154    3.231    0.000    0.000 
#    0.000    0.769    0.000    0.000    0.000    1.077 
#    0.000    0.000    0.000    0.000    0.000    0.000 
#
# Total GULP energy -289881.776941 kJ/mol
# GULP energy per Si atom -5574.649557 kJ/mol
# Density = 1.761190 g / cm^3
# Si number density = 17.652078 Si / 1000 Ang^3
#
#
#
# Elastic Constant Matrix: (Units=GPa)
#
#
# Indices 1 2 3 4 5 6 
#
# 1 61.4048 0.7703 35.1221 0.0000 0.0000 0.0000
# 2 0.7703 92.4169 7.5834 0.0000 0.0000 0.0000
# 3 35.1221 7.5834 116.5011 0.0000 0.0000 0.0000
# 4 0.0000 0.0000 0.0000 15.5735 0.0000 0.0000
# 5 0.0000 0.0000 0.0000 0.0000 12.3478 0.0000
# 6 0.0000 0.0000 0.0000 0.0000 0.0000 28.1732
#
#
#
# Elastic Compliance Matrix: (Units=1/GPa)
#
#
# Indices 1 2 3 4 5 6 
#
# 1 0.019688 0.000325 -0.005957 0.000000 0.000000 0.000000
# 2 0.000325 0.010884 -0.000806 0.000000 0.000000 0.000000
# 3 -0.005957 -0.000806 0.010432 0.000000 0.000000 0.000000
# 4 0.000000 0.000000 0.000000 0.064212 0.000000 0.000000
# 5 0.000000 0.000000 0.000000 0.000000 0.080986 0.000000
# 6 0.000000 0.000000 0.000000 0.000000 0.000000 0.035495
#
#
# Mechanical properties :
#
#
# Convention : Reuss Voigt Hill
#
# Bulk Modulus (GPa) = 35.55235 39.69716 37.62475
# Shear Modulus (GPa) = 20.49608 26.34205 23.41907
#
# Velocity S-wave (km/s) = 3.41121 3.86721 3.64635
# Velocity P-wave (km/s) = 5.97490 6.51751 6.25209
#
# Compressibility (1/GPa) = 0.02812754
#
# Stress axis : x y z
#
# Youngs Moduli (GPa) = 50.79140 91.87811 95.85993
#
# Poissons Ratio (x) = -0.02983 0.57101
# Poissons Ratio (y) = -0.01649 0.07730
# Poissons Ratio (z) = 0.30255 0.07409
#
# Static dielectric constant tensor:
#      x y z
#    x 1.584770 0.000000 0.000000 
#    y 0.000000 1.701900 0.000000 
#    z 0.000000 0.000000 1.689390 
# 
# From -- ./inp_files/28856.got.cif
#   From: 2010.05.17/outbox.cif.g08.bks.cpg/sg57_15_cif.got.tgz:28856.got - 2010.06.03 13:58:18.
