data_PCOD9435623
_publ_section_title
;
Structure prediction by ZEFSAII (Michael W. Deem and Ramdas Pophale) SiO2 
 PCOD9435623
Probable space group: P B C M
;
_chemical_formula_sum "Si O2"
_cell_formula_units_Z 64
_cell_length_a 20.609840
_cell_length_b 20.745614
_cell_length_c 8.431020
_cell_angle_alpha 90.000000
_cell_angle_beta 90.000000
_cell_angle_gamma 90.000000
_cell_volume 3604.798825
_symmetry_space_group_name_H-M "P B C M"
_symmetry_group_IT_number 57
_symmetry_cell_setting 'orthorhombic'
loop_
_space_group_symop_operation_xyz
x,y,z
-x,-y,1/2+z
x,1/2-y,-z
-x,1/2+y,1/2-z
-x,-y,-z
x,y,1/2-z
-x,1/2+y,z
x,1/2-y,1/2+z
loop_
_atom_site_type_symbol
_atom_site_label
_atom_site_fract_x
_atom_site_fract_y
_atom_site_fract_z
Si Si1 0.944245 0.679252 0.939461
Si Si2 0.669934 0.461106 0.441923
Si Si3 0.186375 0.935610 0.443263
Si Si4 0.429400 0.321281 0.441568
Si Si5 0.696306 0.895832 0.060284
Si Si6 0.472196 0.568095 0.558347
Si Si7 0.162947 0.418126 0.939299
Si Si8 0.906680 0.320895 0.441847
O O1 0.944205 0.680458 0.750000
O O2 0.018661 0.668193 0.993867
O O3 0.924107 0.750000 0.000000
O O4 0.895803 0.624108 0.996294
O O5 0.670414 0.465865 0.250000
O O6 0.738077 0.428814 0.489948
O O7 0.671455 0.533416 0.509657
O O8 0.603175 0.427247 0.490701
O O9 0.184468 0.935553 0.250000
O O10 0.140411 0.877908 0.498199
O O11 0.163569 0.007080 0.494923
O O12 0.443485 0.250000 0.500000
O O13 0.429824 0.321905 0.250000
O O14 0.357941 0.345052 0.493547
O O15 0.482323 0.373600 0.497107
O O16 0.701119 0.893377 0.250000
O O17 0.767852 0.888360 0.989333
O O18 0.500000 0.500000 0.500000
O O19 0.474116 0.567678 0.750000
O O20 0.159655 0.419018 0.750000
O O21 0.886879 0.250000 0.500000
O O22 0.905969 0.320780 0.250000
#
# Coordination Sequence:
#
# PCOD9435623 Si02
#       8
#     8   8   8   8   8   8   8   8
#     4  10  20  34  52  74 100 135 174 214 258 307
#     4   9  17  31  54  78 101 132 170 208 256 313
#     4   8  16  32  52  76 104 135 168 208 257 310
#     4  10  22  36  50  73 105 138 173 214 259 305
#     4  10  19  33  51  73 103 134 170 215 256 304
#     4  10  19  33  54  79 102 133 175 216 259 310
#     4  10  20  34  53  77 105 137 172 211 259 313
#     4   9  18  34  54  74 101 135 174 214 257 310
#
# _framework density 17.754111999999999
#
# number of rings (size 3 to 8) (size 9 to 14) (size 15 to 20)
#    0.000    2.500    1.250    1.875    0.000    3.000 
#    0.000    5.000    0.000    0.000    0.000    0.000 
#    0.000    0.000    0.000    0.000    0.000    0.000 
#
# Total GULP energy -356911.251206 kJ/mol
# GULP energy per Si atom -5576.738300 kJ/mol
# Density = 1.771370 g / cm^3
# Si number density = 17.754112 Si / 1000 Ang^3
#
#
#
# Elastic Constant Matrix: (Units=GPa)
#
#
# Indices 1 2 3 4 5 6 
#
# 1 134.2597 106.4256 19.5013 0.0000 0.0000 0.0000
# 2 106.4256 139.5506 16.2045 0.0000 0.0000 0.0000
# 3 19.5013 16.2045 14.5947 0.0000 0.0000 0.0000
# 4 0.0000 0.0000 0.0000 25.7628 0.0000 0.0000
# 5 0.0000 0.0000 0.0000 0.0000 17.4650 0.0000
# 6 0.0000 0.0000 0.0000 0.0000 0.0000 32.2708
#
#
#
# Elastic Compliance Matrix: (Units=1/GPa)
#
#
# Indices 1 2 3 4 5 6 
#
# 1 0.020374 -0.014208 -0.011448 0.000000 0.000000 0.000000
# 2 -0.014208 0.018135 -0.001151 0.000000 0.000000 0.000000
# 3 -0.011448 -0.001151 0.085092 0.000000 0.000000 0.000000
# 4 0.000000 0.000000 0.000000 0.038816 0.000000 0.000000
# 5 0.000000 0.000000 0.000000 0.000000 0.057257 0.000000
# 6 0.000000 0.000000 0.000000 0.000000 0.000000 0.030988
#
#
# Mechanical properties :
#
#
# Convention : Reuss Voigt Hill
#
# Bulk Modulus (GPa) = 14.28825 63.62975 38.95900
# Shear Modulus (GPa) = 15.26235 24.85128 20.05681
#
# Velocity S-wave (km/s) = 2.93516 3.74538 3.36475
# Velocity P-wave (km/s) = 4.42179 7.39061 6.08988
#
# Compressibility (1/GPa) = 0.06998759
#
# Stress axis : x y z
#
# Youngs Moduli (GPa) = 49.08270 55.14135 11.75205
#
# Poissons Ratio (x) = 0.78347 0.13453
# Poissons Ratio (y) = 0.69739 0.01352
# Poissons Ratio (z) = 0.56188 0.06344
#
# Static dielectric constant tensor:
#      x y z
#    x 1.622260 0.000000 0.000000 
#    y 0.000000 1.576020 0.000000 
#    z 0.000000 0.000000 1.605660 
# 
# From -- ./inp_files/7254.got.cif
#   From: 2010.05.17/outbox.cif.g08.bks.cpg/sg57_4_cif.got.tgz:7254.got - 2010.06.03 13:58:18.
