data_PCOD9435281
_publ_section_title
;
Structure prediction by ZEFSAII (Michael W. Deem and Ramdas Pophale) SiO2 
 PCOD9435281
Probable space group: P B C M
;
_chemical_formula_sum "Si O2"
_cell_formula_units_Z 56
_cell_length_a 18.163302
_cell_length_b 19.925770
_cell_length_c 8.400994
_cell_angle_alpha 90.000000
_cell_angle_beta 90.000000
_cell_angle_gamma 90.000000
_cell_volume 3040.469082
_symmetry_space_group_name_H-M "P B C M"
_symmetry_group_IT_number 57
_symmetry_cell_setting 'orthorhombic'
loop_
_space_group_symop_operation_xyz
x,y,z
-x,-y,1/2+z
x,1/2-y,-z
-x,1/2+y,1/2-z
-x,-y,-z
x,y,1/2-z
-x,1/2+y,z
x,1/2-y,1/2+z
loop_
_atom_site_type_symbol
_atom_site_label
_atom_site_fract_x
_atom_site_fract_y
_atom_site_fract_z
Si Si1 0.479126 0.425715 0.941109
Si Si2 0.059945 0.091626 0.940628
Si Si3 0.312250 0.431029 0.555983
Si Si4 0.899425 0.443951 0.057549
Si Si5 0.604957 0.325864 0.059327
Si Si6 0.263205 0.580336 0.944222
Si Si7 0.809026 0.675732 0.059864
O O1 0.481367 0.425315 0.750000
O O2 0.394948 0.412554 0.992731
O O3 0.500000 0.500000 0.000000
O O4 0.536527 0.371341 0.004574
O O5 0.061440 0.092092 0.750000
O O6 0.974508 0.092856 0.993762
O O7 0.111226 0.150272 0.004648
O O8 0.092888 0.020727 0.000448
O O9 0.310572 0.431279 0.750000
O O10 0.292222 0.506750 0.506111
O O11 0.251549 0.377894 0.500611
O O12 0.898808 0.445302 0.250000
O O13 0.821684 0.413507 0.003903
O O14 0.605980 0.325597 0.250000
O O15 0.679764 0.362956 0.002126
O O16 0.599806 0.250000 0.000000
O O17 0.263550 0.581008 0.750000
O O18 0.807125 0.675122 0.250000
O O19 0.793257 0.750000 0.000000
#
# Coordination Sequence:
#
# PCOD9435281 Si02
#       7
#     8   8   8   8   8   8   8
#     4  11  21  37  60  88 117 149 189 232 279 334
#     4  10  19  31  51  83 114 142 182 227 277 330
#     4   9  18  34  58  83 108 144 188 230 274 330
#     4   9  17  32  56  81 108 144 185 229 273 322
#     4  11  23  40  60  84 115 150 188 232 285 342
#     4   9  16  33  59  83 109 146 187 227 276 329
#     4  11  22  38  57  77 110 150 187 229 283 337
#
# _framework density 18.418209999999998
#
# number of rings (size 3 to 8) (size 9 to 14) (size 15 to 20)
#    0.000    2.000    2.857    1.714    0.000    1.143 
#    0.000    7.857    0.000    1.714    0.000    0.000 
#    0.000    0.000    0.000    0.000    0.000    0.000 
#
# Total GULP energy -312555.608980 kJ/mol
# GULP energy per Si atom -5581.350160 kJ/mol
# Density = 1.837629 g / cm^3
# Si number density = 18.418210 Si / 1000 Ang^3
#
#
#
# Elastic Constant Matrix: (Units=GPa)
#
#
# Indices 1 2 3 4 5 6 
#
# 1 167.8259 83.4509 26.1328 0.0000 0.0000 0.0000
# 2 83.4509 140.0425 19.3229 0.0000 0.0000 0.0000
# 3 26.1328 19.3229 23.1383 0.0000 0.0000 0.0000
# 4 0.0000 0.0000 0.0000 29.3049 0.0000 0.0000
# 5 0.0000 0.0000 0.0000 0.0000 18.3673 0.0000
# 6 0.0000 0.0000 0.0000 0.0000 0.0000 32.3453
#
#
#
# Elastic Compliance Matrix: (Units=1/GPa)
#
#
# Indices 1 2 3 4 5 6 
#
# 1 0.009289 -0.004620 -0.006633 0.000000 0.000000 0.000000
# 2 -0.004620 0.010368 -0.003441 0.000000 0.000000 0.000000
# 3 -0.006633 -0.003441 0.053583 0.000000 0.000000 0.000000
# 4 0.000000 0.000000 0.000000 0.034124 0.000000 0.000000
# 5 0.000000 0.000000 0.000000 0.000000 0.054444 0.000000
# 6 0.000000 0.000000 0.000000 0.000000 0.000000 0.030916
#
#
# Mechanical properties :
#
#
# Convention : Reuss Voigt Hill
#
# Bulk Modulus (GPa) = 22.80339 65.42445 44.11392
# Shear Modulus (GPa) = 21.12115 29.47684 25.29900
#
# Velocity S-wave (km/s) = 3.39005 4.00486 3.71021
# Velocity P-wave (km/s) = 5.26602 7.54877 6.50826
#
# Compressibility (1/GPa) = 0.04385313
#
# Stress axis : x y z
#
# Youngs Moduli (GPa) = 107.65925 96.44647 18.66261
#
# Poissons Ratio (x) = 0.44557 0.12378
# Poissons Ratio (y) = 0.49737 0.06422
# Poissons Ratio (z) = 0.71406 0.33187
#
# Static dielectric constant tensor:
#      x y z
#    x 1.660310 0.000000 0.000000 
#    y 0.000000 1.587230 0.000000 
#    z 0.000000 0.000000 1.635970 
# 
# From -- ./inp_files/7090.got.cif
#   From: 2010.05.17/outbox.cif.g08.bks.cpg/sg57_4_cif.got.tgz:7090.got - 2010.06.03 13:58:18.
