data_PCOD9435087
_publ_section_title
;
Structure prediction by ZEFSAII (Michael W. Deem and Ramdas Pophale) SiO2 
 PCOD9435087
Probable space group: P B C M
;
_chemical_formula_sum "Si O2"
_cell_formula_units_Z 64
_cell_length_a 22.410411
_cell_length_b 20.094731
_cell_length_c 8.902788
_cell_angle_alpha 90.000000
_cell_angle_beta 90.000000
_cell_angle_gamma 90.000000
_cell_volume 4009.203031
_symmetry_space_group_name_H-M "P B C M"
_symmetry_group_IT_number 57
_symmetry_cell_setting 'orthorhombic'
loop_
_space_group_symop_operation_xyz
x,y,z
-x,-y,1/2+z
x,1/2-y,-z
-x,1/2+y,1/2-z
-x,-y,-z
x,y,1/2-z
-x,1/2+y,z
x,1/2-y,1/2+z
loop_
_atom_site_type_symbol
_atom_site_label
_atom_site_fract_x
_atom_site_fract_y
_atom_site_fract_z
Si Si1 0.170491 0.050788 0.569469
Si Si2 0.517088 0.606260 0.578227
Si Si3 0.625749 0.677397 0.429828
Si Si4 0.882679 0.818849 0.570939
Si Si5 0.307397 0.449571 0.432158
Si Si6 0.942356 0.463209 0.568297
Si Si7 0.414005 0.536061 0.422644
Si Si8 0.977280 0.318736 0.570207
O O1 0.167071 0.057219 0.750000
O O2 0.153275 0.120091 0.494571
O O3 0.238867 0.035486 0.531596
O O4 0.119302 0.998519 0.523842
O O5 0.515594 0.629914 0.750000
O O6 0.559209 0.653988 0.480348
O O7 0.451678 0.589770 0.514756
O O8 0.549538 0.533919 0.577529
O O9 0.638540 0.750000 0.500000
O O10 0.630123 0.679783 0.250000
O O11 0.668942 0.619130 0.494699
O O12 0.861558 0.750000 0.500000
O O13 0.878685 0.816509 0.750000
O O14 0.952686 0.827015 0.529164
O O15 0.313795 0.442829 0.250000
O O16 0.349926 0.510887 0.479457
O O17 0.947586 0.466077 0.750000
O O18 0.944454 0.385948 0.522824
O O19 0.000000 0.500000 0.500000
O O20 0.409431 0.558324 0.250000
O O21 0.955500 0.250000 0.500000
O O22 0.974347 0.313341 0.750000
#
# Coordination Sequence:
#
# PCOD9435087 Si02
#       8
#     8   8   8   8   8   8   8   8
#     4  10  20  33  50  70  95 128 166 207 253 301
#     4   9  16  27  45  69  94 119 151 191 231 272
#     4  11  21  33  49  69  96 131 166 199 235 276
#     4  10  19  31  46  65  92 124 160 200 241 293
#     4   9  19  34  48  66  93 126 164 201 237 285
#     4  10  19  32  50  73  98 124 157 203 256 305
#     4   8  14  26  44  65  90 117 149 190 232 273
#     4   9  18  31  47  69  94 120 152 191 239 296
#
# _framework density 15.963272
#
# number of rings (size 3 to 8) (size 9 to 14) (size 15 to 20)
#    0.000    2.500    1.250    2.625    0.000    5.000 
#    0.000    0.000    0.000    0.000    0.000    0.875 
#    0.000    2.000    0.000    0.000    0.000    0.000 
#
# Total GULP energy -356637.301454 kJ/mol
# GULP energy per Si atom -5572.457835 kJ/mol
# Density = 1.592694 g / cm^3
# Si number density = 15.963272 Si / 1000 Ang^3
#
#
#
# Elastic Constant Matrix: (Units=GPa)
#
#
# Indices 1 2 3 4 5 6 
#
# 1 118.2895 55.8466 35.7416 0.0000 0.0000 0.0000
# 2 55.8466 66.2020 19.6882 0.0000 0.0000 0.0000
# 3 35.7416 19.6882 36.2497 0.0000 0.0000 0.0000
# 4 0.0000 0.0000 0.0000 22.1319 0.0000 0.0000
# 5 0.0000 0.0000 0.0000 0.0000 17.2131 0.0000
# 6 0.0000 0.0000 0.0000 0.0000 0.0000 11.8747
#
#
#
# Elastic Compliance Matrix: (Units=1/GPa)
#
#
# Indices 1 2 3 4 5 6 
#
# 1 0.016911 -0.011100 -0.010645 0.000000 0.000000 0.000000
# 2 -0.011100 0.025301 -0.002797 0.000000 0.000000 0.000000
# 3 -0.010645 -0.002797 0.039602 0.000000 0.000000 0.000000
# 4 0.000000 0.000000 0.000000 0.045184 0.000000 0.000000
# 5 0.000000 0.000000 0.000000 0.000000 0.058095 0.000000
# 6 0.000000 0.000000 0.000000 0.000000 0.000000 0.084213
#
#
# Mechanical properties :
#
#
# Convention : Reuss Voigt Hill
#
# Bulk Modulus (GPa) = 30.55423 49.25487 39.90455
# Shear Modulus (GPa) = 15.18379 17.54159 16.36269
#
# Velocity S-wave (km/s) = 3.08745 3.31852 3.20507
# Velocity P-wave (km/s) = 5.64727 6.75319 6.22484
#
# Compressibility (1/GPa) = 0.03272869
#
# Stress axis : x y z
#
# Youngs Moduli (GPa) = 59.13440 39.52467 25.25148
#
# Poissons Ratio (x) = 0.43871 0.26880
# Poissons Ratio (y) = 0.65637 0.07064
# Poissons Ratio (z) = 0.62949 0.11057
#
# Static dielectric constant tensor:
#      x y z
#    x 1.554510 0.000000 0.000000 
#    y 0.000000 1.319850 0.000000 
#    z 0.000000 0.000000 1.541080 
# 
# From -- ./inp_files/9563.got.cif
#   From: 2010.05.17/outbox.cif.g08.bks.cpg/sg57_5_cif.got.tgz:9563.got - 2010.06.03 13:58:18.
