data_PCOD9435989
_publ_section_title
;
Structure prediction by ZEFSAII (Michael W. Deem and Ramdas Pophale) SiO2 
 PCOD9435989
Probable space group: P B C M
;
_chemical_formula_sum "Si O2"
_cell_formula_units_Z 52
_cell_length_a 23.714108
_cell_length_b 5.163402
_cell_length_c 21.980558
_cell_angle_alpha 90.000000
_cell_angle_beta 90.000000
_cell_angle_gamma 90.000000
_cell_volume 2691.419814
_symmetry_space_group_name_H-M "P B C M"
_symmetry_group_IT_number 57
_symmetry_cell_setting 'orthorhombic'
loop_
_space_group_symop_operation_xyz
x,y,z
-x,-y,1/2+z
x,1/2-y,-z
-x,1/2+y,1/2-z
-x,-y,-z
x,y,1/2-z
-x,1/2+y,z
x,1/2-y,1/2+z
loop_
_atom_site_type_symbol
_atom_site_label
_atom_site_fract_x
_atom_site_fract_y
_atom_site_fract_z
Si Si1 0.699789 0.711513 0.178185
Si Si2 0.935875 0.000506 0.526083
Si Si3 0.538233 0.208551 0.568026
Si Si4 0.179471 0.399599 0.322085
Si Si5 0.110459 0.881149 0.151327
Si Si6 0.031907 0.873650 0.750000
Si Si7 0.626505 0.221232 0.323058
O O1 0.711016 0.680144 0.250000
O O2 0.759734 0.807479 0.153516
O O3 0.672939 0.439047 0.159724
O O4 0.654173 0.938716 0.170969
O O5 0.906434 0.250000 0.500000
O O6 0.929543 0.022067 0.597013
O O7 0.907217 0.750000 0.500000
O O8 0.000000 0.000000 0.500000
O O9 0.564762 0.250000 0.500000
O O10 0.488617 0.422923 0.570501
O O11 0.577266 0.249845 0.627187
O O12 0.183030 0.477395 0.250000
O O13 0.156595 0.652307 0.357825
O O14 0.140384 0.142636 0.325510
O O15 0.067854 0.725842 0.193950
O O16 0.978192 0.680012 0.750000
O O17 0.611728 0.257027 0.250000
#
# Coordination Sequence:
#
# PCOD9435989 Si02
#       7
#     8   8   8   8   8   4   8
#     4   9  19  33  57  84 117 147 183 235 285 343
#     4  10  23  40  58  76 100 143 190 218 259 328
#     4  10  21  36  55  81 118 161 200 243 292 342
#     4  11  20  38  59  90 118 146 179 228 303 356
#     4  12  23  39  60  84 114 145 183 231 285 346
#     4  12  26  36  56  86 122 140 168 232 290 340
#     4  10  19  34  55  86 117 154 200 240 285 341
#
# _framework density 19.320658999999999
#
# number of rings (size 3 to 8) (size 9 to 14) (size 15 to 20)
#    0.000    1.538    1.538    3.692    4.308    3.077 
#    0.000    0.000    0.000    9.231    0.000    0.000 
#    0.000    0.000    0.000    0.000    0.000    0.000 
#
# Total GULP energy -289630.541680 kJ/mol
# GULP energy per Si atom -5569.818109 kJ/mol
# Density = 1.927668 g / cm^3
# Si number density = 19.320659 Si / 1000 Ang^3
#
#
#
# Elastic Constant Matrix: (Units=GPa)
#
#
# Indices 1 2 3 4 5 6 
#
# 1 42.6992 -12.3710 25.9017 0.0000 0.0000 0.0000
# 2 -12.3710 88.0680 -14.1706 0.0000 0.0000 0.0000
# 3 25.9017 -14.1706 61.1457 0.0000 0.0000 0.0000
# 4 0.0000 0.0000 0.0000 22.6244 0.0000 0.0000
# 5 0.0000 0.0000 0.0000 0.0000 18.0327 0.0000
# 6 0.0000 0.0000 0.0000 0.0000 0.0000 24.9117
#
#
#
# Elastic Compliance Matrix: (Units=1/GPa)
#
#
# Indices 1 2 3 4 5 6 
#
# 1 0.032001 0.002404 -0.012999 0.000000 0.000000 0.000000
# 2 0.002404 0.011975 0.001757 0.000000 0.000000 0.000000
# 3 -0.012999 0.001757 0.022268 0.000000 0.000000 0.000000
# 4 0.000000 0.000000 0.000000 0.044200 0.000000 0.000000
# 5 0.000000 0.000000 0.000000 0.000000 0.055455 0.000000
# 6 0.000000 0.000000 0.000000 0.000000 0.000000 0.040142
#
#
# Mechanical properties :
#
#
# Convention : Reuss Voigt Hill
#
# Bulk Modulus (GPa) = 20.58960 21.18144 20.88552
# Shear Modulus (GPa) = 20.84142 25.95061 23.39601
#
# Velocity S-wave (km/s) = 3.28794 3.66888 3.48362
# Velocity P-wave (km/s) = 5.00939 5.37908 5.19752
#
# Compressibility (1/GPa) = 0.04856822
#
# Stress axis : x y z
#
# Youngs Moduli (GPa) = 31.24874 83.50566 44.90749
#
# Poissons Ratio (x) = -0.20072 0.58375
# Poissons Ratio (y) = -0.07511 -0.07891
# Poissons Ratio (z) = 0.40620 -0.14673
#
# Static dielectric constant tensor:
#      x y z
#    x 1.717440 0.000000 0.000000 
#    y 0.000000 1.715160 0.000000 
#    z 0.000000 0.000000 0.288380 
# 
# From -- ./inp_files/25753.got.cif
#   From: 2010.05.17/outbox.cif.g08.bks.cpg/sg57_13_cif.got.tgz:25753.got - 2010.06.03 13:58:18.
