data_PCOD9435218
_publ_section_title
;
Structure prediction by ZEFSAII (Michael W. Deem and Ramdas Pophale) SiO2 
 PCOD9435218
Probable space group: P B C M
;
_chemical_formula_sum "Si O2"
_cell_formula_units_Z 56
_cell_length_a 18.584169
_cell_length_b 19.557049
_cell_length_c 8.273602
_cell_angle_alpha 90.000000
_cell_angle_beta 90.000000
_cell_angle_gamma 90.000000
_cell_volume 3007.053088
_symmetry_space_group_name_H-M "P B C M"
_symmetry_group_IT_number 57
_symmetry_cell_setting 'orthorhombic'
loop_
_space_group_symop_operation_xyz
x,y,z
-x,-y,1/2+z
x,1/2-y,-z
-x,1/2+y,1/2-z
-x,-y,-z
x,y,1/2-z
-x,1/2+y,z
x,1/2-y,1/2+z
loop_
_atom_site_type_symbol
_atom_site_label
_atom_site_fract_x
_atom_site_fract_y
_atom_site_fract_z
Si Si1 0.366994 0.171201 0.556179
Si Si2 0.524116 0.171193 0.555205
Si Si3 0.197842 0.565744 0.552192
Si Si4 0.318582 0.828570 0.445655
Si Si5 0.771326 0.588544 0.444917
Si Si6 0.966576 0.071794 0.943348
Si Si7 0.911108 0.672242 0.443272
O O1 0.358439 0.250000 0.500000
O O2 0.366223 0.171468 0.750000
O O3 0.446055 0.144633 0.499891
O O4 0.301818 0.125284 0.495503
O O5 0.524266 0.250000 0.500000
O O6 0.523889 0.168134 0.750000
O O7 0.602187 0.144429 0.500694
O O8 0.198007 0.566439 0.750000
O O9 0.254206 0.623027 0.497318
O O10 0.221752 0.489869 0.500645
O O11 0.115820 0.578377 0.499284
O O12 0.310339 0.750000 0.500000
O O13 0.318098 0.828843 0.250000
O O14 0.774112 0.588012 0.250000
O O15 0.840455 0.631591 0.503608
O O16 0.965288 0.071241 0.750000
O O17 0.018080 0.132313 0.000798
O O18 0.000000 0.000000 0.000000
O O19 0.909959 0.750000 0.500000
O O20 0.909344 0.670954 0.250000
#
# Coordination Sequence:
#
# PCOD9435218 Si02
#       7
#     8   8   8   8   8   8   8
#     4  10  19  31  49  76 106 137 177 220 264 312
#     4   8  15  28  48  73 101 135 173 214 260 312
#     4   9  19  36  57  79 105 140 178 215 262 323
#     4   9  17  33  56  78 104 137 174 218 266 312
#     4  10  20  36  54  75 106 142 181 218 262 319
#     4  11  21  38  60  82 108 143 183 224 270 326
#     4  11  23  39  58  83 111 142 183 228 273 323
#
# _framework density 18.622883000000002
#
# number of rings (size 3 to 8) (size 9 to 14) (size 15 to 20)
#    0.000    2.286    1.429    1.714    0.000    3.429 
#    0.000    4.286    0.000    0.000    0.000    0.000 
#    0.000    0.000    0.000    0.000    0.000    0.000 
#
# Total GULP energy -312301.285002 kJ/mol
# GULP energy per Si atom -5576.808661 kJ/mol
# Density = 1.858050 g / cm^3
# Si number density = 18.622883 Si / 1000 Ang^3
#
#
#
# Elastic Constant Matrix: (Units=GPa)
#
#
# Indices 1 2 3 4 5 6 
#
# 1 229.6040 104.7106 19.1463 0.0000 0.0000 0.0000
# 2 104.7106 123.9911 14.0754 0.0000 0.0000 0.0000
# 3 19.1463 14.0754 17.7379 0.0000 0.0000 0.0000
# 4 0.0000 0.0000 0.0000 24.1869 0.0000 0.0000
# 5 0.0000 0.0000 0.0000 0.0000 10.0543 0.0000
# 6 0.0000 0.0000 0.0000 0.0000 0.0000 36.0332
#
#
#
# Elastic Compliance Matrix: (Units=1/GPa)
#
#
# Indices 1 2 3 4 5 6 
#
# 1 0.007251 -0.005753 -0.003261 0.000000 0.000000 0.000000
# 2 -0.005753 0.013428 -0.004446 0.000000 0.000000 0.000000
# 3 -0.003261 -0.004446 0.063424 0.000000 0.000000 0.000000
# 4 0.000000 0.000000 0.000000 0.041345 0.000000 0.000000
# 5 0.000000 0.000000 0.000000 0.000000 0.099460 0.000000
# 6 0.000000 0.000000 0.000000 0.000000 0.000000 0.027752
#
#
# Mechanical properties :
#
#
# Convention : Reuss Voigt Hill
#
# Bulk Modulus (GPa) = 17.48765 71.91087 44.69926
# Shear Modulus (GPa) = 16.74243 29.61493 23.17868
#
# Velocity S-wave (km/s) = 3.00163 3.99211 3.53176
# Velocity P-wave (km/s) = 4.62859 7.74257 6.37853
#
# Compressibility (1/GPa) = 0.05718322
#
# Stress axis : x y z
#
# Youngs Moduli (GPa) = 137.91047 74.46879 15.76678
#
# Poissons Ratio (x) = 0.42844 0.05142
# Poissons Ratio (y) = 0.79344 0.07009
# Poissons Ratio (z) = 0.44979 0.33106
#
# Static dielectric constant tensor:
#      x y z
#    x 1.686110 0.000000 0.000000 
#    y 0.000000 1.597310 0.000000 
#    z 0.000000 0.000000 1.656780 
# 
# From -- ./inp_files/7068.got.cif
#   From: 2010.05.17/outbox.cif.g08.bks.cpg/sg57_4_cif.got.tgz:7068.got - 2010.06.03 13:58:18.
