data_PCOD9435562
_publ_section_title
;
Structure prediction by ZEFSAII (Michael W. Deem and Ramdas Pophale) SiO2 
 PCOD9435562
Probable space group: P B C M
;
_chemical_formula_sum "Si O2"
_cell_formula_units_Z 48
_cell_length_a 10.326874
_cell_length_b 24.013152
_cell_length_c 7.498638
_cell_angle_alpha 90.000000
_cell_angle_beta 90.000000
_cell_angle_gamma 90.000000
_cell_volume 1859.518213
_symmetry_space_group_name_H-M "P B C M"
_symmetry_group_IT_number 57
_symmetry_cell_setting 'orthorhombic'
loop_
_space_group_symop_operation_xyz
x,y,z
-x,-y,1/2+z
x,1/2-y,-z
-x,1/2+y,1/2-z
-x,-y,-z
x,y,1/2-z
-x,1/2+y,z
x,1/2-y,1/2+z
loop_
_atom_site_type_symbol
_atom_site_label
_atom_site_fract_x
_atom_site_fract_y
_atom_site_fract_z
Si Si1 0.449729 0.428068 0.533835
Si Si2 0.374658 0.310064 0.538010
Si Si3 0.907318 0.835775 0.955680
Si Si4 0.733052 0.065972 0.031222
Si Si5 0.186613 0.688754 0.464199
Si Si6 0.156470 0.457369 0.047145
O O1 0.441355 0.432899 0.750000
O O2 0.457905 0.362575 0.483445
O O3 0.587583 0.452023 0.474206
O O4 0.311414 0.444737 0.456018
O O5 0.429662 0.250000 0.500000
O O6 0.362454 0.315475 0.750000
O O7 0.228539 0.315943 0.462490
O O8 0.906964 0.817943 0.750000
O O9 0.038877 0.812714 0.035895
O O10 0.905979 0.903403 0.957223
O O11 0.734372 0.064616 0.250000
O O12 0.756139 0.129467 0.974061
O O13 0.840222 0.020424 0.972683
O O14 0.243776 0.750000 0.500000
O O15 0.184917 0.683655 0.250000
O O16 0.111443 0.458374 0.250000
#
# Coordination Sequence:
#
# PCOD9435562 Si02
#       6
#     8   8   8   8   8   8
#     4   9  18  34  52  72 104 142 173 207 262 317
#     4   9  17  28  45  69  95 127 166 208 253 299
#     4   9  19  35  53  74 103 137 169 209 265 315
#     4   9  19  35  54  76 106 141 171 208 260 312
#     4  10  21  38  57  77 105 141 177 211 253 306
#     4  10  19  32  54  82 105 130 172 219 259 304
#
# _framework density 25.813137999999999
#
# number of rings (size 3 to 8) (size 9 to 14) (size 15 to 20)
#    0.000    2.667    0.000    2.500    0.000    4.667 
#    0.000    3.333    0.000    0.000    0.000    0.000 
#    0.000    0.000    0.000    0.000    0.000    0.000 
#
# Total GULP energy -268071.014612 kJ/mol
# GULP energy per Si atom -5584.812804 kJ/mol
# Density = 2.575439 g / cm^3
# Si number density = 25.813138 Si / 1000 Ang^3
#
#
#
# Elastic Constant Matrix: (Units=GPa)
#
#
# Indices 1 2 3 4 5 6 
#
# 1 56.5518 8.0881 5.1293 0.0000 0.0000 0.0000
# 2 8.0881 141.3744 -8.3573 0.0000 0.0000 0.0000
# 3 5.1293 -8.3573 76.0409 0.0000 0.0000 0.0000
# 4 0.0000 0.0000 0.0000 27.8022 0.0000 0.0000
# 5 0.0000 0.0000 0.0000 0.0000 11.1925 0.0000
# 6 0.0000 0.0000 0.0000 0.0000 0.0000 24.4070
#
#
#
# Elastic Compliance Matrix: (Units=1/GPa)
#
#
# Indices 1 2 3 4 5 6 
#
# 1 0.017962 -0.001106 -0.001333 0.000000 0.000000 0.000000
# 2 -0.001106 0.007188 0.000865 0.000000 0.000000 0.000000
# 3 -0.001333 0.000865 0.013336 0.000000 0.000000 0.000000
# 4 0.000000 0.000000 0.000000 0.035968 0.000000 0.000000
# 5 0.000000 0.000000 0.000000 0.000000 0.089346 0.000000
# 6 0.000000 0.000000 0.000000 0.000000 0.000000 0.040972
#
#
# Mechanical properties :
#
#
# Convention : Reuss Voigt Hill
#
# Bulk Modulus (GPa) = 28.30011 31.52083 29.91047
# Shear Modulus (GPa) = 22.75828 30.62080 26.68954
#
# Velocity S-wave (km/s) = 2.97249 3.44793 3.21900
# Velocity P-wave (km/s) = 4.77160 5.29987 5.04266
#
# Compressibility (1/GPa) = 0.03533556
#
# Stress axis : x y z
#
# Youngs Moduli (GPa) = 55.67290 139.12411 74.98628
#
# Poissons Ratio (x) = 0.15393 0.09997
# Poissons Ratio (y) = 0.06160 -0.06483
# Poissons Ratio (z) = 0.07422 -0.12029
#
# Static dielectric constant tensor:
#      x y z
#    x 2.020880 0.000000 0.000000 
#    y 0.000000 2.122790 0.000000 
#    z 0.000000 0.000000 1.951850 
# 
# From -- ./inp_files/3170.got.cif
#   From: 2010.05.17/outbox.cif.g08.bks.cpg/sg57_2_cif.got.tgz:3170.got - 2010.06.03 13:58:18.
