data_PCOD9435311
_publ_section_title
;
Structure prediction by ZEFSAII (Michael W. Deem and Ramdas Pophale) SiO2 
 PCOD9435311
Probable space group: P B C M
;
_chemical_formula_sum "Si O2"
_cell_formula_units_Z 64
_cell_length_a 19.640274
_cell_length_b 20.343140
_cell_length_c 8.808618
_cell_angle_alpha 90.000000
_cell_angle_beta 90.000000
_cell_angle_gamma 90.000000
_cell_volume 3519.437901
_symmetry_space_group_name_H-M "P B C M"
_symmetry_group_IT_number 57
_symmetry_cell_setting 'orthorhombic'
loop_
_space_group_symop_operation_xyz
x,y,z
-x,-y,1/2+z
x,1/2-y,-z
-x,1/2+y,1/2-z
-x,-y,-z
x,y,1/2-z
-x,1/2+y,z
x,1/2-y,1/2+z
loop_
_atom_site_type_symbol
_atom_site_label
_atom_site_fract_x
_atom_site_fract_y
_atom_site_fract_z
Si Si1 0.484827 0.180682 0.568397
Si Si2 0.930952 0.081369 0.567738
Si Si3 0.556926 0.048326 0.933418
Si Si4 0.916514 0.936024 0.430212
Si Si5 0.193107 0.676688 0.933580
Si Si6 0.671788 0.820934 0.432036
Si Si7 0.222539 0.077604 0.068842
Si Si8 0.288107 0.941447 0.434364
O O1 0.505369 0.250000 0.500000
O O2 0.485323 0.185899 0.750000
O O3 0.533188 0.121450 0.524314
O O4 0.406793 0.165993 0.522249
O O5 0.923776 0.070708 0.750000
O O6 0.876480 0.137207 0.525132
O O7 0.010241 0.096629 0.535943
O O8 0.918718 0.011589 0.487113
O O9 0.555517 0.041720 0.750000
O O10 0.635145 0.041647 0.985277
O O11 0.500000 0.000000 0.000000
O O12 0.906795 0.935094 0.250000
O O13 0.852139 0.904054 0.511235
O O14 0.194883 0.681326 0.750000
O O15 0.254722 0.627714 0.982753
O O16 0.196359 0.750000 0.000000
O O17 0.690035 0.750000 0.500000
O O18 0.675384 0.819142 0.250000
O O19 0.720975 0.875828 0.497086
O O20 0.225772 0.081529 0.250000
O O21 0.239811 0.002374 0.023787
O O22 0.290202 0.938971 0.250000
#
# Coordination Sequence:
#
# PCOD9435311 Si02
#       8
#     8   8   8   8   8   8   8   8
#     4   9  19  34  53  75 103 136 176 221 268 321
#     4   9  18  35  55  76 107 142 178 221 272 323
#     4  10  20  35  54  79 107 140 177 224 274 323
#     4  10  19  31  54  83 107 136 177 226 268 318
#     4  10  20  37  56  78 110 148 186 228 272 323
#     4  10  20  35  53  77 106 138 175 221 271 327
#     4  11  20  34  55  79 108 146 180 219 271 327
#     4   9  19  35  55  76 107 146 183 217 271 333
#
# _framework density 18.184721
#
# number of rings (size 3 to 8) (size 9 to 14) (size 15 to 20)
#    0.000    2.250    1.250    1.875    0.000    2.500 
#    0.000    1.875    0.000    1.500    0.000    0.000 
#    0.000    0.000    0.000    0.000    0.000    0.000 
#
# Total GULP energy -356983.879560 kJ/mol
# GULP energy per Si atom -5577.873118 kJ/mol
# Density = 1.814333 g / cm^3
# Si number density = 18.184721 Si / 1000 Ang^3
#
#
#
# Elastic Constant Matrix: (Units=GPa)
#
#
# Indices 1 2 3 4 5 6 
#
# 1 110.3831 47.2704 29.0878 0.0000 0.0000 0.0000
# 2 47.2704 53.1072 16.2516 0.0000 0.0000 0.0000
# 3 29.0878 16.2516 19.7097 0.0000 0.0000 0.0000
# 4 0.0000 0.0000 0.0000 30.9556 0.0000 0.0000
# 5 0.0000 0.0000 0.0000 0.0000 21.1304 0.0000
# 6 0.0000 0.0000 0.0000 0.0000 0.0000 30.3429
#
#
#
# Elastic Compliance Matrix: (Units=1/GPa)
#
#
# Indices 1 2 3 4 5 6 
#
# 1 0.018588 -0.010901 -0.018444 0.000000 0.000000 0.000000
# 2 -0.010901 0.031577 -0.009949 0.000000 0.000000 0.000000
# 3 -0.018444 -0.009949 0.086160 0.000000 0.000000 0.000000
# 4 0.000000 0.000000 0.000000 0.032304 0.000000 0.000000
# 5 0.000000 0.000000 0.000000 0.000000 0.047325 0.000000
# 6 0.000000 0.000000 0.000000 0.000000 0.000000 0.032957
#
#
# Mechanical properties :
#
#
# Convention : Reuss Voigt Hill
#
# Bulk Modulus (GPa) = 17.31998 40.93551 29.12774
# Shear Modulus (GPa) = 14.41982 22.52512 18.47247
#
# Velocity S-wave (km/s) = 2.81902 3.52331 3.19066
# Velocity P-wave (km/s) = 4.48787 6.25391 5.44299
#
# Compressibility (1/GPa) = 0.05773679
#
# Stress axis : x y z
#
# Youngs Moduli (GPa) = 53.79873 31.66837 11.60633
#
# Poissons Ratio (x) = 0.34521 0.21407
# Poissons Ratio (y) = 0.58645 0.11548
# Poissons Ratio (z) = 0.99226 0.31508
#
# Static dielectric constant tensor:
#      x y z
#    x 1.650050 0.000000 0.000000 
#    y 0.000000 1.599710 0.000000 
#    z 0.000000 0.000000 1.612520 
# 
# From -- ./inp_files/7284.got.cif
#   From: 2010.05.17/outbox.cif.g08.bks.cpg/sg57_4_cif.got.tgz:7284.got - 2010.06.03 13:58:18.
