data_PCOD9435338
_publ_section_title
;
Structure prediction by ZEFSAII (Michael W. Deem and Ramdas Pophale) SiO2 
 PCOD9435338
Probable space group: P B C M
;
_chemical_formula_sum "Si O2"
_cell_formula_units_Z 64
_cell_length_a 15.208650
_cell_length_b 30.382874
_cell_length_c 9.004444
_cell_angle_alpha 90.000000
_cell_angle_beta 90.000000
_cell_angle_gamma 90.000000
_cell_volume 4160.795965
_symmetry_space_group_name_H-M "P B C M"
_symmetry_group_IT_number 57
_symmetry_cell_setting 'orthorhombic'
loop_
_space_group_symop_operation_xyz
x,y,z
-x,-y,1/2+z
x,1/2-y,-z
-x,1/2+y,1/2-z
-x,-y,-z
x,y,1/2-z
-x,1/2+y,z
x,1/2-y,1/2+z
loop_
_atom_site_type_symbol
_atom_site_label
_atom_site_fract_x
_atom_site_fract_y
_atom_site_fract_z
Si Si1 0.313338 0.039512 0.070872
Si Si2 0.797401 0.118031 0.927451
Si Si3 0.123286 0.466023 0.073973
Si Si4 0.282372 0.703890 0.427186
Si Si5 0.536480 0.892548 0.929274
Si Si6 0.628400 0.442222 0.072264
Si Si7 0.508706 0.204043 0.427164
Si Si8 0.949630 0.435140 0.574041
O O1 0.302431 0.038759 0.250000
O O2 0.377031 0.079802 0.030539
O O3 0.359499 0.993196 0.028541
O O4 0.218423 0.042080 0.995829
O O5 0.803651 0.121836 0.750000
O O6 0.719082 0.083309 0.961296
O O7 0.768972 0.163761 0.000044
O O8 0.887367 0.099974 0.995279
O O9 0.124002 0.458036 0.250000
O O10 0.096002 0.517100 0.049912
O O11 0.046322 0.438220 0.996080
O O12 0.255712 0.750000 0.500000
O O13 0.270815 0.704660 0.250000
O O14 0.386903 0.698279 0.457738
O O15 0.528939 0.892718 0.750000
O O16 0.536338 0.841441 0.977586
O O17 0.451947 0.917754 0.993794
O O18 0.614807 0.440462 0.250000
O O19 0.480035 0.250000 0.500000
O O20 0.498148 0.208027 0.250000
O O21 0.954621 0.427558 0.750000
#
# Coordination Sequence:
#
# PCOD9435338 Si02
#       8
#     8   8   8   8   8   8   8   8
#     4  10  20  34  49  68  98 134 168 205 245 291
#     4  11  20  31  49  73 101 132 167 203 244 295
#     4  10  20  33  50  72  97 126 163 206 246 290
#     4  10  19  32  49  70  98 130 166 206 250 297
#     4  10  20  33  49  69  96 131 169 204 244 292
#     4  10  20  31  45  68  99 134 169 201 237 284
#     4   9  18  31  47  68  92 123 161 204 247 289
#     4  10  20  33  51  72  96 128 163 201 246 293
#
# _framework density 15.381672999999999
#
# number of rings (size 3 to 8) (size 9 to 14) (size 15 to 20)
#    0.000    2.000    2.500    1.875    0.000    3.500 
#    0.000    0.000    0.000    0.000    0.000    0.875 
#    0.000    2.000    0.000    0.000    0.000    0.000 
#
# Total GULP energy -357133.168332 kJ/mol
# GULP energy per Si atom -5580.205755 kJ/mol
# Density = 1.534666 g / cm^3
# Si number density = 15.381673 Si / 1000 Ang^3
#
#
#
# Elastic Constant Matrix: (Units=GPa)
#
#
# Indices 1 2 3 4 5 6 
#
# 1 91.5893 65.1597 40.4377 0.0000 0.0000 0.0000
# 2 65.1597 140.5697 52.0840 0.0000 0.0000 0.0000
# 3 40.4377 52.0840 36.3697 0.0000 0.0000 0.0000
# 4 0.0000 0.0000 0.0000 24.9332 0.0000 0.0000
# 5 0.0000 0.0000 0.0000 0.0000 24.5075 0.0000
# 6 0.0000 0.0000 0.0000 0.0000 0.0000 22.6496
#
#
#
# Elastic Compliance Matrix: (Units=1/GPa)
#
#
# Indices 1 2 3 4 5 6 
#
# 1 0.021819 -0.002397 -0.020826 0.000000 0.000000 0.000000
# 2 -0.002397 0.015419 -0.019416 0.000000 0.000000 0.000000
# 3 -0.020826 -0.019416 0.078455 0.000000 0.000000 0.000000
# 4 0.000000 0.000000 0.000000 0.040107 0.000000 0.000000
# 5 0.000000 0.000000 0.000000 0.000000 0.040804 0.000000
# 6 0.000000 0.000000 0.000000 0.000000 0.000000 0.044151
#
#
# Mechanical properties :
#
#
# Convention : Reuss Voigt Hill
#
# Bulk Modulus (GPa) = 32.87831 64.87684 48.87758
# Shear Modulus (GPa) = 14.87335 21.80789 18.34062
#
# Velocity S-wave (km/s) = 3.11296 3.76943 3.45682
# Velocity P-wave (km/s) = 5.86021 7.82396 6.91218
#
# Compressibility (1/GPa) = 0.03041519
#
# Stress axis : x y z
#
# Youngs Moduli (GPa) = 45.83199 64.85437 12.74609
#
# Poissons Ratio (x) = 0.15549 0.26545
# Poissons Ratio (y) = 0.10988 0.24747
# Poissons Ratio (z) = 0.95449 1.25919
#
# Static dielectric constant tensor:
#      x y z
#    x 1.481450 0.000000 0.000000 
#    y 0.000000 1.510070 0.000000 
#    z 0.000000 0.000000 1.508670 
# 
# From -- ./inp_files/5959.got.cif
#   From: 2010.05.17/outbox.cif.g08.bks.cpg/sg57_3_cif.got.tgz:5959.got - 2010.06.03 13:58:18.
