data_PCOD9435916
_publ_section_title
;
Structure prediction by ZEFSAII (Michael W. Deem and Ramdas Pophale) SiO2 
 PCOD9435916
Probable space group: P B C M
;
_chemical_formula_sum "Si O2"
_cell_formula_units_Z 64
_cell_length_a 15.150687
_cell_length_b 30.384563
_cell_length_c 8.915709
_cell_angle_alpha 90.000000
_cell_angle_beta 90.000000
_cell_angle_gamma 90.000000
_cell_volume 4104.319924
_symmetry_space_group_name_H-M "P B C M"
_symmetry_group_IT_number 57
_symmetry_cell_setting 'orthorhombic'
loop_
_space_group_symop_operation_xyz
x,y,z
-x,-y,1/2+z
x,1/2-y,-z
-x,1/2+y,1/2-z
-x,-y,-z
x,y,1/2-z
-x,1/2+y,z
x,1/2-y,1/2+z
loop_
_atom_site_type_symbol
_atom_site_label
_atom_site_fract_x
_atom_site_fract_y
_atom_site_fract_z
Si Si1 0.297124 0.117659 0.571618
Si Si2 0.558729 0.563029 0.072040
Si Si3 0.629672 0.027285 0.428629
Si Si4 0.182166 0.541518 0.929254
Si Si5 0.993211 0.796283 0.570600
Si Si6 0.144169 0.440620 0.929488
Si Si7 0.041087 0.893267 0.931165
Si Si8 0.215905 0.203756 0.070774
O O1 0.296864 0.119192 0.750000
O O2 0.391471 0.102350 0.509531
O O3 0.224859 0.082284 0.514353
O O4 0.267891 0.163751 0.501751
O O5 0.574777 0.564862 0.250000
O O6 0.453874 0.559386 0.046541
O O7 0.601840 0.518334 0.007252
O O8 0.638434 0.020139 0.250000
O O9 0.721186 0.043461 0.497190
O O10 0.189118 0.545377 0.750000
O O11 0.143408 0.492632 0.962562
O O12 0.118125 0.578559 0.994560
O O13 0.022959 0.750000 0.500000
O O14 0.001798 0.792952 0.750000
O O15 0.888699 0.801671 0.537159
O O16 0.038606 0.841929 0.522128
O O17 0.158107 0.435162 0.750000
O O18 0.052762 0.416328 0.968171
O O19 0.049453 0.894705 0.750000
O O20 0.225828 0.203804 0.250000
O O21 0.243662 0.250000 0.000000
#
# Coordination Sequence:
#
# PCOD9435916 Si02
#       8
#     8   8   8   8   8   8   8   8
#     4  12  22  31  50  77 103 137 175 207 251 306
#     4  10  20  34  52  73 100 131 166 209 253 297
#     4  10  20  34  52  74  98 130 169 209 253 300
#     4  11  22  33  50  73 101 138 175 214 257 297
#     4   9  18  32  51  72  96 130 165 209 257 298
#     4  10  20  35  49  67 101 141 175 212 252 293
#     4  10  20  35  51  69  99 138 175 210 254 302
#     4  10  19  34  52  73 103 134 169 211 257 303
#
# _framework density 15.593327
#
# number of rings (size 3 to 8) (size 9 to 14) (size 15 to 20)
#    0.000    1.750    2.500    3.000    0.000    3.500 
#    0.000    0.000    0.000    0.000    0.000    0.875 
#    0.000    4.000    0.000    0.000    0.000    0.000 
#
# Total GULP energy -357274.065378 kJ/mol
# GULP energy per Si atom -5582.407272 kJ/mol
# Density = 1.555784 g / cm^3
# Si number density = 15.593327 Si / 1000 Ang^3
#
#
#
# Elastic Constant Matrix: (Units=GPa)
#
#
# Indices 1 2 3 4 5 6 
#
# 1 77.7511 54.3009 40.6683 0.0000 0.0000 0.0000
# 2 54.3009 134.2522 54.4890 0.0000 0.0000 0.0000
# 3 40.6683 54.4890 59.7644 0.0000 0.0000 0.0000
# 4 0.0000 0.0000 0.0000 28.2244 0.0000 0.0000
# 5 0.0000 0.0000 0.0000 0.0000 23.8650 0.0000
# 6 0.0000 0.0000 0.0000 0.0000 0.0000 21.3623
#
#
#
# Elastic Compliance Matrix: (Units=1/GPa)
#
#
# Indices 1 2 3 4 5 6 
#
# 1 0.021473 -0.004373 -0.010625 0.000000 0.000000 0.000000
# 2 -0.004373 0.012715 -0.008617 0.000000 0.000000 0.000000
# 3 -0.010625 -0.008617 0.031819 0.000000 0.000000 0.000000
# 4 0.000000 0.000000 0.000000 0.035430 0.000000 0.000000
# 5 0.000000 0.000000 0.000000 0.000000 0.041902 0.000000
# 6 0.000000 0.000000 0.000000 0.000000 0.000000 0.046811
#
#
# Mechanical properties :
#
#
# Convention : Reuss Voigt Hill
#
# Bulk Modulus (GPa) = 53.25650 63.40935 58.33293
# Shear Modulus (GPa) = 20.52221 22.84431 21.68326
#
# Velocity S-wave (km/s) = 3.63173 3.83169 3.73305
# Velocity P-wave (km/s) = 7.19816 7.76714 7.48806
#
# Compressibility (1/GPa) = 0.01877705
#
# Stress axis : x y z
#
# Youngs Moduli (GPa) = 46.57008 78.64995 31.42818
#
# Poissons Ratio (x) = 0.34392 0.33393
# Poissons Ratio (y) = 0.20364 0.27081
# Poissons Ratio (z) = 0.49481 0.67770
#
# Static dielectric constant tensor:
#      x y z
#    x 1.505140 0.000000 0.000000 
#    y 0.000000 1.522230 0.000000 
#    z 0.000000 0.000000 1.517150 
# 
# From -- ./inp_files/6000.got.cif
#   From: 2010.05.17/outbox.cif.g08.bks.cpg/sg57_3_cif.got.tgz:6000.got - 2010.06.03 13:58:18.
