data_PCOD9435753
_publ_section_title
;
Structure prediction by ZEFSAII (Michael W. Deem and Ramdas Pophale) SiO2 
 PCOD9435753
Probable space group: P B C M
;
_chemical_formula_sum "Si O2"
_cell_formula_units_Z 56
_cell_length_a 17.727137
_cell_length_b 20.322405
_cell_length_c 8.830229
_cell_angle_alpha 90.000000
_cell_angle_beta 90.000000
_cell_angle_gamma 90.000000
_cell_volume 3181.161148
_symmetry_space_group_name_H-M "P B C M"
_symmetry_group_IT_number 57
_symmetry_cell_setting 'orthorhombic'
loop_
_space_group_symop_operation_xyz
x,y,z
-x,-y,1/2+z
x,1/2-y,-z
-x,1/2+y,1/2-z
-x,-y,-z
x,y,1/2-z
-x,1/2+y,z
x,1/2-y,1/2+z
loop_
_atom_site_type_symbol
_atom_site_label
_atom_site_fract_x
_atom_site_fract_y
_atom_site_fract_z
Si Si1 0.380211 0.179461 0.932606
Si Si2 0.445382 0.820604 0.067570
Si Si3 0.275459 0.058607 0.566998
Si Si4 0.897520 0.550524 0.568379
Si Si5 0.047441 0.597563 0.069773
Si Si6 0.178172 0.679006 0.931067
Si Si7 0.685792 0.081540 0.567360
O O1 0.377521 0.183332 0.750000
O O2 0.467614 0.166794 0.976264
O O3 0.326117 0.120310 0.981764
O O4 0.358216 0.250000 0.000000
O O5 0.441932 0.815920 0.250000
O O6 0.388783 0.878282 0.020389
O O7 0.422638 0.750000 0.000000
O O8 0.276960 0.055480 0.750000
O O9 0.187836 0.065807 0.521330
O O10 0.306758 0.990142 0.503629
O O11 0.903979 0.558206 0.750000
O O12 0.915958 0.474013 0.533245
O O13 0.961982 0.593362 0.489064
O O14 0.049311 0.606104 0.250000
O O15 0.098447 0.652187 0.990815
O O16 0.177504 0.683368 0.750000
O O17 0.242271 0.626282 0.975895
O O18 0.195218 0.750000 0.000000
O O19 0.685442 0.075616 0.750000
#
# Coordination Sequence:
#
# PCOD9435753 Si02
#       7
#     8   8   8   8   8   8   8
#     4   9  19  36  57  78 104 138 177 219 266 318
#     4   9  18  34  53  76 106 142 181 219 261 313
#     4  10  20  35  55  80 108 140 177 220 268 318
#     4   9  18  33  53  76 104 136 172 216 262 313
#     4  10  19  33  54  77 101 136 178 216 261 316
#     4  11  22  35  52  76 109 145 180 221 268 317
#     4  10  21  34  51  78 110 141 177 221 266 314
#
# _framework density 17.603634
#
# number of rings (size 3 to 8) (size 9 to 14) (size 15 to 20)
#    0.000    2.286    1.429    1.286    0.000    3.429 
#    0.000    0.714    0.000    1.714    0.000    0.000 
#    0.000    0.000    0.000    0.000    0.000    0.000 
#
# Total GULP energy -312525.894393 kJ/mol
# GULP energy per Si atom -5580.819543 kJ/mol
# Density = 1.756357 g / cm^3
# Si number density = 17.603634 Si / 1000 Ang^3
#
#
#
# Elastic Constant Matrix: (Units=GPa)
#
#
# Indices 1 2 3 4 5 6 
#
# 1 130.3458 94.4794 29.4343 0.0000 0.0000 0.0000
# 2 94.4794 142.0559 34.8075 0.0000 0.0000 0.0000
# 3 29.4343 34.8075 14.0125 0.0000 0.0000 0.0000
# 4 0.0000 0.0000 0.0000 31.6847 0.0000 0.0000
# 5 0.0000 0.0000 0.0000 0.0000 16.8377 0.0000
# 6 0.0000 0.0000 0.0000 0.0000 0.0000 24.2462
#
#
#
# Elastic Compliance Matrix: (Units=1/GPa)
#
#
# Indices 1 2 3 4 5 6 
#
# 1 0.016582 -0.006372 -0.019003 0.000000 0.000000 0.000000
# 2 -0.006372 0.020437 -0.037380 0.000000 0.000000 0.000000
# 3 -0.019003 -0.037380 0.204135 0.000000 0.000000 0.000000
# 4 0.000000 0.000000 0.000000 0.031561 0.000000 0.000000
# 5 0.000000 0.000000 0.000000 0.000000 0.059391 0.000000
# 6 0.000000 0.000000 0.000000 0.000000 0.000000 0.041244
#
#
# Mechanical properties :
#
#
# Convention : Reuss Voigt Hill
#
# Bulk Modulus (GPa) = 8.64725 67.09517 37.87121
# Shear Modulus (GPa) = 9.30394 23.06658 16.18526
#
# Velocity S-wave (km/s) = 2.30146 3.62378 3.03550
# Velocity P-wave (km/s) = 3.46196 7.46365 5.81770
#
# Compressibility (1/GPa) = 0.11564377
#
# Stress axis : x y z
#
# Youngs Moduli (GPa) = 60.30704 48.93166 4.89871
#
# Poissons Ratio (x) = 0.31180 0.09309
# Poissons Ratio (y) = 0.38429 0.18311
# Poissons Ratio (z) = 1.14600 1.82907
#
# Static dielectric constant tensor:
#      x y z
#    x 1.605350 0.000000 0.000000 
#    y 0.000000 1.566010 0.000000 
#    z 0.000000 0.000000 1.585930 
# 
# From -- ./inp_files/5230.got.cif
#   From: 2010.05.17/outbox.cif.g08.bks.cpg/sg57_3_cif.got.tgz:5230.got - 2010.06.03 13:58:18.
