data_PCOD9435050
_publ_section_title
;
Structure prediction by ZEFSAII (Michael W. Deem and Ramdas Pophale) SiO2 
 PCOD9435050
Probable space group: P B C M
;
_chemical_formula_sum "Si O2"
_cell_formula_units_Z 64
_cell_length_a 11.285598
_cell_length_b 24.608062
_cell_length_c 11.047808
_cell_angle_alpha 90.000000
_cell_angle_beta 90.000000
_cell_angle_gamma 90.000000
_cell_volume 3068.160728
_symmetry_space_group_name_H-M "P B C M"
_symmetry_group_IT_number 57
_symmetry_cell_setting 'orthorhombic'
loop_
_space_group_symop_operation_xyz
x,y,z
-x,-y,1/2+z
x,1/2-y,-z
-x,1/2+y,1/2-z
-x,-y,-z
x,y,1/2-z
-x,1/2+y,z
x,1/2-y,1/2+z
loop_
_atom_site_type_symbol
_atom_site_label
_atom_site_fract_x
_atom_site_fract_y
_atom_site_fract_z
Si Si1 0.435201 0.882492 0.384981
Si Si2 0.866305 0.457510 0.538368
Si Si3 0.935157 0.574445 0.882651
Si Si4 0.788717 0.792168 0.612289
Si Si5 0.669152 0.501315 0.386266
Si Si6 0.063388 0.714201 0.381843
Si Si7 0.685187 0.888656 0.024007
Si Si8 0.288824 0.635548 0.381244
O O1 0.391698 0.867212 0.250000
O O2 0.411044 0.947546 0.397246
O O3 0.574141 0.870629 0.396433
O O4 0.367930 0.856272 0.499514
O O5 0.912452 0.509320 0.610669
O O6 0.801084 0.480860 0.419221
O O7 0.765731 0.424939 0.608511
O O8 0.969930 0.418641 0.489649
O O9 0.979402 0.590222 0.750000
O O10 0.809859 0.602971 0.907595
O O11 0.771889 0.750000 0.500000
O O12 0.763369 0.772077 0.750000
O O13 0.711665 0.844917 0.580063
O O14 0.928637 0.807725 0.611616
O O15 0.660994 0.520854 0.250000
O O16 0.648982 0.552464 0.471750
O O17 0.077811 0.750000 0.500000
O O18 0.069400 0.743220 0.250000
O O19 0.172275 0.672782 0.382914
O O20 0.349063 0.642405 0.250000
#
# Coordination Sequence:
#
# PCOD9435050 Si02
#       8
#     8   8   8   8   8   8   8   8
#     4  10  22  38  55  82 118 152 191 237 279 326
#     4   9  18  31  48  76 109 143 182 229 280 334
#     4  10  19  30  48  76 111 149 186 226 276 338
#     4  10  22  40  62  88 117 148 185 232 286 342
#     4   9  18  33  53  78 111 151 194 239 283 331
#     4   9  19  37  60  87 114 140 178 230 286 344
#     4  11  21  35  56  82 113 155 198 235 281 339
#     4  10  20  36  58  80 105 141 182 226 278 332
#
# _framework density 20.859401999999999
#
# number of rings (size 3 to 8) (size 9 to 14) (size 15 to 20)
#    0.000    2.250    0.000    2.625    0.000    3.000 
#    0.000   10.000    0.000    0.000    0.000    0.000 
#    0.000    0.000    0.000    0.000    0.000    0.000 
#
# Total GULP energy -356666.381372 kJ/mol
# GULP energy per Si atom -5572.912209 kJ/mol
# Density = 2.081192 g / cm^3
# Si number density = 20.859402 Si / 1000 Ang^3
#
#
#
# Elastic Constant Matrix: (Units=GPa)
#
#
# Indices 1 2 3 4 5 6 
#
# 1 70.8813 6.0971 42.9875 0.0000 0.0000 0.0000
# 2 6.0971 16.9520 24.4160 0.0000 0.0000 0.0000
# 3 42.9875 24.4160 152.0386 0.0000 0.0000 0.0000
# 4 0.0000 0.0000 0.0000 13.3225 0.0000 0.0000
# 5 0.0000 0.0000 0.0000 0.0000 22.9311 0.0000
# 6 0.0000 0.0000 0.0000 0.0000 0.0000 11.3947
#
#
#
# Elastic Compliance Matrix: (Units=1/GPa)
#
#
# Indices 1 2 3 4 5 6 
#
# 1 0.017042 0.001054 -0.004988 0.000000 0.000000 0.000000
# 2 0.001054 0.076805 -0.012632 0.000000 0.000000 0.000000
# 3 -0.004988 -0.012632 0.010016 0.000000 0.000000 0.000000
# 4 0.000000 0.000000 0.000000 0.075061 0.000000 0.000000
# 5 0.000000 0.000000 0.000000 0.000000 0.043609 0.000000
# 6 0.000000 0.000000 0.000000 0.000000 0.000000 0.087760
#
#
# Mechanical properties :
#
#
# Convention : Reuss Voigt Hill
#
# Bulk Modulus (GPa) = 14.13785 42.98591 28.56188
# Shear Modulus (GPa) = 13.62389 20.62109 17.12249
#
# Velocity S-wave (km/s) = 2.55841 3.14757 2.86816
# Velocity P-wave (km/s) = 3.93951 5.81909 4.96898
#
# Compressibility (1/GPa) = 0.07073213
#
# Stress axis : x y z
#
# Youngs Moduli (GPa) = 58.67708 13.01997 99.83833
#
# Poissons Ratio (x) = -0.01373 0.49799
# Poissons Ratio (y) = -0.06187 1.26119
# Poissons Ratio (z) = 0.29268 0.16447
#
# Static dielectric constant tensor:
#      x y z
#    x 1.759100 0.000000 0.000000 
#    y 0.000000 1.742060 0.000000 
#    z 0.000000 0.000000 1.790710 
# 
# From -- ./inp_files/13248.got.cif
#   From: 2010.05.17/outbox.cif.g08.bks.cpg/sg57_7_cif.got.tgz:13248.got - 2010.06.03 13:58:18.
