data_PCOD9435790
_publ_section_title
;
Structure prediction by ZEFSAII (Michael W. Deem and Ramdas Pophale) SiO2 
 PCOD9435790
Probable space group: P B C M
;
_chemical_formula_sum "Si O2"
_cell_formula_units_Z 64
_cell_length_a 11.009016
_cell_length_b 34.654242
_cell_length_c 7.854673
_cell_angle_alpha 90.000000
_cell_angle_beta 90.000000
_cell_angle_gamma 90.000000
_cell_volume 2996.629264
_symmetry_space_group_name_H-M "P B C M"
_symmetry_group_IT_number 57
_symmetry_cell_setting 'orthorhombic'
loop_
_space_group_symop_operation_xyz
x,y,z
-x,-y,1/2+z
x,1/2-y,-z
-x,1/2+y,1/2-z
-x,-y,-z
x,y,1/2-z
-x,1/2+y,z
x,1/2-y,1/2+z
loop_
_atom_site_type_symbol
_atom_site_label
_atom_site_fract_x
_atom_site_fract_y
_atom_site_fract_z
Si Si1 0.171309 0.865843 0.446322
Si Si2 0.297229 0.127890 0.050881
Si Si3 0.194638 0.484197 0.041461
Si Si4 0.313348 0.706709 0.955369
Si Si5 0.591846 0.793377 0.453362
Si Si6 0.707450 0.062087 0.052506
Si Si7 0.556944 0.942298 0.050373
Si Si8 0.946878 0.586965 0.550688
O O1 0.138955 0.857166 0.250000
O O2 0.224530 0.826618 0.522340
O O3 0.275392 0.898358 0.452804
O O4 0.056237 0.888092 0.526099
O O5 0.285765 0.119481 0.250000
O O6 0.324919 0.172669 0.024195
O O7 0.408155 0.102424 0.978740
O O8 0.175464 0.112382 0.962357
O O9 0.192359 0.483994 0.250000
O O10 0.203052 0.528483 0.986817
O O11 0.323496 0.465064 0.990166
O O12 0.089980 0.455207 0.979260
O O13 0.317269 0.703358 0.750000
O O14 0.452466 0.701724 0.017026
O O15 0.274341 0.750000 0.000000
O O16 0.630324 0.750000 0.500000
O O17 0.591117 0.796842 0.250000
O O18 0.733770 0.069393 0.250000
O O19 0.568927 0.048079 0.038696
O O20 0.541985 0.949753 0.250000
O O21 0.975610 0.580874 0.750000
#
# Coordination Sequence:
#
# PCOD9435790 Si02
#       8
#     8   8   8   8   8   8   8   8
#     4  10  21  37  56  78 105 142 185 221 262 320
#     4  11  21  34  54  80 107 136 175 221 273 326
#     4   8  17  33  52  75 104 140 180 223 269 316
#     4   9  19  35  56  81 107 135 168 209 257 311
#     4  10  19  33  54  81 113 143 173 213 265 325
#     4  11  21  32  50  79 111 139 175 225 274 318
#     4  10  19  34  54  75 104 141 179 218 267 327
#     4   9  19  38  58  73 100 145 189 224 261 312
#
# _framework density 21.357329
#
# number of rings (size 3 to 8) (size 9 to 14) (size 15 to 20)
#    0.000    2.250    0.000    4.125    0.000    3.000 
#    0.000    6.250    0.000    1.500    0.000    0.000 
#    0.000    0.000    0.000    0.000    0.000    0.000 
#
# Total GULP energy -357363.487952 kJ/mol
# GULP energy per Si atom -5583.804499 kJ/mol
# Density = 2.130872 g / cm^3
# Si number density = 21.357329 Si / 1000 Ang^3
#
#
#
# Elastic Constant Matrix: (Units=GPa)
#
#
# Indices 1 2 3 4 5 6 
#
# 1 46.4602 -0.0609 -1.1015 0.0000 0.0000 0.0000
# 2 -0.0609 90.3669 -6.9940 0.0000 0.0000 0.0000
# 3 -1.1015 -6.9940 42.1611 0.0000 0.0000 0.0000
# 4 0.0000 0.0000 0.0000 8.1489 0.0000 0.0000
# 5 0.0000 0.0000 0.0000 0.0000 9.2392 0.0000
# 6 0.0000 0.0000 0.0000 0.0000 0.0000 24.1961
#
#
#
# Elastic Compliance Matrix: (Units=1/GPa)
#
#
# Indices 1 2 3 4 5 6 
#
# 1 0.021537 0.000059 0.000572 0.000000 0.000000 0.000000
# 2 0.000059 0.011210 0.001861 0.000000 0.000000 0.000000
# 3 0.000572 0.001861 0.024042 0.000000 0.000000 0.000000
# 4 0.000000 0.000000 0.000000 0.122716 0.000000 0.000000
# 5 0.000000 0.000000 0.000000 0.000000 0.108235 0.000000
# 6 0.000000 0.000000 0.000000 0.000000 0.000000 0.041329
#
#
# Mechanical properties :
#
#
# Convention : Reuss Voigt Hill
#
# Bulk Modulus (GPa) = 16.18787 18.07503 17.13145
# Shear Modulus (GPa) = 14.50639 20.79315 17.64977
#
# Velocity S-wave (km/s) = 2.60902 3.12362 2.87784
# Velocity P-wave (km/s) = 4.08313 4.63582 4.36823
#
# Compressibility (1/GPa) = 0.06177464
#
# Stress axis : x y z
#
# Youngs Moduli (GPa) = 46.43073 89.20535 41.59348
#
# Poissons Ratio (x) = -0.00525 -0.02381
# Poissons Ratio (y) = -0.00273 -0.07741
# Poissons Ratio (z) = -0.02658 -0.16602
#
# Static dielectric constant tensor:
#      x y z
#    x 1.793810 0.000000 0.000000 
#    y 0.000000 1.782050 0.000000 
#    z 0.000000 0.000000 1.764950 
# 
# From -- ./inp_files/3904.got.cif
#   From: 2010.05.17/outbox.cif.g08.bks.cpg/sg57_2_cif.got.tgz:3904.got - 2010.06.03 13:58:18.
