data_PCOD9435590
_publ_section_title
;
Structure prediction by ZEFSAII (Michael W. Deem and Ramdas Pophale) SiO2 
 PCOD9435590
Probable space group: P B C M
;
_chemical_formula_sum "Si O2"
_cell_formula_units_Z 48
_cell_length_a 9.787173
_cell_length_b 11.995115
_cell_length_c 16.969912
_cell_angle_alpha 90.000000
_cell_angle_beta 90.000000
_cell_angle_gamma 90.000000
_cell_volume 1992.238237
_symmetry_space_group_name_H-M "P B C M"
_symmetry_group_IT_number 57
_symmetry_cell_setting 'orthorhombic'
loop_
_space_group_symop_operation_xyz
x,y,z
-x,-y,1/2+z
x,1/2-y,-z
-x,1/2+y,1/2-z
-x,-y,-z
x,y,1/2-z
-x,1/2+y,z
x,1/2-y,1/2+z
loop_
_atom_site_type_symbol
_atom_site_label
_atom_site_fract_x
_atom_site_fract_y
_atom_site_fract_z
Si Si1 0.701727 0.361579 0.082268
Si Si2 0.040275 0.516243 0.095567
Si Si3 0.584716 0.797944 0.413352
Si Si4 0.348048 0.949014 0.910530
Si Si5 0.649538 0.587328 0.341119
Si Si6 0.002239 0.738283 0.908318
O O1 0.567258 0.311802 0.123243
O O2 0.725069 0.486675 0.114271
O O3 0.833317 0.285680 0.090067
O O4 0.658110 0.382043 0.992219
O O5 0.194214 0.552880 0.118936
O O6 0.970341 0.635318 0.122551
O O7 0.036764 0.385899 0.124152
O O8 0.000000 0.500000 0.000000
O O9 0.579523 0.750000 0.500000
O O10 0.636241 0.920792 0.426776
O O11 0.678695 0.714663 0.364349
O O12 0.486941 0.922020 0.863792
O O13 0.668778 0.568503 0.250000
O O14 0.957024 0.750000 0.000000
#
# Coordination Sequence:
#
# PCOD9435590 Si02
#       6
#     8   8   8   8   8   8
#     4  11  19  35  59  83 116 159 201 250 306 378
#     4  10  20  33  54  90 125 156 196 263 308 363
#     4  11  19  31  56  84 114 158 201 248 309 369
#     4  11  20  35  59  86 118 158 203 252 311 376
#     4  11  24  38  55  87 126 162 205 257 316 384
#     4  10  19  32  55  88 127 153 199 252 314 356
#
# _framework density 24.093503999999999
#
# number of rings (size 3 to 8) (size 9 to 14) (size 15 to 20)
#    0.000    1.333    6.667    2.500    0.000    6.000 
#    0.000    0.000    0.000    1.000    0.000    0.000 
#    0.000    0.000    0.000    0.000    0.000    0.000 
#
# Total GULP energy -267230.029871 kJ/mol
# GULP energy per Si atom -5567.292289 kJ/mol
# Density = 2.403867 g / cm^3
# Si number density = 24.093504 Si / 1000 Ang^3
#
#
#
# Elastic Constant Matrix: (Units=GPa)
#
#
# Indices 1 2 3 4 5 6 
#
# 1 43.0448 14.2026 -15.1809 0.0000 0.0000 0.0000
# 2 14.2026 215.4795 -5.4767 0.0000 0.0000 0.0000
# 3 -15.1809 -5.4767 23.2383 0.0000 0.0000 0.0000
# 4 0.0000 0.0000 0.0000 7.4638 0.0000 0.0000
# 5 0.0000 0.0000 0.0000 0.0000 0.7408 0.0000
# 6 0.0000 0.0000 0.0000 0.0000 0.0000 43.0449
#
#
#
# Elastic Compliance Matrix: (Units=1/GPa)
#
#
# Indices 1 2 3 4 5 6 
#
# 1 0.030674 -0.001522 0.019680 0.000000 0.000000 0.000000
# 2 -0.001522 0.004744 0.000124 0.000000 0.000000 0.000000
# 3 0.019680 0.000124 0.055918 0.000000 0.000000 0.000000
# 4 0.000000 0.000000 0.000000 0.133979 0.000000 0.000000
# 5 0.000000 0.000000 0.000000 0.000000 1.349831 0.000000
# 6 0.000000 0.000000 0.000000 0.000000 0.000000 0.023232
#
#
# Mechanical properties :
#
#
# Convention : Reuss Voigt Hill
#
# Bulk Modulus (GPa) = 7.81850 29.87251 18.84551
# Shear Modulus (GPa) = 3.11634 29.46440 16.29037
#
# Velocity S-wave (km/s) = 1.13853 3.50082 2.60307
# Velocity P-wave (km/s) = 2.23169 5.36344 4.10773
#
# Compressibility (1/GPa) = 0.12790172
#
# Stress axis : x y z
#
# Youngs Moduli (GPa) = 32.60051 210.78106 17.88331
#
# Poissons Ratio (x) = 0.32073 -0.35194
# Poissons Ratio (y) = 0.04961 -0.00222
# Poissons Ratio (z) = -0.64158 -0.02616
#
# Static dielectric constant tensor:
#      x y z
#    x 2.133890 0.000000 0.000000 
#    y 0.000000 2.097200 0.000000 
#    z 0.000000 0.000000 1.861660 
# 
# From -- ./inp_files/21817.got.cif
#   From: 2010.05.17/outbox.cif.g08.bks.cpg/sg57_11_cif.got.tgz:21817.got - 2010.06.03 13:58:18.
