data_PCOD9435577
_publ_section_title
;
Structure prediction by ZEFSAII (Michael W. Deem and Ramdas Pophale) SiO2 
 PCOD9435577
Probable space group: P B C M
;
_chemical_formula_sum "Si O2"
_cell_formula_units_Z 48
_cell_length_a 10.157558
_cell_length_b 28.233455
_cell_length_c 8.823806
_cell_angle_alpha 90.000000
_cell_angle_beta 90.000000
_cell_angle_gamma 90.000000
_cell_volume 2530.517174
_symmetry_space_group_name_H-M "P B C M"
_symmetry_group_IT_number 57
_symmetry_cell_setting 'orthorhombic'
loop_
_space_group_symop_operation_xyz
x,y,z
-x,-y,1/2+z
x,1/2-y,-z
-x,1/2+y,1/2-z
-x,-y,-z
x,y,1/2-z
-x,1/2+y,z
x,1/2-y,1/2+z
loop_
_atom_site_type_symbol
_atom_site_label
_atom_site_fract_x
_atom_site_fract_y
_atom_site_fract_z
Si Si1 0.471960 0.800378 0.567678
Si Si2 0.701761 0.628979 0.431305
Si Si3 0.819038 0.167601 0.431768
Si Si4 0.089333 0.299725 0.430228
Si Si5 0.182388 0.041048 0.570023
Si Si6 0.897985 0.438697 0.569247
O O1 0.512791 0.750000 0.500000
O O2 0.475281 0.797134 0.750000
O O3 0.570556 0.842586 0.523569
O O4 0.322454 0.812349 0.522255
O O5 0.712881 0.629556 0.250000
O O6 0.822670 0.658399 0.501570
O O7 0.714718 0.575512 0.489529
O O8 0.835842 0.174752 0.250000
O O9 0.829341 0.111273 0.460812
O O10 0.939424 0.191815 0.517948
O O11 0.135224 0.250000 0.500000
O O12 0.099537 0.298875 0.250000
O O13 0.194011 0.046509 0.750000
O O14 0.036103 0.057081 0.517837
O O15 0.187424 0.985232 0.531651
O O16 0.926886 0.440847 0.750000
#
# Coordination Sequence:
#
# PCOD9435577 Si02
#       6
#     8   8   8   8   8   8
#     4  10  23  40  59  81 110 150 193 232 283 343
#     4  11  22  38  57  81 113 151 190 235 285 334
#     4  10  20  38  60  84 113 148 187 232 284 338
#     4  12  24  37  56  84 112 143 186 237 285 339
#     4  10  19  32  54  86 116 147 189 234 281 336
#     4   9  18  33  56  83 116 151 184 229 285 338
#
# _framework density 18.968454000000001
#
# number of rings (size 3 to 8) (size 9 to 14) (size 15 to 20)
#    0.000    1.667    1.667    3.500    0.000    5.333 
#    0.000    0.833    0.000    0.000    0.000    0.000 
#    0.000    0.000    0.000    0.000    0.000    0.000 
#
# Total GULP energy -268188.586293 kJ/mol
# GULP energy per Si atom -5587.262214 kJ/mol
# Density = 1.892528 g / cm^3
# Si number density = 18.968454 Si / 1000 Ang^3
#
#
#
# Elastic Constant Matrix: (Units=GPa)
#
#
# Indices 1 2 3 4 5 6 
#
# 1 45.8235 -11.0338 9.6486 0.0000 0.0000 0.0000
# 2 -11.0338 75.4192 19.8001 0.0000 0.0000 0.0000
# 3 9.6486 19.8001 44.5533 0.0000 0.0000 0.0000
# 4 0.0000 0.0000 0.0000 29.3029 0.0000 0.0000
# 5 0.0000 0.0000 0.0000 0.0000 -1.1613 0.0000
# 6 0.0000 0.0000 0.0000 0.0000 0.0000 26.6559
#
#
#
# Elastic Compliance Matrix: (Units=1/GPa)
#
#
# Indices 1 2 3 4 5 6 
#
# 1 0.024869 0.005720 -0.007928 0.000000 0.000000 0.000000
# 2 0.005720 0.016326 -0.008494 0.000000 0.000000 0.000000
# 3 -0.007928 -0.008494 0.027937 0.000000 0.000000 0.000000
# 4 0.000000 0.000000 0.000000 0.034126 0.000000 0.000000
# 5 0.000000 0.000000 0.000000 0.000000 -0.861085 0.000000
# 6 0.000000 0.000000 0.000000 0.000000 0.000000 0.037515
#
#
# Mechanical properties :
#
#
# Convention : Reuss Voigt Hill
#
# Bulk Modulus (GPa) = 20.95217 22.51398 21.73307
# Shear Modulus (GPa) = -7.32067 20.78489 6.73211
#
# Velocity S-wave (km/s) = -1.96667 3.31382 1.88595
# Velocity P-wave (km/s) = 2.43161 5.15139 4.02800
#
# Compressibility (1/GPa) = 0.04772776
#
# Stress axis : x y z
#
# Youngs Moduli (GPa) = 40.21014 61.25198 35.79506
#
# Poissons Ratio (x) = -0.35034 0.28377
# Poissons Ratio (y) = -0.22999 0.30405
# Poissons Ratio (z) = 0.31877 0.52028
#
# Static dielectric constant tensor:
#      x y z
#    x 1.639640 0.000000 0.000000 
#    y 0.000000 1.693720 0.000000 
#    z 0.000000 0.000000 1.633760 
# 
# From -- ./inp_files/2050.got.cif
#   From: 2010.05.17/outbox.cif.g08.bks.cpg/sg57_2_cif.got.tgz:2050.got - 2010.06.03 13:58:18.
