data_PCOD9435846
_publ_section_title
;
Structure prediction by ZEFSAII (Michael W. Deem and Ramdas Pophale) SiO2 
 PCOD9435846
Probable space group: P B C M
;
_chemical_formula_sum "Si O2"
_cell_formula_units_Z 64
_cell_length_a 15.693010
_cell_length_b 25.306932
_cell_length_c 8.942728
_cell_angle_alpha 90.000000
_cell_angle_beta 90.000000
_cell_angle_gamma 90.000000
_cell_volume 3551.532319
_symmetry_space_group_name_H-M "P B C M"
_symmetry_group_IT_number 57
_symmetry_cell_setting 'orthorhombic'
loop_
_space_group_symop_operation_xyz
x,y,z
-x,-y,1/2+z
x,1/2-y,-z
-x,1/2+y,1/2-z
-x,-y,-z
x,y,1/2-z
-x,1/2+y,z
x,1/2-y,1/2+z
loop_
_atom_site_type_symbol
_atom_site_label
_atom_site_fract_x
_atom_site_fract_y
_atom_site_fract_z
Si Si1 0.669249 0.407164 0.082491
Si Si2 0.612198 0.306272 0.573771
Si Si3 0.794577 0.483496 0.570940
Si Si4 0.417538 0.345735 0.926345
Si Si5 0.477193 0.053836 0.582208
Si Si6 0.027294 0.944780 0.571491
Si Si7 0.149807 0.095625 0.069474
Si Si8 0.750961 0.805543 0.428811
O O1 0.705481 0.404967 0.250000
O O2 0.569045 0.418739 0.095362
O O3 0.671070 0.351399 0.998559
O O4 0.711659 0.454640 0.991201
O O5 0.627417 0.250000 0.500000
O O6 0.627144 0.304513 0.750000
O O7 0.511941 0.321423 0.552956
O O8 0.790981 0.490872 0.750000
O O9 0.872734 0.442728 0.534516
O O10 0.813012 0.539971 0.493455
O O11 0.397179 0.344371 0.750000
O O12 0.420402 0.406103 0.985803
O O13 0.346623 0.315108 0.019729
O O14 0.442284 0.045713 0.750000
O O15 0.500000 0.000000 0.500000
O O16 0.022705 0.949358 0.750000
O O17 0.951757 0.904597 0.530208
O O18 0.000000 0.000000 0.500000
O O19 0.159528 0.096790 0.250000
O O20 0.196670 0.145110 0.995567
O O21 0.779639 0.750000 0.500000
O O22 0.756724 0.804120 0.250000
#
# Coordination Sequence:
#
# PCOD9435846 Si02
#       8
#     8   8   8   8   8   8   8   8
#     4  10  21  35  51  76 107 142 179 219 267 318
#     4  10  20  35  56  78 102 136 177 223 270 318
#     4  10  19  33  55  84 115 144 179 222 270 325
#     4  10  21  37  56  78 104 138 182 228 275 322
#     4  10  21  35  51  72 105 145 185 225 271 324
#     4   8  16  31  53  80 108 138 171 210 255 309
#     4  10  20  36  57  81 110 144 180 220 271 325
#     4  12  25  40  57  80 109 144 186 231 276 326
#
# _framework density 18.020391
#
# number of rings (size 3 to 8) (size 9 to 14) (size 15 to 20)
#    0.000    2.000    0.000    3.750    1.750    5.000 
#    0.000    0.000    0.000    0.750    0.000    3.500 
#    0.000    0.000    0.000    0.000    0.000    0.000 
#
# Total GULP energy -356915.814487 kJ/mol
# GULP energy per Si atom -5576.809601 kJ/mol
# Density = 1.797938 g / cm^3
# Si number density = 18.020391 Si / 1000 Ang^3
#
#
#
# Elastic Constant Matrix: (Units=GPa)
#
#
# Indices 1 2 3 4 5 6 
#
# 1 42.2841 19.0475 32.5970 0.0000 0.0000 0.0000
# 2 19.0475 123.9153 61.3411 0.0000 0.0000 0.0000
# 3 32.5970 61.3411 112.4729 0.0000 0.0000 0.0000
# 4 0.0000 0.0000 0.0000 29.6848 0.0000 0.0000
# 5 0.0000 0.0000 0.0000 0.0000 14.7625 0.0000
# 6 0.0000 0.0000 0.0000 0.0000 0.0000 16.0215
#
#
#
# Elastic Compliance Matrix: (Units=1/GPa)
#
#
# Indices 1 2 3 4 5 6 
#
# 1 0.030470 -0.000428 -0.008598 0.000000 0.000000 0.000000
# 2 -0.000428 0.011061 -0.005908 0.000000 0.000000 0.000000
# 3 -0.008598 -0.005908 0.014605 0.000000 0.000000 0.000000
# 4 0.000000 0.000000 0.000000 0.033687 0.000000 0.000000
# 5 0.000000 0.000000 0.000000 0.000000 0.067739 0.000000
# 6 0.000000 0.000000 0.000000 0.000000 0.000000 0.062416
#
#
# Mechanical properties :
#
#
# Convention : Reuss Voigt Hill
#
# Bulk Modulus (GPa) = 38.06829 56.07149 47.06989
# Shear Modulus (GPa) = 19.33474 23.13953 21.23714
#
# Velocity S-wave (km/s) = 3.27912 3.58729 3.43666
# Velocity P-wave (km/s) = 5.95885 6.95279 6.47492
#
# Compressibility (1/GPa) = 0.02626858
#
# Stress axis : x y z
#
# Youngs Moduli (GPa) = 32.81901 90.41170 68.46913
#
# Poissons Ratio (x) = 0.03866 0.58867
# Poissons Ratio (y) = 0.01403 0.40454
# Poissons Ratio (z) = 0.28217 0.53418
#
# Static dielectric constant tensor:
#      x y z
#    x 1.656070 0.000000 0.000000 
#    y 0.000000 1.601490 0.000000 
#    z 0.000000 0.000000 1.614900 
# 
# From -- ./inp_files/5602.got.cif
#   From: 2010.05.17/outbox.cif.g08.bks.cpg/sg57_3_cif.got.tgz:5602.got - 2010.06.03 13:58:18.
