data_PCOD9435735
_publ_section_title
;
Structure prediction by ZEFSAII (Michael W. Deem and Ramdas Pophale) SiO2 
 PCOD9435735
Probable space group: P B C M
;
_chemical_formula_sum "Si O2"
_cell_formula_units_Z 56
_cell_length_a 23.026192
_cell_length_b 14.797054
_cell_length_c 8.483086
_cell_angle_alpha 90.000000
_cell_angle_beta 90.000000
_cell_angle_gamma 90.000000
_cell_volume 2890.355420
_symmetry_space_group_name_H-M "P B C M"
_symmetry_group_IT_number 57
_symmetry_cell_setting 'orthorhombic'
loop_
_space_group_symop_operation_xyz
x,y,z
-x,-y,1/2+z
x,1/2-y,-z
-x,1/2+y,1/2-z
-x,-y,-z
x,y,1/2-z
-x,1/2+y,z
x,1/2-y,1/2+z
loop_
_atom_site_type_symbol
_atom_site_label
_atom_site_fract_x
_atom_site_fract_y
_atom_site_fract_z
Si Si1 0.361222 0.454553 0.058093
Si Si2 0.515152 0.900198 0.439294
Si Si3 0.245137 0.352299 0.439419
Si Si4 0.104320 0.847928 0.561475
Si Si5 0.604487 0.343903 0.937238
Si Si6 0.029194 0.348462 0.940127
Si Si7 0.136635 0.465914 0.561200
O O1 0.361440 0.458029 0.250000
O O2 0.417167 0.392908 0.014360
O O3 0.301826 0.408385 0.006286
O O4 0.370021 0.559140 0.004350
O O5 0.510690 0.893541 0.250000
O O6 0.463665 0.844134 0.516639
O O7 0.500000 0.000000 0.500000
O O8 0.246979 0.250000 0.500000
O O9 0.244835 0.351278 0.250000
O O10 0.188014 0.403214 0.499301
O O11 0.123214 0.750000 0.500000
O O12 0.104651 0.847234 0.750000
O O13 0.037213 0.861825 0.505691
O O14 0.140786 0.932126 0.499910
O O15 0.609481 0.344027 0.750000
O O16 0.630689 0.250000 0.000000
O O17 0.028803 0.347680 0.750000
O O18 0.075129 0.423112 0.993847
O O19 0.048259 0.250000 0.000000
O O20 0.137070 0.465782 0.750000
#
# Coordination Sequence:
#
# PCOD9435735 Si02
#       7
#     8   8   8   8   8   8   8
#     4   8  18  36  56  76 106 144 183 224 271 322
#     4   9  16  30  51  77 107 141 177 218 265 317
#     4  11  23  41  60  80 106 141 183 230 276 324
#     4  10  20  36  57  83 112 146 181 222 272 326
#     4  10  19  33  53  81 112 144 179 221 271 327
#     4   9  19  33  53  81 114 146 181 222 270 323
#     4  11  22  37  56  82 112 146 185 227 271 323
#
# _framework density 19.374779
#
# number of rings (size 3 to 8) (size 9 to 14) (size 15 to 20)
#    0.000    2.286    0.000    3.857    0.000    3.429 
#    0.000   10.714    0.000    1.714    0.000    0.000 
#    0.000    0.000    0.000    0.000    0.000    0.000 
#
# Total GULP energy -312349.624067 kJ/mol
# GULP energy per Si atom -5577.671858 kJ/mol
# Density = 1.933068 g / cm^3
# Si number density = 19.374779 Si / 1000 Ang^3
#
#
#
# Elastic Constant Matrix: (Units=GPa)
#
#
# Indices 1 2 3 4 5 6 
#
# 1 51.5530 54.9916 13.9964 0.0000 0.0000 0.0000
# 2 54.9916 162.9353 24.4055 0.0000 0.0000 0.0000
# 3 13.9964 24.4055 39.7232 0.0000 0.0000 0.0000
# 4 0.0000 0.0000 0.0000 32.3751 0.0000 0.0000
# 5 0.0000 0.0000 0.0000 0.0000 19.7558 0.0000
# 6 0.0000 0.0000 0.0000 0.0000 0.0000 27.7948
#
#
#
# Elastic Compliance Matrix: (Units=1/GPa)
#
#
# Indices 1 2 3 4 5 6 
#
# 1 0.031179 -0.009777 -0.004979 0.000000 0.000000 0.000000
# 2 -0.009777 0.009825 -0.002592 0.000000 0.000000 0.000000
# 3 -0.004979 -0.002592 0.028521 0.000000 0.000000 0.000000
# 4 0.000000 0.000000 0.000000 0.030888 0.000000 0.000000
# 5 0.000000 0.000000 0.000000 0.000000 0.050618 0.000000
# 6 0.000000 0.000000 0.000000 0.000000 0.000000 0.035978
#
#
# Mechanical properties :
#
#
# Convention : Reuss Voigt Hill
#
# Bulk Modulus (GPa) = 28.71121 48.99984 38.85553
# Shear Modulus (GPa) = 21.43037 26.70632 24.06835
#
# Velocity S-wave (km/s) = 3.32941 3.71672 3.52838
# Velocity P-wave (km/s) = 5.44344 6.61544 6.05785
#
# Compressibility (1/GPa) = 0.03482960
#
# Stress axis : x y z
#
# Youngs Moduli (GPa) = 32.07336 101.77633 35.06223
#
# Poissons Ratio (x) = 0.99509 0.17456
# Poissons Ratio (y) = 0.31359 0.09087
# Poissons Ratio (z) = 0.15968 0.26377
#
# Static dielectric constant tensor:
#      x y z
#    x 1.691020 0.000000 0.000000 
#    y 0.000000 1.683620 0.000000 
#    z 0.000000 0.000000 1.657100 
# 
# From -- ./inp_files/8199.got.cif
#   From: 2010.05.17/outbox.cif.g08.bks.cpg/sg57_5_cif.got.tgz:8199.got - 2010.06.03 13:58:18.
