data_PCOD9435885
_publ_section_title
;
Structure prediction by ZEFSAII (Michael W. Deem and Ramdas Pophale) SiO2 
 PCOD9435885
Probable space group: P B C M
;
_chemical_formula_sum "Si O2"
_cell_formula_units_Z 48
_cell_length_a 15.188234
_cell_length_b 19.190826
_cell_length_c 8.823005
_cell_angle_alpha 90.000000
_cell_angle_beta 90.000000
_cell_angle_gamma 90.000000
_cell_volume 2571.683229
_symmetry_space_group_name_H-M "P B C M"
_symmetry_group_IT_number 57
_symmetry_cell_setting 'orthorhombic'
loop_
_space_group_symop_operation_xyz
x,y,z
-x,-y,1/2+z
x,1/2-y,-z
-x,1/2+y,1/2-z
-x,-y,-z
x,y,1/2-z
-x,1/2+y,z
x,1/2-y,1/2+z
loop_
_atom_site_type_symbol
_atom_site_label
_atom_site_fract_x
_atom_site_fract_y
_atom_site_fract_z
Si Si1 0.438672 0.409037 0.569257
Si Si2 0.371311 0.553161 0.069615
Si Si3 0.868801 0.926760 0.068052
Si Si4 0.181571 0.927068 0.431578
Si Si5 0.029785 0.826153 0.067913
Si Si6 0.726560 0.824303 0.930376
O O1 0.433993 0.424326 0.750000
O O2 0.541524 0.401863 0.530755
O O3 0.398588 0.475461 0.482683
O O4 0.375184 0.344188 0.539932
O O5 0.358128 0.554067 0.250000
O O6 0.281337 0.575237 0.990370
O O7 0.865533 0.931784 0.250000
O O8 0.954147 0.881446 0.023857
O O9 0.785724 0.883603 0.006347
O O10 0.863814 0.003480 0.998139
O O11 0.181487 0.932510 0.250000
O O12 0.123024 0.860443 0.475969
O O13 0.026813 0.820331 0.250000
O O14 0.015497 0.750000 0.000000
O O15 0.741234 0.824204 0.750000
O O16 0.749332 0.750000 0.000000
#
# Coordination Sequence:
#
# PCOD9435885 Si02
#       6
#     8   8   8   8   8   8
#     4   9  19  35  54  79 113 149 187 232 285 336
#     4  10  19  33  57  85 111 145 190 236 279 335
#     4  11  22  38  60  88 114 147 194 241 289 348
#     4  11  22  38  59  87 118 151 190 239 290 343
#     4  10  24  42  60  83 115 152 193 237 291 347
#     4  11  22  36  55  82 118 156 191 236 291 349
#
# _framework density 18.664818
#
# number of rings (size 3 to 8) (size 9 to 14) (size 15 to 20)
#    0.000    1.667    1.667    3.000    0.000    5.333 
#    0.000    0.833    0.000    4.000    0.000    0.000 
#    0.000    0.000    0.000    0.000    0.000    0.000 
#
# Total GULP energy -268077.390061 kJ/mol
# GULP energy per Si atom -5584.945626 kJ/mol
# Density = 1.862234 g / cm^3
# Si number density = 18.664818 Si / 1000 Ang^3
#
#
#
# Elastic Constant Matrix: (Units=GPa)
#
#
# Indices 1 2 3 4 5 6 
#
# 1 119.2712 19.4149 33.9702 0.0000 0.0000 0.0000
# 2 19.4149 35.6861 10.6260 0.0000 0.0000 0.0000
# 3 33.9702 10.6260 41.5837 0.0000 0.0000 0.0000
# 4 0.0000 0.0000 0.0000 24.1503 0.0000 0.0000
# 5 0.0000 0.0000 0.0000 0.0000 26.1223 0.0000
# 6 0.0000 0.0000 0.0000 0.0000 0.0000 12.4632
#
#
#
# Elastic Compliance Matrix: (Units=1/GPa)
#
#
# Indices 1 2 3 4 5 6 
#
# 1 0.011360 -0.003699 -0.008335 0.000000 0.000000 0.000000
# 2 -0.003699 0.031534 -0.005037 0.000000 0.000000 0.000000
# 3 -0.008335 -0.005037 0.032144 0.000000 0.000000 0.000000
# 4 0.000000 0.000000 0.000000 0.041407 0.000000 0.000000
# 5 0.000000 0.000000 0.000000 0.000000 0.038282 0.000000
# 6 0.000000 0.000000 0.000000 0.000000 0.000000 0.080236
#
#
# Mechanical properties :
#
#
# Convention : Reuss Voigt Hill
#
# Bulk Modulus (GPa) = 24.45135 36.06258 30.25696
# Shear Modulus (GPa) = 17.68428 21.38247 19.53337
#
# Velocity S-wave (km/s) = 3.08143 3.38835 3.23853
# Velocity P-wave (km/s) = 5.07828 5.88821 5.49818
#
# Compressibility (1/GPa) = 0.04089754
#
# Stress axis : x y z
#
# Youngs Moduli (GPa) = 88.02575 31.71177 31.10997
#
# Poissons Ratio (x) = 0.11729 0.25931
# Poissons Ratio (y) = 0.32557 0.15669
# Poissons Ratio (z) = 0.73372 0.15972
#
# Static dielectric constant tensor:
#      x y z
#    x 1.676360 0.000000 0.000000 
#    y 0.000000 1.602410 0.000000 
#    z 0.000000 0.000000 1.625340 
# 
# From -- ./inp_files/4644.got.cif
#   From: 2010.05.17/outbox.cif.g08.bks.cpg/sg57_3_cif.got.tgz:4644.got - 2010.06.03 13:58:18.
