data_PCOD9435551
_publ_section_title
;
Structure prediction by ZEFSAII (Michael W. Deem and Ramdas Pophale) SiO2 
 PCOD9435551
Probable space group: P B C M
;
_chemical_formula_sum "Si O2"
_cell_formula_units_Z 48
_cell_length_a 15.182472
_cell_length_b 19.178762
_cell_length_c 8.693899
_cell_angle_alpha 90.000000
_cell_angle_beta 90.000000
_cell_angle_gamma 90.000000
_cell_volume 2531.498353
_symmetry_space_group_name_H-M "P B C M"
_symmetry_group_IT_number 57
_symmetry_cell_setting 'orthorhombic'
loop_
_space_group_symop_operation_xyz
x,y,z
-x,-y,1/2+z
x,1/2-y,-z
-x,1/2+y,1/2-z
-x,-y,-z
x,y,1/2-z
-x,1/2+y,z
x,1/2-y,1/2+z
loop_
_atom_site_type_symbol
_atom_site_label
_atom_site_fract_x
_atom_site_fract_y
_atom_site_fract_z
Si Si1 0.720997 0.176373 0.066933
Si Si2 0.126205 0.572162 0.437015
Si Si3 0.377015 0.451397 0.435167
Si Si4 0.030793 0.173527 0.434198
Si Si5 0.563769 0.099854 0.932700
Si Si6 0.177715 0.081458 0.935818
O O1 0.723904 0.179296 0.250000
O O2 0.787026 0.115098 0.015563
O O3 0.750302 0.250000 0.000000
O O4 0.623141 0.157735 0.012489
O O5 0.125462 0.570564 0.250000
O O6 0.134020 0.492166 0.487294
O O7 0.042006 0.616786 0.487489
O O8 0.377296 0.463305 0.250000
O O9 0.397323 0.525172 0.514390
O O10 0.460145 0.402219 0.472576
O O11 0.281048 0.422779 0.476345
O O12 0.012343 0.250000 0.500000
O O13 0.027731 0.176739 0.250000
O O14 0.124457 0.144455 0.490233
O O15 0.572001 0.106653 0.750000
O O16 0.171421 0.085978 0.750000
#
# Coordination Sequence:
#
# PCOD9435551 Si02
#       6
#     8   8   8   8   8   8
#     4  11  21  36  55  80 115 154 189 232 285 339
#     4   9  19  36  59  83 112 146 185 228 283 339
#     4   9  18  34  57  81 111 146 181 224 277 327
#     4  11  23  39  57  82 112 148 188 232 280 336
#     4  10  19  32  53  83 112 144 185 226 272 331
#     4  10  19  37  61  85 112 147 184 230 282 333
#
# _framework density 18.961103000000001
#
# number of rings (size 3 to 8) (size 9 to 14) (size 15 to 20)
#    0.000    2.000    1.667    2.500    0.000    1.333 
#    0.000    4.167    0.000    0.000    0.000    0.000 
#    0.000    0.000    0.000    0.000    0.000    0.000 
#
# Total GULP energy -267973.816852 kJ/mol
# GULP energy per Si atom -5582.787851 kJ/mol
# Density = 1.891795 g / cm^3
# Si number density = 18.961103 Si / 1000 Ang^3
#
#
#
# Elastic Constant Matrix: (Units=GPa)
#
#
# Indices 1 2 3 4 5 6 
#
# 1 105.7657 14.2355 21.7820 0.0000 0.0000 0.0000
# 2 14.2355 40.8228 7.0486 0.0000 0.0000 0.0000
# 3 21.7820 7.0486 24.1115 0.0000 0.0000 0.0000
# 4 0.0000 0.0000 0.0000 29.9468 0.0000 0.0000
# 5 0.0000 0.0000 0.0000 0.0000 18.0041 0.0000
# 6 0.0000 0.0000 0.0000 0.0000 0.0000 8.9165
#
#
#
# Elastic Compliance Matrix: (Units=1/GPa)
#
#
# Indices 1 2 3 4 5 6 
#
# 1 0.011836 -0.002402 -0.009990 0.000000 0.000000 0.000000
# 2 -0.002402 0.026286 -0.005514 0.000000 0.000000 0.000000
# 3 -0.009990 -0.005514 0.052111 0.000000 0.000000 0.000000
# 4 0.000000 0.000000 0.000000 0.033393 0.000000 0.000000
# 5 0.000000 0.000000 0.000000 0.000000 0.055543 0.000000
# 6 0.000000 0.000000 0.000000 0.000000 0.000000 0.112151
#
#
# Mechanical properties :
#
#
# Convention : Reuss Voigt Hill
#
# Bulk Modulus (GPa) = 18.37567 28.53690 23.45628
# Shear Modulus (GPa) = 14.48138 19.88243 17.18190
#
# Velocity S-wave (km/s) = 2.76659 3.24171 3.01352
# Velocity P-wave (km/s) = 4.46291 5.39393 4.95036
#
# Compressibility (1/GPa) = 0.05441979
#
# Stress axis : x y z
#
# Youngs Moduli (GPa) = 84.49120 38.04319 19.18994
#
# Poissons Ratio (x) = 0.09139 0.19170
# Poissons Ratio (y) = 0.20298 0.10581
# Poissons Ratio (z) = 0.84405 0.20977
#
# Static dielectric constant tensor:
#      x y z
#    x 1.683150 0.000000 0.000000 
#    y 0.000000 1.633080 0.000000 
#    z 0.000000 0.000000 1.641270 
# 
# From -- ./inp_files/4708.got.cif
#   From: 2010.05.17/outbox.cif.g08.bks.cpg/sg57_3_cif.got.tgz:4708.got - 2010.06.03 13:58:18.
