data_PCOD9435238
_publ_section_title
;
Structure prediction by ZEFSAII (Michael W. Deem and Ramdas Pophale) SiO2 
 PCOD9435238
Probable space group: P B C M
;
_chemical_formula_sum "Si O2"
_cell_formula_units_Z 48
_cell_length_a 11.120861
_cell_length_b 23.965938
_cell_length_c 7.795040
_cell_angle_alpha 90.000000
_cell_angle_beta 90.000000
_cell_angle_gamma 90.000000
_cell_volume 2077.548600
_symmetry_space_group_name_H-M "P B C M"
_symmetry_group_IT_number 57
_symmetry_cell_setting 'orthorhombic'
loop_
_space_group_symop_operation_xyz
x,y,z
-x,-y,1/2+z
x,1/2-y,-z
-x,1/2+y,1/2-z
-x,-y,-z
x,y,1/2-z
-x,1/2+y,z
x,1/2-y,1/2+z
loop_
_atom_site_type_symbol
_atom_site_label
_atom_site_fract_x
_atom_site_fract_y
_atom_site_fract_z
Si Si1 0.679268 0.082219 0.955193
Si Si2 0.187125 0.814494 0.953870
Si Si3 0.279493 0.186211 0.546996
Si Si4 0.585388 0.578633 0.542390
Si Si5 0.957170 0.879566 0.951995
Si Si6 0.825851 0.985203 0.550827
O O1 0.677884 0.074101 0.750000
O O2 0.548090 0.064285 0.020070
O O3 0.790161 0.045119 0.026744
O O4 0.702970 0.146849 0.989400
O O5 0.179422 0.816879 0.750000
O O6 0.068854 0.845717 0.028026
O O7 0.193802 0.750000 0.000000
O O8 0.300342 0.250000 0.500000
O O9 0.260804 0.182926 0.750000
O O10 0.386687 0.143607 0.504276
O O11 0.159096 0.160354 0.466014
O O12 0.591694 0.571108 0.750000
O O13 0.695555 0.545297 0.460277
O O14 0.978610 0.888506 0.750000
O O15 0.919194 0.940373 0.026673
O O16 0.858682 0.992675 0.750000
#
# Coordination Sequence:
#
# PCOD9435238 Si02
#       6
#     8   8   8   8   8   8
#     4  10  21  37  56  80 112 146 179 217 263 317
#     4  11  24  40  57  77 105 142 183 224 266 317
#     4  10  19  31  50  76 104 136 176 222 270 317
#     4   9  19  34  52  78 111 144 179 220 265 316
#     4   9  19  36  56  80 108 137 174 220 270 320
#     4   9  18  34  58  85 111 140 175 219 269 319
#
# _framework density 23.104151999999999
#
# number of rings (size 3 to 8) (size 9 to 14) (size 15 to 20)
#    0.000    2.333    0.000    2.000    0.000    6.000 
#    0.000    1.667    0.000    0.000    0.000    0.000 
#    0.000    0.000    0.000    0.000    0.000    0.000 
#
# Total GULP energy -268083.231452 kJ/mol
# GULP energy per Si atom -5585.067322 kJ/mol
# Density = 2.305157 g / cm^3
# Si number density = 23.104152 Si / 1000 Ang^3
#
#
#
# Elastic Constant Matrix: (Units=GPa)
#
#
# Indices 1 2 3 4 5 6 
#
# 1 70.7681 17.4577 4.0433 0.0000 0.0000 0.0000
# 2 17.4577 133.9555 0.7042 0.0000 0.0000 0.0000
# 3 4.0433 0.7042 41.0028 0.0000 0.0000 0.0000
# 4 0.0000 0.0000 0.0000 4.9565 0.0000 0.0000
# 5 0.0000 0.0000 0.0000 0.0000 14.6397 0.0000
# 6 0.0000 0.0000 0.0000 0.0000 0.0000 28.8478
#
#
#
# Elastic Compliance Matrix: (Units=1/GPa)
#
#
# Indices 1 2 3 4 5 6 
#
# 1 0.014682 -0.001906 -0.001415 0.000000 0.000000 0.000000
# 2 -0.001906 0.007713 0.000055 0.000000 0.000000 0.000000
# 3 -0.001415 0.000055 0.024527 0.000000 0.000000 0.000000
# 4 0.000000 0.000000 0.000000 0.201757 0.000000 0.000000
# 5 0.000000 0.000000 0.000000 0.000000 0.068307 0.000000
# 6 0.000000 0.000000 0.000000 0.000000 0.000000 0.034665
#
#
# Mechanical properties :
#
#
# Convention : Reuss Voigt Hill
#
# Bulk Modulus (GPa) = 24.75792 32.23742 28.49767
# Shear Modulus (GPa) = 13.45368 24.59021 19.02195
#
# Velocity S-wave (km/s) = 2.41572 3.26593 2.87246
# Velocity P-wave (km/s) = 4.30348 5.31085 4.83348
#
# Compressibility (1/GPa) = 0.04039112
#
# Stress axis : x y z
#
# Youngs Moduli (GPa) = 68.11205 129.64677 40.77109
#
# Poissons Ratio (x) = 0.24710 0.05769
# Poissons Ratio (y) = 0.12982 -0.00226
# Poissons Ratio (z) = 0.09638 -0.00719
#
# Static dielectric constant tensor:
#      x y z
#    x 1.884460 0.000000 0.000000 
#    y 0.000000 1.917130 0.000000 
#    z 0.000000 0.000000 1.823350 
# 
# From -- ./inp_files/3127.got.cif
#   From: 2010.05.17/outbox.cif.g08.bks.cpg/sg57_2_cif.got.tgz:3127.got - 2010.06.03 13:58:18.
