data_PCOD9435060
_publ_section_title
;
Structure prediction by ZEFSAII (Michael W. Deem and Ramdas Pophale) SiO2 
 PCOD9435060
Probable space group: P B C M
;
_chemical_formula_sum "Si O2"
_cell_formula_units_Z 48
_cell_length_a 9.167254
_cell_length_b 18.134521
_cell_length_c 13.774760
_cell_angle_alpha 90.000000
_cell_angle_beta 90.000000
_cell_angle_gamma 90.000000
_cell_volume 2289.967898
_symmetry_space_group_name_H-M "P B C M"
_symmetry_group_IT_number 57
_symmetry_cell_setting 'orthorhombic'
loop_
_space_group_symop_operation_xyz
x,y,z
-x,-y,1/2+z
x,1/2-y,-z
-x,1/2+y,1/2-z
-x,-y,-z
x,y,1/2-z
-x,1/2+y,z
x,1/2-y,1/2+z
loop_
_atom_site_type_symbol
_atom_site_label
_atom_site_fract_x
_atom_site_fract_y
_atom_site_fract_z
Si Si1 0.562233 0.711444 0.133606
Si Si2 0.273882 0.648005 0.139288
Si Si3 0.034144 0.139344 0.448013
Si Si4 0.843881 0.789739 0.362627
Si Si5 0.430878 0.010856 0.642361
Si Si6 0.303514 0.439747 0.554869
O O1 0.565702 0.702176 0.250000
O O2 0.391630 0.709689 0.107256
O O3 0.671500 0.778567 0.112907
O O4 0.633921 0.639054 0.087955
O O5 0.224736 0.664482 0.250000
O O6 0.363316 0.571521 0.144022
O O7 0.136553 0.635161 0.070923
O O8 0.077086 0.159901 0.558284
O O9 0.088063 0.208365 0.382059
O O10 0.131668 0.067416 0.424431
O O11 0.860202 0.810324 0.250000
O O12 0.418072 0.042977 0.750000
O O13 0.342894 0.050459 0.557716
O O14 0.599803 0.000586 0.610727
#
# Coordination Sequence:
#
# PCOD9435060 Si02
#       6
#     8   8   8   8   8   8
#     4   8  15  31  54  74  94 126 166 202 236 283
#     4   9  17  30  49  72  96 123 161 206 246 287
#     4  10  19  30  49  75  99 127 159 199 248 289
#     4   9  18  33  50  70  96 127 164 198 235 288
#     4   9  18  32  49  69  94 129 168 202 239 286
#     4   9  17  30  49  70  95 124 162 206 242 285
#
# _framework density 20.960992000000001
#
# number of rings (size 3 to 8) (size 9 to 14) (size 15 to 20)
#    0.000    3.000    0.000    2.000    0.000    3.333 
#    0.000   10.000    0.000   10.000    0.000    0.000 
#    0.000    0.000    0.000    0.000    0.000    0.000 
#
# Total GULP energy -267550.099459 kJ/mol
# GULP energy per Si atom -5573.960405 kJ/mol
# Density = 2.091328 g / cm^3
# Si number density = 20.960992 Si / 1000 Ang^3
#
#
#
# Elastic Constant Matrix: (Units=GPa)
#
#
# Indices 1 2 3 4 5 6 
#
# 1 114.3082 -5.4182 46.9897 0.0000 0.0000 0.0000
# 2 -5.4182 10.5291 6.3154 0.0000 0.0000 0.0000
# 3 46.9897 6.3154 99.2296 0.0000 0.0000 0.0000
# 4 0.0000 0.0000 0.0000 25.3710 0.0000 0.0000
# 5 0.0000 0.0000 0.0000 0.0000 22.7045 0.0000
# 6 0.0000 0.0000 0.0000 0.0000 0.0000 8.3490
#
#
#
# Elastic Compliance Matrix: (Units=1/GPa)
#
#
# Indices 1 2 3 4 5 6 
#
# 1 0.011754 0.009760 -0.006187 0.000000 0.000000 0.000000
# 2 0.009760 0.106849 -0.011422 0.000000 0.000000 0.000000
# 3 -0.006187 -0.011422 0.013735 0.000000 0.000000 0.000000
# 4 0.000000 0.000000 0.000000 0.039415 0.000000 0.000000
# 5 0.000000 0.000000 0.000000 0.000000 0.044044 0.000000
# 6 0.000000 0.000000 0.000000 0.000000 0.000000 0.119774
#
#
# Mechanical properties :
#
#
# Convention : Reuss Voigt Hill
#
# Bulk Modulus (GPa) = 8.57349 35.53784 22.05566
# Shear Modulus (GPa) = 12.81559 23.03023 17.92291
#
# Velocity S-wave (km/s) = 2.47534 3.31829 2.92731
# Velocity P-wave (km/s) = 3.50269 5.62783 4.68728
#
# Compressibility (1/GPa) = 0.11663863
#
# Stress axis : x y z
#
# Youngs Moduli (GPa) = 85.07431 9.35904 72.80876
#
# Poissons Ratio (x) = -0.09134 0.45050
# Poissons Ratio (y) = -0.83033 0.83163
# Poissons Ratio (z) = 0.52639 0.10690
#
# Static dielectric constant tensor:
#      x y z
#    x 1.816160 0.000000 0.000000 
#    y 0.000000 1.774830 0.000000 
#    z 0.000000 0.000000 1.771820 
# 
# From -- ./inp_files/16558.got.cif
#   From: 2010.05.17/outbox.cif.g08.bks.cpg/sg57_9_cif.got.tgz:16558.got - 2010.06.03 13:58:18.
