data_PCOD9435243
_publ_section_title
;
Structure prediction by ZEFSAII (Michael W. Deem and Ramdas Pophale) SiO2 
 PCOD9435243
Probable space group: P B C M
;
_chemical_formula_sum "Si O2"
_cell_formula_units_Z 48
_cell_length_a 15.203217
_cell_length_b 21.096830
_cell_length_c 8.818358
_cell_angle_alpha 90.000000
_cell_angle_beta 90.000000
_cell_angle_gamma 90.000000
_cell_volume 2828.397363
_symmetry_space_group_name_H-M "P B C M"
_symmetry_group_IT_number 57
_symmetry_cell_setting 'orthorhombic'
loop_
_space_group_symop_operation_xyz
x,y,z
-x,-y,1/2+z
x,1/2-y,-z
-x,1/2+y,1/2-z
-x,-y,-z
x,y,1/2-z
-x,1/2+y,z
x,1/2-y,1/2+z
loop_
_atom_site_type_symbol
_atom_site_label
_atom_site_fract_x
_atom_site_fract_y
_atom_site_fract_z
Si Si1 0.118013 0.815013 0.431729
Si Si2 0.723650 0.012989 0.568049
Si Si3 0.076578 0.957291 0.067817
Si Si4 0.499967 0.184586 0.427830
Si Si5 0.564646 0.946244 0.430962
Si Si6 0.698944 0.351883 0.928289
O O1 0.079973 0.750000 0.500000
O O2 0.116666 0.811622 0.250000
O O3 0.075598 0.882744 0.478779
O O4 0.218817 0.820287 0.488240
O O5 0.715495 0.010513 0.750000
O O6 0.827150 0.014468 0.528221
O O7 0.687933 0.079808 0.505804
O O8 0.662666 0.960709 0.491397
O O9 0.070350 0.957924 0.250000
O O10 0.000000 0.000000 0.000000
O O11 0.467596 0.250000 0.500000
O O12 0.477911 0.180687 0.250000
O O13 0.464926 0.122597 0.512602
O O14 0.606133 0.182763 0.440363
O O15 0.561122 0.950759 0.250000
O O16 0.500000 0.000000 0.500000
O O17 0.720044 0.359040 0.750000
#
# Coordination Sequence:
#
# PCOD9435243 Si02
#       6
#     8   8   8   8   8   8
#     4  10  20  33  50  76 109 142 177 217 268 325
#     4  10  20  35  55  80 110 141 180 227 273 322
#     4   9  20  36  56  82 110 141 177 223 273 324
#     4  11  23  36  51  75 108 146 188 230 276 324
#     4  12  23  36  56  80 108 145 188 229 270 320
#     4  10  19  31  50  76 107 143 180 215 265 323
#
# _framework density 16.970741
#
# number of rings (size 3 to 8) (size 9 to 14) (size 15 to 20)
#    0.000    1.667    1.667    5.000    0.000    7.333 
#    0.000    0.000    0.000    1.000    0.000    2.333 
#    0.000    0.000    0.000    0.000    0.000    0.000 
#
# Total GULP energy -267904.536590 kJ/mol
# GULP energy per Si atom -5581.344512 kJ/mol
# Density = 1.693211 g / cm^3
# Si number density = 16.970741 Si / 1000 Ang^3
#
#
#
# Elastic Constant Matrix: (Units=GPa)
#
#
# Indices 1 2 3 4 5 6 
#
# 1 69.2089 57.6471 44.8751 0.0000 0.0000 0.0000
# 2 57.6471 140.2781 61.1490 0.0000 0.0000 0.0000
# 3 44.8751 61.1490 98.4280 0.0000 0.0000 0.0000
# 4 0.0000 0.0000 0.0000 30.6527 0.0000 0.0000
# 5 0.0000 0.0000 0.0000 0.0000 26.8907 0.0000
# 6 0.0000 0.0000 0.0000 0.0000 0.0000 -10.1840
#
#
#
# Elastic Compliance Matrix: (Units=1/GPa)
#
#
# Indices 1 2 3 4 5 6 
#
# 1 0.024946 -0.007260 -0.006863 0.000000 0.000000 0.000000
# 2 -0.007260 0.011889 -0.004076 0.000000 0.000000 0.000000
# 3 -0.006863 -0.004076 0.015821 0.000000 0.000000 0.000000
# 4 0.000000 0.000000 0.000000 0.032624 0.000000 0.000000
# 5 0.000000 0.000000 0.000000 0.000000 0.037188 0.000000
# 6 0.000000 0.000000 0.000000 0.000000 0.000000 -0.098193
#
#
# Mechanical properties :
#
#
# Convention : Reuss Voigt Hill
#
# Bulk Modulus (GPa) = 61.50894 70.58415 66.04655
# Shear Modulus (GPa) = 75.65221 19.08815 47.37018
#
# Velocity S-wave (km/s) = 6.68392 3.35739 5.28899
# Velocity P-wave (km/s) = 9.79230 7.53070 8.73500
#
# Compressibility (1/GPa) = 0.01625780
#
# Stress axis : x y z
#
# Youngs Moduli (GPa) = 40.08645 84.11140 63.20663
#
# Poissons Ratio (x) = 0.61063 0.43380
# Poissons Ratio (y) = 0.29102 0.25764
# Poissons Ratio (z) = 0.27512 0.34286
#
# Static dielectric constant tensor:
#      x y z
#    x 1.568270 0.000000 0.000000 
#    y 0.000000 1.554870 0.000000 
#    z 0.000000 0.000000 1.567440 
# 
# From -- ./inp_files/4901.got.cif
#   From: 2010.05.17/outbox.cif.g08.bks.cpg/sg57_3_cif.got.tgz:4901.got - 2010.06.03 13:58:18.
