data_PCOD9435034
_publ_section_title
;
Structure prediction by ZEFSAII (Michael W. Deem and Ramdas Pophale) SiO2 
 PCOD9435034
Probable space group: P B C M
;
_chemical_formula_sum "Si O2"
_cell_formula_units_Z 64
_cell_length_a 16.974323
_cell_length_b 21.603184
_cell_length_c 8.941464
_cell_angle_alpha 90.000000
_cell_angle_beta 90.000000
_cell_angle_gamma 90.000000
_cell_volume 3278.829690
_symmetry_space_group_name_H-M "P B C M"
_symmetry_group_IT_number 57
_symmetry_cell_setting 'orthorhombic'
loop_
_space_group_symop_operation_xyz
x,y,z
-x,-y,1/2+z
x,1/2-y,-z
-x,1/2+y,1/2-z
-x,-y,-z
x,y,1/2-z
-x,1/2+y,z
x,1/2-y,1/2+z
loop_
_atom_site_type_symbol
_atom_site_label
_atom_site_fract_x
_atom_site_fract_y
_atom_site_fract_z
Si Si1 0.963618 0.086279 0.081147
Si Si2 0.615374 0.816473 0.571147
Si Si3 0.293431 0.882482 0.427812
Si Si4 0.076897 0.184184 0.927473
Si Si5 0.435703 0.681955 0.429602
Si Si6 0.167641 0.512925 0.927632
Si Si7 0.777591 0.626671 0.071666
Si Si8 0.165775 0.693538 0.082472
O O1 0.991157 0.071457 0.250000
O O2 0.894123 0.137219 0.091272
O O3 0.029171 0.124548 0.990840
O O4 0.915292 0.030184 0.005565
O O5 0.632735 0.750000 0.500000
O O6 0.615051 0.809611 0.750000
O O7 0.526162 0.834137 0.528570
O O8 0.686166 0.862734 0.533400
O O9 0.304047 0.883829 0.250000
O O10 0.375666 0.869158 0.508105
O O11 0.240496 0.942030 0.472970
O O12 0.238408 0.825843 0.479709
O O13 0.067345 0.187611 0.750000
O O14 0.053498 0.250000 0.000000
O O15 0.166639 0.171337 0.976986
O O16 0.419194 0.750000 0.500000
O O17 0.428812 0.686123 0.250000
O O18 0.156948 0.522904 0.750000
O O19 0.194448 0.443248 0.955419
O O20 0.788253 0.639273 0.250000
O O21 0.191409 0.709079 0.250000
O O22 0.124985 0.750000 0.000000
#
# Coordination Sequence:
#
# PCOD9435034 Si02
#       8
#     8   8   8   8   8   8   8   8
#     4  10  21  37  57  81 111 146 184 226 271 322
#     4   9  19  35  57  82 109 141 178 225 280 333
#     4  10  19  32  50  74 105 142 182 222 266 320
#     4  12  25  40  60  87 116 145 180 225 278 332
#     4  10  19  32  51  78 110 143 180 225 277 330
#     4   9  20  38  59  81 110 149 189 228 271 324
#     4  10  21  40  62  83 109 144 187 232 278 328
#     4  10  19  30  47  72 102 138 177 219 267 318
#
# _framework density 19.519159999999999
#
# number of rings (size 3 to 8) (size 9 to 14) (size 15 to 20)
#    0.000    2.000    0.000    3.750    0.000    6.000 
#    0.000    0.625    0.000    0.000    0.000    0.000 
#    0.000    0.000    0.000    0.000    0.000    0.000 
#
# Total GULP energy -357209.826902 kJ/mol
# GULP energy per Si atom -5581.403545 kJ/mol
# Density = 1.947473 g / cm^3
# Si number density = 19.519160 Si / 1000 Ang^3
#
#
#
# Elastic Constant Matrix: (Units=GPa)
#
#
# Indices 1 2 3 4 5 6 
#
# 1 124.7999 42.9080 43.2090 0.0000 0.0000 0.0000
# 2 42.9080 63.9186 34.5868 0.0000 0.0000 0.0000
# 3 43.2090 34.5868 72.4101 0.0000 0.0000 0.0000
# 4 0.0000 0.0000 0.0000 22.5376 0.0000 0.0000
# 5 0.0000 0.0000 0.0000 0.0000 28.0515 0.0000
# 6 0.0000 0.0000 0.0000 0.0000 0.0000 32.4359
#
#
#
# Elastic Compliance Matrix: (Units=1/GPa)
#
#
# Indices 1 2 3 4 5 6 
#
# 1 0.011293 -0.005306 -0.004204 0.000000 0.000000 0.000000
# 2 -0.005306 0.023591 -0.008102 0.000000 0.000000 0.000000
# 3 -0.004204 -0.008102 0.020189 0.000000 0.000000 0.000000
# 4 0.000000 0.000000 0.000000 0.044370 0.000000 0.000000
# 5 0.000000 0.000000 0.000000 0.000000 0.035649 0.000000
# 6 0.000000 0.000000 0.000000 0.000000 0.000000 0.030830
#
#
# Mechanical properties :
#
#
# Convention : Reuss Voigt Hill
#
# Bulk Modulus (GPa) = 50.38257 55.83737 53.10997
# Shear Modulus (GPa) = 24.06603 25.96664 25.01634
#
# Velocity S-wave (km/s) = 3.51514 3.65131 3.58387
# Velocity P-wave (km/s) = 6.50714 6.81503 6.66286
#
# Compressibility (1/GPa) = 0.01984814
#
# Stress axis : x y z
#
# Youngs Moduli (GPa) = 88.55323 42.38970 49.53176
#
# Poissons Ratio (x) = 0.22490 0.20825
# Poissons Ratio (y) = 0.46983 0.40131
# Poissons Ratio (z) = 0.37231 0.34345
#
# Static dielectric constant tensor:
#      x y z
#    x 1.709580 0.000000 0.000000 
#    y 0.000000 1.640520 0.000000 
#    z 0.000000 0.000000 1.681380 
# 
# From -- ./inp_files/7287.got.cif
#   From: 2010.05.17/outbox.cif.g08.bks.cpg/sg57_4_cif.got.tgz:7287.got - 2010.06.03 13:58:18.
