data_PCOD9435758
_publ_section_title
;
Structure prediction by ZEFSAII (Michael W. Deem and Ramdas Pophale) SiO2 
 PCOD9435758
Probable space group: P B C M
;
_chemical_formula_sum "Si O2"
_cell_formula_units_Z 64
_cell_length_a 23.296239
_cell_length_b 16.025770
_cell_length_c 8.948735
_cell_angle_alpha 90.000000
_cell_angle_beta 90.000000
_cell_angle_gamma 90.000000
_cell_volume 3340.922229
_symmetry_space_group_name_H-M "P B C M"
_symmetry_group_IT_number 57
_symmetry_cell_setting 'orthorhombic'
loop_
_space_group_symop_operation_xyz
x,y,z
-x,-y,1/2+z
x,1/2-y,-z
-x,1/2+y,1/2-z
-x,-y,-z
x,y,1/2-z
-x,1/2+y,z
x,1/2-y,1/2+z
loop_
_atom_site_type_symbol
_atom_site_label
_atom_site_fract_x
_atom_site_fract_y
_atom_site_fract_z
Si Si1 0.359798 0.914833 0.421566
Si Si2 0.051365 0.837545 0.071275
Si Si3 0.307302 0.333703 0.427669
Si Si4 0.869230 0.007528 0.570830
Si Si5 0.581482 0.596411 0.421162
Si Si6 0.475515 0.663242 0.929168
Si Si7 0.251715 0.986338 0.927072
Si Si8 0.915618 0.838319 0.071102
O O1 0.343975 0.894281 0.250000
O O2 0.410008 0.854224 0.476735
O O3 0.303755 0.927159 0.520880
O O4 0.391957 0.004155 0.418694
O O5 0.056819 0.830620 0.250000
O O6 0.983736 0.847725 0.036963
O O7 0.086915 0.918970 0.023297
O O8 0.070809 0.750000 0.000000
O O9 0.282234 0.250000 0.500000
O O10 0.311368 0.324288 0.250000
O O11 0.370375 0.348496 0.496846
O O12 0.271550 0.417986 0.459280
O O13 0.871927 0.999631 0.750000
O O14 0.884892 0.919021 0.496744
O O15 0.805760 0.031479 0.517440
O O16 0.573424 0.624200 0.250000
O O17 0.521748 0.598581 0.507980
O O18 0.476876 0.663362 0.750000
O O19 0.494510 0.750000 0.000000
O O20 0.242279 0.979351 0.750000
O O21 0.908008 0.835824 0.250000
O O22 0.896863 0.750000 0.000000
#
# Coordination Sequence:
#
# PCOD9435758 Si02
#       8
#     8   8   8   8   8   8   8   8
#     4   9  20  38  57  75  99 134 173 215 263 314
#     4   9  20  37  59  87 117 151 190 235 284 333
#     4  10  20  34  52  75 104 137 174 216 264 318
#     4  11  22  37  58  85 117 152 191 235 282 331
#     4  10  19  33  54  78 103 132 167 208 259 316
#     4  11  22  35  52  77 106 133 166 210 261 316
#     4  10  22  38  56  78 104 139 184 228 269 319
#     4  10  20  36  58  87 122 156 191 229 276 333
#
# _framework density 19.156388
#
# number of rings (size 3 to 8) (size 9 to 14) (size 15 to 20)
#    0.000    2.000    0.000    3.375    0.000    5.000 
#    0.000    1.875    0.000    0.000    0.000    0.000 
#    0.000    0.000    0.000    0.000    0.000    0.000 
#
# Total GULP energy -357366.418496 kJ/mol
# GULP energy per Si atom -5583.850289 kJ/mol
# Density = 1.911279 g / cm^3
# Si number density = 19.156388 Si / 1000 Ang^3
#
#
#
# Elastic Constant Matrix: (Units=GPa)
#
#
# Indices 1 2 3 4 5 6 
#
# 1 64.4834 14.4383 25.8374 0.0000 0.0000 0.0000
# 2 14.4383 42.0835 10.4349 0.0000 0.0000 0.0000
# 3 25.8374 10.4349 49.6202 0.0000 0.0000 0.0000
# 4 0.0000 0.0000 0.0000 26.2202 0.0000 0.0000
# 5 0.0000 0.0000 0.0000 0.0000 29.3454 0.0000
# 6 0.0000 0.0000 0.0000 0.0000 0.0000 8.9135
#
#
#
# Elastic Compliance Matrix: (Units=1/GPa)
#
#
# Indices 1 2 3 4 5 6 
#
# 1 0.020409 -0.004607 -0.009658 0.000000 0.000000 0.000000
# 2 -0.004607 0.026110 -0.003092 0.000000 0.000000 0.000000
# 3 -0.009658 -0.003092 0.025832 0.000000 0.000000 0.000000
# 4 0.000000 0.000000 0.000000 0.038138 0.000000 0.000000
# 5 0.000000 0.000000 0.000000 0.000000 0.034077 0.000000
# 6 0.000000 0.000000 0.000000 0.000000 0.000000 0.112190
#
#
# Mechanical properties :
#
#
# Convention : Reuss Voigt Hill
#
# Bulk Modulus (GPa) = 26.56982 28.62314 27.59648
# Shear Modulus (GPa) = 16.44645 19.92758 18.18701
#
# Velocity S-wave (km/s) = 2.93326 3.22880 3.08457
# Velocity P-wave (km/s) = 5.03707 5.37350 5.20800
#
# Compressibility (1/GPa) = 0.03763669
#
# Stress axis : x y z
#
# Youngs Moduli (GPa) = 48.99698 38.30004 38.71114
#
# Poissons Ratio (x) = 0.17646 0.37389
# Poissons Ratio (y) = 0.22575 0.11968
# Poissons Ratio (z) = 0.47323 0.11841
#
# Static dielectric constant tensor:
#      x y z
#    x 1.667430 0.000000 0.000000 
#    y 0.000000 1.690260 0.000000 
#    z 0.000000 0.000000 1.640020 
# 
# From -- ./inp_files/9436.got.cif
#   From: 2010.05.17/outbox.cif.g08.bks.cpg/sg57_5_cif.got.tgz:9436.got - 2010.06.03 13:58:18.
