data_PCOD9435683
_publ_section_title
;
Structure prediction by ZEFSAII (Michael W. Deem and Ramdas Pophale) SiO2 
 PCOD9435683
Probable space group: P B C M
;
_chemical_formula_sum "Si O2"
_cell_formula_units_Z 48
_cell_length_a 9.373932
_cell_length_b 33.233850
_cell_length_c 9.055501
_cell_angle_alpha 90.000000
_cell_angle_beta 90.000000
_cell_angle_gamma 90.000000
_cell_volume 2821.076979
_symmetry_space_group_name_H-M "P B C M"
_symmetry_group_IT_number 57
_symmetry_cell_setting 'orthorhombic'
loop_
_space_group_symop_operation_xyz
x,y,z
-x,-y,1/2+z
x,1/2-y,-z
-x,1/2+y,1/2-z
-x,-y,-z
x,y,1/2-z
-x,1/2+y,z
x,1/2-y,1/2+z
loop_
_atom_site_type_symbol
_atom_site_label
_atom_site_fract_x
_atom_site_fract_y
_atom_site_fract_z
Si Si1 0.663596 0.834372 0.075689
Si Si2 0.904330 0.370848 0.924208
Si Si3 0.396314 0.882195 0.426334
Si Si4 0.811004 0.909250 0.924112
Si Si5 0.452483 0.458949 0.575175
Si Si6 0.909801 0.790753 0.925039
O O1 0.676250 0.827095 0.250000
O O2 0.499334 0.844101 0.038096
O O3 0.741544 0.875882 0.029391
O O4 0.752802 0.801211 0.988030
O O5 0.867815 0.370966 0.750000
O O6 0.020205 0.406479 0.949914
O O7 0.988580 0.329169 0.956018
O O8 0.763319 0.375214 0.019219
O O9 0.403007 0.888059 0.250000
O O10 0.461600 0.921397 0.506183
O O11 0.791054 0.897140 0.750000
O O12 0.716291 0.948890 0.945832
O O13 0.500000 0.500000 0.500000
O O14 0.479135 0.460583 0.750000
O O15 0.902472 0.785986 0.750000
O O16 0.962582 0.750000 0.000000
#
# Coordination Sequence:
#
# PCOD9435683 Si02
#       6
#     8   8   8   8   8   8
#     4   9  17  30  49  72  97 126 162 200 238 286
#     4   9  18  33  52  74 100 132 167 203 248 299
#     4  10  20  33  51  76 102 130 166 204 245 296
#     4   8  16  31  50  71  96 129 166 202 243 293
#     4  10  19  33  53  75 101 131 166 210 255 298
#     4  10  20  34  53  76 101 130 166 205 247 294
#
# _framework density 17.014779000000001
#
# number of rings (size 3 to 8) (size 9 to 14) (size 15 to 20)
#    0.000    2.667    0.000    3.000    0.000    6.000 
#    0.000    1.667    0.000    2.000    0.000    0.000 
#    0.000    0.000    0.000    0.000    0.000    0.000 
#
# Total GULP energy -267305.923532 kJ/mol
# GULP energy per Si atom -5568.873407 kJ/mol
# Density = 1.697605 g / cm^3
# Si number density = 17.014779 Si / 1000 Ang^3
#
#
#
# Elastic Constant Matrix: (Units=GPa)
#
#
# Indices 1 2 3 4 5 6 
#
# 1 105.7706 21.7616 48.9319 0.0000 0.0000 0.0000
# 2 21.7616 54.1320 29.4276 0.0000 0.0000 0.0000
# 3 48.9319 29.4276 60.4934 0.0000 0.0000 0.0000
# 4 0.0000 0.0000 0.0000 30.3315 0.0000 0.0000
# 5 0.0000 0.0000 0.0000 0.0000 29.2114 0.0000
# 6 0.0000 0.0000 0.0000 0.0000 0.0000 12.0903
#
#
#
# Elastic Compliance Matrix: (Units=1/GPa)
#
#
# Indices 1 2 3 4 5 6 
#
# 1 0.015132 0.000776 -0.012617 0.000000 0.000000 0.000000
# 2 0.000776 0.025155 -0.012864 0.000000 0.000000 0.000000
# 3 -0.012617 -0.012864 0.032995 0.000000 0.000000 0.000000
# 4 0.000000 0.000000 0.000000 0.032969 0.000000 0.000000
# 5 0.000000 0.000000 0.000000 0.000000 0.034233 0.000000
# 6 0.000000 0.000000 0.000000 0.000000 0.000000 0.082711
#
#
# Mechanical properties :
#
#
# Convention : Reuss Voigt Hill
#
# Bulk Modulus (GPa) = 41.89409 46.73756 44.31582
# Shear Modulus (GPa) = 17.82132 22.34498 20.08315
#
# Velocity S-wave (km/s) = 3.23987 3.62784 3.43933
# Velocity P-wave (km/s) = 6.21863 6.71392 6.47101
#
# Compressibility (1/GPa) = 0.02386972
#
# Stress axis : x y z
#
# Youngs Moduli (GPa) = 66.08592 39.75376 30.30794
#
# Poissons Ratio (x) = -0.03085 0.38240
# Poissons Ratio (y) = -0.05128 0.38990
# Poissons Ratio (z) = 0.83383 0.51141
#
# Static dielectric constant tensor:
#      x y z
#    x 1.595100 0.000000 0.000000 
#    y 0.000000 1.577110 0.000000 
#    z 0.000000 0.000000 1.569320 
# 
# From -- ./inp_files/1977.got.cif
#   From: 2010.05.17/outbox.cif.g08.bks.cpg/sg57_1_cif.got.tgz:1977.got - 2010.06.03 13:58:18.
