data_PCOD9435439
_publ_section_title
;
Structure prediction by ZEFSAII (Michael W. Deem and Ramdas Pophale) SiO2 
 PCOD9435439
Probable space group: P B C M
;
_chemical_formula_sum "Si O2"
_cell_formula_units_Z 56
_cell_length_a 9.692552
_cell_length_b 18.995433
_cell_length_c 18.155819
_cell_angle_alpha 90.000000
_cell_angle_beta 90.000000
_cell_angle_gamma 90.000000
_cell_volume 3342.744492
_symmetry_space_group_name_H-M "P B C M"
_symmetry_group_IT_number 57
_symmetry_cell_setting 'orthorhombic'
loop_
_space_group_symop_operation_xyz
x,y,z
-x,-y,1/2+z
x,1/2-y,-z
-x,1/2+y,1/2-z
-x,-y,-z
x,y,1/2-z
-x,1/2+y,z
x,1/2-y,1/2+z
loop_
_atom_site_type_symbol
_atom_site_label
_atom_site_fract_x
_atom_site_fract_y
_atom_site_fract_z
Si Si1 0.872560 0.144255 0.443090
Si Si2 0.136906 0.182227 0.544135
Si Si3 0.057975 0.768836 0.335099
Si Si4 0.661474 0.430848 0.039674
Si Si5 0.645819 0.560816 0.927158
Si Si6 0.862195 0.072465 0.831603
Si Si7 0.141598 0.512149 0.334500
O O1 0.872539 0.210862 0.388063
O O2 0.737278 0.130596 0.492902
O O3 0.886249 0.075443 0.391401
O O4 0.002137 0.154444 0.498632
O O5 0.189281 0.250000 0.500000
O O6 0.251001 0.122769 0.550097
O O7 0.083686 0.210090 0.623270
O O8 0.040821 0.745710 0.250000
O O9 0.138384 0.842829 0.333768
O O10 0.511877 0.413726 0.073057
O O11 0.763441 0.453014 0.104806
O O12 0.649970 0.497557 0.986003
O O13 0.714932 0.526012 0.854944
O O14 0.819353 0.049171 0.750000
O O15 0.017002 0.043721 0.843133
O O16 0.141984 0.536677 0.250000
#
# Coordination Sequence:
#
# PCOD9435439 Si02
#       7
#     8   8   8   8   8   8   8
#     4  10  19  33  53  76 104 133 174 214 256 309
#     4  10  19  33  52  77 100 136 171 213 264 307
#     4  10  19  32  52  77 104 129 166 217 261 304
#     4  10  20  34  52  75 103 138 173 213 255 304
#     4  10  20  34  51  75 105 135 173 214 255 304
#     4  10  19  32  51  75 101 132 171 214 258 302
#     4  10  19  32  54  79 102 137 174 212 259 307
#
# _framework density 16.752700000000001
#
# number of rings (size 3 to 8) (size 9 to 14) (size 15 to 20)
#    0.000    2.000    2.857    1.286    0.000    2.857 
#    2.571    0.000    0.000    0.000    0.000    0.000 
#    0.000    0.000    0.000    0.000    0.000    0.000 
#
# Total GULP energy -311972.861280 kJ/mol
# GULP energy per Si atom -5570.943951 kJ/mol
# Density = 1.671457 g / cm^3
# Si number density = 16.752700 Si / 1000 Ang^3
#
#
#
# Elastic Constant Matrix: (Units=GPa)
#
#
# Indices 1 2 3 4 5 6 
#
# 1 81.8658 16.0318 38.8929 0.0000 0.0000 0.0000
# 2 16.0318 52.8873 5.7906 0.0000 0.0000 0.0000
# 3 38.8929 5.7906 96.7036 0.0000 0.0000 0.0000
# 4 0.0000 0.0000 0.0000 20.9946 0.0000 0.0000
# 5 0.0000 0.0000 0.0000 0.0000 12.9584 0.0000
# 6 0.0000 0.0000 0.0000 0.0000 0.0000 19.3854
#
#
#
# Elastic Compliance Matrix: (Units=1/GPa)
#
#
# Indices 1 2 3 4 5 6 
#
# 1 0.015962 -0.004163 -0.006170 0.000000 0.000000 0.000000
# 2 -0.004163 0.020119 0.000470 0.000000 0.000000 0.000000
# 3 -0.006170 0.000470 0.012794 0.000000 0.000000 0.000000
# 4 0.000000 0.000000 0.000000 0.047631 0.000000 0.000000
# 5 0.000000 0.000000 0.000000 0.000000 0.077170 0.000000
# 6 0.000000 0.000000 0.000000 0.000000 0.000000 0.051585
#
#
# Mechanical properties :
#
#
# Convention : Reuss Voigt Hill
#
# Bulk Modulus (GPa) = 34.30841 39.20974 36.75908
# Shear Modulus (GPa) = 19.63060 22.05044 20.84052
#
# Velocity S-wave (km/s) = 3.42685 3.63193 3.53088
# Velocity P-wave (km/s) = 6.01511 6.40654 6.21390
#
# Compressibility (1/GPa) = 0.02914737
#
# Stress axis : x y z
#
# Youngs Moduli (GPa) = 62.64979 49.70521 78.15928
#
# Poissons Ratio (x) = 0.20692 0.48227
# Poissons Ratio (y) = 0.26081 -0.03670
# Poissons Ratio (z) = 0.38657 -0.02334
#
# Static dielectric constant tensor:
#      x y z
#    x 1.549550 0.000000 0.000000 
#    y 0.000000 1.574620 0.000000 
#    z 0.000000 0.000000 1.586850 
# 
# From -- ./inp_files/21353.got.cif
#   From: 2010.05.17/outbox.cif.g08.bks.cpg/sg57_11_cif.got.tgz:21353.got - 2010.06.03 13:58:18.
