data_PCOD9435726
_publ_section_title
;
Structure prediction by ZEFSAII (Michael W. Deem and Ramdas Pophale) SiO2 
 PCOD9435726
Probable space group: P B C M
;
_chemical_formula_sum "Si O2"
_cell_formula_units_Z 64
_cell_length_a 22.275533
_cell_length_b 16.825768
_cell_length_c 9.251178
_cell_angle_alpha 90.000000
_cell_angle_beta 90.000000
_cell_angle_gamma 90.000000
_cell_volume 3467.368808
_symmetry_space_group_name_H-M "P B C M"
_symmetry_group_IT_number 57
_symmetry_cell_setting 'orthorhombic'
loop_
_space_group_symop_operation_xyz
x,y,z
-x,-y,1/2+z
x,1/2-y,-z
-x,1/2+y,1/2-z
-x,-y,-z
x,y,1/2-z
-x,1/2+y,z
x,1/2-y,1/2+z
loop_
_atom_site_type_symbol
_atom_site_label
_atom_site_fract_x
_atom_site_fract_y
_atom_site_fract_z
Si Si1 0.872600 0.835682 0.073675
Si Si2 0.383811 0.181292 0.087056
Si Si3 0.437265 0.006441 0.081838
Si Si4 0.891731 0.329547 0.085433
Si Si5 0.731801 0.636228 0.913991
Si Si6 0.252681 0.826382 0.414316
Si Si7 0.934923 0.991986 0.927090
Si Si8 0.680583 0.459007 0.584482
O O1 0.882908 0.834761 0.250000
O O2 0.800852 0.847289 0.049174
O O3 0.889568 0.750000 0.000000
O O4 0.903847 0.913354 0.998961
O O5 0.379301 0.206826 0.250000
O O6 0.417592 0.098425 0.078875
O O7 0.416266 0.250000 0.000000
O O8 0.317429 0.169918 0.022425
O O9 0.441121 0.981315 0.250000
O O10 0.383046 0.964052 0.996950
O O11 0.500000 0.000000 0.000000
O O12 0.914282 0.322184 0.250000
O O13 0.819522 0.325216 0.086064
O O14 0.906316 0.420408 0.038503
O O15 0.912988 0.250000 0.000000
O O16 0.722389 0.665542 0.750000
O O17 0.714624 0.543376 0.913688
O O18 0.274645 0.750000 0.500000
O O19 0.273595 0.826289 0.250000
O O20 0.276405 0.901512 0.498093
O O21 0.935848 0.983760 0.750000
O O22 0.000000 0.000000 0.000000
O O23 0.671510 0.434114 0.750000
#
# Coordination Sequence:
#
# PCOD9435726 Si02
#       8
#     8   8   8   8   8   8   8   8
#     4  11  23  39  59  86 118 154 192 233 283 339
#     4  10  20  33  53  80 109 139 174 215 264 318
#     4  10  21  37  55  76 102 138 182 226 268 316
#     4   9  20  37  60  87 114 145 184 230 284 339
#     4   9  19  34  55  83 114 145 179 220 271 329
#     4  10  19  33  53  80 111 141 175 220 272 329
#     4  11  24  42  61  84 114 151 194 240 285 336
#     4  10  19  33  54  80 109 143 180 222 272 328
#
# _framework density 18.457799000000001
#
# number of rings (size 3 to 8) (size 9 to 14) (size 15 to 20)
#    0.000    2.000    0.000    3.375    0.000    6.000 
#    0.000    1.875    0.000    1.500    0.000    0.000 
#    0.000    0.000    0.000    0.000    0.000    0.000 
#
# Total GULP energy -356659.202528 kJ/mol
# GULP energy per Si atom -5572.800039 kJ/mol
# Density = 1.841579 g / cm^3
# Si number density = 18.457799 Si / 1000 Ang^3
#
#
#
# Elastic Constant Matrix: (Units=GPa)
#
#
# Indices 1 2 3 4 5 6 
#
# 1 52.8667 30.2906 35.9545 0.0000 0.0000 0.0000
# 2 30.2906 109.0175 65.4763 0.0000 0.0000 0.0000
# 3 35.9545 65.4763 143.0998 0.0000 0.0000 0.0000
# 4 0.0000 0.0000 0.0000 35.3804 0.0000 0.0000
# 5 0.0000 0.0000 0.0000 0.0000 6.8863 0.0000
# 6 0.0000 0.0000 0.0000 0.0000 0.0000 -11.2342
#
#
#
# Elastic Compliance Matrix: (Units=1/GPa)
#
#
# Indices 1 2 3 4 5 6 
#
# 1 0.024149 -0.004227 -0.004133 0.000000 0.000000 0.000000
# 2 -0.004227 0.013389 -0.005064 0.000000 0.000000 0.000000
# 3 -0.004133 -0.005064 0.010344 0.000000 0.000000 0.000000
# 4 0.000000 0.000000 0.000000 0.028264 0.000000 0.000000
# 5 0.000000 0.000000 0.000000 0.000000 0.145215 0.000000
# 6 0.000000 0.000000 0.000000 0.000000 0.000000 -0.089014
#
#
# Mechanical properties :
#
#
# Convention : Reuss Voigt Hill
#
# Bulk Modulus (GPa) = 47.54643 63.15851 55.35247
# Shear Modulus (GPa) = 30.08306 17.75736 23.92021
#
# Velocity S-wave (km/s) = 4.04149 3.10506 3.60382
# Velocity P-wave (km/s) = 6.89882 6.86639 6.88262
#
# Compressibility (1/GPa) = 0.02103207
#
# Stress axis : x y z
#
# Youngs Moduli (GPa) = 41.41035 74.68892 96.67710
#
# Poissons Ratio (x) = 0.31573 0.39959
# Poissons Ratio (y) = 0.17505 0.48958
# Poissons Ratio (z) = 0.17116 0.37823
#
# Static dielectric constant tensor:
#      x y z
#    x 1.608070 0.000000 0.000000 
#    y 0.000000 1.670400 0.000000 
#    z 0.000000 0.000000 1.661190 
# 
# From -- ./inp_files/9480.got.cif
#   From: 2010.05.17/outbox.cif.g08.bks.cpg/sg57_5_cif.got.tgz:9480.got - 2010.06.03 13:58:18.
