data_PCOD9435888
_publ_section_title
;
Structure prediction by ZEFSAII (Michael W. Deem and Ramdas Pophale) SiO2 
 PCOD9435888
Probable space group: P B C M
;
_chemical_formula_sum "Si O2"
_cell_formula_units_Z 48
_cell_length_a 20.881990
_cell_length_b 13.904499
_cell_length_c 9.088553
_cell_angle_alpha 90.000000
_cell_angle_beta 90.000000
_cell_angle_gamma 90.000000
_cell_volume 2638.894165
_symmetry_space_group_name_H-M "P B C M"
_symmetry_group_IT_number 57
_symmetry_cell_setting 'orthorhombic'
loop_
_space_group_symop_operation_xyz
x,y,z
-x,-y,1/2+z
x,1/2-y,-z
-x,1/2+y,1/2-z
-x,-y,-z
x,y,1/2-z
-x,1/2+y,z
x,1/2-y,1/2+z
loop_
_atom_site_type_symbol
_atom_site_label
_atom_site_fract_x
_atom_site_fract_y
_atom_site_fract_z
Si Si1 0.968039 0.852825 0.425195
Si Si2 0.776587 0.352762 0.426453
Si Si3 0.904481 0.028103 0.575421
Si Si4 0.648925 0.064454 0.072314
Si Si5 0.523407 0.402805 0.078090
Si Si6 0.380926 0.344431 0.079970
O O1 0.960176 0.750000 0.500000
O O2 0.962785 0.844121 0.250000
O O3 0.918253 0.931318 0.486253
O O4 0.038268 0.897159 0.460445
O O5 0.790131 0.250000 0.500000
O O6 0.768420 0.342786 0.250000
O O7 0.836516 0.423083 0.453832
O O8 0.712934 0.394780 0.501050
O O9 0.909191 0.007464 0.750000
O O10 0.649235 0.069817 0.250000
O O11 0.640077 0.951253 0.028660
O O12 0.587665 0.122699 0.009247
O O13 0.538889 0.417903 0.250000
O O14 0.458626 0.341268 0.072659
O O15 0.500000 0.500000 0.000000
O O16 0.362610 0.339059 0.250000
O O17 0.355235 0.250000 0.000000
#
# Coordination Sequence:
#
# PCOD9435888 Si02
#       6
#     8   8   8   8   8   8
#     4  10  19  33  57  86 116 148 182 225 272 319
#     4  11  23  39  59  81 107 142 180 221 270 325
#     4   9  20  37  56  82 114 147 185 225 269 322
#     4  10  21  37  54  77 108 141 181 226 269 321
#     4   9  17  31  50  74 102 134 173 220 273 322
#     4   9  19  33  52  77 104 135 173 218 268 321
#
# _framework density 18.189437999999999
#
# number of rings (size 3 to 8) (size 9 to 14) (size 15 to 20)
#    0.000    2.333    0.000    3.500    0.000    6.667 
#    0.000    2.500    0.000    2.000    0.000    0.000 
#    0.000    0.000    0.000    0.000    0.000    0.000 
#
# Total GULP energy -267664.198435 kJ/mol
# GULP energy per Si atom -5576.337467 kJ/mol
# Density = 1.814804 g / cm^3
# Si number density = 18.189438 Si / 1000 Ang^3
#
#
#
# Elastic Constant Matrix: (Units=GPa)
#
#
# Indices 1 2 3 4 5 6 
#
# 1 93.2464 31.3737 46.5951 0.0000 0.0000 0.0000
# 2 31.3737 106.1957 60.4992 0.0000 0.0000 0.0000
# 3 46.5951 60.4992 84.1149 0.0000 0.0000 0.0000
# 4 0.0000 0.0000 0.0000 32.6417 0.0000 0.0000
# 5 0.0000 0.0000 0.0000 0.0000 25.6181 0.0000
# 6 0.0000 0.0000 0.0000 0.0000 0.0000 12.2341
#
#
#
# Elastic Compliance Matrix: (Units=1/GPa)
#
#
# Indices 1 2 3 4 5 6 
#
# 1 0.014845 0.000507 -0.008588 0.000000 0.000000 0.000000
# 2 0.000507 0.015971 -0.011768 0.000000 0.000000 0.000000
# 3 -0.008588 -0.011768 0.025109 0.000000 0.000000 0.000000
# 4 0.000000 0.000000 0.000000 0.030636 0.000000 0.000000
# 5 0.000000 0.000000 0.000000 0.000000 0.039035 0.000000
# 6 0.000000 0.000000 0.000000 0.000000 0.000000 0.081739
#
#
# Mechanical properties :
#
#
# Convention : Reuss Voigt Hill
#
# Bulk Modulus (GPa) = 61.62211 62.27700 61.94955
# Shear Modulus (GPa) = 19.80656 23.77137 21.78896
#
# Velocity S-wave (km/s) = 3.30343 3.61900 3.46481
# Velocity P-wave (km/s) = 6.96432 7.19550 7.08085
#
# Compressibility (1/GPa) = 0.01622794
#
# Stress axis : x y z
#
# Youngs Moduli (GPa) = 67.36223 62.61420 39.82565
#
# Poissons Ratio (x) = -0.03173 0.34202
# Poissons Ratio (y) = -0.03413 0.46865
# Poissons Ratio (z) = 0.57849 0.73682
#
# Static dielectric constant tensor:
#      x y z
#    x 1.645410 0.000000 0.000000 
#    y 0.000000 1.623260 0.000000 
#    z 0.000000 0.000000 1.610550 
# 
# From -- ./inp_files/7861.got.cif
#   From: 2010.05.17/outbox.cif.g08.bks.cpg/sg57_4_cif.got.tgz:7861.got - 2010.06.03 13:58:18.
