data_PCOD9435526
_publ_section_title
;
Structure prediction by ZEFSAII (Michael W. Deem and Ramdas Pophale) SiO2 
 PCOD9435526
Probable space group: P B C M
;
_chemical_formula_sum "Si O2"
_cell_formula_units_Z 56
_cell_length_a 17.028280
_cell_length_b 21.698270
_cell_length_c 8.828874
_cell_angle_alpha 90.000000
_cell_angle_beta 90.000000
_cell_angle_gamma 90.000000
_cell_volume 3262.129598
_symmetry_space_group_name_H-M "P B C M"
_symmetry_group_IT_number 57
_symmetry_cell_setting 'orthorhombic'
loop_
_space_group_symop_operation_xyz
x,y,z
-x,-y,1/2+z
x,1/2-y,-z
-x,1/2+y,1/2-z
-x,-y,-z
x,y,1/2-z
-x,1/2+y,z
x,1/2-y,1/2+z
loop_
_atom_site_type_symbol
_atom_site_label
_atom_site_fract_x
_atom_site_fract_y
_atom_site_fract_z
Si Si1 0.798047 0.006705 0.430465
Si Si2 0.477785 0.405858 0.430204
Si Si3 0.641209 0.683450 0.430179
Si Si4 0.961881 0.062370 0.430518
Si Si5 0.042294 0.316220 0.068966
Si Si6 0.807427 0.874238 0.569674
Si Si7 0.380238 0.970627 0.568394
O O1 0.795123 0.992358 0.250000
O O2 0.819673 0.944345 0.518006
O O3 0.868212 0.054883 0.453139
O O4 0.711006 0.028486 0.476441
O O5 0.478985 0.400761 0.250000
O O6 0.436277 0.347604 0.503369
O O7 0.421703 0.464212 0.470828
O O8 0.564305 0.420208 0.491542
O O9 0.652900 0.750000 0.500000
O O10 0.635785 0.686838 0.250000
O O11 0.718187 0.643436 0.468850
O O12 0.978051 0.063640 0.250000
O O13 0.994382 0.124752 0.505403
O O14 0.000000 0.000000 0.500000
O O15 0.037265 0.314322 0.250000
O O16 0.018293 0.250000 0.000000
O O17 0.131325 0.330754 0.016169
O O18 0.818955 0.867921 0.750000
O O19 0.384354 0.963653 0.750000
#
# Coordination Sequence:
#
# PCOD9435526 Si02
#       7
#     8   8   8   8   8   8   8
#     4  10  20  35  57  83 115 151 186 232 283 332
#     4  10  19  32  53  78 107 142 180 223 268 322
#     4  11  23  36  52  77 110 149 186 226 273 331
#     4  11  22  37  59  88 117 152 194 237 289 342
#     4  12  25  41  60  82 114 154 195 241 290 347
#     4  11  22  35  55  83 115 150 189 230 279 341
#     4   9  18  33  53  78 108 142 178 222 272 322
#
# _framework density 17.166699000000001
#
# number of rings (size 3 to 8) (size 9 to 14) (size 15 to 20)
#    0.000    1.429    2.857    3.429    0.000    4.571 
#    0.000    0.000    0.000    0.857    0.000    4.000 
#    0.000    0.000    0.000    0.000    0.000    0.000 
#
# Total GULP energy -312735.174105 kJ/mol
# GULP energy per Si atom -5584.556680 kJ/mol
# Density = 1.712763 g / cm^3
# Si number density = 17.166699 Si / 1000 Ang^3
#
#
#
# Elastic Constant Matrix: (Units=GPa)
#
#
# Indices 1 2 3 4 5 6 
#
# 1 96.5690 38.8636 38.9781 0.0000 0.0000 0.0000
# 2 38.8636 95.8033 45.8414 0.0000 0.0000 0.0000
# 3 38.9781 45.8414 62.0170 0.0000 0.0000 0.0000
# 4 0.0000 0.0000 0.0000 29.6084 0.0000 0.0000
# 5 0.0000 0.0000 0.0000 0.0000 26.3481 0.0000
# 6 0.0000 0.0000 0.0000 0.0000 0.0000 27.9471
#
#
#
# Elastic Compliance Matrix: (Units=1/GPa)
#
#
# Indices 1 2 3 4 5 6 
#
# 1 0.014197 -0.002305 -0.007219 0.000000 0.000000 0.000000
# 2 -0.002305 0.016524 -0.010766 0.000000 0.000000 0.000000
# 3 -0.007219 -0.010766 0.028620 0.000000 0.000000 0.000000
# 4 0.000000 0.000000 0.000000 0.033774 0.000000 0.000000
# 5 0.000000 0.000000 0.000000 0.000000 0.037953 0.000000
# 6 0.000000 0.000000 0.000000 0.000000 0.000000 0.035782
#
#
# Mechanical properties :
#
#
# Convention : Reuss Voigt Hill
#
# Bulk Modulus (GPa) = 53.30101 55.75062 54.52581
# Shear Modulus (GPa) = 23.39908 25.49445 24.44677
#
# Velocity S-wave (km/s) = 3.69596 3.85789 3.77779
# Velocity P-wave (km/s) = 7.02353 7.23816 7.13165
#
# Compressibility (1/GPa) = 0.01876137
#
# Stress axis : x y z
#
# Youngs Moduli (GPa) = 70.43921 60.51653 34.94093
#
# Poissons Ratio (x) = 0.13947 0.25224
# Poissons Ratio (y) = 0.16234 0.37617
# Poissons Ratio (z) = 0.50851 0.65152
#
# Static dielectric constant tensor:
#      x y z
#    x 1.595680 0.000000 0.000000 
#    y 0.000000 1.556610 0.000000 
#    z 0.000000 0.000000 1.571130 
# 
# From -- ./inp_files/5198.got.cif
#   From: 2010.05.17/outbox.cif.g08.bks.cpg/sg57_3_cif.got.tgz:5198.got - 2010.06.03 13:58:18.
