data_PCOD9435707
_publ_section_title
;
Structure prediction by ZEFSAII (Michael W. Deem and Ramdas Pophale) SiO2 
 PCOD9435707
Probable space group: P B C M
;
_chemical_formula_sum "Si O2"
_cell_formula_units_Z 64
_cell_length_a 20.114097
_cell_length_b 20.263629
_cell_length_c 8.963376
_cell_angle_alpha 90.000000
_cell_angle_beta 90.000000
_cell_angle_gamma 90.000000
_cell_volume 3653.334015
_symmetry_space_group_name_H-M "P B C M"
_symmetry_group_IT_number 57
_symmetry_cell_setting 'orthorhombic'
loop_
_space_group_symop_operation_xyz
x,y,z
-x,-y,1/2+z
x,1/2-y,-z
-x,1/2+y,1/2-z
-x,-y,-z
x,y,1/2-z
-x,1/2+y,z
x,1/2-y,1/2+z
loop_
_atom_site_type_symbol
_atom_site_label
_atom_site_fract_x
_atom_site_fract_y
_atom_site_fract_z
Si Si1 0.030185 0.320167 0.926240
Si Si2 0.824607 0.046086 0.572094
Si Si3 0.446742 0.047835 0.427859
Si Si4 0.279160 0.317036 0.080068
Si Si5 0.130418 0.819667 0.574182
Si Si6 0.705701 0.547155 0.427256
Si Si7 0.558972 0.816157 0.421071
Si Si8 0.938928 0.541322 0.929264
O O1 0.046394 0.320809 0.750000
O O2 0.949808 0.326547 0.940408
O O3 0.049035 0.250000 0.000000
O O4 0.059660 0.384021 0.008693
O O5 0.838406 0.045056 0.750000
O O6 0.835970 0.118908 0.508341
O O7 0.751749 0.015832 0.546775
O O8 0.874479 0.997248 0.486681
O O9 0.449402 0.042898 0.250000
O O10 0.370221 0.035244 0.476969
O O11 0.461713 0.121377 0.482999
O O12 0.500000 0.000000 0.500000
O O13 0.255804 0.317785 0.250000
O O14 0.360123 0.314058 0.080057
O O15 0.255680 0.250000 0.000000
O O16 0.264694 0.386641 0.001510
O O17 0.148768 0.750000 0.500000
O O18 0.145788 0.820093 0.750000
O O19 0.703669 0.560216 0.250000
O O20 0.535376 0.750000 0.500000
O O21 0.537227 0.821422 0.250000
O O22 0.943616 0.540898 0.750000
O O23 0.000000 0.500000 0.000000
#
# Coordination Sequence:
#
# PCOD9435707 Si02
#       8
#     8   8   8   8   8   8   8   8
#     4  10  20  35  55  80 110 143 180 224 271 319
#     4  11  22  37  57  80 109 143 179 222 270 319
#     4  10  19  33  53  78 107 139 177 219 267 319
#     4   9  16  27  47  72 100 134 172 214 255 303
#     4  10  20  34  55  81 108 138 177 222 269 318
#     4   9  20  36  53  76 107 142 178 219 266 318
#     4   9  16  27  45  72 102 133 169 210 257 306
#     4  12  23  36  55  80 109 142 178 220 267 316
#
# _framework density 17.518245
#
# number of rings (size 3 to 8) (size 9 to 14) (size 15 to 20)
#    0.000    2.000    1.250    3.375    0.000    5.500 
#    0.000    0.625    0.000    3.750    0.000    3.500 
#    0.000    0.000    0.000    0.000    0.000    0.000 
#
# Total GULP energy -357207.159474 kJ/mol
# GULP energy per Si atom -5581.361867 kJ/mol
# Density = 1.747837 g / cm^3
# Si number density = 17.518245 Si / 1000 Ang^3
#
#
#
# Elastic Constant Matrix: (Units=GPa)
#
#
# Indices 1 2 3 4 5 6 
#
# 1 42.7292 48.6829 38.5780 0.0000 0.0000 0.0000
# 2 48.6829 171.6001 80.3390 0.0000 0.0000 0.0000
# 3 38.5780 80.3390 117.3359 0.0000 0.0000 0.0000
# 4 0.0000 0.0000 0.0000 39.3703 0.0000 0.0000
# 5 0.0000 0.0000 0.0000 0.0000 16.2254 0.0000
# 6 0.0000 0.0000 0.0000 0.0000 0.0000 16.6891
#
#
#
# Elastic Compliance Matrix: (Units=1/GPa)
#
#
# Indices 1 2 3 4 5 6 
#
# 1 0.038772 -0.007405 -0.007677 0.000000 0.000000 0.000000
# 2 -0.007405 0.009991 -0.004406 0.000000 0.000000 0.000000
# 3 -0.007677 -0.004406 0.014064 0.000000 0.000000 0.000000
# 4 0.000000 0.000000 0.000000 0.025400 0.000000 0.000000
# 5 0.000000 0.000000 0.000000 0.000000 0.061632 0.000000
# 6 0.000000 0.000000 0.000000 0.000000 0.000000 0.059919
#
#
# Mechanical properties :
#
#
# Convention : Reuss Voigt Hill
#
# Bulk Modulus (GPa) = 41.93011 74.09612 58.01312
# Shear Modulus (GPa) = 19.47767 25.39463 22.43615
#
# Velocity S-wave (km/s) = 3.33806 3.81151 3.58261
# Velocity P-wave (km/s) = 6.23249 7.85866 7.09233
#
# Compressibility (1/GPa) = 0.02384921
#
# Stress axis : x y z
#
# Youngs Moduli (GPa) = 25.79211 100.08755 71.10588
#
# Poissons Ratio (x) = 0.74117 0.54589
# Poissons Ratio (y) = 0.19100 0.31331
# Poissons Ratio (z) = 0.19801 0.44101
#
# Static dielectric constant tensor:
#      x y z
#    x 1.600240 0.000000 0.000000 
#    y 0.000000 1.571850 0.000000 
#    z 0.000000 0.000000 1.588470 
# 
# From -- ./inp_files/8633.got.cif
#   From: 2010.05.17/outbox.cif.g08.bks.cpg/sg57_5_cif.got.tgz:8633.got - 2010.06.03 13:58:18.
