data_PCOD9435216
_publ_section_title
;
Structure prediction by ZEFSAII (Michael W. Deem and Ramdas Pophale) SiO2 
 PCOD9435216
Probable space group: P B C M
;
_chemical_formula_sum "Si O2"
_cell_formula_units_Z 40
_cell_length_a 9.760851
_cell_length_b 27.228540
_cell_length_c 8.395401
_cell_angle_alpha 90.000000
_cell_angle_beta 90.000000
_cell_angle_gamma 90.000000
_cell_volume 2231.276971
_symmetry_space_group_name_H-M "P B C M"
_symmetry_group_IT_number 57
_symmetry_cell_setting 'orthorhombic'
loop_
_space_group_symop_operation_xyz
x,y,z
-x,-y,1/2+z
x,1/2-y,-z
-x,1/2+y,1/2-z
-x,-y,-z
x,y,1/2-z
-x,1/2+y,z
x,1/2-y,1/2+z
loop_
_atom_site_type_symbol
_atom_site_label
_atom_site_fract_x
_atom_site_fract_y
_atom_site_fract_z
Si Si1 0.341663 0.606691 0.942995
Si Si2 0.654901 0.607599 0.059027
Si Si3 0.838705 0.696718 0.559684
Si Si4 0.342986 0.000463 0.442047
Si Si5 0.154303 0.696595 0.942455
O O1 0.342721 0.607434 0.750000
O O2 0.286709 0.552656 0.994398
O O3 0.248525 0.651778 0.998708
O O4 0.498174 0.611924 0.999947
O O5 0.653709 0.608314 0.250000
O O6 0.711310 0.553766 0.005093
O O7 0.745342 0.652319 0.998182
O O8 0.790246 0.750000 0.500000
O O9 0.838871 0.697245 0.750000
O O10 0.996458 0.690488 0.503982
O O11 0.340187 0.000529 0.250000
O O12 0.500000 0.000000 0.500000
O O13 0.155147 0.696515 0.750000
O O14 0.202638 0.750000 0.000000
#
# Coordination Sequence:
#
# PCOD9435216 Si02
#       5
#     8   8   8   8   8
#     4   9  17  32  52  73  97 128 163 201 241 284
#     4  10  19  31  49  75 101 127 160 199 239 284
#     4  10  20  35  52  70  94 127 162 198 240 288
#     4   8  15  28  47  69  96 127 159 194 236 282
#     4   9  19  34  52  71  94 125 161 198 241 288
#
# _framework density 17.926953000000001
#
# number of rings (size 3 to 8) (size 9 to 14) (size 15 to 20)
#    0.000    2.800    0.000    1.200    0.000    3.200 
#    0.000    3.000    0.000    0.000    0.000    0.000 
#    0.000    0.000    0.000    0.000    0.000    0.000 
#
# Total GULP energy -222779.751381 kJ/mol
# GULP energy per Si atom -5569.493785 kJ/mol
# Density = 1.788615 g / cm^3
# Si number density = 17.926953 Si / 1000 Ang^3
#
#
#
# Elastic Constant Matrix: (Units=GPa)
#
#
# Indices 1 2 3 4 5 6 
#
# 1 51.8044 85.8163 11.4480 0.0000 0.0000 0.0000
# 2 85.8163 240.9185 28.3259 0.0000 0.0000 0.0000
# 3 11.4480 28.3259 14.6307 0.0000 0.0000 0.0000
# 4 0.0000 0.0000 0.0000 23.4300 0.0000 0.0000
# 5 0.0000 0.0000 0.0000 0.0000 47.9620 0.0000
# 6 0.0000 0.0000 0.0000 0.0000 0.0000 -39.7814
#
#
#
# Elastic Compliance Matrix: (Units=1/GPa)
#
#
# Indices 1 2 3 4 5 6 
#
# 1 0.047454 -0.016233 -0.005703 0.000000 0.000000 0.000000
# 2 -0.016233 0.010927 -0.008454 0.000000 0.000000 0.000000
# 3 -0.005703 -0.008454 0.089179 0.000000 0.000000 0.000000
# 4 0.000000 0.000000 0.000000 0.042680 0.000000 0.000000
# 5 0.000000 0.000000 0.000000 0.000000 0.020850 0.000000
# 6 0.000000 0.000000 0.000000 0.000000 0.000000 -0.025137
#
#
# Mechanical properties :
#
#
# Convention : Reuss Voigt Hill
#
# Bulk Modulus (GPa) = 11.52336 62.05935 36.79136
# Shear Modulus (GPa) = 18.13835 18.43967 18.28901
#
# Velocity S-wave (km/s) = 3.18432 3.21066 3.19752
# Velocity P-wave (km/s) = 4.46786 6.95971 5.84804
#
# Compressibility (1/GPa) = 0.08678021
#
# Stress axis : x y z
#
# Youngs Moduli (GPa) = 21.07296 91.51704 11.21343
#
# Poissons Ratio (x) = 1.48558 0.06395
# Poissons Ratio (y) = 0.34207 0.09479
# Poissons Ratio (z) = 0.12019 0.77365
#
# Static dielectric constant tensor:
#      x y z
#    x 1.575860 0.000000 0.000000 
#    y 0.000000 1.656720 0.000000 
#    z 0.000000 0.000000 1.617770 
# 
# From -- ./inp_files/1513.got.cif
#   From: 2010.05.17/outbox.cif.g08.bks.cpg/sg57_1_cif.got.tgz:1513.got - 2010.06.03 13:58:18.
