data_PCOD9435107
_publ_section_title
;
Structure prediction by ZEFSAII (Michael W. Deem and Ramdas Pophale) SiO2 
 PCOD9435107
Probable space group: P B C M
;
_chemical_formula_sum "Si O2"
_cell_formula_units_Z 56
_cell_length_a 21.156628
_cell_length_b 17.159847
_cell_length_c 9.215372
_cell_angle_alpha 90.000000
_cell_angle_beta 90.000000
_cell_angle_gamma 90.000000
_cell_volume 3345.590116
_symmetry_space_group_name_H-M "P B C M"
_symmetry_group_IT_number 57
_symmetry_cell_setting 'orthorhombic'
loop_
_space_group_symop_operation_xyz
x,y,z
-x,-y,1/2+z
x,1/2-y,-z
-x,1/2+y,1/2-z
-x,-y,-z
x,y,1/2-z
-x,1/2+y,z
x,1/2-y,1/2+z
loop_
_atom_site_type_symbol
_atom_site_label
_atom_site_fract_x
_atom_site_fract_y
_atom_site_fract_z
Si Si1 0.913276 0.439154 0.415908
Si Si2 0.795360 0.996799 0.077452
Si Si3 0.848998 0.673987 0.922368
Si Si4 0.351452 0.514486 0.424087
Si Si5 0.457898 0.066671 0.423731
Si Si6 0.571247 0.170082 0.077395
Si Si7 0.029883 0.384750 0.916111
O O1 0.908605 0.412163 0.250000
O O2 0.845451 0.451483 0.489801
O O3 0.944536 0.525854 0.412866
O O4 0.961425 0.387453 0.509657
O O5 0.805472 0.008820 0.250000
O O6 0.811048 0.905855 0.047982
O O7 0.722671 0.013991 0.043059
O O8 0.852162 0.685112 0.750000
O O9 0.821360 0.750000 0.000000
O O10 0.918705 0.660294 0.988642
O O11 0.359604 0.504465 0.250000
O O12 0.389420 0.446448 0.506915
O O13 0.383858 0.597164 0.463959
O O14 0.456269 0.055581 0.250000
O O15 0.498709 0.144104 0.453588
O O16 0.500000 0.000000 0.500000
O O17 0.577118 0.179438 0.250000
O O18 0.587461 0.250000 0.000000
O O19 0.027938 0.356807 0.750000
#
# Coordination Sequence:
#
# PCOD9435107 Si02
#       7
#     8   8   8   8   8   8   8
#     4   9  16  26  43  68  93 115 148 193 234 277
#     4   9  18  32  49  68  94 129 165 199 239 288
#     4  10  19  31  47  67  92 124 161 202 249 298
#     4   9  18  33  51  72  98 129 164 200 239 286
#     4   9  17  30  48  71  96 123 156 194 234 279
#     4   9  18  31  49  73  98 123 155 195 239 285
#     4   9  16  27  44  65  89 117 149 190 238 282
#
# _framework density 16.738453
#
# number of rings (size 3 to 8) (size 9 to 14) (size 15 to 20)
#    0.000    2.857    0.000    2.571    0.000    7.429 
#    0.000    0.714    0.000    4.286    0.000    4.000 
#    0.000    0.000    0.000    0.000    0.000    0.000 
#
# Total GULP energy -311915.627552 kJ/mol
# GULP energy per Si atom -5569.921921 kJ/mol
# Density = 1.670036 g / cm^3
# Si number density = 16.738453 Si / 1000 Ang^3
#
#
#
# Elastic Constant Matrix: (Units=GPa)
#
#
# Indices 1 2 3 4 5 6 
#
# 1 128.5258 32.7590 53.0067 0.0000 0.0000 0.0000
# 2 32.7590 56.1732 29.8341 0.0000 0.0000 0.0000
# 3 53.0067 29.8341 64.9065 0.0000 0.0000 0.0000
# 4 0.0000 0.0000 0.0000 23.0905 0.0000 0.0000
# 5 0.0000 0.0000 0.0000 0.0000 26.2029 0.0000
# 6 0.0000 0.0000 0.0000 0.0000 0.0000 11.0709
#
#
#
# Elastic Compliance Matrix: (Units=1/GPa)
#
#
# Indices 1 2 3 4 5 6 
#
# 1 0.011965 -0.002366 -0.008684 0.000000 0.000000 0.000000
# 2 -0.002366 0.024019 -0.009109 0.000000 0.000000 0.000000
# 3 -0.008684 -0.009109 0.026685 0.000000 0.000000 0.000000
# 4 0.000000 0.000000 0.000000 0.043308 0.000000 0.000000
# 5 0.000000 0.000000 0.000000 0.000000 0.038164 0.000000
# 6 0.000000 0.000000 0.000000 0.000000 0.000000 0.090327
#
#
# Mechanical properties :
#
#
# Convention : Reuss Voigt Hill
#
# Bulk Modulus (GPa) = 44.73591 53.42281 49.07936
# Shear Modulus (GPa) = 17.71571 21.00657 19.36114
#
# Velocity S-wave (km/s) = 3.25681 3.54643 3.40470
# Velocity P-wave (km/s) = 6.39741 6.98248 6.69634
#
# Compressibility (1/GPa) = 0.02235341
#
# Stress axis : x y z
#
# Youngs Moduli (GPa) = 83.57750 41.63326 37.47367
#
# Poissons Ratio (x) = 0.09849 0.32542
# Poissons Ratio (y) = 0.19771 0.34133
# Poissons Ratio (z) = 0.72579 0.37922
#
# Static dielectric constant tensor:
#      x y z
#    x 1.568410 0.000000 0.000000 
#    y 0.000000 1.575800 0.000000 
#    z 0.000000 0.000000 1.517840 
# 
# From -- ./inp_files/8351.got.cif
#   From: 2010.05.17/outbox.cif.g08.bks.cpg/sg57_5_cif.got.tgz:8351.got - 2010.06.03 13:58:18.
