data_PCOD9435589
_publ_section_title
;
Structure prediction by ZEFSAII (Michael W. Deem and Ramdas Pophale) SiO2 
 PCOD9435589
Probable space group: P B C M
;
_chemical_formula_sum "Si O2"
_cell_formula_units_Z 56
_cell_length_a 20.536731
_cell_length_b 16.003409
_cell_length_c 8.642239
_cell_angle_alpha 90.000000
_cell_angle_beta 90.000000
_cell_angle_gamma 90.000000
_cell_volume 2840.338442
_symmetry_space_group_name_H-M "P B C M"
_symmetry_group_IT_number 57
_symmetry_cell_setting 'orthorhombic'
loop_
_space_group_symop_operation_xyz
x,y,z
-x,-y,1/2+z
x,1/2-y,-z
-x,1/2+y,1/2-z
-x,-y,-z
x,y,1/2-z
-x,1/2+y,z
x,1/2-y,1/2+z
loop_
_atom_site_type_symbol
_atom_site_label
_atom_site_fract_x
_atom_site_fract_y
_atom_site_fract_z
Si Si1 0.106564 0.666596 0.925969
Si Si2 0.210941 0.050316 0.562300
Si Si3 0.664233 0.843177 0.064867
Si Si4 0.621004 0.335927 0.572122
Si Si5 0.746440 0.126510 0.575451
Si Si6 0.427399 0.491302 0.933801
Si Si7 0.928414 0.996428 0.071623
O O1 0.082961 0.650686 0.750000
O O2 0.184415 0.671336 0.916664
O O3 0.078490 0.750000 0.000000
O O4 0.094723 0.590517 0.040844
O O5 0.211881 0.036408 0.750000
O O6 0.262099 0.124228 0.528696
O O7 0.238686 0.968816 0.475144
O O8 0.134408 0.057896 0.514863
O O9 0.657624 0.841280 0.250000
O O10 0.653249 0.750000 0.000000
O O11 0.613910 0.913390 0.001705
O O12 0.594453 0.250000 0.500000
O O13 0.601857 0.342838 0.750000
O O14 0.698850 0.334772 0.550893
O O15 0.603453 0.420176 0.482326
O O16 0.717852 0.129360 0.750000
O O17 0.428993 0.482340 0.750000
O O18 0.500000 0.500000 0.000000
O O19 0.936244 0.975689 0.250000
O O20 0.000000 0.000000 0.000000
#
# Coordination Sequence:
#
# PCOD9435589 Si02
#       7
#     8   8   8   8   8   8   8
#     4  10  20  33  51  79 112 148 191 239 291 357
#     4   9  19  36  60  86 120 162 208 258 314 371
#     4  11  23  42  68  99 130 170 219 274 328 388
#     4  12  24  39  60  90 126 163 202 248 303 368
#     4  10  19  32  55  86 119 154 193 238 295 358
#     4  12  26  46  69  95 127 167 211 263 322 387
#     4  10  20  36  57  83 116 160 205 255 311 375
#
# _framework density 19.715959999999999
#
# number of rings (size 3 to 8) (size 9 to 14) (size 15 to 20)
#    0.000    1.429    1.429    4.714    0.000    4.571 
#    0.000    3.571    0.000    1.714    0.000    0.000 
#    0.000    0.000    0.000    0.000    0.000    0.000 
#
# Total GULP energy -312282.669153 kJ/mol
# GULP energy per Si atom -5576.476235 kJ/mol
# Density = 1.967109 g / cm^3
# Si number density = 19.715960 Si / 1000 Ang^3
#
#
#
# Elastic Constant Matrix: (Units=GPa)
#
#
# Indices 1 2 3 4 5 6 
#
# 1 118.4934 47.3326 31.1400 0.0000 0.0000 0.0000
# 2 47.3326 122.5753 38.5217 0.0000 0.0000 0.0000
# 3 31.1400 38.5217 86.8193 0.0000 0.0000 0.0000
# 4 0.0000 0.0000 0.0000 29.2096 0.0000 0.0000
# 5 0.0000 0.0000 0.0000 0.0000 30.9927 0.0000
# 6 0.0000 0.0000 0.0000 0.0000 0.0000 3.2564
#
#
#
# Elastic Compliance Matrix: (Units=1/GPa)
#
#
# Indices 1 2 3 4 5 6 
#
# 1 0.010344 -0.003287 -0.002252 0.000000 0.000000 0.000000
# 2 -0.003287 0.010524 -0.003491 0.000000 0.000000 0.000000
# 3 -0.002252 -0.003491 0.013875 0.000000 0.000000 0.000000
# 4 0.000000 0.000000 0.000000 0.034235 0.000000 0.000000
# 5 0.000000 0.000000 0.000000 0.000000 0.032266 0.000000
# 6 0.000000 0.000000 0.000000 0.000000 0.000000 0.307087
#
#
# Mechanical properties :
#
#
# Convention : Reuss Voigt Hill
#
# Bulk Modulus (GPa) = 59.93601 62.43075 61.18338
# Shear Modulus (GPa) = 11.57538 26.75132 19.16335
#
# Velocity S-wave (km/s) = 2.42566 3.68752 3.12103
# Velocity P-wave (km/s) = 6.18957 7.06146 6.63984
#
# Compressibility (1/GPa) = 0.01668446
#
# Stress axis : x y z
#
# Youngs Moduli (GPa) = 96.67510 95.01677 72.07337
#
# Poissons Ratio (x) = 0.31229 0.16230
# Poissons Ratio (y) = 0.31774 0.25160
# Poissons Ratio (z) = 0.21770 0.33169
#
# Static dielectric constant tensor:
#      x y z
#    x 1.808660 0.000000 0.000000 
#    y 0.000000 1.721580 0.000000 
#    z 0.000000 0.000000 1.700850 
# 
# From -- ./inp_files/8182.got.cif
#   From: 2010.05.17/outbox.cif.g08.bks.cpg/sg57_5_cif.got.tgz:8182.got - 2010.06.03 13:58:18.
