data_PCOD9435672
_publ_section_title
;
Structure prediction by ZEFSAII (Michael W. Deem and Ramdas Pophale) SiO2 
 PCOD9435672
Probable space group: P B C M
;
_chemical_formula_sum "Si O2"
_cell_formula_units_Z 64
_cell_length_a 15.462925
_cell_length_b 21.585837
_cell_length_c 9.236300
_cell_angle_alpha 90.000000
_cell_angle_beta 90.000000
_cell_angle_gamma 90.000000
_cell_volume 3082.893864
_symmetry_space_group_name_H-M "P B C M"
_symmetry_group_IT_number 57
_symmetry_cell_setting 'orthorhombic'
loop_
_space_group_symop_operation_xyz
x,y,z
-x,-y,1/2+z
x,1/2-y,-z
-x,1/2+y,1/2-z
-x,-y,-z
x,y,1/2-z
-x,1/2+y,z
x,1/2-y,1/2+z
loop_
_atom_site_type_symbol
_atom_site_label
_atom_site_fract_x
_atom_site_fract_y
_atom_site_fract_z
Si Si1 0.853374 0.005223 0.081644
Si Si2 0.253703 0.686732 0.078123
Si Si3 0.931675 0.365856 0.921827
Si Si4 0.589098 0.091135 0.078300
Si Si5 0.522080 0.810932 0.082220
Si Si6 0.679710 0.985140 0.921823
Si Si7 0.102471 0.140057 0.582392
Si Si8 0.292460 0.357535 0.419091
O O1 0.824243 0.014484 0.250000
O O2 0.920201 0.060250 0.051291
O O3 0.887535 0.935108 0.070224
O O4 0.772664 0.011211 0.974509
O O5 0.249316 0.697379 0.250000
O O6 0.158337 0.664853 0.028525
O O7 0.325278 0.633753 0.056042
O O8 0.277823 0.750000 0.000000
O O9 0.938124 0.357365 0.750000
O O10 0.018359 0.341195 0.994343
O O11 0.573879 0.084592 0.250000
O O12 0.513931 0.129128 0.999602
O O13 0.608143 0.026016 0.002579
O O14 0.494900 0.811086 0.250000
O O15 0.626368 0.812395 0.077810
O O16 0.490605 0.750000 0.000000
O O17 0.669918 0.987628 0.750000
O O18 0.682649 0.915587 0.981968
O O19 0.088854 0.155503 0.750000
O O20 0.196969 0.165257 0.536890
O O21 0.283249 0.378493 0.250000
#
# Coordination Sequence:
#
# PCOD9435672 Si02
#       8
#     8   8   8   8   8   8   8   8
#     4   9  17  33  52  75 116 157 187 225 284 348
#     4  10  22  38  56  78 110 153 193 233 286 341
#     4  10  19  33  52  77 111 151 190 231 282 340
#     4  11  22  40  63  86 119 157 190 235 295 356
#     4  11  24  43  66  91 115 148 196 245 293 348
#     4  11  21  33  57  92 123 152 194 240 288 348
#     4   9  18  32  54  82 110 147 189 234 284 333
#     4   9  21  42  62  82 119 160 193 237 295 354
#
# _framework density 20.759715
#
# number of rings (size 3 to 8) (size 9 to 14) (size 15 to 20)
#    0.000    2.000    1.250    3.375    0.000    6.500 
#    0.000    0.625    0.000    3.000    0.000    0.000 
#    0.000    0.000    0.000    0.000    0.000    0.000 
#
# Total GULP energy -357472.928035 kJ/mol
# GULP energy per Si atom -5585.514501 kJ/mol
# Density = 2.071246 g / cm^3
# Si number density = 20.759715 Si / 1000 Ang^3
#
#
#
# Elastic Constant Matrix: (Units=GPa)
#
#
# Indices 1 2 3 4 5 6 
#
# 1 103.9205 -2.0495 39.5804 0.0000 0.0000 0.0000
# 2 -2.0495 17.6055 20.2410 0.0000 0.0000 0.0000
# 3 39.5804 20.2410 87.7729 0.0000 0.0000 0.0000
# 4 0.0000 0.0000 0.0000 20.4020 0.0000 0.0000
# 5 0.0000 0.0000 0.0000 0.0000 27.5520 0.0000
# 6 0.0000 0.0000 0.0000 0.0000 0.0000 -1.5386
#
#
#
# Elastic Compliance Matrix: (Units=1/GPa)
#
#
# Indices 1 2 3 4 5 6 
#
# 1 0.013086 0.011305 -0.008508 0.000000 0.000000 0.000000
# 2 0.011305 0.087059 -0.025175 0.000000 0.000000 0.000000
# 3 -0.008508 -0.025175 0.021035 0.000000 0.000000 0.000000
# 4 0.000000 0.000000 0.000000 0.049015 0.000000 0.000000
# 5 0.000000 0.000000 0.000000 0.000000 0.036295 0.000000
# 6 0.000000 0.000000 0.000000 0.000000 0.000000 -0.649956
#
#
# Mechanical properties :
#
#
# Convention : Reuss Voigt Hill
#
# Bulk Modulus (GPa) = 13.08457 36.09364 24.58910
# Shear Modulus (GPa) = -13.39637 19.38490 2.99427
#
# Velocity S-wave (km/s) = -2.54304 3.05909 1.20228
# Velocity P-wave (km/s) = 1.51862 5.46823 3.71452
#
# Compressibility (1/GPa) = 0.07642591
#
# Stress axis : x y z
#
# Youngs Moduli (GPa) = 76.41620 11.48640 47.53945
#
# Poissons Ratio (x) = -0.12986 0.40447
# Poissons Ratio (y) = -0.86390 1.19678
# Poissons Ratio (z) = 0.65016 0.28916
#
# Static dielectric constant tensor:
#      x y z
#    x 1.783050 0.000000 0.000000 
#    y 0.000000 1.731900 0.000000 
#    z 0.000000 0.000000 1.697000 
# 
# From -- ./inp_files/5578.got.cif
#   From: 2010.05.17/outbox.cif.g08.bks.cpg/sg57_3_cif.got.tgz:5578.got - 2010.06.03 13:58:18.
