data_PCOD9435153
_publ_section_title
;
Structure prediction by ZEFSAII (Michael W. Deem and Ramdas Pophale) SiO2 
 PCOD9435153
Probable space group: P B C M
;
_chemical_formula_sum "Si O2"
_cell_formula_units_Z 56
_cell_length_a 14.859869
_cell_length_b 27.159374
_cell_length_c 8.668775
_cell_angle_alpha 90.000000
_cell_angle_beta 90.000000
_cell_angle_gamma 90.000000
_cell_volume 3498.585302
_symmetry_space_group_name_H-M "P B C M"
_symmetry_group_IT_number 57
_symmetry_cell_setting 'orthorhombic'
loop_
_space_group_symop_operation_xyz
x,y,z
-x,-y,1/2+z
x,1/2-y,-z
-x,1/2+y,1/2-z
-x,-y,-z
x,y,1/2-z
-x,1/2+y,z
x,1/2-y,1/2+z
loop_
_atom_site_type_symbol
_atom_site_label
_atom_site_fract_x
_atom_site_fract_y
_atom_site_fract_z
Si Si1 0.071970 0.568841 0.065428
Si Si2 0.623562 0.462310 0.566494
Si Si3 0.311498 0.434255 0.566440
Si Si4 0.761301 0.116263 0.934704
Si Si5 0.479072 0.111067 0.935330
Si Si6 0.881653 0.544327 0.565078
Si Si7 0.617513 0.195582 0.565375
O O1 0.074242 0.573542 0.250000
O O2 0.109517 0.513976 0.024720
O O3 0.136674 0.608814 0.987269
O O4 0.970155 0.569672 0.004737
O O5 0.616413 0.468429 0.750000
O O6 0.645929 0.513972 0.488663
O O7 0.704820 0.425636 0.522935
O O8 0.536000 0.435222 0.499576
O O9 0.309422 0.432104 0.750000
O O10 0.378683 0.393049 0.499816
O O11 0.210727 0.434052 0.500118
O O12 0.752876 0.108795 0.750000
O O13 0.710391 0.167070 0.974033
O O14 0.478460 0.108544 0.750000
O O15 0.535820 0.159390 0.983500
O O16 0.882524 0.547738 0.750000
O O17 0.612168 0.250000 0.500000
O O18 0.613534 0.198401 0.750000
#
# Coordination Sequence:
#
# PCOD9435153 Si02
#       7
#     8   8   8   8   8   8   8
#     4  10  19  31  48  71  98 133 172 206 246 288
#     4  11  20  31  46  68  97 132 169 205 244 289
#     4  12  22  32  47  69  98 134 171 208 244 288
#     4  10  19  32  50  73 101 133 167 205 250 298
#     4  10  21  36  50  69  97 129 165 204 249 298
#     4  10  20  32  47  68  99 136 172 208 244 283
#     4   9  20  36  55  77 100 127 160 204 254 302
#
# _framework density 16.006468999999999
#
# number of rings (size 3 to 8) (size 9 to 14) (size 15 to 20)
#    0.000    1.714    1.429    5.571    0.000    4.571 
#    0.000    0.000    0.000    0.000    0.000    1.000 
#    0.000    0.000    0.000    0.000    0.000    0.000 
#
# Total GULP energy -312616.135359 kJ/mol
# GULP energy per Si atom -5582.430989 kJ/mol
# Density = 1.597004 g / cm^3
# Si number density = 16.006469 Si / 1000 Ang^3
#
#
#
# Elastic Constant Matrix: (Units=GPa)
#
#
# Indices 1 2 3 4 5 6 
#
# 1 148.0368 52.4908 37.8781 0.0000 0.0000 0.0000
# 2 52.4908 73.6472 20.5434 0.0000 0.0000 0.0000
# 3 37.8781 20.5434 63.7373 0.0000 0.0000 0.0000
# 4 0.0000 0.0000 0.0000 22.6331 0.0000 0.0000
# 5 0.0000 0.0000 0.0000 0.0000 31.3009 0.0000
# 6 0.0000 0.0000 0.0000 0.0000 0.0000 10.3472
#
#
#
# Elastic Compliance Matrix: (Units=1/GPa)
#
#
# Indices 1 2 3 4 5 6 
#
# 1 0.009870 -0.005932 -0.003954 0.000000 0.000000 0.000000
# 2 -0.005932 0.018485 -0.002433 0.000000 0.000000 0.000000
# 3 -0.003954 -0.002433 0.018823 0.000000 0.000000 0.000000
# 4 0.000000 0.000000 0.000000 0.044183 0.000000 0.000000
# 5 0.000000 0.000000 0.000000 0.000000 0.031948 0.000000
# 6 0.000000 0.000000 0.000000 0.000000 0.000000 0.096645
#
#
# Mechanical properties :
#
#
# Convention : Reuss Voigt Hill
#
# Bulk Modulus (GPa) = 44.36282 56.36066 50.36174
# Shear Modulus (GPa) = 19.83310 24.49017 22.16164
#
# Velocity S-wave (km/s) = 3.52386 3.91579 3.72498
# Velocity P-wave (km/s) = 6.65827 7.46540 7.07335
#
# Compressibility (1/GPa) = 0.02254140
#
# Stress axis : x y z
#
# Youngs Moduli (GPa) = 101.31707 54.09905 53.12624
#
# Poissons Ratio (x) = 0.32091 0.21004
# Poissons Ratio (y) = 0.60099 0.12924
# Poissons Ratio (z) = 0.40058 0.13160
#
# Static dielectric constant tensor:
#      x y z
#    x 1.569240 0.000000 0.000000 
#    y 0.000000 1.517250 0.000000 
#    z 0.000000 0.000000 1.531020 
# 
# From -- ./inp_files/5903.got.cif
#   From: 2010.05.17/outbox.cif.g08.bks.cpg/sg57_3_cif.got.tgz:5903.got - 2010.06.03 13:58:18.
