data_PCOD9435047
_publ_section_title
;
Structure prediction by ZEFSAII (Michael W. Deem and Ramdas Pophale) SiO2 
 PCOD9435047
Probable space group: P B C M
;
_chemical_formula_sum "Si O2"
_cell_formula_units_Z 56
_cell_length_a 13.891353
_cell_length_b 24.679813
_cell_length_c 8.936212
_cell_angle_alpha 90.000000
_cell_angle_beta 90.000000
_cell_angle_gamma 90.000000
_cell_volume 3063.655127
_symmetry_space_group_name_H-M "P B C M"
_symmetry_group_IT_number 57
_symmetry_cell_setting 'orthorhombic'
loop_
_space_group_symop_operation_xyz
x,y,z
-x,-y,1/2+z
x,1/2-y,-z
-x,1/2+y,1/2-z
-x,-y,-z
x,y,1/2-z
-x,1/2+y,z
x,1/2-y,1/2+z
loop_
_atom_site_type_symbol
_atom_site_label
_atom_site_fract_x
_atom_site_fract_y
_atom_site_fract_z
Si Si1 0.331003 0.586238 0.929239
Si Si2 0.759004 0.307631 0.929367
Si Si3 0.846420 0.616053 0.070850
Si Si4 0.733333 0.978469 0.428840
Si Si5 0.014882 0.807145 0.929172
Si Si6 0.550966 0.904585 0.070736
Si Si7 0.338678 0.308951 0.572231
O O1 0.322221 0.587491 0.750000
O O2 0.443509 0.577540 0.968651
O O3 0.298198 0.642943 0.998890
O O4 0.269551 0.537092 0.996558
O O5 0.747700 0.306432 0.750000
O O6 0.872796 0.315619 0.964214
O O7 0.730298 0.250000 0.000000
O O8 0.848007 0.606575 0.250000
O O9 0.761899 0.659929 0.040603
O O10 0.946051 0.643837 0.022983
O O11 0.816622 0.561104 0.988522
O O12 0.737908 0.983171 0.250000
O O13 0.633086 0.947989 0.470654
O O14 0.005705 0.802443 0.750000
O O15 0.984219 0.750000 0.000000
O O16 0.555700 0.897428 0.250000
O O17 0.579525 0.848237 0.993566
O O18 0.339829 0.250000 0.500000
O O19 0.348981 0.304457 0.750000
#
# Coordination Sequence:
#
# PCOD9435047 Si02
#       7
#     8   8   8   8   8   8   8
#     4  11  22  37  57  78 102 137 175 214 260 308
#     4  10  21  38  58  81 107 136 173 217 260 305
#     4   9  18  33  52  77 107 139 172 209 255 308
#     4  10  20  35  55  80 107 135 170 214 258 307
#     4   9  18  33  55  80 107 138 173 213 258 307
#     4   9  20  36  53  74 102 136 175 215 258 308
#     4  10  19  30  48  74 106 139 171 210 257 307
#
# _framework density 18.278821000000001
#
# number of rings (size 3 to 8) (size 9 to 14) (size 15 to 20)
#    0.000    2.286    0.000    2.571    0.000    4.000 
#    0.000    0.714    0.000    0.000    0.000    0.000 
#    0.000    0.000    0.000    0.000    0.000    0.000 
#
# Total GULP energy -312628.974804 kJ/mol
# GULP energy per Si atom -5582.660264 kJ/mol
# Density = 1.823722 g / cm^3
# Si number density = 18.278821 Si / 1000 Ang^3
#
#
#
# Elastic Constant Matrix: (Units=GPa)
#
#
# Indices 1 2 3 4 5 6 
#
# 1 33.5643 17.6255 14.8570 0.0000 0.0000 0.0000
# 2 17.6255 111.2309 33.2153 0.0000 0.0000 0.0000
# 3 14.8570 33.2153 25.0010 0.0000 0.0000 0.0000
# 4 0.0000 0.0000 0.0000 35.4792 0.0000 0.0000
# 5 0.0000 0.0000 0.0000 0.0000 21.6917 0.0000
# 6 0.0000 0.0000 0.0000 0.0000 0.0000 22.6776
#
#
#
# Elastic Compliance Matrix: (Units=1/GPa)
#
#
# Indices 1 2 3 4 5 6 
#
# 1 0.040537 0.001276 -0.025785 0.000000 0.000000 0.000000
# 2 0.001276 0.014943 -0.020611 0.000000 0.000000 0.000000
# 3 -0.025785 -0.020611 0.082704 0.000000 0.000000 0.000000
# 4 0.000000 0.000000 0.000000 0.028186 0.000000 0.000000
# 5 0.000000 0.000000 0.000000 0.000000 0.046101 0.000000
# 6 0.000000 0.000000 0.000000 0.000000 0.000000 0.044096
#
#
# Mechanical properties :
#
#
# Convention : Reuss Voigt Hill
#
# Bulk Modulus (GPa) = 20.85738 33.46576 27.16157
# Shear Modulus (GPa) = 13.78218 22.90959 18.34589
#
# Velocity S-wave (km/s) = 2.74888 3.54410 3.17151
# Velocity P-wave (km/s) = 4.63795 5.92416 5.32007
#
# Compressibility (1/GPa) = 0.04794466
#
# Stress axis : x y z
#
# Youngs Moduli (GPa) = 24.66883 66.92205 12.09129
#
# Poissons Ratio (x) = -0.08542 0.31178
# Poissons Ratio (y) = -0.03149 0.24921
# Poissons Ratio (z) = 0.63609 1.37932
#
# Static dielectric constant tensor:
#      x y z
#    x 1.638660 0.000000 0.000000 
#    y 0.000000 1.598280 0.000000 
#    z 0.000000 0.000000 1.604260 
# 
# From -- ./inp_files/5166.got.cif
#   From: 2010.05.17/outbox.cif.g08.bks.cpg/sg57_3_cif.got.tgz:5166.got - 2010.06.03 13:58:18.
