data_PCOD9435276
_publ_section_title
;
Structure prediction by ZEFSAII (Michael W. Deem and Ramdas Pophale) SiO2 
 PCOD9435276
Probable space group: P B C M
;
_chemical_formula_sum "Si O2"
_cell_formula_units_Z 64
_cell_length_a 19.387537
_cell_length_b 23.514528
_cell_length_c 8.895090
_cell_angle_alpha 90.000000
_cell_angle_beta 90.000000
_cell_angle_gamma 90.000000
_cell_volume 4055.171743
_symmetry_space_group_name_H-M "P B C M"
_symmetry_group_IT_number 57
_symmetry_cell_setting 'orthorhombic'
loop_
_space_group_symop_operation_xyz
x,y,z
-x,-y,1/2+z
x,1/2-y,-z
-x,1/2+y,1/2-z
-x,-y,-z
x,y,1/2-z
-x,1/2+y,z
x,1/2-y,1/2+z
loop_
_atom_site_type_symbol
_atom_site_label
_atom_site_fract_x
_atom_site_fract_y
_atom_site_fract_z
Si Si1 0.164950 0.411661 0.430394
Si Si2 0.574545 0.499521 0.926723
Si Si3 0.938948 0.811526 0.069046
Si Si4 0.909095 0.356034 0.069583
Si Si5 0.074984 0.988206 0.069429
Si Si6 0.706273 0.958604 0.928138
Si Si7 0.229024 0.809416 0.929718
Si Si8 0.697821 0.425630 0.572597
O O1 0.166813 0.415237 0.250000
O O2 0.119772 0.356802 0.474143
O O3 0.125583 0.466079 0.497155
O O4 0.241717 0.414527 0.496450
O O5 0.569912 0.511590 0.750000
O O6 0.616142 0.439457 0.943800
O O7 0.500000 0.500000 0.000000
O O8 0.628723 0.542440 0.005671
O O9 0.938806 0.807942 0.250000
O O10 0.014927 0.834274 0.024718
O O11 0.927083 0.750000 0.000000
O O12 0.902213 0.348705 0.250000
O O13 0.904583 0.423163 0.035815
O O14 0.847845 0.323135 0.987985
O O15 0.072943 0.994495 0.250000
O O16 0.000000 0.000000 0.000000
O O17 0.706604 0.953747 0.750000
O O18 0.730237 0.022535 0.977902
O O19 0.228940 0.805016 0.750000
O O20 0.276015 0.863865 0.972608
O O21 0.252500 0.750000 0.000000
O O22 0.714413 0.433919 0.750000
#
# Coordination Sequence:
#
# PCOD9435276 Si02
#       8
#     8   8   8   8   8   8   8   8
#     4  11  21  36  51  70 101 132 165 208 257 305
#     4   9  17  32  52  79 111 140 166 197 243 300
#     4  10  22  38  52  67  92 127 170 219 264 305
#     4  10  21  37  51  70  97 129 169 216 261 309
#     4  11  21  34  52  75  99 127 165 209 260 315
#     4  10  19  31  51  79 105 133 166 203 250 301
#     4  11  22  35  50  71  97 137 179 218 259 301
#     4   8  18  34  50  71 105 140 169 205 254 303
#
# _framework density 15.782315000000001
#
# number of rings (size 3 to 8) (size 9 to 14) (size 15 to 20)
#    0.750    1.250    1.250    3.375    0.000    6.500 
#    0.000    0.000    0.000    0.000    0.000    0.875 
#    0.000    4.000    0.000    0.000    0.000    0.000 
#
# Total GULP energy -356716.952031 kJ/mol
# GULP energy per Si atom -5573.702375 kJ/mol
# Density = 1.574639 g / cm^3
# Si number density = 15.782315 Si / 1000 Ang^3
#
#
#
# Elastic Constant Matrix: (Units=GPa)
#
#
# Indices 1 2 3 4 5 6 
#
# 1 112.0842 44.8807 39.6290 0.0000 0.0000 0.0000
# 2 44.8807 89.2679 39.3678 0.0000 0.0000 0.0000
# 3 39.6290 39.3678 60.1276 0.0000 0.0000 0.0000
# 4 0.0000 0.0000 0.0000 24.9977 0.0000 0.0000
# 5 0.0000 0.0000 0.0000 0.0000 27.7811 0.0000
# 6 0.0000 0.0000 0.0000 0.0000 0.0000 11.0354
#
#
#
# Elastic Compliance Matrix: (Units=1/GPa)
#
#
# Indices 1 2 3 4 5 6 
#
# 1 0.012450 -0.003713 -0.005775 0.000000 0.000000 0.000000
# 2 -0.003713 0.016857 -0.008590 0.000000 0.000000 0.000000
# 3 -0.005775 -0.008590 0.026062 0.000000 0.000000 0.000000
# 4 0.000000 0.000000 0.000000 0.040004 0.000000 0.000000
# 5 0.000000 0.000000 0.000000 0.000000 0.035996 0.000000
# 6 0.000000 0.000000 0.000000 0.000000 0.000000 0.090617
#
#
# Mechanical properties :
#
#
# Convention : Reuss Voigt Hill
#
# Bulk Modulus (GPa) = 52.04600 56.58163 54.31381
# Shear Modulus (GPa) = 18.90034 21.93631 20.41832
#
# Velocity S-wave (km/s) = 3.46434 3.73222 3.60077
# Velocity P-wave (km/s) = 7.00366 7.38253 7.19559
#
# Compressibility (1/GPa) = 0.01921377
#
# Stress axis : x y z
#
# Youngs Moduli (GPa) = 80.31909 59.32203 38.37065
#
# Poissons Ratio (x) = 0.22025 0.22159
# Poissons Ratio (y) = 0.29821 0.32960
# Poissons Ratio (z) = 0.46383 0.50957
#
# Static dielectric constant tensor:
#      x y z
#    x 1.547790 0.000000 0.000000 
#    y 0.000000 1.555830 0.000000 
#    z 0.000000 0.000000 1.523250 
# 
# From -- ./inp_files/8780.got.cif
#   From: 2010.05.17/outbox.cif.g08.bks.cpg/sg57_5_cif.got.tgz:8780.got - 2010.06.03 13:58:18.
