data_PCOD9435409
_publ_section_title
;
Structure prediction by ZEFSAII (Michael W. Deem and Ramdas Pophale) SiO2 
 PCOD9435409
Probable space group: P B C M
;
_chemical_formula_sum "Si O2"
_cell_formula_units_Z 56
_cell_length_a 15.332834
_cell_length_b 21.579132
_cell_length_c 8.710128
_cell_angle_alpha 90.000000
_cell_angle_beta 90.000000
_cell_angle_gamma 90.000000
_cell_volume 2881.913508
_symmetry_space_group_name_H-M "P B C M"
_symmetry_group_IT_number 57
_symmetry_cell_setting 'orthorhombic'
loop_
_space_group_symop_operation_xyz
x,y,z
-x,-y,1/2+z
x,1/2-y,-z
-x,1/2+y,1/2-z
-x,-y,-z
x,y,1/2-z
-x,1/2+y,z
x,1/2-y,1/2+z
loop_
_atom_site_type_symbol
_atom_site_label
_atom_site_fract_x
_atom_site_fract_y
_atom_site_fract_z
Si Si1 0.736029 0.516109 0.570212
Si Si2 0.058441 0.315328 0.574900
Si Si3 0.150929 0.685792 0.074618
Si Si4 0.546611 0.183446 0.567112
Si Si5 0.714587 0.109540 0.928677
Si Si6 0.922652 0.544144 0.434308
Si Si7 0.552194 0.940389 0.436105
O O1 0.754734 0.524673 0.750000
O O2 0.697643 0.448180 0.537138
O O3 0.826223 0.520817 0.478476
O O4 0.654839 0.559004 0.522472
O O5 0.087170 0.250000 0.500000
O O6 0.090898 0.315108 0.750000
O O7 0.076883 0.383857 0.507799
O O8 0.953200 0.313859 0.577259
O O9 0.181905 0.678600 0.250000
O O10 0.179679 0.750000 0.000000
O O11 0.189061 0.632668 0.967807
O O12 0.524527 0.250000 0.500000
O O13 0.536140 0.186992 0.750000
O O14 0.646839 0.164227 0.536327
O O15 0.491205 0.124089 0.512915
O O16 0.704491 0.092438 0.750000
O O17 0.934221 0.545528 0.250000
O O18 0.000000 0.500000 0.500000
O O19 0.546894 0.943945 0.250000
O O20 0.500000 0.000000 0.500000
#
# Coordination Sequence:
#
# PCOD9435409 Si02
#       7
#     8   8   8   8   8   8   8
#     4  11  23  38  60  88 117 156 202 249 307 367
#     4   9  20  37  57  80 109 151 198 246 299 357
#     4  10  19  32  50  76 111 148 192 239 295 365
#     4  10  22  38  57  85 119 155 198 248 304 363
#     4  11  21  34  54  81 115 152 195 246 302 366
#     4  11  23  40  62  91 126 161 204 256 308 366
#     4  10  21  40  63  87 117 155 201 249 297 357
#
# _framework density 19.431533000000002
#
# number of rings (size 3 to 8) (size 9 to 14) (size 15 to 20)
#    0.000    1.714    1.429    3.000    0.000    6.286 
#    0.000    0.714    0.000    3.429    0.000    0.000 
#    0.000    0.000    0.000    0.000    0.000    0.000 
#
# Total GULP energy -312268.110086 kJ/mol
# GULP energy per Si atom -5576.216252 kJ/mol
# Density = 1.938731 g / cm^3
# Si number density = 19.431533 Si / 1000 Ang^3
#
#
#
# Elastic Constant Matrix: (Units=GPa)
#
#
# Indices 1 2 3 4 5 6 
#
# 1 73.9705 35.2401 22.1868 0.0000 0.0000 0.0000
# 2 35.2401 140.3267 23.3600 0.0000 0.0000 0.0000
# 3 22.1868 23.3600 29.0403 0.0000 0.0000 0.0000
# 4 0.0000 0.0000 0.0000 31.7870 0.0000 0.0000
# 5 0.0000 0.0000 0.0000 0.0000 16.6222 0.0000
# 6 0.0000 0.0000 0.0000 0.0000 0.0000 -53.0868
#
#
#
# Elastic Compliance Matrix: (Units=1/GPa)
#
#
# Indices 1 2 3 4 5 6 
#
# 1 0.018338 -0.002624 -0.011899 0.000000 0.000000 0.000000
# 2 -0.002624 0.008604 -0.004916 0.000000 0.000000 0.000000
# 3 -0.011899 -0.004916 0.047480 0.000000 0.000000 0.000000
# 4 0.000000 0.000000 0.000000 0.031459 0.000000 0.000000
# 5 0.000000 0.000000 0.000000 0.000000 0.060160 0.000000
# 6 0.000000 0.000000 0.000000 0.000000 0.000000 -0.018837
#
#
# Mechanical properties :
#
#
# Convention : Reuss Voigt Hill
#
# Bulk Modulus (GPa) = 28.13483 44.99017 36.56250
# Shear Modulus (GPa) = 25.26123 9.90118 17.58120
#
# Velocity S-wave (km/s) = 3.60948 2.25975 3.01121
# Velocity P-wave (km/s) = 5.64637 5.47833 5.56298
#
# Compressibility (1/GPa) = 0.03554313
#
# Stress axis : x y z
#
# Youngs Moduli (GPa) = 54.53061 116.23037 21.06138
#
# Poissons Ratio (x) = 0.30504 0.25062
# Poissons Ratio (y) = 0.14311 0.10353
# Poissons Ratio (z) = 0.64888 0.57135
#
# Static dielectric constant tensor:
#      x y z
#    x 1.690390 0.000000 0.000000 
#    y 0.000000 1.754200 0.000000 
#    z 0.000000 0.000000 1.671150 
# 
# From -- ./inp_files/5110.got.cif
#   From: 2010.05.17/outbox.cif.g08.bks.cpg/sg57_3_cif.got.tgz:5110.got - 2010.06.03 13:58:18.
