data_PCOD9435605
_publ_section_title
;
Structure prediction by ZEFSAII (Michael W. Deem and Ramdas Pophale) SiO2 
 PCOD9435605
Probable space group: P B C M
;
_chemical_formula_sum "Si O2"
_cell_formula_units_Z 32
_cell_length_a 13.491231
_cell_length_b 5.298685
_cell_length_c 20.385510
_cell_angle_alpha 90.000000
_cell_angle_beta 90.000000
_cell_angle_gamma 90.000000
_cell_volume 1457.274151
_symmetry_space_group_name_H-M "P B C M"
_symmetry_group_IT_number 57
_symmetry_cell_setting 'orthorhombic'
loop_
_space_group_symop_operation_xyz
x,y,z
-x,-y,1/2+z
x,1/2-y,-z
-x,1/2+y,1/2-z
-x,-y,-z
x,y,1/2-z
-x,1/2+y,z
x,1/2-y,1/2+z
loop_
_atom_site_type_symbol
_atom_site_label
_atom_site_fract_x
_atom_site_fract_y
_atom_site_fract_z
Si Si1 0.062543 0.839144 0.171718
Si Si2 0.279916 0.740560 0.137389
Si Si3 0.380221 0.252727 0.179704
Si Si4 0.405560 0.448762 0.455298
O O1 0.086389 0.831500 0.250000
O O2 0.164557 0.797982 0.133356
O O3 0.988374 0.607403 0.158335
O O4 0.299090 0.478525 0.176530
O O5 0.331111 0.980976 0.170869
O O6 0.337597 0.675903 0.070097
O O7 0.432572 0.266877 0.250000
O O8 0.439645 0.316187 0.113403
O O9 0.344902 0.250000 0.500000
O O10 0.500000 0.500000 0.500000
#
# Coordination Sequence:
#
# PCOD9435605 Si02
#       4
#     8   8   8   8
#     4  10  19  32  58  97 139 174 216 278 350 421
#     4  10  22  38  67  96 140 177 229 277 352 413
#     4  10  21  39  67  98 131 174 228 286 341 406
#     4  10  26  43  71  95 134 183 240 287 343 426
#
# _framework density 21.958804000000001
#
# number of rings (size 3 to 8) (size 9 to 14) (size 15 to 20)
#    1.500    0.500    0.000    3.750    3.500    2.000 
#    0.000    1.250    0.000    1.500    0.000    0.000 
#    0.000    0.000    0.000    0.000    0.000    0.000 
#
# Total GULP energy -178566.746806 kJ/mol
# GULP energy per Si atom -5580.210838 kJ/mol
# Density = 2.190882 g / cm^3
# Si number density = 21.958804 Si / 1000 Ang^3
#
#
#
# Elastic Constant Matrix: (Units=GPa)
#
#
# Indices 1 2 3 4 5 6 
#
# 1 81.8626 -1.9849 34.5044 0.0000 0.0000 0.0000
# 2 -1.9849 115.8925 14.3285 0.0000 0.0000 0.0000
# 3 34.5044 14.3285 153.7075 0.0000 0.0000 0.0000
# 4 0.0000 0.0000 0.0000 -12.2618 0.0000 0.0000
# 5 0.0000 0.0000 0.0000 0.0000 29.3821 0.0000
# 6 0.0000 0.0000 0.0000 0.0000 0.0000 29.4714
#
#
#
# Elastic Compliance Matrix: (Units=1/GPa)
#
#
# Indices 1 2 3 4 5 6 
#
# 1 0.013535 0.000615 -0.003096 0.000000 0.000000 0.000000
# 2 0.000615 0.008757 -0.000954 0.000000 0.000000 0.000000
# 3 -0.003096 -0.000954 0.007290 0.000000 0.000000 0.000000
# 4 0.000000 0.000000 0.000000 -0.081554 0.000000 0.000000
# 5 0.000000 0.000000 0.000000 0.000000 0.034034 0.000000
# 6 0.000000 0.000000 0.000000 0.000000 0.000000 0.033931
#
#
# Mechanical properties :
#
#
# Convention : Reuss Voigt Hill
#
# Bulk Modulus (GPa) = 44.03082 49.46206 46.74644
# Shear Modulus (GPa) = 164.28575 29.62598 96.95587
#
# Velocity S-wave (km/s) = 8.65898 3.67708 6.65202
# Velocity P-wave (km/s) = 10.95744 6.37195 8.96290
#
# Compressibility (1/GPa) = 0.02271136
#
# Stress axis : x y z
#
# Youngs Moduli (GPa) = 73.88092 114.19183 137.17897
#
# Poissons Ratio (x) = -0.07018 0.42467
# Poissons Ratio (y) = -0.04540 0.13091
# Poissons Ratio (z) = 0.22871 0.10897
#
# Static dielectric constant tensor:
#      x y z
#    x 1.761360 0.000000 0.000000 
#    y 0.000000 2.004650 0.000000 
#    z 0.000000 0.000000 1.870030 
# 
# From -- ./inp_files/22231.got.cif
#   From: 2010.05.17/outbox.cif.g08.bks.cpg/sg57_12_cif.got.tgz:22231.got - 2010.06.03 13:58:18.
