data_PCOD9435043
_publ_section_title
;
Structure prediction by ZEFSAII (Michael W. Deem and Ramdas Pophale) SiO2 
 PCOD9435043
Probable space group: P B C M
;
_chemical_formula_sum "Si O2"
_cell_formula_units_Z 56
_cell_length_a 17.219199
_cell_length_b 22.525656
_cell_length_c 9.189715
_cell_angle_alpha 90.000000
_cell_angle_beta 90.000000
_cell_angle_gamma 90.000000
_cell_volume 3564.449249
_symmetry_space_group_name_H-M "P B C M"
_symmetry_group_IT_number 57
_symmetry_cell_setting 'orthorhombic'
loop_
_space_group_symop_operation_xyz
x,y,z
-x,-y,1/2+z
x,1/2-y,-z
-x,1/2+y,1/2-z
-x,-y,-z
x,y,1/2-z
-x,1/2+y,z
x,1/2-y,1/2+z
loop_
_atom_site_type_symbol
_atom_site_label
_atom_site_fract_x
_atom_site_fract_y
_atom_site_fract_z
Si Si1 0.920779 0.187694 0.574990
Si Si2 0.054156 0.549903 0.925769
Si Si3 0.259679 0.663507 0.583954
Si Si4 0.622891 0.507796 0.917540
Si Si5 0.232964 0.976360 0.083237
Si Si6 0.480164 0.913103 0.415723
Si Si7 0.586142 0.193464 0.080336
O O1 0.947698 0.250000 0.500000
O O2 0.931208 0.192620 0.750000
O O3 0.953013 0.120959 0.532475
O O4 0.827862 0.182636 0.547031
O O5 0.044446 0.548486 0.750000
O O6 0.142592 0.528997 0.957286
O O7 0.000000 0.500000 0.000000
O O8 0.276293 0.683027 0.750000
O O9 0.260869 0.592094 0.581586
O O10 0.325904 0.684769 0.476490
O O11 0.622750 0.484909 0.750000
O O12 0.569182 0.565923 0.917040
O O13 0.710087 0.511833 0.976946
O O14 0.575868 0.465603 0.028447
O O15 0.239057 0.997953 0.250000
O O16 0.458699 0.896988 0.250000
O O17 0.463374 0.861651 0.527252
O O18 0.585817 0.200566 0.250000
O O19 0.552968 0.250000 0.000000
#
# Coordination Sequence:
#
# PCOD9435043 Si02
#       7
#     8   8   8   8   8   8   8
#     4   9  18  31  47  69  97 129 166 199 239 290
#     4   9  19  34  50  73 102 134 166 204 250 298
#     4   9  17  30  45  64  93 127 159 195 233 276
#     4  10  19  30  48  72  93 119 158 198 236 280
#     4   9  17  30  49  69  97 130 158 194 243 289
#     4  10  20  33  46  64  94 124 155 199 241 276
#     4  12  23  32  44  63  89 124 165 201 238 287
#
# _framework density 15.710703000000001
#
# number of rings (size 3 to 8) (size 9 to 14) (size 15 to 20)
#    0.000    2.286    1.429    4.286    0.000    4.571 
#    0.000    2.857    0.000    0.000    0.000    1.000 
#    0.000    4.571    0.000    0.000    0.000    0.000 
#
# Total GULP energy -311804.561917 kJ/mol
# GULP energy per Si atom -5567.938606 kJ/mol
# Density = 1.567494 g / cm^3
# Si number density = 15.710703 Si / 1000 Ang^3
#
#
#
# Elastic Constant Matrix: (Units=GPa)
#
#
# Indices 1 2 3 4 5 6 
#
# 1 61.6914 37.0204 32.0871 0.0000 0.0000 0.0000
# 2 37.0204 76.6379 30.6098 0.0000 0.0000 0.0000
# 3 32.0871 30.6098 73.7468 0.0000 0.0000 0.0000
# 4 0.0000 0.0000 0.0000 23.8692 0.0000 0.0000
# 5 0.0000 0.0000 0.0000 0.0000 30.6645 0.0000
# 6 0.0000 0.0000 0.0000 0.0000 0.0000 -23.7379
#
#
#
# Elastic Compliance Matrix: (Units=1/GPa)
#
#
# Indices 1 2 3 4 5 6 
#
# 1 0.025678 -0.009520 -0.007221 0.000000 0.000000 0.000000
# 2 -0.009520 0.019171 -0.003815 0.000000 0.000000 0.000000
# 3 -0.007221 -0.003815 0.018285 0.000000 0.000000 0.000000
# 4 0.000000 0.000000 0.000000 0.041895 0.000000 0.000000
# 5 0.000000 0.000000 0.000000 0.000000 0.032611 0.000000
# 6 0.000000 0.000000 0.000000 0.000000 0.000000 -0.042127
#
#
# Mechanical properties :
#
#
# Convention : Reuss Voigt Hill
#
# Bulk Modulus (GPa) = 45.40878 45.72342 45.56610
# Shear Modulus (GPa) = 34.73022 13.64976 24.18999
#
# Velocity S-wave (km/s) = 4.70681 2.95077 3.92818
# Velocity P-wave (km/s) = 7.64883 6.38560 7.04559
#
# Compressibility (1/GPa) = 0.02202217
#
# Stress axis : x y z
#
# Youngs Moduli (GPa) = 38.94321 52.16278 54.68853
#
# Poissons Ratio (x) = 0.49658 0.39492
# Poissons Ratio (y) = 0.37073 0.20864
# Poissons Ratio (z) = 0.28122 0.19900
#
# Static dielectric constant tensor:
#      x y z
#    x 1.524690 0.000000 0.000000 
#    y 0.000000 1.493590 0.000000 
#    z 0.000000 0.000000 1.542180 
# 
# From -- ./inp_files/7032.got.cif
#   From: 2010.05.17/outbox.cif.g08.bks.cpg/sg57_4_cif.got.tgz:7032.got - 2010.06.03 13:58:18.
