data_PCOD9435126
_publ_section_title
;
Structure prediction by ZEFSAII (Michael W. Deem and Ramdas Pophale) SiO2 
 PCOD9435126
Probable space group: P B C M
;
_chemical_formula_sum "Si O2"
_cell_formula_units_Z 64
_cell_length_a 23.529968
_cell_length_b 18.307512
_cell_length_c 7.980097
_cell_angle_alpha 90.000000
_cell_angle_beta 90.000000
_cell_angle_gamma 90.000000
_cell_volume 3437.627654
_symmetry_space_group_name_H-M "P B C M"
_symmetry_group_IT_number 57
_symmetry_cell_setting 'orthorhombic'
loop_
_space_group_symop_operation_xyz
x,y,z
-x,-y,1/2+z
x,1/2-y,-z
-x,1/2+y,1/2-z
-x,-y,-z
x,y,1/2-z
-x,1/2+y,z
x,1/2-y,1/2+z
loop_
_atom_site_type_symbol
_atom_site_label
_atom_site_fract_x
_atom_site_fract_y
_atom_site_fract_z
Si Si1 0.703113 0.328736 0.951257
Si Si2 0.040289 0.932296 0.951636
Si Si3 0.454531 0.329589 0.448121
Si Si4 0.260033 0.512715 0.045144
Si Si5 0.579331 0.126366 0.451757
Si Si6 0.384636 0.033029 0.954923
Si Si7 0.862349 0.532610 0.952375
Si Si8 0.942767 0.666887 0.449725
O O1 0.701577 0.331793 0.750000
O O2 0.735461 0.402090 0.006956
O O3 0.637638 0.336168 0.012861
O O4 0.726688 0.250000 0.000000
O O5 0.044016 0.926205 0.750000
O O6 0.004563 0.862400 0.014165
O O7 0.101353 0.961571 0.011683
O O8 0.000000 0.000000 0.000000
O O9 0.434084 0.250000 0.500000
O O10 0.450453 0.334365 0.250000
O O11 0.520595 0.338950 0.493276
O O12 0.417387 0.396155 0.519151
O O13 0.259712 0.512038 0.250000
O O14 0.318900 0.474495 0.993012
O O15 0.202266 0.474597 0.987348
O O16 0.580579 0.128464 0.250000
O O17 0.583650 0.041624 0.504874
O O18 0.384619 0.033855 0.750000
O O19 0.861580 0.530168 0.750000
O O20 0.895623 0.606917 0.997802
O O21 0.931111 0.750000 0.500000
O O22 0.944770 0.664557 0.250000
#
# Coordination Sequence:
#
# PCOD9435126 Si02
#       8
#     8   8   8   8   8   8   8   8
#     4   9  17  29  46  68  93 120 149 185 230 278
#     4   8  15  27  45  69  93 118 148 183 223 267
#     4  11  21  31  45  66  92 119 149 187 233 282
#     4   8  15  30  51  70  90 122 160 192 226 273
#     4   9  17  31  50  69  89 114 149 190 232 280
#     4   8  16  31  49  68  90 119 153 189 230 277
#     4   9  16  30  53  74  92 121 161 197 230 271
#     4  10  19  31  47  70 101 129 156 193 234 274
#
# _framework density 18.61749
#
# number of rings (size 3 to 8) (size 9 to 14) (size 15 to 20)
#    0.000    3.000    0.000    3.000    0.000    2.000 
#    0.000    2.500    0.000    5.250    0.000    0.000 
#    0.000    0.000    0.000    0.000    0.000    0.000 
#
# Total GULP energy -356436.903185 kJ/mol
# GULP energy per Si atom -5569.326612 kJ/mol
# Density = 1.857512 g / cm^3
# Si number density = 18.617490 Si / 1000 Ang^3
#
#
#
# Elastic Constant Matrix: (Units=GPa)
#
#
# Indices 1 2 3 4 5 6 
#
# 1 76.2334 51.8161 5.2938 0.0000 0.0000 0.0000
# 2 51.8161 124.6012 5.2688 0.0000 0.0000 0.0000
# 3 5.2938 5.2688 14.2992 0.0000 0.0000 0.0000
# 4 0.0000 0.0000 0.0000 16.9772 0.0000 0.0000
# 5 0.0000 0.0000 0.0000 0.0000 11.5260 0.0000
# 6 0.0000 0.0000 0.0000 0.0000 0.0000 16.5131
#
#
#
# Elastic Compliance Matrix: (Units=1/GPa)
#
#
# Indices 1 2 3 4 5 6 
#
# 1 0.018518 -0.007528 -0.004082 0.000000 0.000000 0.000000
# 2 -0.007528 0.011213 -0.001345 0.000000 0.000000 0.000000
# 3 -0.004082 -0.001345 0.071941 0.000000 0.000000 0.000000
# 4 0.000000 0.000000 0.000000 0.058903 0.000000 0.000000
# 5 0.000000 0.000000 0.000000 0.000000 0.086760 0.000000
# 6 0.000000 0.000000 0.000000 0.000000 0.000000 0.060558
#
#
# Mechanical properties :
#
#
# Convention : Reuss Voigt Hill
#
# Bulk Modulus (GPa) = 13.19915 37.76569 25.48242
# Shear Modulus (GPa) = 13.92541 19.18693 16.55617
#
# Velocity S-wave (km/s) = 2.73788 3.21376 2.98532
# Velocity P-wave (km/s) = 4.13518 5.83953 5.05963
#
# Compressibility (1/GPa) = 0.07576247
#
# Stress axis : x y z
#
# Youngs Moduli (GPa) = 54.00150 89.18133 13.90036
#
# Poissons Ratio (x) = 0.67138 0.05674
# Poissons Ratio (y) = 0.40653 0.01869
# Poissons Ratio (z) = 0.22042 0.11991
#
# Static dielectric constant tensor:
#      x y z
#    x 1.658740 0.000000 0.000000 
#    y 0.000000 1.647200 0.000000 
#    z 0.000000 0.000000 1.656080 
# 
# From -- ./inp_files/8489.got.cif
#   From: 2010.05.17/outbox.cif.g08.bks.cpg/sg57_5_cif.got.tgz:8489.got - 2010.06.03 13:58:18.
