data_PCOD9435549
_publ_section_title
;
Structure prediction by ZEFSAII (Michael W. Deem and Ramdas Pophale) SiO2 
 PCOD9435549
Probable space group: P B C M
;
_chemical_formula_sum "Si O2"
_cell_formula_units_Z 56
_cell_length_a 23.174114
_cell_length_b 14.593176
_cell_length_c 8.754836
_cell_angle_alpha 90.000000
_cell_angle_beta 90.000000
_cell_angle_gamma 90.000000
_cell_volume 2960.744795
_symmetry_space_group_name_H-M "P B C M"
_symmetry_group_IT_number 57
_symmetry_cell_setting 'orthorhombic'
loop_
_space_group_symop_operation_xyz
x,y,z
-x,-y,1/2+z
x,1/2-y,-z
-x,1/2+y,1/2-z
-x,-y,-z
x,y,1/2-z
-x,1/2+y,z
x,1/2-y,1/2+z
loop_
_atom_site_type_symbol
_atom_site_label
_atom_site_fract_x
_atom_site_fract_y
_atom_site_fract_z
Si Si1 0.856948 0.844822 0.430395
Si Si2 0.529170 0.852073 0.066637
Si Si3 0.814143 0.038002 0.067741
Si Si4 0.300975 0.647594 0.433994
Si Si5 0.418067 0.544491 0.065480
Si Si6 0.979543 0.596229 0.069018
Si Si7 0.906555 0.337322 0.430172
O O1 0.836369 0.750000 0.500000
O O2 0.864976 0.834675 0.250000
O O3 0.919578 0.869493 0.499855
O O4 0.813841 0.929301 0.457487
O O5 0.528270 0.844412 0.250000
O O6 0.572450 0.936830 0.024965
O O7 0.540038 0.750000 0.000000
O O8 0.468131 0.892892 0.007848
O O9 0.824795 0.052751 0.250000
O O10 0.756816 0.092262 0.023104
O O11 0.867958 0.076130 0.973039
O O12 0.302360 0.750000 0.500000
O O13 0.301316 0.654511 0.250000
O O14 0.356855 0.587954 0.479161
O O15 0.423641 0.550123 0.250000
O O16 0.974149 0.589987 0.250000
O O17 0.000000 0.500000 0.000000
O O18 0.033692 0.657559 0.021147
O O19 0.873707 0.250000 0.500000
O O20 0.915603 0.330773 0.250000
#
# Coordination Sequence:
#
# PCOD9435549 Si02
#       7
#     8   8   8   8   8   8   8
#     4  11  23  40  61  83 111 146 186 231 282 338
#     4  10  19  32  53  82 117 155 193 237 286 337
#     4  10  22  40  60  81 110 145 185 231 279 334
#     4  10  21  38  59  84 112 147 187 232 285 337
#     4   9  19  35  55  81 115 153 195 238 284 340
#     4  12  23  38  59  85 114 144 181 225 280 340
#     4  12  24  38  58  83 113 146 181 225 277 335
#
# _framework density 18.914159999999999
#
# number of rings (size 3 to 8) (size 9 to 14) (size 15 to 20)
#    0.000    1.429    1.429    4.714    0.000    4.571 
#    0.000    0.714    0.000    0.000    0.000    0.000 
#    0.000    0.000    0.000    0.000    0.000    0.000 
#
# Total GULP energy -312686.474246 kJ/mol
# GULP energy per Si atom -5583.687040 kJ/mol
# Density = 1.887111 g / cm^3
# Si number density = 18.914160 Si / 1000 Ang^3
#
#
#
# Elastic Constant Matrix: (Units=GPa)
#
#
# Indices 1 2 3 4 5 6 
#
# 1 94.8435 52.2957 27.2199 0.0000 0.0000 0.0000
# 2 52.2957 169.6169 54.4301 0.0000 0.0000 0.0000
# 3 27.2199 54.4301 68.9070 0.0000 0.0000 0.0000
# 4 0.0000 0.0000 0.0000 36.3981 0.0000 0.0000
# 5 0.0000 0.0000 0.0000 0.0000 15.8009 0.0000
# 6 0.0000 0.0000 0.0000 0.0000 0.0000 20.7149
#
#
#
# Elastic Compliance Matrix: (Units=1/GPa)
#
#
# Indices 1 2 3 4 5 6 
#
# 1 0.013055 -0.003175 -0.002649 0.000000 0.000000 0.000000
# 2 -0.003175 0.008670 -0.005594 0.000000 0.000000 0.000000
# 3 -0.002649 -0.005594 0.019978 0.000000 0.000000 0.000000
# 4 0.000000 0.000000 0.000000 0.027474 0.000000 0.000000
# 5 0.000000 0.000000 0.000000 0.000000 0.063287 0.000000
# 6 0.000000 0.000000 0.000000 0.000000 0.000000 0.048274
#
#
# Mechanical properties :
#
#
# Convention : Reuss Voigt Hill
#
# Bulk Modulus (GPa) = 53.00586 66.80652 59.90619
# Shear Modulus (GPa) = 23.82520 27.87758 25.85139
#
# Velocity S-wave (km/s) = 3.55300 3.84331 3.70100
# Velocity P-wave (km/s) = 6.70202 7.42242 7.07140
#
# Compressibility (1/GPa) = 0.01886584
#
# Stress axis : x y z
#
# Youngs Moduli (GPa) = 76.60174 115.34515 50.05625
#
# Poissons Ratio (x) = 0.36620 0.13260
# Poissons Ratio (y) = 0.24320 0.28002
# Poissons Ratio (z) = 0.20292 0.64525
#
# Static dielectric constant tensor:
#      x y z
#    x 1.529740 0.000000 0.000000 
#    y 0.000000 1.779610 0.000000 
#    z 0.000000 0.000000 1.632570 
# 
# From -- ./inp_files/8117.got.cif
#   From: 2010.05.17/outbox.cif.g08.bks.cpg/sg57_5_cif.got.tgz:8117.got - 2010.06.03 13:58:18.
