data_PCOD9435973
_publ_section_title
;
Structure prediction by ZEFSAII (Michael W. Deem and Ramdas Pophale) SiO2 
 PCOD9435973
Probable space group: P B C M
;
_chemical_formula_sum "Si O2"
_cell_formula_units_Z 48
_cell_length_a 15.337727
_cell_length_b 21.006936
_cell_length_c 8.872628
_cell_angle_alpha 90.000000
_cell_angle_beta 90.000000
_cell_angle_gamma 90.000000
_cell_volume 2858.748759
_symmetry_space_group_name_H-M "P B C M"
_symmetry_group_IT_number 57
_symmetry_cell_setting 'orthorhombic'
loop_
_space_group_symop_operation_xyz
x,y,z
-x,-y,1/2+z
x,1/2-y,-z
-x,1/2+y,1/2-z
-x,-y,-z
x,y,1/2-z
-x,1/2+y,z
x,1/2-y,1/2+z
loop_
_atom_site_type_symbol
_atom_site_label
_atom_site_fract_x
_atom_site_fract_y
_atom_site_fract_z
Si Si1 0.115468 0.184755 0.428933
Si Si2 0.738026 0.509015 0.575591
Si Si3 0.506045 0.814413 0.068739
Si Si4 0.429908 0.950849 0.068819
Si Si5 0.701464 0.657951 0.924309
Si Si6 0.078025 0.458914 0.931391
O O1 0.079479 0.250000 0.500000
O O2 0.109045 0.189132 0.250000
O O3 0.216795 0.179745 0.477995
O O4 0.074979 0.116349 0.476473
O O5 0.749243 0.489823 0.750000
O O6 0.665568 0.467254 0.493101
O O7 0.701856 0.581337 0.575258
O O8 0.830700 0.513226 0.492729
O O9 0.506134 0.810666 0.250000
O O10 0.457601 0.879275 0.026174
O O11 0.607244 0.820430 0.019993
O O12 0.468493 0.750000 0.000000
O O13 0.432251 0.956403 0.250000
O O14 0.500000 0.000000 0.000000
O O15 0.714364 0.678579 0.750000
O O16 0.076658 0.461525 0.750000
O O17 0.000000 0.500000 0.000000
#
# Coordination Sequence:
#
# PCOD9435973 Si02
#       6
#     8   8   8   8   8   8
#     4  10  20  32  49  76 107 139 174 210 259 319
#     4  10  19  34  55  80 107 138 176 221 268 316
#     4  10  21  34  47  70 103 140 181 223 266 313
#     4  11  21  35  53  76 106 141 183 224 263 315
#     4   9  17  31  48  71 104 138 172 211 258 312
#     4  10  21  37  57  83 110 141 178 219 268 321
#
# _framework density 16.790562999999999
#
# number of rings (size 3 to 8) (size 9 to 14) (size 15 to 20)
#    0.000    2.000    1.667    2.500    0.000    6.000 
#    0.000    0.000    0.000    1.000    0.000    7.000 
#    0.000    0.000    0.000    0.000    0.000    0.000 
#
# Total GULP energy -267834.342908 kJ/mol
# GULP energy per Si atom -5579.882144 kJ/mol
# Density = 1.675235 g / cm^3
# Si number density = 16.790563 Si / 1000 Ang^3
#
#
#
# Elastic Constant Matrix: (Units=GPa)
#
#
# Indices 1 2 3 4 5 6 
#
# 1 93.6559 72.9494 38.4173 0.0000 0.0000 0.0000
# 2 72.9494 147.2141 53.2713 0.0000 0.0000 0.0000
# 3 38.4173 53.2713 60.9507 0.0000 0.0000 0.0000
# 4 0.0000 0.0000 0.0000 28.6295 0.0000 0.0000
# 5 0.0000 0.0000 0.0000 0.0000 27.1008 0.0000
# 6 0.0000 0.0000 0.0000 0.0000 0.0000 18.3946
#
#
#
# Elastic Compliance Matrix: (Units=1/GPa)
#
#
# Indices 1 2 3 4 5 6 
#
# 1 0.018505 -0.007238 -0.005337 0.000000 0.000000 0.000000
# 2 -0.007238 0.012766 -0.006596 0.000000 0.000000 0.000000
# 3 -0.005337 -0.006596 0.025535 0.000000 0.000000 0.000000
# 4 0.000000 0.000000 0.000000 0.034929 0.000000 0.000000
# 5 0.000000 0.000000 0.000000 0.000000 0.036899 0.000000
# 6 0.000000 0.000000 0.000000 0.000000 0.000000 0.054364
#
#
# Mechanical properties :
#
#
# Convention : Reuss Voigt Hill
#
# Bulk Modulus (GPa) = 54.15883 70.12185 62.14034
# Shear Modulus (GPa) = 21.97848 23.97049 22.97449
#
# Velocity S-wave (km/s) = 3.62191 3.78248 3.70306
# Velocity P-wave (km/s) = 7.05808 7.80574 7.44130
#
# Compressibility (1/GPa) = 0.01846421
#
# Stress axis : x y z
#
# Youngs Moduli (GPa) = 54.04030 78.33091 39.16150
#
# Poissons Ratio (x) = 0.56699 0.20901
# Poissons Ratio (y) = 0.39116 0.25829
# Poissons Ratio (z) = 0.28842 0.51663
#
# Static dielectric constant tensor:
#      x y z
#    x 1.536090 0.000000 0.000000 
#    y 0.000000 1.591680 0.000000 
#    z 0.000000 0.000000 1.570620 
# 
# From -- ./inp_files/4838.got.cif
#   From: 2010.05.17/outbox.cif.g08.bks.cpg/sg57_3_cif.got.tgz:4838.got - 2010.06.03 13:58:18.
