data_PCOD9435632
_publ_section_title
;
Structure prediction by ZEFSAII (Michael W. Deem and Ramdas Pophale) SiO2 
 PCOD9435632
Probable space group: P B C M
;
_chemical_formula_sum "Si O2"
_cell_formula_units_Z 64
_cell_length_a 20.377423
_cell_length_b 20.525354
_cell_length_c 8.852884
_cell_angle_alpha 90.000000
_cell_angle_beta 90.000000
_cell_angle_gamma 90.000000
_cell_volume 3702.752557
_symmetry_space_group_name_H-M "P B C M"
_symmetry_group_IT_number 57
_symmetry_cell_setting 'orthorhombic'
loop_
_space_group_symop_operation_xyz
x,y,z
-x,-y,1/2+z
x,1/2-y,-z
-x,1/2+y,1/2-z
-x,-y,-z
x,y,1/2-z
-x,1/2+y,z
x,1/2-y,1/2+z
loop_
_atom_site_type_symbol
_atom_site_label
_atom_site_fract_x
_atom_site_fract_y
_atom_site_fract_z
Si Si1 0.944579 0.316297 0.923324
Si Si2 0.784787 0.315956 0.578703
Si Si3 0.946325 0.047454 0.929665
Si Si4 0.197887 0.541663 0.434187
Si Si5 0.628315 0.681888 0.930726
Si Si6 0.440408 0.542730 0.432121
Si Si7 0.472110 0.680452 0.569220
Si Si8 0.316219 0.045693 0.933343
O O1 0.966105 0.322451 0.750000
O O2 0.864675 0.313505 0.920493
O O3 0.967921 0.250000 0.000000
O O4 0.963020 0.379066 0.019555
O O5 0.761394 0.250000 0.500000
O O6 0.760758 0.314538 0.750000
O O7 0.771998 0.388202 0.515413
O O8 0.944756 0.042063 0.750000
O O9 0.874208 0.033861 0.997925
O O10 0.000000 0.000000 0.000000
O O11 0.192686 0.544635 0.250000
O O12 0.246847 0.484299 0.479171
O O13 0.634934 0.685197 0.750000
O O14 0.550524 0.674365 0.962518
O O15 0.665891 0.617896 0.987797
O O16 0.650758 0.750000 0.000000
O O17 0.500000 0.500000 0.500000
O O18 0.446224 0.544498 0.250000
O O19 0.440887 0.615969 0.496592
O O20 0.374073 0.504349 0.473321
O O21 0.450574 0.750000 0.500000
O O22 0.463046 0.680729 0.750000
O O23 0.315870 0.048486 0.750000
#
# Coordination Sequence:
#
# PCOD9435632 Si02
#       8
#     8   8   8   8   8   8   8   8
#     4   9  16  28  47  74 104 134 169 208 252 302
#     4   8  14  24  42  66  91 122 159 197 237 286
#     4  11  21  34  53  78 107 138 174 218 265 314
#     4   9  18  34  53  73  99 134 174 214 260 314
#     4   9  17  31  50  74  99 129 170 215 261 311
#     4  11  20  33  52  76 104 138 175 217 263 311
#     4  10  19  33  51  75 104 136 177 221 268 318
#     4   9  18  34  54  74 102 138 174 213 263 319
#
# _framework density 17.284438000000002
#
# number of rings (size 3 to 8) (size 9 to 14) (size 15 to 20)
#    0.000    2.500    1.250    3.000    0.000    3.500 
#    0.000    2.500    0.000    2.250    0.000    3.500 
#    0.000    0.000    0.000    0.000    0.000    0.000 
#
# Total GULP energy -356768.197112 kJ/mol
# GULP energy per Si atom -5574.503080 kJ/mol
# Density = 1.724510 g / cm^3
# Si number density = 17.284438 Si / 1000 Ang^3
#
#
#
# Elastic Constant Matrix: (Units=GPa)
#
#
# Indices 1 2 3 4 5 6 
#
# 1 56.4354 61.4599 26.7653 0.0000 0.0000 0.0000
# 2 61.4599 180.8419 47.8040 0.0000 0.0000 0.0000
# 3 26.7653 47.8040 58.5638 0.0000 0.0000 0.0000
# 4 0.0000 0.0000 0.0000 33.1604 0.0000 0.0000
# 5 0.0000 0.0000 0.0000 0.0000 13.2080 0.0000
# 6 0.0000 0.0000 0.0000 0.0000 0.0000 20.2023
#
#
#
# Elastic Compliance Matrix: (Units=1/GPa)
#
#
# Indices 1 2 3 4 5 6 
#
# 1 0.030176 -0.008429 -0.006911 0.000000 0.000000 0.000000
# 2 -0.008429 0.009405 -0.003825 0.000000 0.000000 0.000000
# 3 -0.006911 -0.003825 0.023357 0.000000 0.000000 0.000000
# 4 0.000000 0.000000 0.000000 0.030156 0.000000 0.000000
# 5 0.000000 0.000000 0.000000 0.000000 0.075712 0.000000
# 6 0.000000 0.000000 0.000000 0.000000 0.000000 0.049499
#
#
# Mechanical properties :
#
#
# Convention : Reuss Voigt Hill
#
# Bulk Modulus (GPa) = 40.63767 63.09997 51.86882
# Shear Modulus (GPa) = 18.87944 23.96826 21.42385
#
# Velocity S-wave (km/s) = 3.30855 3.72788 3.52446
# Velocity P-wave (km/s) = 6.17718 7.42398 6.82909
#
# Compressibility (1/GPa) = 0.02460771
#
# Stress axis : x y z
#
# Youngs Moduli (GPa) = 33.13880 106.32259 42.81463
#
# Poissons Ratio (x) = 0.89614 0.29591
# Poissons Ratio (y) = 0.27931 0.16378
# Poissons Ratio (z) = 0.22903 0.40671
#
# Static dielectric constant tensor:
#      x y z
#    x 1.574300 0.000000 0.000000 
#    y 0.000000 1.603860 0.000000 
#    z 0.000000 0.000000 1.600960 
# 
# From -- ./inp_files/7272.got.cif
#   From: 2010.05.17/outbox.cif.g08.bks.cpg/sg57_4_cif.got.tgz:7272.got - 2010.06.03 13:58:18.
