data_PCOD9435856
_publ_section_title
;
Structure prediction by ZEFSAII (Michael W. Deem and Ramdas Pophale) SiO2 
 PCOD9435856
Probable space group: P B C M
;
_chemical_formula_sum "Si O2"
_cell_formula_units_Z 56
_cell_length_a 9.077390
_cell_length_b 19.868206
_cell_length_c 18.116012
_cell_angle_alpha 90.000000
_cell_angle_beta 90.000000
_cell_angle_gamma 90.000000
_cell_volume 3267.249113
_symmetry_space_group_name_H-M "P B C M"
_symmetry_group_IT_number 57
_symmetry_cell_setting 'orthorhombic'
loop_
_space_group_symop_operation_xyz
x,y,z
-x,-y,1/2+z
x,1/2-y,-z
-x,1/2+y,1/2-z
-x,-y,-z
x,y,1/2-z
-x,1/2+y,z
x,1/2-y,1/2+z
loop_
_atom_site_type_symbol
_atom_site_label
_atom_site_fract_x
_atom_site_fract_y
_atom_site_fract_z
Si Si1 0.358033 0.779425 0.832769
Si Si2 0.667153 0.858561 0.522259
Si Si3 0.327018 0.265920 0.118989
Si Si4 0.858862 0.527046 0.546496
Si Si5 0.835415 0.194897 0.945207
Si Si6 0.925865 0.633362 0.835446
Si Si7 0.658497 0.397472 0.560412
O O1 0.301747 0.771858 0.750000
O O2 0.527986 0.755781 0.836554
O O3 0.276464 0.733549 0.892159
O O4 0.333485 0.854740 0.863734
O O5 0.723412 0.805168 0.583236
O O6 0.630531 0.813270 0.450495
O O7 0.788345 0.912990 0.501677
O O8 0.515697 0.895679 0.543672
O O9 0.206146 0.311325 0.159959
O O10 0.888011 0.562158 0.625840
O O11 0.738916 0.468728 0.559771
O O12 0.000000 0.500000 0.500000
O O13 0.950602 0.160767 0.891184
O O14 0.907575 0.250000 0.000000
O O15 0.744845 0.144462 0.997156
O O16 0.969655 0.626346 0.750000
#
# Coordination Sequence:
#
# PCOD9435856 Si02
#       7
#     8   8   8   8   8   8   8
#     4  10  19  33  56  82 110 139 172 228 283 326
#     4   9  18  33  58  83 106 139 183 234 267 320
#     4   9  18  33  57  84 108 136 178 226 282 331
#     4  11  22  35  55  79 109 150 191 220 264 328
#     4  10  20  34  56  81 108 138 187 226 269 328
#     4  11  23  36  54  82 115 145 179 232 284 325
#     4  10  19  36  54  80 107 142 188 223 265 327
#
# _framework density 17.139800000000001
#
# number of rings (size 3 to 8) (size 9 to 14) (size 15 to 20)
#    0.000    2.000    2.857    1.286    4.000    0.571 
#    0.000    0.000    0.000    4.286    0.000    0.000 
#    0.000    0.000    0.000    0.000    0.000    0.000 
#
# Total GULP energy -311937.429037 kJ/mol
# GULP energy per Si atom -5570.311233 kJ/mol
# Density = 1.710079 g / cm^3
# Si number density = 17.139800 Si / 1000 Ang^3
#
#
#
# Elastic Constant Matrix: (Units=GPa)
#
#
# Indices 1 2 3 4 5 6 
#
# 1 53.8240 36.8540 24.0966 0.0000 0.0000 0.0000
# 2 36.8540 101.6760 41.9669 0.0000 0.0000 0.0000
# 3 24.0966 41.9669 111.5221 0.0000 0.0000 0.0000
# 4 0.0000 0.0000 0.0000 9.5687 0.0000 0.0000
# 5 0.0000 0.0000 0.0000 0.0000 13.3295 0.0000
# 6 0.0000 0.0000 0.0000 0.0000 0.0000 29.6635
#
#
#
# Elastic Compliance Matrix: (Units=1/GPa)
#
#
# Indices 1 2 3 4 5 6 
#
# 1 0.025235 -0.008164 -0.002380 0.000000 0.000000 0.000000
# 2 -0.008164 0.014285 -0.003612 0.000000 0.000000 0.000000
# 3 -0.002380 -0.003612 0.010840 0.000000 0.000000 0.000000
# 4 0.000000 0.000000 0.000000 0.104507 0.000000 0.000000
# 5 0.000000 0.000000 0.000000 0.000000 0.075022 0.000000
# 6 0.000000 0.000000 0.000000 0.000000 0.000000 0.033711
#
#
# Mechanical properties :
#
#
# Convention : Reuss Voigt Hill
#
# Bulk Modulus (GPa) = 45.35555 52.53969 48.94762
# Shear Modulus (GPa) = 16.70776 21.45263 19.08020
#
# Velocity S-wave (km/s) = 3.12555 3.54167 3.34010
# Velocity P-wave (km/s) = 6.28848 6.88802 6.59507
#
# Compressibility (1/GPa) = 0.02204802
#
# Stress axis : x y z
#
# Youngs Moduli (GPa) = 39.62763 70.00283 92.24926
#
# Poissons Ratio (x) = 0.57153 0.21957
# Poissons Ratio (y) = 0.32353 0.33316
# Poissons Ratio (z) = 0.09432 0.25282
#
# Static dielectric constant tensor:
#      x y z
#    x 1.597180 0.000000 0.000000 
#    y 0.000000 1.596230 0.000000 
#    z 0.000000 0.000000 1.584830 
# 
# From -- ./inp_files/21350.got.cif
#   From: 2010.05.17/outbox.cif.g08.bks.cpg/sg57_11_cif.got.tgz:21350.got - 2010.06.03 13:58:18.
