data_PCOD9435966
_publ_section_title
;
Structure prediction by ZEFSAII (Michael W. Deem and Ramdas Pophale) SiO2 
 PCOD9435966
Probable space group: P B C M
;
_chemical_formula_sum "Si O2"
_cell_formula_units_Z 64
_cell_length_a 20.559528
_cell_length_b 8.920768
_cell_length_c 14.337352
_cell_angle_alpha 90.000000
_cell_angle_beta 90.000000
_cell_angle_gamma 90.000000
_cell_volume 2629.567557
_symmetry_space_group_name_H-M "P B C M"
_symmetry_group_IT_number 57
_symmetry_cell_setting 'orthorhombic'
loop_
_space_group_symop_operation_xyz
x,y,z
-x,-y,1/2+z
x,1/2-y,-z
-x,1/2+y,1/2-z
-x,-y,-z
x,y,1/2-z
-x,1/2+y,z
x,1/2-y,1/2+z
loop_
_atom_site_type_symbol
_atom_site_label
_atom_site_fract_x
_atom_site_fract_y
_atom_site_fract_z
Si Si1 0.153226 0.224178 0.357413
Si Si2 0.532148 0.177603 0.863948
Si Si3 0.345883 0.504712 0.643405
Si Si4 0.086557 0.755738 0.636866
Si Si5 0.291197 0.312738 0.102495
Si Si6 0.036028 0.424454 0.135801
Si Si7 0.791081 0.408878 0.135264
Si Si8 0.410054 0.501095 0.363296
O O1 0.136320 0.191511 0.250000
O O2 0.218469 0.326158 0.358109
O O3 0.090805 0.307254 0.396574
O O4 0.175706 0.064746 0.397068
O O5 0.527107 0.180012 0.750000
O O6 0.584619 0.052080 0.895193
O O7 0.560681 0.338421 0.891919
O O8 0.460946 0.126687 0.895363
O O9 0.349115 0.558713 0.750000
O O10 0.329403 0.328642 0.647752
O O11 0.282912 0.587183 0.601060
O O12 0.087163 0.758398 0.750000
O O13 0.160100 0.721977 0.608247
O O14 0.035958 0.626337 0.609651
O O15 0.057266 0.911961 0.604842
O O16 0.337821 0.455392 0.105684
O O17 0.282355 0.250000 0.000000
O O18 0.037539 0.425711 0.250000
O O19 0.788100 0.414128 0.250000
O O20 0.407824 0.502372 0.250000
#
# Coordination Sequence:
#
# PCOD9435966 Si02
#       8
#     8   8   8   8   8   8   8   8
#     4   9  17  31  49  69  93 128 167 205 246 293
#     4   9  18  32  56  83 105 131 167 207 249 294
#     4   9  17  33  54  76 101 133 169 207 249 299
#     4   9  15  23  37  66 102 129 153 193 245 296
#     4  11  22  35  51  74 102 136 171 209 255 302
#     4   9  16  24  39  64  97 128 156 194 244 294
#     4   8  14  24  41  63  91 123 156 192 237 286
#     4  10  19  34  55  79 104 132 166 207 248 296
#
# _framework density 24.338604
#
# number of rings (size 3 to 8) (size 9 to 14) (size 15 to 20)
#    0.000    2.750    0.000    3.375    0.000    6.000 
#    0.000    6.875    0.000    0.000    0.000    7.875 
#    0.000    0.000    0.000    0.000    0.000    0.000 
#
# Total GULP energy -357557.915203 kJ/mol
# GULP energy per Si atom -5586.842425 kJ/mol
# Density = 2.428321 g / cm^3
# Si number density = 24.338604 Si / 1000 Ang^3
#
#
#
# Elastic Constant Matrix: (Units=GPa)
#
#
# Indices 1 2 3 4 5 6 
#
# 1 -205.7100 -215.4002 87.2112 0.0000 0.0000 0.0000
# 2 -215.4002 -125.0587 68.0737 0.0000 0.0000 0.0000
# 3 87.2112 68.0737 43.0056 0.0000 0.0000 0.0000
# 4 0.0000 0.0000 0.0000 -2.8833 0.0000 0.0000
# 5 0.0000 0.0000 0.0000 0.0000 -20.0700 0.0000
# 6 0.0000 0.0000 0.0000 0.0000 0.0000 47.2416
#
#
#
# Elastic Compliance Matrix: (Units=1/GPa)
#
#
# Indices 1 2 3 4 5 6 
#
# 1 0.006493 -0.009857 0.002436 0.000000 0.000000 0.000000
# 2 -0.009857 0.010669 0.003101 0.000000 0.000000 0.000000
# 3 0.002436 0.003101 0.013405 0.000000 0.000000 0.000000
# 4 0.000000 0.000000 0.000000 -0.346829 0.000000 0.000000
# 5 0.000000 0.000000 0.000000 0.000000 -0.049826 0.000000
# 6 0.000000 0.000000 0.000000 0.000000 0.000000 0.021168
#
#
# Mechanical properties :
#
#
# Convention : Reuss Voigt Hill
#
# Bulk Modulus (GPa) = 45.60786 -45.33264 0.13761
# Shear Modulus (GPa) = -15.19883 -10.31884 -12.75883
#
# Velocity S-wave (km/s) = -2.50166 -2.06129 -2.29207
# Velocity P-wave (km/s) = 3.23035 4.93269 2.63593
#
# Compressibility (1/GPa) = 0.02192604
#
# Stress axis : x y z
#
# Youngs Moduli (GPa) = 154.02357 93.73191 74.60162
#
# Poissons Ratio (x) = 0.92389 -0.18173
# Poissons Ratio (y) = 1.51816 -0.23133
# Poissons Ratio (z) = -0.37520 -0.29065
#
# Static dielectric constant tensor:
#      x y z
#    x 1.903910 0.000000 0.000000 
#    y 0.000000 1.915300 0.000000 
#    z 0.000000 0.000000 2.039650 
# 
# From -- ./inp_files/23015.got.cif
#   From: 2010.05.17/outbox.cif.g08.bks.cpg/sg57_12_cif.got.tgz:23015.got - 2010.06.03 13:58:18.
