data_PCOD9435558
_publ_section_title
;
Structure prediction by ZEFSAII (Michael W. Deem and Ramdas Pophale) SiO2 
 PCOD9435558
Probable space group: P B C M
;
_chemical_formula_sum "Si O2"
_cell_formula_units_Z 48
_cell_length_a 21.707203
_cell_length_b 14.199881
_cell_length_c 8.013171
_cell_angle_alpha 90.000000
_cell_angle_beta 90.000000
_cell_angle_gamma 90.000000
_cell_volume 2469.977421
_symmetry_space_group_name_H-M "P B C M"
_symmetry_group_IT_number 57
_symmetry_cell_setting 'orthorhombic'
loop_
_space_group_symop_operation_xyz
x,y,z
-x,-y,1/2+z
x,1/2-y,-z
-x,1/2+y,1/2-z
-x,-y,-z
x,y,1/2-z
-x,1/2+y,z
x,1/2-y,1/2+z
loop_
_atom_site_type_symbol
_atom_site_label
_atom_site_fract_x
_atom_site_fract_y
_atom_site_fract_z
Si Si1 0.102044 0.857780 0.550728
Si Si2 0.281162 0.359191 0.952002
Si Si3 0.842515 0.540649 0.449064
Si Si4 0.593282 0.545172 0.450604
Si Si5 0.964901 0.641304 0.451434
Si Si6 0.467785 0.642695 0.050940
O O1 0.112210 0.750000 0.500000
O O2 0.101553 0.863213 0.750000
O O3 0.033250 0.886345 0.486859
O O4 0.152081 0.930124 0.483183
O O5 0.281083 0.364724 0.750000
O O6 0.218762 0.409231 0.014354
O O7 0.342564 0.412293 0.013054
O O8 0.282256 0.250000 0.000000
O O9 0.843023 0.555411 0.250000
O O10 0.905924 0.585438 0.517701
O O11 0.593561 0.552968 0.250000
O O12 0.580706 0.436311 0.493225
O O13 0.534515 0.605672 0.513625
O O14 0.956925 0.750000 0.500000
O O15 0.965921 0.633553 0.250000
O O16 0.469628 0.639511 0.250000
O O17 0.455927 0.750000 0.000000
#
# Coordination Sequence:
#
# PCOD9435558 Si02
#       6
#     8   8   8   8   8   8
#     4  10  20  34  52  73  97 129 168 211 258 304
#     4  10  21  36  55  78 106 138 169 205 249 300
#     4  10  20  34  51  74 103 133 167 207 250 298
#     4   9  19  35  53  77 108 140 174 210 251 299
#     4   9  18  31  49  74 102 130 163 206 254 302
#     4  10  19  32  54  81 108 138 172 213 256 298
#
# _framework density 19.433375000000002
#
# number of rings (size 3 to 8) (size 9 to 14) (size 15 to 20)
#    0.000    2.333    0.000    2.500    0.000    3.333 
#    0.000    0.833    0.000    0.000    0.000    0.000 
#    0.000    0.000    0.000    0.000    0.000    0.000 
#
# Total GULP energy -267888.892425 kJ/mol
# GULP energy per Si atom -5581.018592 kJ/mol
# Density = 1.938914 g / cm^3
# Si number density = 19.433375 Si / 1000 Ang^3
#
#
#
# Elastic Constant Matrix: (Units=GPa)
#
#
# Indices 1 2 3 4 5 6 
#
# 1 127.2620 106.6866 10.7586 0.0000 0.0000 0.0000
# 2 106.6866 152.0726 -7.4415 0.0000 0.0000 0.0000
# 3 10.7586 -7.4415 10.7431 0.0000 0.0000 0.0000
# 4 0.0000 0.0000 0.0000 30.1095 0.0000 0.0000
# 5 0.0000 0.0000 0.0000 0.0000 10.7903 0.0000
# 6 0.0000 0.0000 0.0000 0.0000 0.0000 28.2022
#
#
#
# Elastic Compliance Matrix: (Units=1/GPa)
#
#
# Indices 1 2 3 4 5 6 
#
# 1 0.035952 -0.027931 -0.055351 0.000000 0.000000 0.000000
# 2 -0.027931 0.028506 0.047716 0.000000 0.000000 0.000000
# 3 -0.055351 0.047716 0.181566 0.000000 0.000000 0.000000
# 4 0.000000 0.000000 0.000000 0.033212 0.000000 0.000000
# 5 0.000000 0.000000 0.000000 0.000000 0.092676 0.000000
# 6 0.000000 0.000000 0.000000 0.000000 0.000000 0.035458
#
#
# Mechanical properties :
#
#
# Convention : Reuss Voigt Hill
#
# Bulk Modulus (GPa) = 5.71781 56.67613 31.19697
# Shear Modulus (GPa) = 9.31449 25.82531 17.56990
#
# Velocity S-wave (km/s) = 2.19168 3.64938 3.01010
# Velocity P-wave (km/s) = 3.05831 6.85456 5.30746
#
# Compressibility (1/GPa) = 0.17489224
#
# Stress axis : x y z
#
# Youngs Moduli (GPa) = 27.81480 35.08090 5.50765
#
# Poissons Ratio (x) = 0.97983 0.30485
# Poissons Ratio (y) = 0.77689 -0.26280
# Poissons Ratio (z) = 1.53957 -1.67392
#
# Static dielectric constant tensor:
#      x y z
#    x 1.700890 0.000000 0.000000 
#    y 0.000000 1.659760 0.000000 
#    z 0.000000 0.000000 1.676790 
# 
# From -- ./inp_files/7873.got.cif
#   From: 2010.05.17/outbox.cif.g08.bks.cpg/sg57_4_cif.got.tgz:7873.got - 2010.06.03 13:58:18.
