data_PCOD9435053
_publ_section_title
;
Structure prediction by ZEFSAII (Michael W. Deem and Ramdas Pophale) SiO2 
 PCOD9435053
Probable space group: P B C M
;
_chemical_formula_sum "Si O2"
_cell_formula_units_Z 64
_cell_length_a 11.255843
_cell_length_b 9.234043
_cell_length_c 30.258874
_cell_angle_alpha 90.000000
_cell_angle_beta 90.000000
_cell_angle_gamma 90.000000
_cell_volume 3145.014719
_symmetry_space_group_name_H-M "P B C M"
_symmetry_group_IT_number 57
_symmetry_cell_setting 'orthorhombic'
loop_
_space_group_symop_operation_xyz
x,y,z
-x,-y,1/2+z
x,1/2-y,-z
-x,1/2+y,1/2-z
-x,-y,-z
x,y,1/2-z
-x,1/2+y,z
x,1/2-y,1/2+z
loop_
_atom_site_type_symbol
_atom_site_label
_atom_site_fract_x
_atom_site_fract_y
_atom_site_fract_z
Si Si1 0.048204 0.434394 0.125139
Si Si2 0.152592 0.373540 0.653582
Si Si3 0.979294 0.633421 0.969383
Si Si4 0.383671 0.184415 0.199906
Si Si5 0.528127 0.537697 0.647585
Si Si6 0.306594 0.946539 0.083085
Si Si7 0.707068 0.902441 0.011931
Si Si8 0.276689 0.893193 0.592849
O O1 0.105295 0.286920 0.142698
O O2 0.980698 0.387525 0.080094
O O3 0.148545 0.545538 0.107838
O O4 0.958889 0.517904 0.157437
O O5 0.245816 0.356195 0.692876
O O6 0.228890 0.444325 0.613523
O O7 0.836383 0.651517 0.969380
O O8 0.041785 0.750000 0.000000
O O9 0.000000 0.500000 0.000000
O O10 0.406749 0.229660 0.250000
O O11 0.419824 0.310845 0.165322
O O12 0.457737 0.042844 0.186486
O O13 0.436555 0.552039 0.606561
O O14 0.634280 0.434007 0.632205
O O15 0.272580 0.777155 0.084116
O O16 0.294981 0.008359 0.033606
O O17 0.674549 0.013942 0.050907
O O18 0.642125 0.750000 0.000000
#
# Coordination Sequence:
#
# PCOD9435053 Si02
#       8
#     8   8   8   8   8   8   8   8
#     4  11  21  37  60  89 132 178 219 263 321 386
#     4  11  23  40  66  94 131 174 214 268 332 389
#     4  10  19  30  48  77 117 166 219 260 293 340
#     4  11  24  46  74 100 126 160 210 275 342 411
#     4  11  23  42  69  97 128 163 214 269 335 398
#     4  11  22  38  61  92 133 176 229 275 317 380
#     4  10  22  35  54  85 131 182 229 271 313 365
#     4  11  22  38  61  92 132 180 223 265 320 384
#
# _framework density 20.349668000000001
#
# number of rings (size 3 to 8) (size 9 to 14) (size 15 to 20)
#    0.000    1.250    2.500    5.250    1.750    3.500 
#    0.000    0.625    0.000    0.000    0.000    0.000 
#    0.000    0.000    0.000    0.000    0.000    0.000 
#
# Total GULP energy -356999.833069 kJ/mol
# GULP energy per Si atom -5578.122392 kJ/mol
# Density = 2.030335 g / cm^3
# Si number density = 20.349668 Si / 1000 Ang^3
#
#
#
# Elastic Constant Matrix: (Units=GPa)
#
#
# Indices 1 2 3 4 5 6 
#
# 1 76.3895 32.4585 23.2297 0.0000 0.0000 0.0000
# 2 32.4585 138.4280 4.4640 0.0000 0.0000 0.0000
# 3 23.2297 4.4640 48.1080 0.0000 0.0000 0.0000
# 4 0.0000 0.0000 0.0000 21.9344 0.0000 0.0000
# 5 0.0000 0.0000 0.0000 0.0000 15.1151 0.0000
# 6 0.0000 0.0000 0.0000 0.0000 0.0000 33.0201
#
#
#
# Elastic Compliance Matrix: (Units=1/GPa)
#
#
# Indices 1 2 3 4 5 6 
#
# 1 0.017088 -0.003752 -0.007903 0.000000 0.000000 0.000000
# 2 -0.003752 0.008069 0.001063 0.000000 0.000000 0.000000
# 3 -0.007903 0.001063 0.024504 0.000000 0.000000 0.000000
# 4 0.000000 0.000000 0.000000 0.045590 0.000000 0.000000
# 5 0.000000 0.000000 0.000000 0.000000 0.066159 0.000000
# 6 0.000000 0.000000 0.000000 0.000000 0.000000 0.030285
#
#
# Mechanical properties :
#
#
# Convention : Reuss Voigt Hill
#
# Bulk Modulus (GPa) = 35.11562 42.58111 38.84836
# Shear Modulus (GPa) = 22.48474 27.53215 25.00844
#
# Velocity S-wave (km/s) = 3.32764 3.68224 3.50942
# Velocity P-wave (km/s) = 5.66196 6.24889 5.96265
#
# Compressibility (1/GPa) = 0.02847736
#
# Stress axis : x y z
#
# Youngs Moduli (GPa) = 58.51922 123.92396 40.80948
#
# Poissons Ratio (x) = 0.46497 0.32253
# Poissons Ratio (y) = 0.21957 -0.04338
# Poissons Ratio (z) = 0.46249 -0.13172
#
# Static dielectric constant tensor:
#      x y z
#    x 1.705080 0.000000 0.000000 
#    y 0.000000 1.738940 0.000000 
#    z 0.000000 0.000000 1.691420 
# 
# From -- ./inp_files/29778.got.cif
#   From: 2010.05.17/outbox.cif.g08.bks.cpg/sg57_15_cif.got.tgz:29778.got - 2010.06.03 13:58:18.
