data_PCOD9435662
_publ_section_title
;
Structure prediction by ZEFSAII (Michael W. Deem and Ramdas Pophale) SiO2 
 PCOD9435662
Probable space group: P B C M
;
_chemical_formula_sum "Si O2"
_cell_formula_units_Z 64
_cell_length_a 20.130203
_cell_length_b 20.438514
_cell_length_c 8.778218
_cell_angle_alpha 90.000000
_cell_angle_beta 90.000000
_cell_angle_gamma 90.000000
_cell_volume 3611.634836
_symmetry_space_group_name_H-M "P B C M"
_symmetry_group_IT_number 57
_symmetry_cell_setting 'orthorhombic'
loop_
_space_group_symop_operation_xyz
x,y,z
-x,-y,1/2+z
x,1/2-y,-z
-x,1/2+y,1/2-z
-x,-y,-z
x,y,1/2-z
-x,1/2+y,z
x,1/2-y,1/2+z
loop_
_atom_site_type_symbol
_atom_site_label
_atom_site_fract_x
_atom_site_fract_y
_atom_site_fract_z
Si Si1 0.344417 0.916848 0.567048
Si Si2 0.111232 0.884063 0.568494
Si Si3 0.018493 0.071081 0.932908
Si Si4 0.614106 0.680020 0.433616
Si Si5 0.539262 0.179977 0.433202
Si Si6 0.160747 0.033241 0.931356
Si Si7 0.763824 0.180450 0.568532
Si Si8 0.304304 0.447141 0.567838
O O1 0.339014 0.917234 0.750000
O O2 0.411104 0.877935 0.521936
O O3 0.283303 0.875732 0.498922
O O4 0.339892 0.990119 0.505589
O O5 0.112060 0.874213 0.750000
O O6 0.161645 0.835542 0.486202
O O7 0.036281 0.881541 0.505169
O O8 0.139147 0.957849 0.538352
O O9 0.011754 0.069865 0.750000
O O10 0.096630 0.078007 0.969025
O O11 0.000000 0.000000 0.000000
O O12 0.634767 0.750000 0.500000
O O13 0.615537 0.683698 0.250000
O O14 0.537167 0.668415 0.480116
O O15 0.660214 0.619903 0.481571
O O16 0.560650 0.250000 0.500000
O O17 0.541002 0.184617 0.250000
O O18 0.172847 0.037693 0.750000
O O19 0.227467 0.050569 0.018642
O O20 0.742863 0.250000 0.500000
O O21 0.759708 0.181337 0.750000
O O22 0.309036 0.452179 0.750000
#
# Coordination Sequence:
#
# PCOD9435662 Si02
#       8
#     8   8   8   8   8   8   8   8
#     4  11  22  36  54  79 111 145 184 227 274 327
#     4  10  19  33  52  76 106 139 180 228 270 322
#     4   9  17  29  48  74 103 137 176 221 269 319
#     4   9  20  39  59  82 107 137 180 225 275 334
#     4   9  19  36  57  78 106 143 183 228 271 322
#     4   9  18  32  51  76 109 142 177 219 269 323
#     4  12  24  37  54  76 108 150 190 230 276 329
#     4  11  22  34  54  82 113 144 179 227 278 329
#
# _framework density 17.720507000000001
#
# number of rings (size 3 to 8) (size 9 to 14) (size 15 to 20)
#    0.000    2.000    1.250    3.750    0.000    6.000 
#    0.000    0.000    0.000    0.750    0.000    1.750 
#    0.000    0.000    0.000    0.000    0.000    0.000 
#
# Total GULP energy -357184.008677 kJ/mol
# GULP energy per Si atom -5581.000136 kJ/mol
# Density = 1.768017 g / cm^3
# Si number density = 17.720507 Si / 1000 Ang^3
#
#
#
# Elastic Constant Matrix: (Units=GPa)
#
#
# Indices 1 2 3 4 5 6 
#
# 1 96.9043 64.1255 44.0847 0.0000 0.0000 0.0000
# 2 64.1255 109.5040 42.8549 0.0000 0.0000 0.0000
# 3 44.0847 42.8549 59.2561 0.0000 0.0000 0.0000
# 4 0.0000 0.0000 0.0000 26.7075 0.0000 0.0000
# 5 0.0000 0.0000 0.0000 0.0000 26.4646 0.0000
# 6 0.0000 0.0000 0.0000 0.0000 0.0000 18.8650
#
#
#
# Elastic Compliance Matrix: (Units=1/GPa)
#
#
# Indices 1 2 3 4 5 6 
#
# 1 0.019660 -0.008074 -0.008787 0.000000 0.000000 0.000000
# 2 -0.008074 0.016053 -0.005603 0.000000 0.000000 0.000000
# 3 -0.008787 -0.005603 0.027465 0.000000 0.000000 0.000000
# 4 0.000000 0.000000 0.000000 0.037443 0.000000 0.000000
# 5 0.000000 0.000000 0.000000 0.000000 0.037786 0.000000
# 6 0.000000 0.000000 0.000000 0.000000 0.000000 0.053008
#
#
# Mechanical properties :
#
#
# Convention : Reuss Voigt Hill
#
# Bulk Modulus (GPa) = 54.79417 63.08830 58.94124
# Shear Modulus (GPa) = 20.62480 22.04738 21.33609
#
# Velocity S-wave (km/s) = 3.41529 3.53111 3.47368
# Velocity P-wave (km/s) = 6.82208 7.23216 7.03011
#
# Compressibility (1/GPa) = 0.01825012
#
# Stress axis : x y z
#
# Youngs Moduli (GPa) = 50.86519 62.29407 36.40944
#
# Poissons Ratio (x) = 0.50295 0.31993
# Poissons Ratio (y) = 0.41068 0.20400
# Poissons Ratio (z) = 0.44696 0.34903
#
# Static dielectric constant tensor:
#      x y z
#    x 1.632150 0.000000 0.000000 
#    y 0.000000 1.545390 0.000000 
#    z 0.000000 0.000000 1.594910 
# 
# From -- ./inp_files/7124.got.cif
#   From: 2010.05.17/outbox.cif.g08.bks.cpg/sg57_4_cif.got.tgz:7124.got - 2010.06.03 13:58:18.
