data_PCOD9435361
_publ_section_title
;
Structure prediction by ZEFSAII (Michael W. Deem and Ramdas Pophale) SiO2 
 PCOD9435361
Probable space group: P B C M
;
_chemical_formula_sum "Si O2"
_cell_formula_units_Z 56
_cell_length_a 21.015217
_cell_length_b 14.435918
_cell_length_c 8.380285
_cell_angle_alpha 90.000000
_cell_angle_beta 90.000000
_cell_angle_gamma 90.000000
_cell_volume 2542.360157
_symmetry_space_group_name_H-M "P B C M"
_symmetry_group_IT_number 57
_symmetry_cell_setting 'orthorhombic'
loop_
_space_group_symop_operation_xyz
x,y,z
-x,-y,1/2+z
x,1/2-y,-z
-x,1/2+y,1/2-z
-x,-y,-z
x,y,1/2-z
-x,1/2+y,z
x,1/2-y,1/2+z
loop_
_atom_site_type_symbol
_atom_site_label
_atom_site_fract_x
_atom_site_fract_y
_atom_site_fract_z
Si Si1 0.116060 0.346453 0.441640
Si Si2 0.442702 0.123960 0.567538
Si Si3 0.312165 0.347346 0.568060
Si Si4 0.423461 0.576440 0.561983
Si Si5 0.291660 0.947359 0.563233
Si Si6 0.979843 0.398934 0.442036
Si Si7 0.155286 0.949575 0.441238
O O1 0.145447 0.250000 0.500000
O O2 0.119089 0.350766 0.250000
O O3 0.144544 0.442759 0.507152
O O4 0.041880 0.343970 0.497331
O O5 0.572334 0.050777 0.750000
O O6 0.389106 0.158328 0.447427
O O7 0.516644 0.143460 0.532718
O O8 0.435991 0.012667 0.549264
O O9 0.288251 0.250000 0.500000
O O10 0.292529 0.358898 0.750000
O O11 0.294787 0.441782 0.476306
O O12 0.427188 0.350215 0.250000
O O13 0.350718 0.601567 0.525777
O O14 0.299978 0.934850 0.750000
O O15 0.222045 0.915891 0.509564
O O16 0.978820 0.393611 0.250000
O O17 0.906695 0.390367 0.496576
O O18 0.000000 0.500000 0.500000
O O19 0.157570 0.947616 0.250000
#
# Coordination Sequence:
#
# PCOD9435361 Si02
#       7
#     8   8   8   8   8   8   8
#     4  10  19  32  49  73  99 125 157 193 233 278
#     4   9  16  27  44  65  87 112 146 186 226 265
#     4  11  21  33  47  64  90 123 157 191 229 275
#     4   9  16  27  44  65  88 114 145 183 224 264
#     4  11  21  32  46  67  94 123 155 190 228 274
#     4   8  16  30  49  69  92 120 154 194 234 276
#     4  10  19  33  50  69  94 127 161 195 237 282
#
# _framework density 22.026776999999999
#
# number of rings (size 3 to 8) (size 9 to 14) (size 15 to 20)
#    0.000    2.286    0.000    6.000    0.000    3.429 
#    0.000    2.857    0.000    0.000    0.000    1.000 
#    0.000    2.286    0.000    0.000    0.000    0.000 
#
# Total GULP energy -312230.621486 kJ/mol
# GULP energy per Si atom -5575.546812 kJ/mol
# Density = 2.197664 g / cm^3
# Si number density = 22.026777 Si / 1000 Ang^3
#
#
#
# Elastic Constant Matrix: (Units=GPa)
#
#
# Indices 1 2 3 4 5 6 
#
# 1 176.4104 -6.2055 17.4090 0.0000 0.0000 0.0000
# 2 -6.2055 19.8008 -0.8827 0.0000 0.0000 0.0000
# 3 17.4090 -0.8827 59.2241 0.0000 0.0000 0.0000
# 4 0.0000 0.0000 0.0000 10.3037 0.0000 0.0000
# 5 0.0000 0.0000 0.0000 0.0000 30.0353 0.0000
# 6 0.0000 0.0000 0.0000 0.0000 0.0000 -6.7037
#
#
#
# Elastic Compliance Matrix: (Units=1/GPa)
#
#
# Indices 1 2 3 4 5 6 
#
# 1 0.005899 0.001773 -0.001708 0.000000 0.000000 0.000000
# 2 0.001773 0.051069 0.000240 0.000000 0.000000 0.000000
# 3 -0.001708 0.000240 0.017391 0.000000 0.000000 0.000000
# 4 0.000000 0.000000 0.000000 0.097052 0.000000 0.000000
# 5 0.000000 0.000000 0.000000 0.000000 0.033294 0.000000
# 6 0.000000 0.000000 0.000000 0.000000 0.000000 -0.149171
#
#
# Mechanical properties :
#
#
# Convention : Reuss Voigt Hill
#
# Bulk Modulus (GPa) = 13.33875 30.67521 22.00698
# Shear Modulus (GPa) = 62.56713 23.06804 42.81759
#
# Velocity S-wave (km/s) = 5.33542 3.23967 4.41374
# Velocity P-wave (km/s) = 6.63509 5.28682 5.99896
#
# Compressibility (1/GPa) = 0.07496955
#
# Stress axis : x y z
#
# Youngs Moduli (GPa) = 169.50632 19.58120 57.50239
#
# Poissons Ratio (x) = -0.03471 0.09820
# Poissons Ratio (y) = -0.30049 -0.01380
# Poissons Ratio (z) = 0.28947 -0.00470
#
# Static dielectric constant tensor:
#      x y z
#    x 1.914210 0.000000 0.000000 
#    y 0.000000 1.823760 0.000000 
#    z 0.000000 0.000000 1.740400 
# 
# From -- ./inp_files/8081.got.cif
#   From: 2010.05.17/outbox.cif.g08.bks.cpg/sg57_5_cif.got.tgz:8081.got - 2010.06.03 13:58:18.
