data_PCOD9435214
_publ_section_title
;
Structure prediction by ZEFSAII (Michael W. Deem and Ramdas Pophale) SiO2 
 PCOD9435214
Probable space group: P B C M
;
_chemical_formula_sum "Si O2"
_cell_formula_units_Z 56
_cell_length_a 16.281845
_cell_length_b 20.285154
_cell_length_c 7.684148
_cell_angle_alpha 90.000000
_cell_angle_beta 90.000000
_cell_angle_gamma 90.000000
_cell_volume 2537.918352
_symmetry_space_group_name_H-M "P B C M"
_symmetry_group_IT_number 57
_symmetry_cell_setting 'orthorhombic'
loop_
_space_group_symop_operation_xyz
x,y,z
-x,-y,1/2+z
x,1/2-y,-z
-x,1/2+y,1/2-z
-x,-y,-z
x,y,1/2-z
-x,1/2+y,z
x,1/2-y,1/2+z
loop_
_atom_site_type_symbol
_atom_site_label
_atom_site_fract_x
_atom_site_fract_y
_atom_site_fract_z
Si Si1 0.748152 0.960730 0.954591
Si Si2 0.927778 0.949565 0.540596
Si Si3 0.790019 0.326354 0.541619
Si Si4 0.354588 0.576905 0.549029
Si Si5 0.512375 0.323402 0.040474
Si Si6 0.023186 0.825200 0.541320
Si Si7 0.675688 0.823106 0.042733
O O1 0.751605 0.977870 0.750000
O O2 0.839172 0.971209 0.029442
O O3 0.677749 0.008382 0.030413
O O4 0.726050 0.884238 0.970391
O O5 0.919683 0.945271 0.750000
O O6 0.958385 0.878428 0.475082
O O7 0.000000 0.000000 0.500000
O O8 0.771760 0.250000 0.500000
O O9 0.786739 0.335240 0.750000
O O10 0.723909 0.374611 0.458433
O O11 0.883538 0.338930 0.479008
O O12 0.378083 0.564393 0.750000
O O13 0.429645 0.618626 0.470437
O O14 0.510470 0.328005 0.250000
O O15 0.418577 0.327106 0.976119
O O16 0.544774 0.250000 0.000000
O O17 0.002312 0.750000 0.500000
O O18 0.026431 0.831099 0.750000
O O19 0.674227 0.829884 0.250000
O O20 0.707359 0.750000 0.000000
#
# Coordination Sequence:
#
# PCOD9435214 Si02
#       7
#     8   8   8   8   8   8   8
#     4  10  22  38  56  81 112 144 178 222 275 324
#     4  10  21  37  56  79 108 142 181 222 267 320
#     4  10  19  31  49  74 105 140 178 220 266 317
#     4  10  20  34  52  77 111 145 178 218 264 317
#     4   9  19  35  55  80 108 141 180 219 263 316
#     4   9  19  34  51  73 101 133 173 220 265 314
#     4  10  21  39  61  82 107 140 180 225 271 323
#
# _framework density 22.065325000000001
#
# number of rings (size 3 to 8) (size 9 to 14) (size 15 to 20)
#    0.000    2.286    0.000    2.143    0.000    5.714 
#    0.000    1.429    0.000    0.000    0.000    0.000 
#    0.000    0.000    0.000    0.000    0.000    0.000 
#
# Total GULP energy -312777.774913 kJ/mol
# GULP energy per Si atom -5585.317409 kJ/mol
# Density = 2.201510 g / cm^3
# Si number density = 22.065325 Si / 1000 Ang^3
#
#
#
# Elastic Constant Matrix: (Units=GPa)
#
#
# Indices 1 2 3 4 5 6 
#
# 1 60.4353 33.4595 -4.6021 0.0000 0.0000 0.0000
# 2 33.4595 81.8970 -18.0913 0.0000 0.0000 0.0000
# 3 -4.6021 -18.0913 39.7932 0.0000 0.0000 0.0000
# 4 0.0000 0.0000 0.0000 20.9987 0.0000 0.0000
# 5 0.0000 0.0000 0.0000 0.0000 -4.8359 0.0000
# 6 0.0000 0.0000 0.0000 0.0000 0.0000 34.5877
#
#
#
# Elastic Compliance Matrix: (Units=1/GPa)
#
#
# Indices 1 2 3 4 5 6 
#
# 1 0.021483 -0.009147 -0.001674 0.000000 0.000000 0.000000
# 2 -0.009147 0.017468 0.006884 0.000000 0.000000 0.000000
# 3 -0.001674 0.006884 0.028066 0.000000 0.000000 0.000000
# 4 0.000000 0.000000 0.000000 0.047622 0.000000 0.000000
# 5 0.000000 0.000000 0.000000 0.000000 -0.206787 0.000000
# 6 0.000000 0.000000 0.000000 0.000000 0.000000 0.028912
#
#
# Mechanical properties :
#
#
# Convention : Reuss Voigt Hill
#
# Bulk Modulus (GPa) = 16.90813 22.62863 19.76838
# Shear Modulus (GPa) = -140.26513 21.57406 -59.34554
#
# Velocity S-wave (km/s) = -7.98161 3.13027 -5.19170
# Velocity P-wave (km/s) = 8.78989 4.83139 5.19229
#
# Compressibility (1/GPa) = 0.05914314
#
# Stress axis : x y z
#
# Youngs Moduli (GPa) = 46.54784 57.24713 35.63039
#
# Poissons Ratio (x) = 0.52363 0.05964
# Poissons Ratio (y) = 0.42577 -0.24527
# Poissons Ratio (z) = 0.07792 -0.39408
#
# Static dielectric constant tensor:
#      x y z
#    x 1.828690 0.000000 0.000000 
#    y 0.000000 1.802390 0.000000 
#    z 0.000000 0.000000 1.843560 
# 
# From -- ./inp_files/5179.got.cif
#   From: 2010.05.17/outbox.cif.g08.bks.cpg/sg57_3_cif.got.tgz:5179.got - 2010.06.03 13:58:18.
