data_PCOD9435495
_publ_section_title
;
Structure prediction by ZEFSAII (Michael W. Deem and Ramdas Pophale) SiO2 
 PCOD9435495
Probable space group: P B C M
;
_chemical_formula_sum "Si O2"
_cell_formula_units_Z 48
_cell_length_a 9.228743
_cell_length_b 13.753238
_cell_length_c 18.470851
_cell_angle_alpha 90.000000
_cell_angle_beta 90.000000
_cell_angle_gamma 90.000000
_cell_volume 2344.414590
_symmetry_space_group_name_H-M "P B C M"
_symmetry_group_IT_number 57
_symmetry_cell_setting 'orthorhombic'
loop_
_space_group_symop_operation_xyz
x,y,z
-x,-y,1/2+z
x,1/2-y,-z
-x,1/2+y,1/2-z
-x,-y,-z
x,y,1/2-z
-x,1/2+y,z
x,1/2-y,1/2+z
loop_
_atom_site_type_symbol
_atom_site_label
_atom_site_fract_x
_atom_site_fract_y
_atom_site_fract_z
Si Si1 0.250538 0.221376 0.332471
Si Si2 0.974046 0.390523 0.027210
Si Si3 0.918972 0.287502 0.169861
Si Si4 0.434002 0.147463 0.457954
Si Si5 0.727494 0.907396 0.085123
Si Si6 0.757523 0.374185 0.900382
O O1 0.287935 0.196101 0.250000
O O2 0.320101 0.149824 0.391619
O O3 0.311161 0.328745 0.354316
O O4 0.076312 0.234303 0.336618
O O5 0.905792 0.366655 0.105666
O O6 0.139234 0.358138 0.040445
O O7 0.870346 0.349299 0.965347
O O8 0.000000 0.500000 0.000000
O O9 0.912859 0.331356 0.250000
O O10 0.800107 0.203539 0.159879
O O11 0.425772 0.250000 0.500000
O O12 0.389995 0.075259 0.522732
O O13 0.593992 0.138227 0.426599
O O14 0.774850 0.011148 0.117340
#
# Coordination Sequence:
#
# PCOD9435495 Si02
#       6
#     8   8   8   8   8   8
#     4   9  19  36  54  71 100 141 180 217 266 330
#     4   9  18  34  55  77 104 142 185 228 271 323
#     4  10  20  34  53  79 109 140 178 226 278 331
#     4  10  19  32  52  77 104 138 183 227 269 323
#     4   9  19  34  54  77 103 141 182 221 263 326
#     4  11  20  32  54  83 111 138 176 229 283 331
#
# _framework density 20.474193
#
# number of rings (size 3 to 8) (size 9 to 14) (size 15 to 20)
#    0.000    2.333    0.000    3.000    0.000    4.000 
#    0.000    2.500    0.000    4.000    0.000    0.000 
#    0.000    0.000    0.000    0.000    0.000    0.000 
#
# Total GULP energy -267312.199615 kJ/mol
# GULP energy per Si atom -5569.004159 kJ/mol
# Density = 2.042759 g / cm^3
# Si number density = 20.474193 Si / 1000 Ang^3
#
#
#
# Elastic Constant Matrix: (Units=GPa)
#
#
# Indices 1 2 3 4 5 6 
#
# 1 38.5388 -7.4976 12.8081 0.0000 0.0000 0.0000
# 2 -7.4976 60.6175 13.7458 0.0000 0.0000 0.0000
# 3 12.8081 13.7458 87.9682 0.0000 0.0000 0.0000
# 4 0.0000 0.0000 0.0000 18.0407 0.0000 0.0000
# 5 0.0000 0.0000 0.0000 0.0000 4.2268 0.0000
# 6 0.0000 0.0000 0.0000 0.0000 0.0000 23.5409
#
#
#
# Elastic Compliance Matrix: (Units=1/GPa)
#
#
# Indices 1 2 3 4 5 6 
#
# 1 0.028465 0.004624 -0.004867 0.000000 0.000000 0.000000
# 2 0.004624 0.017854 -0.003463 0.000000 0.000000 0.000000
# 3 -0.004867 -0.003463 0.012618 0.000000 0.000000 0.000000
# 4 0.000000 0.000000 0.000000 0.055430 0.000000 0.000000
# 5 0.000000 0.000000 0.000000 0.000000 0.236587 0.000000
# 6 0.000000 0.000000 0.000000 0.000000 0.000000 0.042479
#
#
# Mechanical properties :
#
#
# Convention : Reuss Voigt Hill
#
# Bulk Modulus (GPa) = 19.40800 25.02635 22.21717
# Shear Modulus (GPa) = 11.96114 20.36621 16.16367
#
# Velocity S-wave (km/s) = 2.41966 3.15735 2.81279
# Velocity P-wave (km/s) = 4.16007 5.05388 4.62860
#
# Compressibility (1/GPa) = 0.05152515
#
# Stress axis : x y z
#
# Youngs Moduli (GPa) = 35.13071 56.00925 79.25474
#
# Poissons Ratio (x) = -0.25901 0.38574
# Poissons Ratio (y) = -0.16246 0.27447
# Poissons Ratio (z) = 0.17099 0.19397
#
# Static dielectric constant tensor:
#      x y z
#    x 1.760000 0.000000 0.000000 
#    y 0.000000 1.827690 0.000000 
#    z 0.000000 0.000000 1.766930 
# 
# From -- ./inp_files/20949.got.cif
#   From: 2010.05.17/outbox.cif.g08.bks.cpg/sg57_11_cif.got.tgz:20949.got - 2010.06.03 13:58:18.
