data_PCOD9435848
_publ_section_title
;
Structure prediction by ZEFSAII (Michael W. Deem and Ramdas Pophale) SiO2 
 PCOD9435848
Probable space group: P B C M
;
_chemical_formula_sum "Si O2"
_cell_formula_units_Z 60
_cell_length_a 11.720730
_cell_length_b 20.661392
_cell_length_c 14.041360
_cell_angle_alpha 90.000000
_cell_angle_beta 90.000000
_cell_angle_gamma 90.000000
_cell_volume 3400.348369
_symmetry_space_group_name_H-M "P B C M"
_symmetry_group_IT_number 57
_symmetry_cell_setting 'orthorhombic'
loop_
_space_group_symop_operation_xyz
x,y,z
-x,-y,1/2+z
x,1/2-y,-z
-x,1/2+y,1/2-z
-x,-y,-z
x,y,1/2-z
-x,1/2+y,z
x,1/2-y,1/2+z
loop_
_atom_site_type_symbol
_atom_site_label
_atom_site_fract_x
_atom_site_fract_y
_atom_site_fract_z
Si Si1 0.662589 0.659421 0.140173
Si Si2 0.197518 0.250000 0.500000
Si Si3 0.755835 0.285305 0.362877
Si Si4 0.204117 0.473978 0.640053
Si Si5 0.392103 0.842803 0.861585
Si Si6 0.979995 0.745338 0.642270
Si Si7 0.024641 0.605620 0.140402
Si Si8 0.761055 0.092840 0.999297
O O1 0.687353 0.679633 0.250000
O O2 0.725494 0.704675 0.064965
O O3 0.710535 0.586792 0.130516
O O4 0.527093 0.663284 0.125319
O O5 0.109338 0.286151 0.429199
O O6 0.741852 0.298476 0.250000
O O7 0.675217 0.224002 0.385719
O O8 0.738786 0.348201 0.426333
O O9 0.887850 0.266561 0.379609
O O10 0.212126 0.497686 0.750000
O O11 0.230787 0.528570 0.563277
O O12 0.076080 0.446009 0.626660
O O13 0.369946 0.854581 0.750000
O O14 0.340329 0.900030 0.924679
O O15 0.958539 0.724307 0.750000
O O16 0.968147 0.823096 0.636361
O O17 0.069237 0.599646 0.250000
O O18 0.123627 0.601019 0.062140
#
# Coordination Sequence:
#
# PCOD9435848 Si02
#       8
#     8   4   8   8   8   8   8   8
#     4  10  23  41  60  82 115 156 195 234 284 343
#     4  12  20  32  62  86 106 146 198 236 274 330
#     4  10  21  35  54  87 123 147 180 238 301 341
#     4  10  22  40  57  79 115 155 193 230 284 350
#     4  10  22  39  59  83 114 150 191 241 292 341
#     4  10  19  33  55  84 115 147 184 234 288 342
#     4  10  19  35  56  81 114 153 189 231 288 348
#     4  12  21  33  60  86 115 146 198 238 286 337
#
# _framework density 17.645250999999998
#
# number of rings (size 3 to 8) (size 9 to 14) (size 15 to 20)
#    0.000    1.600    2.667    2.800    1.867    0.533 
#    0.000    0.000    0.000    2.400    0.000    0.000 
#    0.000    0.000    0.000    0.000    0.000    0.000 
#
# Total GULP energy -334886.175704 kJ/mol
# GULP energy per Si atom -5581.436262 kJ/mol
# Density = 1.760509 g / cm^3
# Si number density = 17.645251 Si / 1000 Ang^3
#
#
#
# Elastic Constant Matrix: (Units=GPa)
#
#
# Indices 1 2 3 4 5 6 
#
# 1 95.0014 22.9382 60.9426 0.0000 0.0000 0.0000
# 2 22.9382 41.4693 46.1283 0.0000 0.0000 0.0000
# 3 60.9426 46.1283 114.7207 0.0000 0.0000 0.0000
# 4 0.0000 0.0000 0.0000 34.5702 0.0000 0.0000
# 5 0.0000 0.0000 0.0000 0.0000 23.4988 0.0000
# 6 0.0000 0.0000 0.0000 0.0000 0.0000 13.8393
#
#
#
# Elastic Compliance Matrix: (Units=1/GPa)
#
#
# Indices 1 2 3 4 5 6 
#
# 1 0.015995 0.001093 -0.008936 0.000000 0.000000 0.000000
# 2 0.001093 0.043702 -0.018153 0.000000 0.000000 0.000000
# 3 -0.008936 -0.018153 0.020763 0.000000 0.000000 0.000000
# 4 0.000000 0.000000 0.000000 0.028927 0.000000 0.000000
# 5 0.000000 0.000000 0.000000 0.000000 0.042555 0.000000
# 6 0.000000 0.000000 0.000000 0.000000 0.000000 0.072258
#
#
# Mechanical properties :
#
#
# Convention : Reuss Voigt Hill
#
# Bulk Modulus (GPa) = 35.12771 56.80109 45.96440
# Shear Modulus (GPa) = 17.50198 22.46047 19.98123
#
# Velocity S-wave (km/s) = 3.15283 3.57163 3.36874
# Velocity P-wave (km/s) = 5.76236 7.01920 6.42160
#
# Compressibility (1/GPa) = 0.02846756
#
# Stress axis : x y z
#
# Youngs Moduli (GPa) = 62.52007 22.88224 48.16209
#
# Poissons Ratio (x) = -0.02501 0.43040
# Poissons Ratio (y) = -0.06834 0.87428
# Poissons Ratio (z) = 0.55870 0.41538
#
# Static dielectric constant tensor:
#      x y z
#    x 1.610390 0.000000 0.000000 
#    y 0.000000 1.582660 0.000000 
#    z 0.000000 0.000000 1.639220 
# 
# From -- ./inp_files/17917.got.cif
#   From: 2010.05.17/outbox.cif.g08.bks.cpg/sg57_9_cif.got.tgz:17917.got - 2010.06.03 13:58:18.
