data_PCOD9435772
_publ_section_title
;
Structure prediction by ZEFSAII (Michael W. Deem and Ramdas Pophale) SiO2 
 PCOD9435772
Probable space group: P B C M
;
_chemical_formula_sum "Si O2"
_cell_formula_units_Z 64
_cell_length_a 19.188386
_cell_length_b 19.442646
_cell_length_c 9.394008
_cell_angle_alpha 90.000000
_cell_angle_beta 90.000000
_cell_angle_gamma 90.000000
_cell_volume 3504.650712
_symmetry_space_group_name_H-M "P B C M"
_symmetry_group_IT_number 57
_symmetry_cell_setting 'orthorhombic'
loop_
_space_group_symop_operation_xyz
x,y,z
-x,-y,1/2+z
x,1/2-y,-z
-x,1/2+y,1/2-z
-x,-y,-z
x,y,1/2-z
-x,1/2+y,z
x,1/2-y,1/2+z
loop_
_atom_site_type_symbol
_atom_site_label
_atom_site_fract_x
_atom_site_fract_y
_atom_site_fract_z
Si Si1 0.427702 0.926160 0.913901
Si Si2 0.767110 0.311367 0.590298
Si Si3 0.562568 0.592817 0.585739
Si Si4 0.930852 0.188091 0.092242
Si Si5 0.933028 0.470414 0.578029
Si Si6 0.703899 0.677761 0.919060
Si Si7 0.786642 0.545894 0.920150
Si Si8 0.290662 0.930975 0.419465
O O1 0.416598 0.905630 0.750000
O O2 0.428248 0.009874 0.916091
O O3 0.499301 0.896223 0.976668
O O4 0.365005 0.907957 0.018957
O O5 0.733573 0.250000 0.500000
O O6 0.738598 0.320944 0.750000
O O7 0.848700 0.296091 0.607566
O O8 0.761797 0.378168 0.493584
O O9 0.544129 0.610482 0.750000
O O10 0.632751 0.634596 0.548764
O O11 0.962487 0.187959 0.250000
O O12 0.931203 0.110199 0.035506
O O13 0.961659 0.250000 0.000000
O O14 0.939634 0.472186 0.750000
O O15 0.863119 0.514909 0.546221
O O16 0.000000 0.500000 0.500000
O O17 0.702907 0.690939 0.750000
O O18 0.768843 0.625825 0.946832
O O19 0.706835 0.750000 0.000000
O O20 0.774023 0.533341 0.750000
O O21 0.731796 0.503492 0.014227
O O22 0.288483 0.930724 0.250000
#
# Coordination Sequence:
#
# PCOD9435772 Si02
#       8
#     8   8   8   8   8   8   8   8
#     4  10  19  33  54  79 111 147 185 235 292 346
#     4  10  19  34  53  77 111 146 182 223 274 334
#     4   9  18  34  54  79 109 143 186 237 290 348
#     4   9  18  33  55  81 110 146 184 227 278 343
#     4  10  21  38  60  86 118 155 193 239 297 355
#     4  10  21  38  61  85 115 155 199 246 301 355
#     4  10  20  40  61  81 113 154 193 240 301 355
#     4  12  22  32  53  85 115 147 191 239 284 343
#
# _framework density 18.261448000000001
#
# number of rings (size 3 to 8) (size 9 to 14) (size 15 to 20)
#    0.000    2.000    2.500    1.875    0.000    3.000 
#    0.000    1.250    0.000    4.500    0.000    0.000 
#    0.000    0.000    0.000    0.000    0.000    0.000 
#
# Total GULP energy -356428.631599 kJ/mol
# GULP energy per Si atom -5569.197369 kJ/mol
# Density = 1.821988 g / cm^3
# Si number density = 18.261448 Si / 1000 Ang^3
#
#
#
# Elastic Constant Matrix: (Units=GPa)
#
#
# Indices 1 2 3 4 5 6 
#
# 1 74.9057 39.0592 42.2816 0.0000 0.0000 0.0000
# 2 39.0592 120.7980 54.0188 0.0000 0.0000 0.0000
# 3 42.2816 54.0188 95.0245 0.0000 0.0000 0.0000
# 4 0.0000 0.0000 0.0000 29.1401 0.0000 0.0000
# 5 0.0000 0.0000 0.0000 0.0000 15.2333 0.0000
# 6 0.0000 0.0000 0.0000 0.0000 0.0000 14.5682
#
#
#
# Elastic Compliance Matrix: (Units=1/GPa)
#
#
# Indices 1 2 3 4 5 6 
#
# 1 0.018661 -0.003112 -0.006534 0.000000 0.000000 0.000000
# 2 -0.003112 0.011619 -0.005220 0.000000 0.000000 0.000000
# 3 -0.006534 -0.005220 0.016399 0.000000 0.000000 0.000000
# 4 0.000000 0.000000 0.000000 0.034317 0.000000 0.000000
# 5 0.000000 0.000000 0.000000 0.000000 0.065646 0.000000
# 6 0.000000 0.000000 0.000000 0.000000 0.000000 0.068643
#
#
# Mechanical properties :
#
#
# Convention : Reuss Voigt Hill
#
# Bulk Modulus (GPa) = 59.01241 62.38304 60.69772
# Shear Modulus (GPa) = 19.94684 22.14621 21.04652
#
# Velocity S-wave (km/s) = 3.30857 3.48621 3.39855
# Velocity P-wave (km/s) = 6.85427 7.10212 6.97929
#
# Compressibility (1/GPa) = 0.01694559
#
# Stress axis : x y z
#
# Youngs Moduli (GPa) = 53.58699 86.06600 60.98022
#
# Poissons Ratio (x) = 0.26783 0.39847
# Poissons Ratio (y) = 0.16676 0.31834
# Poissons Ratio (z) = 0.35016 0.44930
#
# Static dielectric constant tensor:
#      x y z
#    x 1.650660 0.000000 0.000000 
#    y 0.000000 1.728660 0.000000 
#    z 0.000000 0.000000 1.660800 
# 
# From -- ./inp_files/8423.got.cif
#   From: 2010.05.17/outbox.cif.g08.bks.cpg/sg57_5_cif.got.tgz:8423.got - 2010.06.03 13:58:18.
