data_PCOD9435954
_publ_section_title
;
Structure prediction by ZEFSAII (Michael W. Deem and Ramdas Pophale) SiO2 
 PCOD9435954
Probable space group: P B C M
;
_chemical_formula_sum "Si O2"
_cell_formula_units_Z 60
_cell_length_a 23.515529
_cell_length_b 5.750953
_cell_length_c 20.327049
_cell_angle_alpha 90.000000
_cell_angle_beta 90.000000
_cell_angle_gamma 90.000000
_cell_volume 2748.963069
_symmetry_space_group_name_H-M "P B C M"
_symmetry_group_IT_number 57
_symmetry_cell_setting 'orthorhombic'
loop_
_space_group_symop_operation_xyz
x,y,z
-x,-y,1/2+z
x,1/2-y,-z
-x,1/2+y,1/2-z
-x,-y,-z
x,y,1/2-z
-x,1/2+y,z
x,1/2-y,1/2+z
loop_
_atom_site_type_symbol
_atom_site_label
_atom_site_fract_x
_atom_site_fract_y
_atom_site_fract_z
Si Si1 0.841843 0.471888 0.678496
Si Si2 0.208701 0.358475 0.884163
Si Si3 0.110703 0.841460 0.428513
Si Si4 0.032381 0.445118 0.824485
Si Si5 0.479086 0.478844 0.923534
Si Si6 0.642625 0.390985 0.061719
Si Si7 0.269939 0.250000 0.000000
Si Si8 0.282263 0.770691 0.324066
O O1 0.864643 0.414404 0.750000
O O2 0.833517 0.742533 0.666917
O O3 0.880813 0.369268 0.622255
O O4 0.776857 0.373588 0.674602
O O5 0.173358 0.540689 0.927901
O O6 0.232012 0.178143 0.937895
O O7 0.258744 0.472662 0.842214
O O8 0.094279 0.750000 0.500000
O O9 0.069505 0.018103 0.390673
O O10 0.058235 0.456108 0.750000
O O11 0.005541 0.184809 0.827149
O O12 0.504898 0.236670 0.896232
O O13 0.410932 0.458456 0.915801
O O14 0.500000 0.500000 0.000000
O O15 0.691721 0.546377 0.028938
O O16 0.670874 0.235209 0.119137
O O17 0.618828 0.250000 0.000000
O O18 0.304873 0.754904 0.250000
#
# Coordination Sequence:
#
# PCOD9435954 Si02
#       8
#     8   8   8   8   8   8   4   8
#     4  10  20  36  58  83 116 160 206 250 297 370
#     4  10  20  35  56  83 122 159 200 246 298 371
#     4  11  24  39  61  92 126 162 200 252 321 381
#     4  10  24  47  71  97 127 165 217 270 315 372
#     4  10  19  34  54  83 115 146 198 255 307 360
#     4  11  20  31  56  81 110 150 194 253 302 364
#     4  10  20  32  50  84 118 152 192 242 306 356
#     4   9  20  36  52  80 117 155 198 244 302 365
#
# _framework density 21.826411
#
# number of rings (size 3 to 8) (size 9 to 14) (size 15 to 20)
#    0.000    1.867    1.333    3.200    1.867    5.867 
#    0.000    0.000    0.000    0.800    0.000    0.000 
#    0.000    0.000    0.000    0.000    0.000    0.000 
#
# Total GULP energy -334278.043137 kJ/mol
# GULP energy per Si atom -5571.300719 kJ/mol
# Density = 2.177673 g / cm^3
# Si number density = 21.826411 Si / 1000 Ang^3
#
#
#
# Elastic Constant Matrix: (Units=GPa)
#
#
# Indices 1 2 3 4 5 6 
#
# 1 51.6711 13.1231 37.2457 0.0000 0.0000 0.0000
# 2 13.1231 71.1414 22.9171 0.0000 0.0000 0.0000
# 3 37.2457 22.9171 141.8458 0.0000 0.0000 0.0000
# 4 0.0000 0.0000 0.0000 20.2285 0.0000 0.0000
# 5 0.0000 0.0000 0.0000 0.0000 -9.3833 0.0000
# 6 0.0000 0.0000 0.0000 0.0000 0.0000 28.2871
#
#
#
# Elastic Compliance Matrix: (Units=1/GPa)
#
#
# Indices 1 2 3 4 5 6 
#
# 1 0.024306 -0.002561 -0.005968 0.000000 0.000000 0.000000
# 2 -0.002561 0.015098 -0.001767 0.000000 0.000000 0.000000
# 3 -0.005968 -0.001767 0.008903 0.000000 0.000000 0.000000
# 4 0.000000 0.000000 0.000000 0.049435 0.000000 0.000000
# 5 0.000000 0.000000 0.000000 0.000000 -0.106572 0.000000
# 6 0.000000 0.000000 0.000000 0.000000 0.000000 0.035352
#
#
# Mechanical properties :
#
#
# Convention : Reuss Voigt Hill
#
# Bulk Modulus (GPa) = 36.08287 45.69225 40.88756
# Shear Modulus (GPa) = 88.72873 20.58461 54.65667
#
# Velocity S-wave (km/s) = 6.38281 3.07433 5.00958
# Velocity P-wave (km/s) = 8.41950 5.79499 7.22737
#
# Compressibility (1/GPa) = 0.02771399
#
# Stress axis : x y z
#
# Youngs Moduli (GPa) = 41.14245 66.23355 112.32731
#
# Poissons Ratio (x) = 0.16962 0.67042
# Poissons Ratio (y) = 0.10536 0.19847
# Poissons Ratio (z) = 0.24556 0.11703
#
# Static dielectric constant tensor:
#      x y z
#    x 1.857880 0.000000 0.000000 
#    y 0.000000 1.880660 0.000000 
#    z 0.000000 0.000000 1.803900 
# 
# From -- ./inp_files/25865.got.cif
#   From: 2010.05.17/outbox.cif.g08.bks.cpg/sg57_13_cif.got.tgz:25865.got - 2010.06.03 13:58:18.
