data_PCOD9435901
_publ_section_title
;
Structure prediction by ZEFSAII (Michael W. Deem and Ramdas Pophale) SiO2 
 PCOD9435901
Probable space group: P B C M
;
_chemical_formula_sum "Si O2"
_cell_formula_units_Z 64
_cell_length_a 10.148365
_cell_length_b 18.659160
_cell_length_c 18.097043
_cell_angle_alpha 90.000000
_cell_angle_beta 90.000000
_cell_angle_gamma 90.000000
_cell_volume 3426.855452
_symmetry_space_group_name_H-M "P B C M"
_symmetry_group_IT_number 57
_symmetry_cell_setting 'orthorhombic'
loop_
_space_group_symop_operation_xyz
x,y,z
-x,-y,1/2+z
x,1/2-y,-z
-x,1/2+y,1/2-z
-x,-y,-z
x,y,1/2-z
-x,1/2+y,z
x,1/2-y,1/2+z
loop_
_atom_site_type_symbol
_atom_site_label
_atom_site_fract_x
_atom_site_fract_y
_atom_site_fract_z
Si Si1 0.977040 0.057304 0.065045
Si Si2 0.842288 0.661701 0.661379
Si Si3 0.382400 0.047790 0.836290
Si Si4 0.954682 0.714264 0.080102
Si Si5 0.922899 0.441570 0.162814
Si Si6 0.746553 0.239140 0.089180
Si Si7 0.648597 0.104917 0.895662
Si Si8 0.670075 0.409694 0.565295
O O1 0.063165 0.129460 0.067790
O O2 0.827453 0.081944 0.056033
O O3 0.002770 0.013878 0.139923
O O4 0.000000 0.000000 0.000000
O O5 0.838752 0.666357 0.750000
O O6 0.724200 0.608135 0.638965
O O7 0.849602 0.740792 0.627260
O O8 0.978796 0.622225 0.638953
O O9 0.355579 0.031780 0.750000
O O10 0.527353 0.079782 0.846849
O O11 0.374222 0.976350 0.885683
O O12 0.102169 0.726194 0.113730
O O13 0.954690 0.750000 0.000000
O O14 0.903323 0.436580 0.250000
O O15 0.783088 0.437045 0.122652
O O16 0.685342 0.312220 0.118810
O O17 0.658823 0.168608 0.102458
O O18 0.751920 0.250000 0.000000
O O19 0.613544 0.093166 0.982224
#
# Coordination Sequence:
#
# PCOD9435901 Si02
#       8
#     8   8   8   8   8   8   8   8
#     4  11  20  34  60  92 119 151 193 242 300 346
#     4  10  21  38  56  81 119 156 191 236 291 352
#     4  11  24  40  57  82 121 162 197 237 299 361
#     4  10  19  33  58  88 114 144 189 240 291 341
#     4  11  21  35  58  86 118 151 194 243 289 350
#     4   8  17  33  57  88 112 140 186 244 285 337
#     4  11  20  38  62  86 114 152 202 244 295 344
#     4  10  20  36  63  86 117 154 196 244 288 356
#
# _framework density 18.676013000000001
#
# number of rings (size 3 to 8) (size 9 to 14) (size 15 to 20)
#    0.000    1.750    3.750    2.250    0.000    0.500 
#    0.000    6.250    0.000    1.500    0.000    0.000 
#    0.000    0.000    0.000    0.000    0.000    0.000 
#
# Total GULP energy -356936.162297 kJ/mol
# GULP energy per Si atom -5577.127536 kJ/mol
# Density = 1.863351 g / cm^3
# Si number density = 18.676013 Si / 1000 Ang^3
#
#
#
# Elastic Constant Matrix: (Units=GPa)
#
#
# Indices 1 2 3 4 5 6 
#
# 1 45.7268 7.9244 6.0751 0.0000 0.0000 0.0000
# 2 7.9244 126.6737 25.4337 0.0000 0.0000 0.0000
# 3 6.0751 25.4337 41.1750 0.0000 0.0000 0.0000
# 4 0.0000 0.0000 0.0000 22.8998 0.0000 0.0000
# 5 0.0000 0.0000 0.0000 0.0000 21.0654 0.0000
# 6 0.0000 0.0000 0.0000 0.0000 0.0000 17.6336
#
#
#
# Elastic Compliance Matrix: (Units=1/GPa)
#
#
# Indices 1 2 3 4 5 6 
#
# 1 0.022385 -0.000842 -0.002783 0.000000 0.000000 0.000000
# 2 -0.000842 0.009044 -0.005462 0.000000 0.000000 0.000000
# 3 -0.002783 -0.005462 0.028071 0.000000 0.000000 0.000000
# 4 0.000000 0.000000 0.000000 0.043669 0.000000 0.000000
# 5 0.000000 0.000000 0.000000 0.000000 0.047471 0.000000
# 6 0.000000 0.000000 0.000000 0.000000 0.000000 0.056710
#
#
# Mechanical properties :
#
#
# Convention : Reuss Voigt Hill
#
# Bulk Modulus (GPa) = 24.19769 32.49354 28.34562
# Shear Modulus (GPa) = 20.89453 23.92926 22.41189
#
# Velocity S-wave (km/s) = 3.34846 3.58338 3.46791
# Velocity P-wave (km/s) = 5.28529 5.87854 5.58979
#
# Compressibility (1/GPa) = 0.04132626
#
# Stress axis : x y z
#
# Youngs Moduli (GPa) = 44.67364 110.57517 35.62385
#
# Poissons Ratio (x) = 0.09306 0.09914
# Poissons Ratio (y) = 0.03760 0.19458
# Poissons Ratio (z) = 0.12432 0.60397
#
# Static dielectric constant tensor:
#      x y z
#    x 1.639820 0.000000 0.000000 
#    y 0.000000 1.693230 0.000000 
#    z 0.000000 0.000000 1.656150 
# 
# From -- ./inp_files/22140.got.cif
#   From: 2010.05.17/outbox.cif.g08.bks.cpg/sg57_12_cif.got.tgz:22140.got - 2010.06.03 13:58:18.
