data_PCOD9435552
_publ_section_title
;
Structure prediction by ZEFSAII (Michael W. Deem and Ramdas Pophale) SiO2 
 PCOD9435552
Probable space group: P B C M
;
_chemical_formula_sum "Si O2"
_cell_formula_units_Z 64
_cell_length_a 17.466536
_cell_length_b 6.071485
_cell_length_c 24.909575
_cell_angle_alpha 90.000000
_cell_angle_beta 90.000000
_cell_angle_gamma 90.000000
_cell_volume 2641.605910
_symmetry_space_group_name_H-M "P B C M"
_symmetry_group_IT_number 57
_symmetry_cell_setting 'orthorhombic'
loop_
_space_group_symop_operation_xyz
x,y,z
-x,-y,1/2+z
x,1/2-y,-z
-x,1/2+y,1/2-z
-x,-y,-z
x,y,1/2-z
-x,1/2+y,z
x,1/2-y,1/2+z
loop_
_atom_site_type_symbol
_atom_site_label
_atom_site_fract_x
_atom_site_fract_y
_atom_site_fract_z
Si Si1 0.039872 0.282475 0.689425
Si Si2 0.801467 0.307917 0.391227
Si Si3 0.677630 0.977087 0.378790
Si Si4 0.422356 0.690301 0.811583
Si Si5 0.273386 0.094947 0.310091
Si Si6 0.932691 0.386029 0.946326
Si Si7 0.891637 0.838111 0.576579
Si Si8 0.477853 0.148581 0.581056
O O1 0.071016 0.282241 0.750000
O O2 0.098343 0.285385 0.639940
O O3 0.000240 0.533353 0.685231
O O4 0.733742 0.147777 0.408020
O O5 0.777159 0.396383 0.333410
O O6 0.886921 0.211429 0.395726
O O7 0.816836 0.515634 0.429476
O O8 0.629136 0.107098 0.333046
O O9 0.729324 0.800790 0.349019
O O10 0.613638 0.864896 0.415192
O O11 0.450061 0.723065 0.750000
O O12 0.361701 0.489570 0.811306
O O13 0.483920 0.651875 0.858687
O O14 0.253220 0.151143 0.250000
O O15 0.890127 0.613361 0.954821
O O16 0.021962 0.427608 0.936040
O O17 0.922208 0.250000 0.000000
O O18 0.498780 0.398362 0.559509
#
# Coordination Sequence:
#
# PCOD9435552 Si02
#       8
#     8   8   8   8   8   8   8   8
#     4  10  20  37  61  89 125 167 210 260 316 379
#     4  11  25  41  61  89 128 171 215 275 340 424
#     4  10  20  37  55  84 127 178 223 269 328 391
#     4   9  18  30  51  84 120 167 224 275 320 371
#     4  10  20  38  58  81 123 177 224 270 325 387
#     4  12  25  44  72 100 125 156 207 286 376 445
#     4  12  23  42  68  98 127 161 215 283 350 426
#     4  10  19  32  53  84 125 171 227 277 324 381
#
# _framework density 24.227688000000001
#
# number of rings (size 3 to 8) (size 9 to 14) (size 15 to 20)
#    0.000    1.500    3.750    1.500    0.000    3.500 
#    0.000    1.250    0.000    0.000    0.000    0.000 
#    0.000    9.000    0.000    1.125    0.000    0.000 
#
# Total GULP energy -356715.234651 kJ/mol
# GULP energy per Si atom -5573.675541 kJ/mol
# Density = 2.417254 g / cm^3
# Si number density = 24.227688 Si / 1000 Ang^3
#
#
#
# Elastic Constant Matrix: (Units=GPa)
#
#
# Indices 1 2 3 4 5 6 
#
# 1 114.7616 56.6690 38.3278 0.0000 0.0000 0.0000
# 2 56.6690 141.6700 40.8332 0.0000 0.0000 0.0000
# 3 38.3278 40.8332 59.1319 0.0000 0.0000 0.0000
# 4 0.0000 0.0000 0.0000 31.4202 0.0000 0.0000
# 5 0.0000 0.0000 0.0000 0.0000 17.3193 0.0000
# 6 0.0000 0.0000 0.0000 0.0000 0.0000 59.2790
#
#
#
# Elastic Compliance Matrix: (Units=1/GPa)
#
#
# Indices 1 2 3 4 5 6 
#
# 1 0.012213 -0.003251 -0.005671 0.000000 0.000000 0.000000
# 2 -0.003251 0.009678 -0.004576 0.000000 0.000000 0.000000
# 3 -0.005671 -0.004576 0.023747 0.000000 0.000000 0.000000
# 4 0.000000 0.000000 0.000000 0.031827 0.000000 0.000000
# 5 0.000000 0.000000 0.000000 0.000000 0.057739 0.000000
# 6 0.000000 0.000000 0.000000 0.000000 0.000000 0.016869
#
#
# Mechanical properties :
#
#
# Convention : Reuss Voigt Hill
#
# Bulk Modulus (GPa) = 53.64219 65.24706 59.44462
# Shear Modulus (GPa) = 26.98567 33.58593 30.28580
#
# Velocity S-wave (km/s) = 3.34104 3.72729 3.53944
# Velocity P-wave (km/s) = 6.08870 6.74632 6.42593
#
# Compressibility (1/GPa) = 0.01864204
#
# Stress axis : x y z
#
# Youngs Moduli (GPa) = 81.87993 103.32858 42.10987
#
# Poissons Ratio (x) = 0.33588 0.23882
# Poissons Ratio (y) = 0.26616 0.19270
# Poissons Ratio (z) = 0.46438 0.47283
#
# Static dielectric constant tensor:
#      x y z
#    x 1.917120 0.000000 0.000000 
#    y 0.000000 2.158870 0.000000 
#    z 0.000000 0.000000 1.942920 
# 
# From -- ./inp_files/29963.got.cif
#   From: 2010.05.17/outbox.cif.g08.bks.cpg/sg57_15_cif.got.tgz:29963.got - 2010.06.03 13:58:18.
