data_PCOD9435939
_publ_section_title
;
Structure prediction by ZEFSAII (Michael W. Deem and Ramdas Pophale) SiO2 
 PCOD9435939
Probable space group: P B C M
;
_chemical_formula_sum "Si O2"
_cell_formula_units_Z 48
_cell_length_a 12.862338
_cell_length_b 7.459983
_cell_length_c 24.748425
_cell_angle_alpha 90.000000
_cell_angle_beta 90.000000
_cell_angle_gamma 90.000000
_cell_volume 2374.681239
_symmetry_space_group_name_H-M "P B C M"
_symmetry_group_IT_number 57
_symmetry_cell_setting 'orthorhombic'
loop_
_space_group_symop_operation_xyz
x,y,z
-x,-y,1/2+z
x,1/2-y,-z
-x,1/2+y,1/2-z
-x,-y,-z
x,y,1/2-z
-x,1/2+y,z
x,1/2-y,1/2+z
loop_
_atom_site_type_symbol
_atom_site_label
_atom_site_fract_x
_atom_site_fract_y
_atom_site_fract_z
Si Si1 0.146437 0.374415 0.547655
Si Si2 0.612743 0.571548 0.250000
Si Si3 0.077239 0.768894 0.420353
Si Si4 0.629930 0.144875 0.250000
Si Si5 0.961938 0.869325 0.308735
Si Si6 0.780120 0.904033 0.833793
Si Si7 0.797863 0.164380 0.333530
O O1 0.187005 0.250000 0.500000
O O2 0.026233 0.317024 0.556911
O O3 0.213162 0.360025 0.602565
O O4 0.129612 0.586402 0.540626
O O5 0.627716 0.359158 0.250000
O O6 0.489810 0.594031 0.250000
O O7 0.675623 0.646685 0.198171
O O8 0.027013 0.860289 0.364801
O O9 0.170300 0.646436 0.396767
O O10 0.696459 0.089963 0.303168
O O11 0.015461 0.864579 0.250000
O O12 0.878313 0.706869 0.311066
O O13 0.893925 0.051381 0.309551
O O14 0.789212 0.119746 0.826065
#
# Coordination Sequence:
#
# PCOD9435939 Si02
#       7
#     8   4   8   4   8   8   8
#     4  10  19  34  54  76 103 143 181 220 266 308
#     4  10  20  38  53  79 106 136 175 225 279 325
#     4  10  20  34  47  77 110 138 185 212 254 316
#     4  10  22  32  55  75 104 146 173 217 269 323
#     4  11  20  30  53  73 105 151 174 207 255 315
#     4   9  21  36  53  75 109 133 181 230 259 319
#     4  10  20  36  46  75 110 141 177 207 261 312
#
# _framework density 20.213238
#
# number of rings (size 3 to 8) (size 9 to 14) (size 15 to 20)
#    0.000    2.000    3.333    0.500    3.500    0.000 
#    1.500    0.000    0.000    0.000    0.000   11.667 
#    0.000    0.000    0.000    0.000    0.000    0.000 
#
# Total GULP energy -267281.836412 kJ/mol
# GULP energy per Si atom -5568.371592 kJ/mol
# Density = 2.016723 g / cm^3
# Si number density = 20.213238 Si / 1000 Ang^3
#
#
#
# Elastic Constant Matrix: (Units=GPa)
#
#
# Indices 1 2 3 4 5 6 
#
# 1 112.1817 -10.9805 26.1362 0.0000 0.0000 0.0000
# 2 -10.9805 46.4354 13.5876 0.0000 0.0000 0.0000
# 3 26.1362 13.5876 73.1038 0.0000 0.0000 0.0000
# 4 0.0000 0.0000 0.0000 22.0892 0.0000 0.0000
# 5 0.0000 0.0000 0.0000 0.0000 17.1307 0.0000
# 6 0.0000 0.0000 0.0000 0.0000 0.0000 26.7770
#
#
#
# Elastic Compliance Matrix: (Units=1/GPa)
#
#
# Indices 1 2 3 4 5 6 
#
# 1 0.010296 0.003714 -0.004371 0.000000 0.000000 0.000000
# 2 0.003714 0.024113 -0.005810 0.000000 0.000000 0.000000
# 3 -0.004371 -0.005810 0.016322 0.000000 0.000000 0.000000
# 4 0.000000 0.000000 0.000000 0.045271 0.000000 0.000000
# 5 0.000000 0.000000 0.000000 0.000000 0.058375 0.000000
# 6 0.000000 0.000000 0.000000 0.000000 0.000000 0.037345
#
#
# Mechanical properties :
#
#
# Convention : Reuss Voigt Hill
#
# Bulk Modulus (GPa) = 26.45714 32.13416 29.29565
# Shear Modulus (GPa) = 23.01433 26.73123 24.87278
#
# Velocity S-wave (km/s) = 3.37794 3.64051 3.51168
# Velocity P-wave (km/s) = 5.32273 5.79683 5.56483
#
# Compressibility (1/GPa) = 0.03779698
#
# Stress axis : x y z
#
# Youngs Moduli (GPa) = 97.12459 41.47059 61.26756
#
# Poissons Ratio (x) = -0.15401 0.26782
# Poissons Ratio (y) = -0.36070 0.35594
# Poissons Ratio (z) = 0.42456 0.24093
#
# Static dielectric constant tensor:
#      x y z
#    x 1.730070 0.000000 0.000000 
#    y 0.000000 1.864140 0.000000 
#    z 0.000000 0.000000 1.806570 
# 
# From -- ./inp_files/27158.got.cif
#   From: 2010.05.17/outbox.cif.g08.bks.cpg/sg57_14_cif.got.tgz:27158.got - 2010.06.03 13:58:18.
