data_PCOD9435347
_publ_section_title
;
Structure prediction by ZEFSAII (Michael W. Deem and Ramdas Pophale) SiO2 
 PCOD9435347
Probable space group: P B C M
;
_chemical_formula_sum "Si O2"
_cell_formula_units_Z 64
_cell_length_a 27.901901
_cell_length_b 15.239487
_cell_length_c 8.725124
_cell_angle_alpha 90.000000
_cell_angle_beta 90.000000
_cell_angle_gamma 90.000000
_cell_volume 3710.015713
_symmetry_space_group_name_H-M "P B C M"
_symmetry_group_IT_number 57
_symmetry_cell_setting 'orthorhombic'
loop_
_space_group_symop_operation_xyz
x,y,z
-x,-y,1/2+z
x,1/2-y,-z
-x,1/2+y,1/2-z
-x,-y,-z
x,y,1/2-z
-x,1/2+y,z
x,1/2-y,1/2+z
loop_
_atom_site_type_symbol
_atom_site_label
_atom_site_fract_x
_atom_site_fract_y
_atom_site_fract_z
Si Si1 0.886546 0.970052 0.065794
Si Si2 0.806588 0.845131 0.566178
Si Si3 0.579658 0.344354 0.566608
Si Si4 0.531307 0.844341 0.934515
Si Si5 0.613585 0.521755 0.064761
Si Si6 0.966962 0.845075 0.934174
Si Si7 0.921128 0.343524 0.933841
Si Si8 0.304583 0.344381 0.565716
O O1 0.885802 0.966391 0.250000
O O2 0.891197 0.071551 0.017180
O O3 0.840864 0.919706 0.999362
O O4 0.933198 0.918540 0.005603
O O5 0.820882 0.750000 0.500000
O O6 0.810180 0.842731 0.750000
O O7 0.750884 0.859625 0.522453
O O8 0.594167 0.250000 0.500000
O O9 0.581189 0.341361 0.750000
O O10 0.523889 0.359355 0.518455
O O11 0.610054 0.425480 0.504885
O O12 0.532812 0.839613 0.750000
O O13 0.567052 0.921253 0.983188
O O14 0.546471 0.750000 0.000000
O O15 0.613332 0.515276 0.250000
O O16 0.659902 0.578203 0.017356
O O17 0.962560 0.845171 0.750000
O O18 0.022866 0.858091 0.976013
O O19 0.952597 0.750000 0.000000
O O20 0.919499 0.338256 0.750000
O O21 0.905751 0.250000 0.000000
O O22 0.319539 0.250000 0.500000
O O23 0.306764 0.338886 0.750000
#
# Coordination Sequence:
#
# PCOD9435347 Si02
#       8
#     8   8   8   8   8   8   8   8
#     4  11  21  33  50  74 100 129 165 204 242 287
#     4  10  20  35  53  75 101 130 160 196 242 292
#     4  10  20  33  48  69  97 132 168 203 241 285
#     4   9  18  30  46  70 101 132 163 198 240 287
#     4  10  19  32  50  73  99 128 162 203 244 289
#     4  10  19  32  49  72 101 133 164 198 239 286
#     4   9  20  35  51  71  98 130 165 202 241 283
#     4   9  19  34  53  76 102 128 158 196 242 291
#
# _framework density 17.250601
#
# number of rings (size 3 to 8) (size 9 to 14) (size 15 to 20)
#    0.000    2.250    0.000    3.000    0.000    3.500 
#    0.000    0.000    0.000    0.750    0.000    1.750 
#    0.000    0.000    0.000    0.000    0.000    0.000 
#
# Total GULP energy -357272.958829 kJ/mol
# GULP energy per Si atom -5582.389982 kJ/mol
# Density = 1.721134 g / cm^3
# Si number density = 17.250601 Si / 1000 Ang^3
#
#
#
# Elastic Constant Matrix: (Units=GPa)
#
#
# Indices 1 2 3 4 5 6 
#
# 1 72.3896 83.3429 27.9707 0.0000 0.0000 0.0000
# 2 83.3429 181.1090 41.4054 0.0000 0.0000 0.0000
# 3 27.9707 41.4054 31.6981 0.0000 0.0000 0.0000
# 4 0.0000 0.0000 0.0000 32.0071 0.0000 0.0000
# 5 0.0000 0.0000 0.0000 0.0000 13.4675 0.0000
# 6 0.0000 0.0000 0.0000 0.0000 0.0000 28.8377
#
#
#
# Elastic Compliance Matrix: (Units=1/GPa)
#
#
# Indices 1 2 3 4 5 6 
#
# 1 0.032829 -0.012097 -0.013167 0.000000 0.000000 0.000000
# 2 -0.012097 0.012330 -0.005432 0.000000 0.000000 0.000000
# 3 -0.013167 -0.005432 0.050261 0.000000 0.000000 0.000000
# 4 0.000000 0.000000 0.000000 0.031243 0.000000 0.000000
# 5 0.000000 0.000000 0.000000 0.000000 0.074253 0.000000
# 6 0.000000 0.000000 0.000000 0.000000 0.000000 0.034677
#
#
# Mechanical properties :
#
#
# Convention : Reuss Voigt Hill
#
# Bulk Modulus (GPa) = 29.38649 65.62609 47.50629
# Shear Modulus (GPa) = 16.21646 23.69431 19.95539
#
# Velocity S-wave (km/s) = 3.06935 3.71014 3.40486
# Velocity P-wave (km/s) = 5.44365 7.51525 6.56171
#
# Compressibility (1/GPa) = 0.03402924
#
# Stress axis : x y z
#
# Youngs Moduli (GPa) = 30.46049 81.10174 19.89595
#
# Poissons Ratio (x) = 0.98110 0.26197
# Poissons Ratio (y) = 0.36849 0.10807
# Poissons Ratio (z) = 0.40108 0.44051
#
# Static dielectric constant tensor:
#      x y z
#    x 1.588390 0.000000 0.000000 
#    y 0.000000 1.568510 0.000000 
#    z 0.000000 0.000000 1.576340 
# 
# From -- ./inp_files/10284.got.cif
#   From: 2010.05.17/outbox.cif.g08.bks.cpg/sg57_6_cif.got.tgz:10284.got - 2010.06.03 13:58:18.
