data_PCOD9435380
_publ_section_title
;
Structure prediction by ZEFSAII (Michael W. Deem and Ramdas Pophale) SiO2 
 PCOD9435380
Probable space group: P B C M
;
_chemical_formula_sum "Si O2"
_cell_formula_units_Z 64
_cell_length_a 12.439753
_cell_length_b 32.646077
_cell_length_c 7.808031
_cell_angle_alpha 90.000000
_cell_angle_beta 90.000000
_cell_angle_gamma 90.000000
_cell_volume 3170.912710
_symmetry_space_group_name_H-M "P B C M"
_symmetry_group_IT_number 57
_symmetry_cell_setting 'orthorhombic'
loop_
_space_group_symop_operation_xyz
x,y,z
-x,-y,1/2+z
x,1/2-y,-z
-x,1/2+y,1/2-z
-x,-y,-z
x,y,1/2-z
-x,1/2+y,z
x,1/2-y,1/2+z
loop_
_atom_site_type_symbol
_atom_site_label
_atom_site_fract_x
_atom_site_fract_y
_atom_site_fract_z
Si Si1 0.400749 0.631524 0.456684
Si Si2 0.615649 0.981533 0.455978
Si Si3 0.875087 0.874861 0.953582
Si Si4 0.993877 0.296145 0.956635
Si Si5 0.250785 0.557089 0.459231
Si Si6 0.637461 0.889661 0.453527
Si Si7 0.990068 0.048171 0.043876
Si Si8 0.251763 0.704483 0.044244
O O1 0.397418 0.630973 0.250000
O O2 0.336806 0.590970 0.516399
O O3 0.524943 0.631864 0.506630
O O4 0.332927 0.670193 0.520003
O O5 0.622604 0.979831 0.250000
O O6 0.627947 0.935935 0.525088
O O7 0.500000 0.000000 0.500000
O O8 0.706921 0.012803 0.516365
O O9 0.894458 0.875576 0.750000
O O10 0.936650 0.834576 0.021058
O O11 0.922015 0.918620 0.020189
O O12 0.748194 0.871038 0.981288
O O13 0.991985 0.298266 0.750000
O O14 0.870645 0.300397 0.019600
O O15 0.031448 0.250000 0.000000
O O16 0.251065 0.557806 0.250000
O O17 0.128193 0.563519 0.513187
O O18 0.647174 0.892042 0.250000
O O19 0.992508 0.049314 0.250000
O O20 0.000000 0.000000 0.000000
O O21 0.247175 0.700620 0.250000
O O22 0.288280 0.750000 0.000000
#
# Coordination Sequence:
#
# PCOD9435380 Si02
#       8
#     8   8   8   8   8   8   8   8
#     4  10  19  34  56  78 102 138 179 212 255 320
#     4  10  19  32  50  73 102 138 176 216 260 308
#     4  10  21  37  57  79 108 149 189 223 268 334
#     4   9  18  35  59  87 112 138 178 224 274 331
#     4   9  17  31  53  76 100 133 172 215 258 304
#     4  11  23  36  52  78 110 142 180 228 272 311
#     4  10  20  35  54  78 109 144 181 222 268 320
#     4   9  18  33  56  84 110 136 168 212 266 322
#
# _framework density 20.183463
#
# number of rings (size 3 to 8) (size 9 to 14) (size 15 to 20)
#    0.000    2.250    1.250    1.875    0.000    6.000 
#    0.000    1.875    0.000    3.000    0.000    0.000 
#    0.000    0.000    0.000    0.000    0.000    0.000 
#
# Total GULP energy -357204.115283 kJ/mol
# GULP energy per Si atom -5581.314301 kJ/mol
# Density = 2.013752 g / cm^3
# Si number density = 20.183463 Si / 1000 Ang^3
#
#
#
# Elastic Constant Matrix: (Units=GPa)
#
#
# Indices 1 2 3 4 5 6 
#
# 1 121.6583 75.2383 0.3030 0.0000 0.0000 0.0000
# 2 75.2383 146.1994 8.3731 0.0000 0.0000 0.0000
# 3 0.3030 8.3731 27.1542 0.0000 0.0000 0.0000
# 4 0.0000 0.0000 0.0000 21.5698 0.0000 0.0000
# 5 0.0000 0.0000 0.0000 0.0000 13.7421 0.0000
# 6 0.0000 0.0000 0.0000 0.0000 0.0000 36.8927
#
#
#
# Elastic Compliance Matrix: (Units=1/GPa)
#
#
# Indices 1 2 3 4 5 6 
#
# 1 0.012145 -0.006355 0.001824 0.000000 0.000000 0.000000
# 2 -0.006355 0.010288 -0.003101 0.000000 0.000000 0.000000
# 3 0.001824 -0.003101 0.037763 0.000000 0.000000 0.000000
# 4 0.000000 0.000000 0.000000 0.046361 0.000000 0.000000
# 5 0.000000 0.000000 0.000000 0.000000 0.072769 0.000000
# 6 0.000000 0.000000 0.000000 0.000000 0.000000 0.027106
#
#
# Mechanical properties :
#
#
# Convention : Reuss Voigt Hill
#
# Bulk Modulus (GPa) = 22.25608 51.42676 36.84142
# Shear Modulus (GPa) = 21.12618 28.51409 24.82013
#
# Velocity S-wave (km/s) = 3.23880 3.76273 3.51055
# Velocity P-wave (km/s) = 5.00372 6.66427 5.89278
#
# Compressibility (1/GPa) = 0.04493154
#
# Stress axis : x y z
#
# Youngs Moduli (GPa) = 82.33691 97.20129 26.48113
#
# Poissons Ratio (x) = 0.61769 -0.04830
# Poissons Ratio (y) = 0.52323 0.08213
# Poissons Ratio (z) = -0.15018 0.30146
#
# Static dielectric constant tensor:
#      x y z
#    x 1.704800 0.000000 0.000000 
#    y 0.000000 1.720140 0.000000 
#    z 0.000000 0.000000 1.864520 
# 
# From -- ./inp_files/3804.got.cif
#   From: 2010.05.17/outbox.cif.g08.bks.cpg/sg57_2_cif.got.tgz:3804.got - 2010.06.03 13:58:18.
