data_PCOD9435940
_publ_section_title
;
Structure prediction by ZEFSAII (Michael W. Deem and Ramdas Pophale) SiO2 
 PCOD9435940
Probable space group: P B C M
;
_chemical_formula_sum "Si O2"
_cell_formula_units_Z 48
_cell_length_a 9.945182
_cell_length_b 31.414117
_cell_length_c 8.610759
_cell_angle_alpha 90.000000
_cell_angle_beta 90.000000
_cell_angle_gamma 90.000000
_cell_volume 2690.165671
_symmetry_space_group_name_H-M "P B C M"
_symmetry_group_IT_number 57
_symmetry_cell_setting 'orthorhombic'
loop_
_space_group_symop_operation_xyz
x,y,z
-x,-y,1/2+z
x,1/2-y,-z
-x,1/2+y,1/2-z
-x,-y,-z
x,y,1/2-z
-x,1/2+y,z
x,1/2-y,1/2+z
loop_
_atom_site_type_symbol
_atom_site_label
_atom_site_fract_x
_atom_site_fract_y
_atom_site_fract_z
Si Si1 0.354946 0.013919 0.564314
Si Si2 0.200116 0.702630 0.936786
Si Si3 0.585961 0.361196 0.935048
Si Si4 0.008116 0.130432 0.561428
Si Si5 0.307718 0.387895 0.061937
Si Si6 0.219183 0.933724 0.436394
O O1 0.359230 0.011865 0.750000
O O2 0.323157 0.062341 0.519089
O O3 0.500000 0.000000 0.500000
O O4 0.246392 0.980184 0.503049
O O5 0.205767 0.702835 0.750000
O O6 0.075738 0.672157 0.985504
O O7 0.186566 0.750000 0.000000
O O8 0.332827 0.679363 0.001433
O O9 0.594620 0.362883 0.750000
O O10 0.432602 0.362910 0.990095
O O11 0.662213 0.402404 0.005689
O O12 0.010093 0.130055 0.750000
O O13 0.161533 0.128173 0.509540
O O14 0.919099 0.089413 0.514739
O O15 0.315480 0.385080 0.250000
O O16 0.224123 0.935164 0.250000
#
# Coordination Sequence:
#
# PCOD9435940 Si02
#       6
#     8   8   8   8   8   8
#     4  11  21  31  50  77 109 147 194 238 277 322
#     4  10  20  38  63  87 110 138 175 219 269 328
#     4  11  21  34  55  82 110 141 182 225 269 321
#     4   8  18  36  57  79 107 145 183 222 275 331
#     4  10  20  36  55  77 109 150 188 227 278 327
#     4  10  19  34  54  76 106 146 188 231 275 321
#
# _framework density 17.842768
#
# number of rings (size 3 to 8) (size 9 to 14) (size 15 to 20)
#    0.000    2.000    1.667    4.000    0.000    1.333 
#    0.000    5.833    0.000    2.000    0.000    0.000 
#    0.000    0.000    0.000    0.000    0.000    0.000 
#
# Total GULP energy -267978.832136 kJ/mol
# GULP energy per Si atom -5582.892336 kJ/mol
# Density = 1.780216 g / cm^3
# Si number density = 17.842768 Si / 1000 Ang^3
#
#
#
# Elastic Constant Matrix: (Units=GPa)
#
#
# Indices 1 2 3 4 5 6 
#
# 1 160.8339 66.2878 33.8166 0.0000 0.0000 0.0000
# 2 66.2878 116.6170 34.7083 0.0000 0.0000 0.0000
# 3 33.8166 34.7083 52.3372 0.0000 0.0000 0.0000
# 4 0.0000 0.0000 0.0000 27.7385 0.0000 0.0000
# 5 0.0000 0.0000 0.0000 0.0000 13.2780 0.0000
# 6 0.0000 0.0000 0.0000 0.0000 0.0000 15.3873
#
#
#
# Elastic Compliance Matrix: (Units=1/GPa)
#
#
# Indices 1 2 3 4 5 6 
#
# 1 0.008444 -0.003957 -0.002832 0.000000 0.000000 0.000000
# 2 -0.003957 0.012538 -0.005758 0.000000 0.000000 0.000000
# 3 -0.002832 -0.005758 0.024755 0.000000 0.000000 0.000000
# 4 0.000000 0.000000 0.000000 0.036051 0.000000 0.000000
# 5 0.000000 0.000000 0.000000 0.000000 0.075313 0.000000
# 6 0.000000 0.000000 0.000000 0.000000 0.000000 0.064989
#
#
# Mechanical properties :
#
#
# Convention : Reuss Voigt Hill
#
# Bulk Modulus (GPa) = 48.44143 66.60149 57.52146
# Shear Modulus (GPa) = 19.68007 24.27911 21.97959
#
# Velocity S-wave (km/s) = 3.32470 3.69280 3.51358
# Velocity P-wave (km/s) = 6.47659 7.45589 6.98343
#
# Compressibility (1/GPa) = 0.02064349
#
# Stress axis : x y z
#
# Youngs Moduli (GPa) = 118.42993 79.75734 40.39562
#
# Poissons Ratio (x) = 0.31559 0.11439
# Poissons Ratio (y) = 0.46861 0.23260
# Poissons Ratio (z) = 0.33536 0.45926
#
# Static dielectric constant tensor:
#      x y z
#    x 1.612120 0.000000 0.000000 
#    y 0.000000 1.594850 0.000000 
#    z 0.000000 0.000000 1.599670 
# 
# From -- ./inp_files/1989.got.cif
#   From: 2010.05.17/outbox.cif.g08.bks.cpg/sg57_1_cif.got.tgz:1989.got - 2010.06.03 13:58:18.
