data_PCOD9435475
_publ_section_title
;
Structure prediction by ZEFSAII (Michael W. Deem and Ramdas Pophale) SiO2 
 PCOD9435475
Probable space group: P B C M
;
_chemical_formula_sum "Si O2"
_cell_formula_units_Z 64
_cell_length_a 12.475907
_cell_length_b 28.077471
_cell_length_c 9.367007
_cell_angle_alpha 90.000000
_cell_angle_beta 90.000000
_cell_angle_gamma 90.000000
_cell_volume 3281.186838
_symmetry_space_group_name_H-M "P B C M"
_symmetry_group_IT_number 57
_symmetry_cell_setting 'orthorhombic'
loop_
_space_group_symop_operation_xyz
x,y,z
-x,-y,1/2+z
x,1/2-y,-z
-x,1/2+y,1/2-z
-x,-y,-z
x,y,1/2-z
-x,1/2+y,z
x,1/2-y,1/2+z
loop_
_atom_site_type_symbol
_atom_site_label
_atom_site_fract_x
_atom_site_fract_y
_atom_site_fract_z
Si Si1 0.454959 0.298306 0.919875
Si Si2 0.813762 0.557499 0.420313
Si Si3 0.026140 0.566566 0.587717
Si Si4 0.377231 0.877226 0.581498
Si Si5 0.214526 0.332015 0.918803
Si Si6 0.730600 0.040018 0.578826
Si Si7 0.994078 0.680662 0.587035
Si Si8 0.794058 0.294478 0.582002
O O1 0.474918 0.292601 0.750000
O O2 0.522644 0.344713 0.965723
O O3 0.329414 0.308560 0.942107
O O4 0.484796 0.250000 0.000000
O O5 0.826633 0.554701 0.250000
O O6 0.929373 0.548003 0.490941
O O7 0.778975 0.611385 0.453992
O O8 0.730892 0.515869 0.460947
O O9 0.014356 0.548426 0.750000
O O10 0.009816 0.623523 0.590804
O O11 0.147642 0.556430 0.541414
O O12 0.389333 0.887405 0.750000
O O13 0.352681 0.925510 0.498044
O O14 0.275627 0.841962 0.562754
O O15 0.187271 0.328289 0.750000
O O16 0.120206 0.310346 0.014164
O O17 0.719018 0.044768 0.750000
O O18 0.999549 0.698459 0.750000
O O19 0.090454 0.698758 0.489564
O O20 0.742129 0.250000 0.500000
O O21 0.801515 0.284795 0.750000
#
# Coordination Sequence:
#
# PCOD9435475 Si02
#       8
#     8   8   8   8   8   8   8   8
#     4  10  22  41  63  84 106 138 184 235 283 331
#     4   9  18  31  51  79 110 148 188 225 269 323
#     4   9  17  29  47  74 109 146 182 222 265 313
#     4  10  22  38  56  80 108 142 183 227 277 331
#     4   9  19  37  58  80 112 147 184 230 278 328
#     4  10  19  32  51  78 112 148 186 224 271 324
#     4  10  19  33  53  79 112 144 177 219 270 327
#     4  11  22  35  53  77 106 139 177 220 275 338
#
# _framework density 19.505137999999999
#
# number of rings (size 3 to 8) (size 9 to 14) (size 15 to 20)
#    0.000    2.250    1.250    1.500    0.000    3.500 
#    0.000    1.875    0.000    0.000    0.000    0.000 
#    0.000    0.000    0.000    0.000    0.000    0.000 
#
# Total GULP energy -357262.719274 kJ/mol
# GULP energy per Si atom -5582.229989 kJ/mol
# Density = 1.946074 g / cm^3
# Si number density = 19.505138 Si / 1000 Ang^3
#
#
#
# Elastic Constant Matrix: (Units=GPa)
#
#
# Indices 1 2 3 4 5 6 
#
# 1 56.2211 -0.7150 25.4977 0.0000 0.0000 0.0000
# 2 -0.7150 48.8396 17.4529 0.0000 0.0000 0.0000
# 3 25.4977 17.4529 47.2457 0.0000 0.0000 0.0000
# 4 0.0000 0.0000 0.0000 28.3826 0.0000 0.0000
# 5 0.0000 0.0000 0.0000 0.0000 17.3512 0.0000
# 6 0.0000 0.0000 0.0000 0.0000 0.0000 11.5681
#
#
#
# Elastic Compliance Matrix: (Units=1/GPa)
#
#
# Indices 1 2 3 4 5 6 
#
# 1 0.024976 0.005971 -0.015685 0.000000 0.000000 0.000000
# 2 0.005971 0.025016 -0.012464 0.000000 0.000000 0.000000
# 3 -0.015685 -0.012464 0.034235 0.000000 0.000000 0.000000
# 4 0.000000 0.000000 0.000000 0.035233 0.000000 0.000000
# 5 0.000000 0.000000 0.000000 0.000000 0.057633 0.000000
# 6 0.000000 0.000000 0.000000 0.000000 0.000000 0.086445
#
#
# Mechanical properties :
#
#
# Convention : Reuss Voigt Hill
#
# Bulk Modulus (GPa) = 25.08010 26.30860 25.69435
# Shear Modulus (GPa) = 15.56736 18.79841 17.18288
#
# Velocity S-wave (km/s) = 2.82816 3.10783 2.97129
# Velocity P-wave (km/s) = 4.85291 5.13765 4.99731
#
# Compressibility (1/GPa) = 0.03987225
#
# Stress axis : x y z
#
# Youngs Moduli (GPa) = 40.03785 39.97373 29.20994
#
# Poissons Ratio (x) = -0.23867 0.45816
# Poissons Ratio (y) = -0.23905 0.36406
# Poissons Ratio (z) = 0.62799 0.49821
#
# Static dielectric constant tensor:
#      x y z
#    x 1.665310 0.000000 0.000000 
#    y 0.000000 1.736380 0.000000 
#    z 0.000000 0.000000 1.660600 
# 
# From -- ./inp_files/3837.got.cif
#   From: 2010.05.17/outbox.cif.g08.bks.cpg/sg57_2_cif.got.tgz:3837.got - 2010.06.03 13:58:18.
