data_PCOD9435536
_publ_section_title
;
Structure prediction by ZEFSAII (Michael W. Deem and Ramdas Pophale) SiO2 
 PCOD9435536
Probable space group: P B C M
;
_chemical_formula_sum "Si O2"
_cell_formula_units_Z 64
_cell_length_a 7.574094
_cell_length_b 31.290550
_cell_length_c 11.855731
_cell_angle_alpha 90.000000
_cell_angle_beta 90.000000
_cell_angle_gamma 90.000000
_cell_volume 2809.779402
_symmetry_space_group_name_H-M "P B C M"
_symmetry_group_IT_number 57
_symmetry_cell_setting 'orthorhombic'
loop_
_space_group_symop_operation_xyz
x,y,z
-x,-y,1/2+z
x,1/2-y,-z
-x,1/2+y,1/2-z
-x,-y,-z
x,y,1/2-z
-x,1/2+y,z
x,1/2-y,1/2+z
loop_
_atom_site_type_symbol
_atom_site_label
_atom_site_fract_x
_atom_site_fract_y
_atom_site_fract_z
Si Si1 0.978727 0.093472 0.945347
Si Si2 0.340331 0.744355 0.123695
Si Si3 0.950764 0.769594 0.123846
Si Si4 0.712340 0.853478 0.130372
Si Si5 0.353789 0.546317 0.873211
Si Si6 0.164074 0.456194 0.873519
Si Si7 0.468666 0.398843 0.556411
Si Si8 0.192772 0.852109 0.628982
O O1 0.150637 0.107105 0.877660
O O2 0.810362 0.079278 0.875655
O O3 0.027218 0.054719 0.029023
O O4 0.928331 0.133133 0.026441
O O5 0.425969 0.750140 0.250000
O O6 0.262798 0.696128 0.122332
O O7 0.164507 0.774115 0.122174
O O8 0.432204 0.750000 0.000000
O O9 0.918191 0.748346 0.250000
O O10 0.833623 0.811899 0.127225
O O11 0.910199 0.750000 0.000000
O O12 0.614577 0.854315 0.250000
O O13 0.587489 0.859462 0.023767
O O14 0.439997 0.546726 0.750000
O O15 0.272319 0.499618 0.891358
O O16 0.477607 0.563045 0.971627
O O17 0.079538 0.459157 0.750000
O O18 0.303162 0.416937 0.876453
O O19 0.638385 0.383447 0.623471
O O20 0.101392 0.857346 0.750000
#
# Coordination Sequence:
#
# PCOD9435536 Si02
#       8
#     8   8   8   8   8   8   8   8
#     4  10  19  32  53  80 106 134 174 222 271 312
#     4   9  17  31  52  78 105 134 170 214 265 319
#     4   9  17  31  52  78 105 134 170 214 265 319
#     4  10  20  35  55  79 108 140 177 220 265 317
#     4  10  20  34  52  75 104 138 176 218 264 314
#     4  10  20  34  52  75 104 138 176 218 264 314
#     4  10  21  36  53  74 104 142 180 214 259 314
#     4  10  20  35  55  79 108 140 177 220 265 317
#
# _framework density 22.777588999999999
#
# number of rings (size 3 to 8) (size 9 to 14) (size 15 to 20)
#    0.000    2.250    0.000    3.750    0.000    0.000 
#    0.000    6.875    0.000   15.000    0.000    0.000 
#    0.000    0.000    0.000    0.000    0.000    0.000 
#
# Total GULP energy -356974.752203 kJ/mol
# GULP energy per Si atom -5577.730503 kJ/mol
# Density = 2.272575 g / cm^3
# Si number density = 22.777589 Si / 1000 Ang^3
#
#
#
# Elastic Constant Matrix: (Units=GPa)
#
#
# Indices 1 2 3 4 5 6 
#
# 1 22.3332 -7.3512 9.6847 0.0000 0.0000 0.0000
# 2 -7.3512 37.9242 25.5247 0.0000 0.0000 0.0000
# 3 9.6847 25.5247 173.5365 0.0000 0.0000 0.0000
# 4 0.0000 0.0000 0.0000 -7.6468 0.0000 0.0000
# 5 0.0000 0.0000 0.0000 0.0000 -15.4785 0.0000
# 6 0.0000 0.0000 0.0000 0.0000 0.0000 27.9210
#
#
#
# Elastic Compliance Matrix: (Units=1/GPa)
#
#
# Indices 1 2 3 4 5 6 
#
# 1 0.051180 0.013144 -0.004790 0.000000 0.000000 0.000000
# 2 0.013144 0.032641 -0.005535 0.000000 0.000000 0.000000
# 3 -0.004790 -0.005535 0.006844 0.000000 0.000000 0.000000
# 4 0.000000 0.000000 0.000000 -0.130774 0.000000 0.000000
# 5 0.000000 0.000000 0.000000 0.000000 -0.064606 0.000000
# 6 0.000000 0.000000 0.000000 0.000000 0.000000 0.035815
#
#
# Mechanical properties :
#
#
# Convention : Reuss Voigt Hill
#
# Bulk Modulus (GPa) = 10.38364 32.16780 21.27572
# Shear Modulus (GPa) = -117.82012 14.68819 -51.56597
#
# Velocity S-wave (km/s) = -7.19990 2.54215 -4.76320
# Velocity P-wave (km/s) = 8.03427 4.77178 4.57054
#
# Compressibility (1/GPa) = 0.09630538
#
# Stress axis : x y z
#
# Youngs Moduli (GPa) = 19.53890 30.63599 146.11694
#
# Poissons Ratio (x) = -0.40269 0.69984
# Poissons Ratio (y) = -0.25683 0.80870
# Poissons Ratio (z) = 0.09358 0.16956
#
# Static dielectric constant tensor:
#      x y z
#    x 1.786410 0.000000 0.000000 
#    y 0.000000 1.841180 0.000000 
#    z 0.000000 0.000000 1.904890 
# 
# From -- ./inp_files/12297.got.cif
#   From: 2010.05.17/outbox.cif.g08.bks.cpg/sg57_7_cif.got.tgz:12297.got - 2010.06.03 13:58:18.
