data_PCOD9435222
_publ_section_title
;
Structure prediction by ZEFSAII (Michael W. Deem and Ramdas Pophale) SiO2 
 PCOD9435222
Probable space group: P B C M
;
_chemical_formula_sum "Si O2"
_cell_formula_units_Z 56
_cell_length_a 20.068064
_cell_length_b 18.332317
_cell_length_c 8.896273
_cell_angle_alpha 90.000000
_cell_angle_beta 90.000000
_cell_angle_gamma 90.000000
_cell_volume 3272.886445
_symmetry_space_group_name_H-M "P B C M"
_symmetry_group_IT_number 57
_symmetry_cell_setting 'orthorhombic'
loop_
_space_group_symop_operation_xyz
x,y,z
-x,-y,1/2+z
x,1/2-y,-z
-x,1/2+y,1/2-z
-x,-y,-z
x,y,1/2-z
-x,1/2+y,z
x,1/2-y,1/2+z
loop_
_atom_site_type_symbol
_atom_site_label
_atom_site_fract_x
_atom_site_fract_y
_atom_site_fract_z
Si Si1 0.046437 0.562990 0.569340
Si Si2 0.291157 0.517554 0.568435
Si Si3 0.564585 0.535114 0.425350
Si Si4 0.655809 0.328832 0.429655
Si Si5 0.485666 0.674139 0.425864
Si Si6 0.844295 0.529295 0.930270
Si Si7 0.066261 0.329721 0.069373
O O1 0.048590 0.557413 0.750000
O O2 0.117091 0.540505 0.500697
O O3 0.000000 0.500000 0.500000
O O4 0.007388 0.637674 0.531274
O O5 0.285581 0.509483 0.750000
O O6 0.362787 0.485997 0.517636
O O7 0.295022 0.604301 0.534501
O O8 0.230583 0.476923 0.489313
O O9 0.500000 0.500000 0.500000
O O10 0.563651 0.514124 0.250000
O O11 0.547263 0.619947 0.439276
O O12 0.672256 0.250000 0.500000
O O13 0.652065 0.321980 0.250000
O O14 0.582378 0.350305 0.491463
O O15 0.503258 0.750000 0.500000
O O16 0.469284 0.681999 0.250000
O O17 0.847884 0.525177 0.750000
O O18 0.881623 0.605394 0.974898
O O19 0.069971 0.323637 0.250000
O O20 0.077793 0.250000 0.000000
#
# Coordination Sequence:
#
# PCOD9435222 Si02
#       7
#     8   8   8   8   8   8   8
#     4   9  17  32  54  80 108 137 173 214 254 303
#     4  10  21  36  53  75 105 143 180 221 274 327
#     4  10  20  34  52  75 101 132 175 224 273 323
#     4  10  19  32  51  73  99 129 167 215 268 325
#     4  10  19  31  50  73  98 129 166 214 271 324
#     4  10  21  36  54  80 110 143 184 223 263 317
#     4   9  19  34  55  84 112 140 177 216 257 306
#
# _framework density 17.110278000000001
#
# number of rings (size 3 to 8) (size 9 to 14) (size 15 to 20)
#    0.000    2.286    1.429    3.429    0.000    5.714 
#    0.000    1.429    0.000    3.429    0.000    0.000 
#    0.000    0.000    0.000    0.000    0.000    0.000 
#
# Total GULP energy -311895.396071 kJ/mol
# GULP energy per Si atom -5569.560644 kJ/mol
# Density = 1.707133 g / cm^3
# Si number density = 17.110278 Si / 1000 Ang^3
#
#
#
# Elastic Constant Matrix: (Units=GPa)
#
#
# Indices 1 2 3 4 5 6 
#
# 1 115.1518 56.9957 36.0761 0.0000 0.0000 0.0000
# 2 56.9957 103.9088 44.5430 0.0000 0.0000 0.0000
# 3 36.0761 44.5430 51.0822 0.0000 0.0000 0.0000
# 4 0.0000 0.0000 0.0000 22.9303 0.0000 0.0000
# 5 0.0000 0.0000 0.0000 0.0000 28.2878 0.0000
# 6 0.0000 0.0000 0.0000 0.0000 0.0000 25.0109
#
#
#
# Elastic Compliance Matrix: (Units=1/GPa)
#
#
# Indices 1 2 3 4 5 6 
#
# 1 0.012555 -0.004928 -0.004570 0.000000 0.000000 0.000000
# 2 -0.004928 0.017302 -0.011608 0.000000 0.000000 0.000000
# 3 -0.004570 -0.011608 0.032925 0.000000 0.000000 0.000000
# 4 0.000000 0.000000 0.000000 0.043610 0.000000 0.000000
# 5 0.000000 0.000000 0.000000 0.000000 0.035351 0.000000
# 6 0.000000 0.000000 0.000000 0.000000 0.000000 0.039983
#
#
# Mechanical properties :
#
#
# Convention : Reuss Voigt Hill
#
# Bulk Modulus (GPa) = 48.60816 60.59692 54.60254
# Shear Modulus (GPa) = 21.66433 24.08103 22.87268
#
# Velocity S-wave (km/s) = 3.56217 3.75560 3.66017
# Velocity P-wave (km/s) = 6.73715 7.36875 7.06002
#
# Compressibility (1/GPa) = 0.02057268
#
# Stress axis : x y z
#
# Youngs Moduli (GPa) = 79.65048 57.79515 30.37170
#
# Poissons Ratio (x) = 0.28479 0.13880
# Poissons Ratio (y) = 0.39248 0.35254
# Poissons Ratio (z) = 0.36400 0.67086
#
# Static dielectric constant tensor:
#      x y z
#    x 1.773700 0.000000 0.000000 
#    y 0.000000 1.624550 0.000000 
#    z 0.000000 0.000000 1.581930 
# 
# From -- ./inp_files/8310.got.cif
#   From: 2010.05.17/outbox.cif.g08.bks.cpg/sg57_5_cif.got.tgz:8310.got - 2010.06.03 13:58:18.
