data_PCOD9435566
_publ_section_title
;
Structure prediction by ZEFSAII (Michael W. Deem and Ramdas Pophale) SiO2 
 PCOD9435566
Probable space group: P B C M
;
_chemical_formula_sum "Si O2"
_cell_formula_units_Z 48
_cell_length_a 21.421061
_cell_length_b 14.170079
_cell_length_c 8.595311
_cell_angle_alpha 90.000000
_cell_angle_beta 90.000000
_cell_angle_gamma 90.000000
_cell_volume 2609.004599
_symmetry_space_group_name_H-M "P B C M"
_symmetry_group_IT_number 57
_symmetry_cell_setting 'orthorhombic'
loop_
_space_group_symop_operation_xyz
x,y,z
-x,-y,1/2+z
x,1/2-y,-z
-x,1/2+y,1/2-z
-x,-y,-z
x,y,1/2-z
-x,1/2+y,z
x,1/2-y,1/2+z
loop_
_atom_site_type_symbol
_atom_site_label
_atom_site_fract_x
_atom_site_fract_y
_atom_site_fract_z
Si Si1 0.779229 0.143742 0.437884
Si Si2 0.968312 0.646663 0.936226
Si Si3 0.653780 0.034786 0.436742
Si Si4 0.399459 0.144653 0.064413
Si Si5 0.908374 0.048591 0.061872
Si Si6 0.534366 0.144332 0.563920
O O1 0.779557 0.250000 0.500000
O O2 0.779641 0.147146 0.250000
O O3 0.841345 0.087839 0.488152
O O4 0.716488 0.088932 0.485314
O O5 0.969081 0.650986 0.750000
O O6 0.922962 0.559853 0.983936
O O7 0.952368 0.750000 0.000000
O O8 0.036458 0.613893 0.995469
O O9 0.649010 0.037683 0.250000
O O10 0.650422 0.927577 0.494941
O O11 0.593627 0.085176 0.510125
O O12 0.398062 0.144837 0.250000
O O13 0.390878 0.250000 0.000000
O O14 0.468404 0.112287 0.007949
O O15 0.911527 0.052812 0.250000
O O16 0.543721 0.250000 0.500000
O O17 0.529097 0.144633 0.750000
#
# Coordination Sequence:
#
# PCOD9435566 Si02
#       6
#     8   8   8   8   8   8
#     4  10  22  38  57  79 108 143 178 218 263 315
#     4  10  19  32  54  82 112 143 179 223 268 314
#     4  11  22  37  55  78 108 142 179 220 267 319
#     4  11  22  38  58  80 105 137 177 222 272 323
#     4   9  19  36  55  79 110 145 183 221 265 315
#     4  11  21  35  55  81 110 140 176 221 272 323
#
# _framework density 18.397819999999999
#
# number of rings (size 3 to 8) (size 9 to 14) (size 15 to 20)
#    0.000    1.667    0.000    6.500    0.000    5.333 
#    0.000    0.833    0.000    2.000    0.000    0.000 
#    0.000    0.000    0.000    0.000    0.000    0.000 
#
# Total GULP energy -268185.861938 kJ/mol
# GULP energy per Si atom -5587.205457 kJ/mol
# Density = 1.835595 g / cm^3
# Si number density = 18.397820 Si / 1000 Ang^3
#
#
#
# Elastic Constant Matrix: (Units=GPa)
#
#
# Indices 1 2 3 4 5 6 
#
# 1 110.5420 90.2821 23.5851 0.0000 0.0000 0.0000
# 2 90.2821 141.4359 25.3262 0.0000 0.0000 0.0000
# 3 23.5851 25.3262 64.6521 0.0000 0.0000 0.0000
# 4 0.0000 0.0000 0.0000 33.5046 0.0000 0.0000
# 5 0.0000 0.0000 0.0000 0.0000 20.0312 0.0000
# 6 0.0000 0.0000 0.0000 0.0000 0.0000 26.9759
#
#
#
# Elastic Compliance Matrix: (Units=1/GPa)
#
#
# Indices 1 2 3 4 5 6 
#
# 1 0.019232 -0.011851 -0.002373 0.000000 0.000000 0.000000
# 2 -0.011851 0.014907 -0.001516 0.000000 0.000000 0.000000
# 3 -0.002373 -0.001516 0.016927 0.000000 0.000000 0.000000
# 4 0.000000 0.000000 0.000000 0.029847 0.000000 0.000000
# 5 0.000000 0.000000 0.000000 0.000000 0.049922 0.000000
# 6 0.000000 0.000000 0.000000 0.000000 0.000000 0.037070
#
#
# Mechanical properties :
#
#
# Convention : Reuss Voigt Hill
#
# Bulk Modulus (GPa) = 51.06091 66.11297 58.58694
# Shear Modulus (GPa) = 24.28201 27.93146 26.10674
#
# Velocity S-wave (km/s) = 3.63689 3.90063 3.77107
# Velocity P-wave (km/s) = 6.74166 7.50332 7.13266
#
# Compressibility (1/GPa) = 0.01958445
#
# Stress axis : x y z
#
# Youngs Moduli (GPa) = 51.99716 67.08384 59.07696
#
# Poissons Ratio (x) = 0.79502 0.14021
# Poissons Ratio (y) = 0.61623 0.08957
# Poissons Ratio (z) = 0.12341 0.10171
#
# Static dielectric constant tensor:
#      x y z
#    x 1.615450 0.000000 0.000000 
#    y 0.000000 1.637370 0.000000 
#    z 0.000000 0.000000 1.613140 
# 
# From -- ./inp_files/6553.got.cif
#   From: 2010.05.17/outbox.cif.g08.bks.cpg/sg57_4_cif.got.tgz:6553.got - 2010.06.03 13:58:18.
