data_PCOD9435928
_publ_section_title
;
Structure prediction by ZEFSAII (Michael W. Deem and Ramdas Pophale) SiO2 
 PCOD9435928
Probable space group: P B C M
;
_chemical_formula_sum "Si O2"
_cell_formula_units_Z 64
_cell_length_a 22.174251
_cell_length_b 19.740016
_cell_length_c 8.997898
_cell_angle_alpha 90.000000
_cell_angle_beta 90.000000
_cell_angle_gamma 90.000000
_cell_volume 3938.560538
_symmetry_space_group_name_H-M "P B C M"
_symmetry_group_IT_number 57
_symmetry_cell_setting 'orthorhombic'
loop_
_space_group_symop_operation_xyz
x,y,z
-x,-y,1/2+z
x,1/2-y,-z
-x,1/2+y,1/2-z
-x,-y,-z
x,y,1/2-z
-x,1/2+y,z
x,1/2-y,1/2+z
loop_
_atom_site_type_symbol
_atom_site_label
_atom_site_fract_x
_atom_site_fract_y
_atom_site_fract_z
Si Si1 0.629092 0.177924 0.071348
Si Si2 0.944449 0.958603 0.571513
Si Si3 0.177459 0.539833 0.571175
Si Si4 0.517652 0.107658 0.579218
Si Si5 0.694998 0.462724 0.927485
Si Si6 0.412610 0.036985 0.420399
Si Si7 0.122369 0.680635 0.927018
Si Si8 0.979609 0.678841 0.571983
O O1 0.627706 0.183443 0.250000
O O2 0.672308 0.113840 0.031195
O O3 0.646838 0.250000 0.000000
O O4 0.563173 0.156364 0.009249
O O5 0.951859 0.958091 0.750000
O O6 0.946750 0.883821 0.503921
O O7 0.880579 0.993767 0.537213
O O8 0.000000 0.000000 0.500000
O O9 0.185348 0.539099 0.750000
O O10 0.239576 0.522122 0.493048
O O11 0.159258 0.615671 0.523401
O O12 0.510674 0.129980 0.750000
O O13 0.454218 0.092932 0.499506
O O14 0.549827 0.033734 0.582000
O O15 0.695025 0.465807 0.750000
O O16 0.647204 0.516319 0.991791
O O17 0.400038 0.055525 0.250000
O O18 0.127350 0.686227 0.750000
O O19 0.051354 0.670350 0.960067
O O20 0.142856 0.750000 0.000000
O O21 0.961193 0.750000 0.500000
O O22 0.972066 0.679055 0.750000
#
# Coordination Sequence:
#
# PCOD9435928 Si02
#       8
#     8   8   8   8   8   8   8   8
#     4  10  20  33  48  69 100 136 174 211 247 292
#     4  11  21  35  54  77 104 135 170 218 273 324
#     4  10  21  36  50  69 100 135 174 216 264 317
#     4   9  16  27  46  71  96 123 158 200 242 283
#     4  10  21  34  48  69  96 130 173 213 251 299
#     4   9  16  28  47  69  94 124 156 196 246 289
#     4   9  18  32  47  67  95 128 165 206 250 304
#     4  10  19  34  53  77 103 130 164 205 258 318
#
# _framework density 16.249592
#
# number of rings (size 3 to 8) (size 9 to 14) (size 15 to 20)
#    0.000    2.250    1.250    2.250    0.000    7.000 
#    0.000    2.500    0.000    0.000    0.000    0.875 
#    0.000    4.000    0.000    0.000    0.000    0.000 
#
# Total GULP energy -356944.814999 kJ/mol
# GULP energy per Si atom -5577.262734 kJ/mol
# Density = 1.621261 g / cm^3
# Si number density = 16.249592 Si / 1000 Ang^3
#
#
#
# Elastic Constant Matrix: (Units=GPa)
#
#
# Indices 1 2 3 4 5 6 
#
# 1 111.1971 41.8681 52.5724 0.0000 0.0000 0.0000
# 2 41.8681 53.0708 28.5730 0.0000 0.0000 0.0000
# 3 52.5724 28.5730 67.8896 0.0000 0.0000 0.0000
# 4 0.0000 0.0000 0.0000 27.0625 0.0000 0.0000
# 5 0.0000 0.0000 0.0000 0.0000 25.3807 0.0000
# 6 0.0000 0.0000 0.0000 0.0000 0.0000 15.2605
#
#
#
# Elastic Compliance Matrix: (Units=1/GPa)
#
#
# Indices 1 2 3 4 5 6 
#
# 1 0.016396 -0.007886 -0.009378 0.000000 0.000000 0.000000
# 2 -0.007886 0.028156 -0.005743 0.000000 0.000000 0.000000
# 3 -0.009378 -0.005743 0.024409 0.000000 0.000000 0.000000
# 4 0.000000 0.000000 0.000000 0.036952 0.000000 0.000000
# 5 0.000000 0.000000 0.000000 0.000000 0.039400 0.000000
# 6 0.000000 0.000000 0.000000 0.000000 0.000000 0.065529
#
#
# Mechanical properties :
#
#
# Convention : Reuss Voigt Hill
#
# Bulk Modulus (GPa) = 43.57886 53.13160 48.35523
# Shear Modulus (GPa) = 18.90323 20.81700 19.86011
#
# Velocity S-wave (km/s) = 3.41443 3.58310 3.49978
# Velocity P-wave (km/s) = 6.51315 7.06302 6.79365
#
# Compressibility (1/GPa) = 0.02294690
#
# Stress axis : x y z
#
# Youngs Moduli (GPa) = 60.99064 35.51586 40.96851
#
# Poissons Ratio (x) = 0.28008 0.38419
# Poissons Ratio (y) = 0.48098 0.23530
# Poissons Ratio (z) = 0.57195 0.20398
#
# Static dielectric constant tensor:
#      x y z
#    x 1.539880 0.000000 0.000000 
#    y 0.000000 1.538480 0.000000 
#    z 0.000000 0.000000 1.569080 
# 
# From -- ./inp_files/8777.got.cif
#   From: 2010.05.17/outbox.cif.g08.bks.cpg/sg57_5_cif.got.tgz:8777.got - 2010.06.03 13:58:18.
