data_PCOD9435657
_publ_section_title
;
Structure prediction by ZEFSAII (Michael W. Deem and Ramdas Pophale) SiO2 
 PCOD9435657
Probable space group: P B C M
;
_chemical_formula_sum "Si O2"
_cell_formula_units_Z 48
_cell_length_a 32.301762
_cell_length_b 9.605616
_cell_length_c 8.599387
_cell_angle_alpha 90.000000
_cell_angle_beta 90.000000
_cell_angle_gamma 90.000000
_cell_volume 2668.203368
_symmetry_space_group_name_H-M "P B C M"
_symmetry_group_IT_number 57
_symmetry_cell_setting 'orthorhombic'
loop_
_space_group_symop_operation_xyz
x,y,z
-x,-y,1/2+z
x,1/2-y,-z
-x,1/2+y,1/2-z
-x,-y,-z
x,y,1/2-z
-x,1/2+y,z
x,1/2-y,1/2+z
loop_
_atom_site_type_symbol
_atom_site_label
_atom_site_fract_x
_atom_site_fract_y
_atom_site_fract_z
Si Si1 0.293394 0.593720 0.063134
Si Si2 0.218625 0.408348 0.562601
Si Si3 0.037202 0.092351 0.436896
Si Si4 0.127609 0.092786 0.062931
Si Si5 0.629691 0.594300 0.562471
Si Si6 0.536442 0.594839 0.563763
O O1 0.292875 0.596861 0.250000
O O2 0.334916 0.512167 0.011229
O O3 0.292533 0.750000 0.000000
O O4 0.254332 0.505430 0.003830
O O5 0.222931 0.250000 0.500000
O O6 0.221096 0.404522 0.750000
O O7 0.172643 0.463927 0.515822
O O8 0.033921 0.250000 0.500000
O O9 0.035512 0.096071 0.250000
O O10 0.082820 0.033758 0.484998
O O11 0.000000 0.000000 0.500000
O O12 0.127628 0.095891 0.250000
O O13 0.127430 0.250000 0.000000
O O14 0.637414 0.750000 0.500000
O O15 0.630693 0.601107 0.750000
O O16 0.583094 0.550664 0.515756
O O17 0.530850 0.750000 0.500000
O O18 0.500000 0.500000 0.500000
O O19 0.534927 0.595868 0.750000
#
# Coordination Sequence:
#
# PCOD9435657 Si02
#       6
#     8   8   8   8   8   8
#     4  11  23  38  54  77 107 140 174 214 262 312
#     4  10  19  34  56  81 105 134 171 213 257 308
#     4  10  19  33  52  76 104 136 172 213 257 306
#     4   8  16  30  50  74 101 131 168 210 254 302
#     4   9  20  37  57  79 105 137 177 217 258 307
#     4  10  20  36  56  81 110 142 177 217 261 309
#
# _framework density 17.989633000000001
#
# number of rings (size 3 to 8) (size 9 to 14) (size 15 to 20)
#    0.000    2.333    0.000    2.500    0.000    5.333 
#    0.000    2.500    0.000    0.000    0.000    0.000 
#    0.000    0.000    0.000    0.000    0.000    0.000 
#
# Total GULP energy -267619.152763 kJ/mol
# GULP energy per Si atom -5575.399016 kJ/mol
# Density = 1.794869 g / cm^3
# Si number density = 17.989633 Si / 1000 Ang^3
#
#
#
# Elastic Constant Matrix: (Units=GPa)
#
#
# Indices 1 2 3 4 5 6 
#
# 1 227.8009 108.5224 51.9208 0.0000 0.0000 0.0000
# 2 108.5224 90.5313 29.8739 0.0000 0.0000 0.0000
# 3 51.9208 29.8739 43.9558 0.0000 0.0000 0.0000
# 4 0.0000 0.0000 0.0000 30.6178 0.0000 0.0000
# 5 0.0000 0.0000 0.0000 0.0000 26.5072 0.0000
# 6 0.0000 0.0000 0.0000 0.0000 0.0000 31.3217
#
#
#
# Elastic Compliance Matrix: (Units=1/GPa)
#
#
# Indices 1 2 3 4 5 6 
#
# 1 0.011099 -0.011574 -0.005244 0.000000 0.000000 0.000000
# 2 -0.011574 0.026309 -0.004209 0.000000 0.000000 0.000000
# 3 -0.005244 -0.004209 0.031805 0.000000 0.000000 0.000000
# 4 0.000000 0.000000 0.000000 0.032661 0.000000 0.000000
# 5 0.000000 0.000000 0.000000 0.000000 0.037726 0.000000
# 6 0.000000 0.000000 0.000000 0.000000 0.000000 0.031927
#
#
# Mechanical properties :
#
#
# Convention : Reuss Voigt Hill
#
# Bulk Modulus (GPa) = 36.82083 82.54691 59.68387
# Shear Modulus (GPa) = 22.45855 29.15406 25.80631
#
# Velocity S-wave (km/s) = 3.53713 4.03004 3.79160
# Velocity P-wave (km/s) = 6.09868 8.22438 7.23997
#
# Compressibility (1/GPa) = 0.02715854
#
# Stress axis : x y z
#
# Youngs Moduli (GPa) = 90.10046 38.00994 31.44177
#
# Poissons Ratio (x) = 0.43993 0.16487
# Poissons Ratio (y) = 1.04282 0.13234
# Poissons Ratio (z) = 0.47247 0.15999
#
# Static dielectric constant tensor:
#      x y z
#    x 1.664750 0.000000 0.000000 
#    y 0.000000 1.560990 0.000000 
#    z 0.000000 0.000000 1.610280 
# 
# From -- ./inp_files/9920.got.cif
#   From: 2010.05.17/outbox.cif.g08.bks.cpg/sg57_5_cif.got.tgz:9920.got - 2010.06.03 13:58:18.
