data_PCOD9435379
_publ_section_title
;
Structure prediction by ZEFSAII (Michael W. Deem and Ramdas Pophale) SiO2 
 PCOD9435379
Probable space group: P B C M
;
_chemical_formula_sum "Si O2"
_cell_formula_units_Z 40
_cell_length_a 27.296127
_cell_length_b 9.284824
_cell_length_c 8.301355
_cell_angle_alpha 90.000000
_cell_angle_beta 90.000000
_cell_angle_gamma 90.000000
_cell_volume 2103.893212
_symmetry_space_group_name_H-M "P B C M"
_symmetry_group_IT_number 57
_symmetry_cell_setting 'orthorhombic'
loop_
_space_group_symop_operation_xyz
x,y,z
-x,-y,1/2+z
x,1/2-y,-z
-x,1/2+y,1/2-z
-x,-y,-z
x,y,1/2-z
-x,1/2+y,z
x,1/2-y,1/2+z
loop_
_atom_site_type_symbol
_atom_site_label
_atom_site_fract_x
_atom_site_fract_y
_atom_site_fract_z
Si Si1 0.952748 0.585235 0.942615
Si Si2 0.644043 0.414119 0.944886
Si Si3 0.739873 0.584242 0.945008
Si Si4 0.153306 0.416275 0.444409
Si Si5 0.547721 0.585727 0.942844
O O1 0.952436 0.583897 0.750000
O O2 0.899534 0.524323 0.999490
O O3 0.956050 0.750000 0.000000
O O4 0.000000 0.500000 0.000000
O O5 0.644196 0.416559 0.750000
O O6 0.694225 0.489537 0.001784
O O7 0.596890 0.504936 0.000761
O O8 0.640791 0.250000 0.000000
O O9 0.739431 0.584154 0.750000
O O10 0.793578 0.527037 0.999077
O O11 0.734619 0.750000 0.000000
O O12 0.153161 0.250000 0.500000
O O13 0.153394 0.421227 0.250000
O O14 0.548262 0.584868 0.750000
O O15 0.546595 0.750000 0.000000
O O16 0.500000 0.500000 0.000000
#
# Coordination Sequence:
#
# PCOD9435379 Si02
#       5
#     8   8   8   8   8
#     4  10  19  32  50  73 100 133 170 211 257 308
#     4  10  22  37  54  77 107 140 174 211 255 304
#     4   9  17  32  53  77 101 128 165 210 255 303
#     4   8  15  28  48  71  97 127 163 206 252 301
#     4  11  23  39  59  84 111 142 178 218 261 308
#
# _framework density 19.012371999999999
#
# number of rings (size 3 to 8) (size 9 to 14) (size 15 to 20)
#    0.000    2.400    0.000    2.400    0.000    4.800 
#    0.000    1.000    0.000    2.400    0.000    0.000 
#    0.000    0.000    0.000    0.000    0.000    0.000 
#
# Total GULP energy -223013.435523 kJ/mol
# GULP energy per Si atom -5575.335888 kJ/mol
# Density = 1.896910 g / cm^3
# Si number density = 19.012372 Si / 1000 Ang^3
#
#
#
# Elastic Constant Matrix: (Units=GPa)
#
#
# Indices 1 2 3 4 5 6 
#
# 1 255.3326 103.1618 30.2218 0.0000 0.0000 0.0000
# 2 103.1618 109.5390 12.4498 0.0000 0.0000 0.0000
# 3 30.2218 12.4498 18.5639 0.0000 0.0000 0.0000
# 4 0.0000 0.0000 0.0000 29.8293 0.0000 0.0000
# 5 0.0000 0.0000 0.0000 0.0000 21.0804 0.0000
# 6 0.0000 0.0000 0.0000 0.0000 0.0000 33.1312
#
#
#
# Elastic Compliance Matrix: (Units=1/GPa)
#
#
# Indices 1 2 3 4 5 6 
#
# 1 0.007235 -0.005926 -0.007803 0.000000 0.000000 0.000000
# 2 -0.005926 0.014737 -0.000235 0.000000 0.000000 0.000000
# 3 -0.007803 -0.000235 0.066729 0.000000 0.000000 0.000000
# 4 0.000000 0.000000 0.000000 0.033524 0.000000 0.000000
# 5 0.000000 0.000000 0.000000 0.000000 0.047437 0.000000
# 6 0.000000 0.000000 0.000000 0.000000 0.000000 0.030183
#
#
# Mechanical properties :
#
#
# Convention : Reuss Voigt Hill
#
# Bulk Modulus (GPa) = 16.45517 75.01138 45.73328
# Shear Modulus (GPa) = 20.15864 32.64831 26.40348
#
# Velocity S-wave (km/s) = 3.25974 4.14842 3.73064
# Velocity P-wave (km/s) = 4.77930 7.90478 6.53174
#
# Compressibility (1/GPa) = 0.06077116
#
# Stress axis : x y z
#
# Youngs Moduli (GPa) = 138.22596 67.85477 14.98595
#
# Poissons Ratio (x) = 0.40214 0.11694
# Poissons Ratio (y) = 0.81919 0.00353
# Poissons Ratio (z) = 1.07860 0.01597
#
# Static dielectric constant tensor:
#      x y z
#    x 1.726150 0.000000 0.000000 
#    y 0.000000 1.585010 0.000000 
#    z 0.000000 0.000000 1.669380 
# 
# From -- ./inp_files/8879.got.cif
#   From: 2010.05.17/outbox.cif.g08.bks.cpg/sg57_5_cif.got.tgz:8879.got - 2010.06.03 13:58:18.
