data_PCOD9435943
_publ_section_title
;
Structure prediction by ZEFSAII (Michael W. Deem and Ramdas Pophale) SiO2 
 PCOD9435943
Probable space group: P B C M
;
_chemical_formula_sum "Si O2"
_cell_formula_units_Z 64
_cell_length_a 23.087812
_cell_length_b 18.097651
_cell_length_c 8.643215
_cell_angle_alpha 90.000000
_cell_angle_beta 90.000000
_cell_angle_gamma 90.000000
_cell_volume 3611.439156
_symmetry_space_group_name_H-M "P B C M"
_symmetry_group_IT_number 57
_symmetry_cell_setting 'orthorhombic'
loop_
_space_group_symop_operation_xyz
x,y,z
-x,-y,1/2+z
x,1/2-y,-z
-x,1/2+y,1/2-z
-x,-y,-z
x,y,1/2-z
-x,1/2+y,z
x,1/2-y,1/2+z
loop_
_atom_site_type_symbol
_atom_site_label
_atom_site_fract_x
_atom_site_fract_y
_atom_site_fract_z
Si Si1 0.705233 0.327356 0.934457
Si Si2 0.037666 0.931959 0.935349
Si Si3 0.456795 0.326813 0.564247
Si Si4 0.258658 0.517715 0.935513
Si Si5 0.580326 0.130113 0.564155
Si Si6 0.384586 0.032723 0.062828
Si Si7 0.860494 0.532931 0.936266
Si Si8 0.944585 0.668812 0.564629
O O1 0.705040 0.326030 0.750000
O O2 0.728467 0.250000 0.000000
O O3 0.738688 0.399846 0.994304
O O4 0.639338 0.336291 0.996547
O O5 0.033184 0.928911 0.750000
O O6 0.102337 0.958955 0.975377
O O7 0.007210 0.860119 0.005669
O O8 0.000000 0.000000 0.000000
O O9 0.433268 0.250000 0.500000
O O10 0.457390 0.325914 0.750000
O O11 0.522170 0.336372 0.504020
O O12 0.418311 0.395546 0.507183
O O13 0.383770 0.463569 0.750000
O O14 0.318068 0.477281 0.987297
O O15 0.201973 0.474379 0.988468
O O16 0.581300 0.137972 0.750000
O O17 0.582716 0.043091 0.522773
O O18 0.260216 0.975980 0.250000
O O19 0.855298 0.535444 0.750000
O O20 0.897492 0.605812 0.983058
O O21 0.931730 0.750000 0.500000
O O22 0.945166 0.670547 0.750000
#
# Coordination Sequence:
#
# PCOD9435943 Si02
#       8
#     8   8   8   8   8   8   8   8
#     4  11  21  35  54  77 105 135 167 209 260 313
#     4   9  17  31  52  77 107 138 171 209 254 305
#     4  11  21  34  50  72 101 132 165 207 259 312
#     4  10  20  36  57  79 102 136 179 220 260 307
#     4  10  19  34  54  77 100 126 165 210 258 316
#     4   8  18  35  53  72  98 130 169 213 256 305
#     4   9  19  35  54  79 108 141 179 218 257 309
#     4  10  20  34  54  81 113 144 180 222 267 311
#
# _framework density 17.721468000000002
#
# number of rings (size 3 to 8) (size 9 to 14) (size 15 to 20)
#    0.000    2.250    0.000    5.250    0.000    3.000 
#    0.000    8.125    0.000    6.000    0.000    0.000 
#    0.000    0.000    0.000    0.000    0.000    0.000 
#
# Total GULP energy -356981.812274 kJ/mol
# GULP energy per Si atom -5577.840817 kJ/mol
# Density = 1.768113 g / cm^3
# Si number density = 17.721468 Si / 1000 Ang^3
#
#
#
# Elastic Constant Matrix: (Units=GPa)
#
#
# Indices 1 2 3 4 5 6 
#
# 1 65.8249 45.0793 23.2053 0.0000 0.0000 0.0000
# 2 45.0793 120.9103 34.7058 0.0000 0.0000 0.0000
# 3 23.2053 34.7058 65.5577 0.0000 0.0000 0.0000
# 4 0.0000 0.0000 0.0000 29.7118 0.0000 0.0000
# 5 0.0000 0.0000 0.0000 0.0000 25.4040 0.0000
# 6 0.0000 0.0000 0.0000 0.0000 0.0000 16.6636
#
#
#
# Elastic Compliance Matrix: (Units=1/GPa)
#
#
# Indices 1 2 3 4 5 6 
#
# 1 0.021221 -0.006787 -0.003919 0.000000 0.000000 0.000000
# 2 -0.006787 0.011923 -0.003910 0.000000 0.000000 0.000000
# 3 -0.003919 -0.003910 0.018711 0.000000 0.000000 0.000000
# 4 0.000000 0.000000 0.000000 0.033657 0.000000 0.000000
# 5 0.000000 0.000000 0.000000 0.000000 0.039364 0.000000
# 6 0.000000 0.000000 0.000000 0.000000 0.000000 0.060011
#
#
# Mechanical properties :
#
#
# Convention : Reuss Voigt Hill
#
# Bulk Modulus (GPa) = 44.20027 50.91931 47.55979
# Shear Modulus (GPa) = 22.55714 24.30937 23.43326
#
# Velocity S-wave (km/s) = 3.57160 3.70773 3.64030
# Velocity P-wave (km/s) = 6.48107 6.86478 6.67568
#
# Compressibility (1/GPa) = 0.02262430
#
# Stress axis : x y z
#
# Youngs Moduli (GPa) = 47.12221 83.86922 53.44582
#
# Poissons Ratio (x) = 0.56924 0.20943
# Poissons Ratio (y) = 0.31983 0.20895
# Poissons Ratio (z) = 0.18465 0.32790
#
# Static dielectric constant tensor:
#      x y z
#    x 1.595470 0.000000 0.000000 
#    y 0.000000 1.619060 0.000000 
#    z 0.000000 0.000000 1.595990 
# 
# From -- ./inp_files/8491.got.cif
#   From: 2010.05.17/outbox.cif.g08.bks.cpg/sg57_5_cif.got.tgz:8491.got - 2010.06.03 13:58:18.
