data_PCOD9435392
_publ_section_title
;
Structure prediction by ZEFSAII (Michael W. Deem and Ramdas Pophale) SiO2 
 PCOD9435392
Probable space group: P B C M
;
_chemical_formula_sum "Si O2"
_cell_formula_units_Z 64
_cell_length_a 16.046110
_cell_length_b 29.104768
_cell_length_c 8.635319
_cell_angle_alpha 90.000000
_cell_angle_beta 90.000000
_cell_angle_gamma 90.000000
_cell_volume 4032.852076
_symmetry_space_group_name_H-M "P B C M"
_symmetry_group_IT_number 57
_symmetry_cell_setting 'orthorhombic'
loop_
_space_group_symop_operation_xyz
x,y,z
-x,-y,1/2+z
x,1/2-y,-z
-x,1/2+y,1/2-z
-x,-y,-z
x,y,1/2-z
-x,1/2+y,z
x,1/2-y,1/2+z
loop_
_atom_site_type_symbol
_atom_site_label
_atom_site_fract_x
_atom_site_fract_y
_atom_site_fract_z
Si Si1 0.995906 0.948382 0.936053
Si Si2 0.502496 0.448480 0.564850
Si Si3 0.416227 0.798481 0.435169
Si Si4 0.187340 0.049037 0.436726
Si Si5 0.603071 0.799635 0.565073
Si Si6 0.338326 0.894940 0.064735
Si Si7 0.821388 0.055190 0.436498
Si Si8 0.657409 0.894155 0.065058
O O1 0.995417 0.949952 0.750000
O O2 0.085355 0.927643 0.981740
O O3 0.904212 0.931010 0.982142
O O4 0.000000 0.000000 0.000000
O O5 0.500000 0.500000 0.500000
O O6 0.498411 0.449079 0.750000
O O7 0.587463 0.424544 0.509803
O O8 0.424316 0.420106 0.499182
O O9 0.384652 0.750000 0.500000
O O10 0.427050 0.795406 0.250000
O O11 0.507333 0.806328 0.509420
O O12 0.358068 0.841756 0.470582
O O13 0.194273 0.048626 0.250000
O O14 0.261795 0.078383 0.507635
O O15 0.190817 0.996409 0.496885
O O16 0.629700 0.750000 0.500000
O O17 0.605454 0.799340 0.750000
O O18 0.654556 0.842346 0.499090
O O19 0.341299 0.900861 0.250000
O O20 0.250878 0.912691 0.001022
O O21 0.816385 0.052796 0.250000
O O22 0.653800 0.893636 0.250000
#
# Coordination Sequence:
#
# PCOD9435392 Si02
#       8
#     8   8   8   8   8   8   8   8
#     4   8  16  30  49  71  97 128 165 208 251 294
#     4  12  24  37  51  68  96 136 173 207 245 292
#     4  10  20  34  53  73  98 127 164 209 253 295
#     4  10  19  33  51  73 101 134 170 208 252 300
#     4  11  21  35  55  76  99 129 166 208 255 298
#     4  11  22  35  50  72 101 133 167 205 247 296
#     4  10  19  32  50  74 102 134 170 208 249 296
#     4  12  23  36  51  73 102 133 170 209 249 299
#
# _framework density 15.869662999999999
#
# number of rings (size 3 to 8) (size 9 to 14) (size 15 to 20)
#    0.000    1.500    1.250    6.375    0.000    2.500 
#    0.000    0.000    0.000    0.000    0.000    0.875 
#    0.000    2.000    0.000    0.000    0.000    0.000 
#
# Total GULP energy -357242.955669 kJ/mol
# GULP energy per Si atom -5581.921182 kJ/mol
# Density = 1.583354 g / cm^3
# Si number density = 15.869663 Si / 1000 Ang^3
#
#
#
# Elastic Constant Matrix: (Units=GPa)
#
#
# Indices 1 2 3 4 5 6 
#
# 1 80.6029 21.6927 27.9982 0.0000 0.0000 0.0000
# 2 21.6927 78.2182 35.7954 0.0000 0.0000 0.0000
# 3 27.9982 35.7954 95.5640 0.0000 0.0000 0.0000
# 4 0.0000 0.0000 0.0000 26.8340 0.0000 0.0000
# 5 0.0000 0.0000 0.0000 0.0000 12.3335 0.0000
# 6 0.0000 0.0000 0.0000 0.0000 0.0000 3.3695
#
#
#
# Elastic Compliance Matrix: (Units=1/GPa)
#
#
# Indices 1 2 3 4 5 6 
#
# 1 0.014192 -0.002454 -0.003239 0.000000 0.000000 0.000000
# 2 -0.002454 0.015854 -0.005219 0.000000 0.000000 0.000000
# 3 -0.003239 -0.005219 0.013368 0.000000 0.000000 0.000000
# 4 0.000000 0.000000 0.000000 0.037266 0.000000 0.000000
# 5 0.000000 0.000000 0.000000 0.000000 0.081080 0.000000
# 6 0.000000 0.000000 0.000000 0.000000 0.000000 0.296783
#
#
# Mechanical properties :
#
#
# Convention : Reuss Voigt Hill
#
# Bulk Modulus (GPa) = 46.31807 47.26197 46.79002
# Shear Modulus (GPa) = 10.25508 19.76732 15.01120
#
# Velocity S-wave (km/s) = 2.54482 3.53314 3.07889
# Velocity P-wave (km/s) = 6.15505 6.81836 6.49518
#
# Compressibility (1/GPa) = 0.02158985
#
# Stress axis : x y z
#
# Youngs Moduli (GPa) = 70.46271 63.07606 74.80459
#
# Poissons Ratio (x) = 0.15477 0.24228
# Poissons Ratio (y) = 0.17290 0.39044
# Poissons Ratio (z) = 0.22822 0.32923
#
# Static dielectric constant tensor:
#      x y z
#    x 1.540160 0.000000 0.000000 
#    y 0.000000 1.511950 0.000000 
#    z 0.000000 0.000000 1.530340 
# 
# From -- ./inp_files/6010.got.cif
#   From: 2010.05.17/outbox.cif.g08.bks.cpg/sg57_4_cif.got.tgz:6010.got - 2010.06.03 13:58:18.
