data_PCOD9435879
_publ_section_title
;
Structure prediction by ZEFSAII (Michael W. Deem and Ramdas Pophale) SiO2 
 PCOD9435879
Probable space group: P B C M
;
_chemical_formula_sum "Si O2"
_cell_formula_units_Z 56
_cell_length_a 22.889373
_cell_length_b 14.514899
_cell_length_c 8.803283
_cell_angle_alpha 90.000000
_cell_angle_beta 90.000000
_cell_angle_gamma 90.000000
_cell_volume 2924.775782
_symmetry_space_group_name_H-M "P B C M"
_symmetry_group_IT_number 57
_symmetry_cell_setting 'orthorhombic'
loop_
_space_group_symop_operation_xyz
x,y,z
-x,-y,1/2+z
x,1/2-y,-z
-x,1/2+y,1/2-z
-x,-y,-z
x,y,1/2-z
-x,1/2+y,z
x,1/2-y,1/2+z
loop_
_atom_site_type_symbol
_atom_site_label
_atom_site_fract_x
_atom_site_fract_y
_atom_site_fract_z
Si Si1 0.855143 0.846889 0.430437
Si Si2 0.531056 0.851879 0.068117
Si Si3 0.804659 0.022820 0.928237
Si Si4 0.296766 0.647393 0.431906
Si Si5 0.418947 0.546954 0.067895
Si Si6 0.979364 0.596224 0.070196
Si Si7 0.906659 0.335506 0.427911
O O1 0.836486 0.750000 0.500000
O O2 0.858334 0.842263 0.250000
O O3 0.919957 0.868812 0.494799
O O4 0.812220 0.927633 0.483815
O O5 0.531338 0.843060 0.250000
O O6 0.573661 0.938450 0.025952
O O7 0.542600 0.750000 0.000000
O O8 0.468476 0.891449 0.012661
O O9 0.793684 0.007247 0.750000
O O10 0.866976 0.074558 0.941766
O O11 0.756184 0.089464 0.997359
O O12 0.299613 0.750000 0.500000
O O13 0.289965 0.653600 0.250000
O O14 0.356217 0.590985 0.465187
O O15 0.428762 0.552477 0.250000
O O16 0.970858 0.589360 0.250000
O O17 0.000000 0.500000 0.000000
O O18 0.035271 0.657044 0.027893
O O19 0.871983 0.250000 0.500000
O O20 0.919722 0.322850 0.250000
#
# Coordination Sequence:
#
# PCOD9435879 Si02
#       7
#     8   8   8   8   8   8   8
#     4  12  25  43  66  89 118 154 195 242 296 356
#     4  10  19  33  56  87 123 161 202 248 301 356
#     4  11  24  42  63  87 117 151 197 245 293 350
#     4  11  23  40  62  88 120 157 200 247 298 353
#     4   9  20  37  57  85 121 162 206 251 298 353
#     4  12  23  38  60  87 118 151 191 236 292 354
#     4  11  23  38  58  84 116 149 187 234 289 350
#
# _framework density 19.146766
#
# number of rings (size 3 to 8) (size 9 to 14) (size 15 to 20)
#    0.000    1.143    1.429    5.571    0.000    5.714 
#    0.000    0.714    0.000    1.714    0.000    0.000 
#    0.000    0.000    0.000    0.000    0.000    0.000 
#
# Total GULP energy -312926.382181 kJ/mol
# GULP energy per Si atom -5587.971110 kJ/mol
# Density = 1.910319 g / cm^3
# Si number density = 19.146766 Si / 1000 Ang^3
#
#
#
# Elastic Constant Matrix: (Units=GPa)
#
#
# Indices 1 2 3 4 5 6 
#
# 1 87.2201 53.0914 52.4670 0.0000 0.0000 0.0000
# 2 53.0914 180.1037 78.2844 0.0000 0.0000 0.0000
# 3 52.4670 78.2844 128.2812 0.0000 0.0000 0.0000
# 4 0.0000 0.0000 0.0000 36.1541 0.0000 0.0000
# 5 0.0000 0.0000 0.0000 0.0000 24.4932 0.0000
# 6 0.0000 0.0000 0.0000 0.0000 0.0000 24.9403
#
#
#
# Elastic Compliance Matrix: (Units=1/GPa)
#
#
# Indices 1 2 3 4 5 6 
#
# 1 0.016024 -0.002552 -0.004997 0.000000 0.000000 0.000000
# 2 -0.002552 0.007963 -0.003816 0.000000 0.000000 0.000000
# 3 -0.004997 -0.003816 0.012168 0.000000 0.000000 0.000000
# 4 0.000000 0.000000 0.000000 0.027659 0.000000 0.000000
# 5 0.000000 0.000000 0.000000 0.000000 0.040828 0.000000
# 6 0.000000 0.000000 0.000000 0.000000 0.000000 0.040096
#
#
# Mechanical properties :
#
#
# Convention : Reuss Voigt Hill
#
# Bulk Modulus (GPa) = 74.48007 84.81006 79.64506
# Shear Modulus (GPa) = 29.07954 31.23500 30.15727
#
# Velocity S-wave (km/s) = 3.90137 4.04337 3.97301
# Velocity P-wave (km/s) = 7.69924 8.13569 7.92047
#
# Compressibility (1/GPa) = 0.01342641
#
# Stress axis : x y z
#
# Youngs Moduli (GPa) = 62.40531 125.57732 82.18480
#
# Poissons Ratio (x) = 0.32045 0.41065
# Poissons Ratio (y) = 0.15925 0.31361
# Poissons Ratio (z) = 0.31182 0.47919
#
# Static dielectric constant tensor:
#      x y z
#    x 2.021780 0.000000 0.000000 
#    y 0.000000 1.732410 0.000000 
#    z 0.000000 0.000000 1.635370 
# 
# From -- ./inp_files/8115.got.cif
#   From: 2010.05.17/outbox.cif.g08.bks.cpg/sg57_5_cif.got.tgz:8115.got - 2010.06.03 13:58:18.
