data_PCOD9435247
_publ_section_title
;
Structure prediction by ZEFSAII (Michael W. Deem and Ramdas Pophale) SiO2 
 PCOD9435247
Probable space group: P B C M
;
_chemical_formula_sum "Si O2"
_cell_formula_units_Z 56
_cell_length_a 21.921763
_cell_length_b 15.728977
_cell_length_c 7.762006
_cell_angle_alpha 90.000000
_cell_angle_beta 90.000000
_cell_angle_gamma 90.000000
_cell_volume 2676.393273
_symmetry_space_group_name_H-M "P B C M"
_symmetry_group_IT_number 57
_symmetry_cell_setting 'orthorhombic'
loop_
_space_group_symop_operation_xyz
x,y,z
-x,-y,1/2+z
x,1/2-y,-z
-x,1/2+y,1/2-z
-x,-y,-z
x,y,1/2-z
-x,1/2+y,z
x,1/2-y,1/2+z
loop_
_atom_site_type_symbol
_atom_site_label
_atom_site_fract_x
_atom_site_fract_y
_atom_site_fract_z
Si Si1 0.905709 0.841849 0.044485
Si Si2 0.380707 0.656803 0.957049
Si Si3 0.287752 0.514472 0.544237
Si Si4 0.489880 0.401204 0.457292
Si Si5 0.643075 0.653851 0.955046
Si Si6 0.152086 0.521598 0.954583
Si Si7 0.029290 0.591366 0.956933
O O1 0.906793 0.850781 0.250000
O O2 0.976142 0.846422 0.977944
O O3 0.879184 0.750000 0.000000
O O4 0.870020 0.923989 0.976231
O O5 0.383504 0.648690 0.750000
O O6 0.337802 0.581131 0.023710
O O7 0.449934 0.646664 0.023631
O O8 0.356732 0.750000 0.000000
O O9 0.284793 0.527089 0.750000
O O10 0.310936 0.418878 0.516012
O O11 0.219988 0.530052 0.472966
O O12 0.500000 0.500000 0.500000
O O13 0.488279 0.392700 0.250000
O O14 0.425102 0.367387 0.524719
O O15 0.640659 0.647115 0.750000
O O16 0.660126 0.750000 0.000000
O O17 0.155115 0.537623 0.750000
O O18 0.098395 0.583205 0.024733
O O19 0.033113 0.601469 0.750000
O O20 0.000000 0.500000 0.000000
#
# Coordination Sequence:
#
# PCOD9435247 Si02
#       7
#     8   8   8   8   8   8   8
#     4  10  19  31  50  77 107 136 168 212 260 310
#     4  10  21  37  57  81 108 140 179 223 273 325
#     4  10  21  38  58  79 109 147 185 228 273 323
#     4  10  20  35  57  83 109 139 177 225 278 327
#     4  11  23  37  56  82 111 146 184 226 276 329
#     4   9  18  34  55  75  99 136 176 214 261 312
#     4   8  15  29  49  72  96 124 162 203 246 296
#
# _framework density 20.923680000000001
#
# number of rings (size 3 to 8) (size 9 to 14) (size 15 to 20)
#    0.000    2.286    1.429    1.286    0.000    3.429 
#    0.000    0.714    0.000    0.000    0.000    0.000 
#    0.000    0.000    0.000    0.000    0.000    0.000 
#
# Total GULP energy -312358.962324 kJ/mol
# GULP energy per Si atom -5577.838613 kJ/mol
# Density = 2.087606 g / cm^3
# Si number density = 20.923680 Si / 1000 Ang^3
#
#
#
# Elastic Constant Matrix: (Units=GPa)
#
#
# Indices 1 2 3 4 5 6 
#
# 1 105.8015 -4.1576 8.5416 0.0000 0.0000 0.0000
# 2 -4.1576 58.2721 -16.7095 0.0000 0.0000 0.0000
# 3 8.5416 -16.7095 31.9452 0.0000 0.0000 0.0000
# 4 0.0000 0.0000 0.0000 19.0029 0.0000 0.0000
# 5 0.0000 0.0000 0.0000 0.0000 9.5220 0.0000
# 6 0.0000 0.0000 0.0000 0.0000 0.0000 9.4856
#
#
#
# Elastic Compliance Matrix: (Units=1/GPa)
#
#
# Indices 1 2 3 4 5 6 
#
# 1 0.009660 -0.000060 -0.002615 0.000000 0.000000 0.000000
# 2 -0.000060 0.020189 0.010577 0.000000 0.000000 0.000000
# 3 -0.002615 0.010577 0.037535 0.000000 0.000000 0.000000
# 4 0.000000 0.000000 0.000000 0.052624 0.000000 0.000000
# 5 0.000000 0.000000 0.000000 0.000000 0.105020 0.000000
# 6 0.000000 0.000000 0.000000 0.000000 0.000000 0.105423
#
#
# Mechanical properties :
#
#
# Convention : Reuss Voigt Hill
#
# Bulk Modulus (GPa) = 12.02103 19.04087 15.53095
# Shear Modulus (GPa) = 14.60372 21.49170 18.04771
#
# Velocity S-wave (km/s) = 2.64474 3.20839 2.94011
# Velocity P-wave (km/s) = 3.88380 4.77964 4.35481
#
# Compressibility (1/GPa) = 0.08318757
#
# Stress axis : x y z
#
# Youngs Moduli (GPa) = 103.51573 49.53101 26.64180
#
# Poissons Ratio (x) = 0.00300 0.06966
# Poissons Ratio (y) = 0.00626 -0.28178
# Poissons Ratio (z) = 0.27066 -0.52387
#
# Static dielectric constant tensor:
#      x y z
#    x 1.804990 0.000000 0.000000 
#    y 0.000000 1.697000 0.000000 
#    z 0.000000 0.000000 1.749970 
# 
# From -- ./inp_files/8154.got.cif
#   From: 2010.05.17/outbox.cif.g08.bks.cpg/sg57_5_cif.got.tgz:8154.got - 2010.06.03 13:58:18.
