data_PCOD9435909
_publ_section_title
;
Structure prediction by ZEFSAII (Michael W. Deem and Ramdas Pophale) SiO2 
 PCOD9435909
Probable space group: P B C M
;
_chemical_formula_sum "Si O2"
_cell_formula_units_Z 48
_cell_length_a 9.944021
_cell_length_b 16.787043
_cell_length_c 14.774094
_cell_angle_alpha 90.000000
_cell_angle_beta 90.000000
_cell_angle_gamma 90.000000
_cell_volume 2466.249973
_symmetry_space_group_name_H-M "P B C M"
_symmetry_group_IT_number 57
_symmetry_cell_setting 'orthorhombic'
loop_
_space_group_symop_operation_xyz
x,y,z
-x,-y,1/2+z
x,1/2-y,-z
-x,1/2+y,1/2-z
-x,-y,-z
x,y,1/2-z
-x,1/2+y,z
x,1/2-y,1/2+z
loop_
_atom_site_type_symbol
_atom_site_label
_atom_site_fract_x
_atom_site_fract_y
_atom_site_fract_z
Si Si1 0.317209 0.843945 0.480160
Si Si2 0.771261 0.572581 0.151412
Si Si3 0.942535 0.440392 0.423383
Si Si4 0.519150 0.384123 0.649502
Si Si5 0.558810 0.696747 0.645289
Si Si6 0.829612 0.665826 0.533499
O O1 0.298386 0.750000 0.500000
O O2 0.176992 0.884283 0.458084
O O3 0.379120 0.889357 0.566972
O O4 0.429293 0.844094 0.400949
O O5 0.788504 0.613222 0.250000
O O6 0.867885 0.496364 0.148436
O O7 0.610681 0.558877 0.142988
O O8 0.805513 0.621113 0.061493
O O9 0.000000 0.500000 0.500000
O O10 0.068377 0.383425 0.403662
O O11 0.579242 0.393612 0.750000
O O12 0.464246 0.292704 0.642923
O O13 0.574464 0.673614 0.750000
O O14 0.689400 0.678403 0.585288
O O15 0.886993 0.750000 0.500000
#
# Coordination Sequence:
#
# PCOD9435909 Si02
#       6
#     8   8   8   8   8   8
#     4  10  19  38  61  87 115 149 193 251 293 344
#     4  10  20  37  57  83 120 160 192 233 296 361
#     4  10  24  38  55  81 121 162 195 232 293 357
#     4   9  17  33  60  89 112 145 192 243 295 346
#     4  10  19  33  60  91 116 145 195 253 302 342
#     4  11  19  37  60  90 115 155 204 252 294 348
#
# _framework density 19.462747
#
# number of rings (size 3 to 8) (size 9 to 14) (size 15 to 20)
#    0.000    2.000    3.333    1.000    0.000    2.000 
#    0.000    3.333    0.000    6.000    0.000    0.000 
#    0.000    0.000    0.000    0.000    0.000    0.000 
#
# Total GULP energy -267507.745323 kJ/mol
# GULP energy per Si atom -5573.078028 kJ/mol
# Density = 1.941845 g / cm^3
# Si number density = 19.462747 Si / 1000 Ang^3
#
#
#
# Elastic Constant Matrix: (Units=GPa)
#
#
# Indices 1 2 3 4 5 6 
#
# 1 78.0042 16.1918 18.4542 0.0000 0.0000 0.0000
# 2 16.1918 30.1881 9.2776 0.0000 0.0000 0.0000
# 3 18.4542 9.2776 95.9337 0.0000 0.0000 0.0000
# 4 0.0000 0.0000 0.0000 12.9906 0.0000 0.0000
# 5 0.0000 0.0000 0.0000 0.0000 -1.8953 0.0000
# 6 0.0000 0.0000 0.0000 0.0000 0.0000 28.5749
#
#
#
# Elastic Compliance Matrix: (Units=1/GPa)
#
#
# Indices 1 2 3 4 5 6 
#
# 1 0.014844 -0.007301 -0.002149 0.000000 0.000000 0.000000
# 2 -0.007301 0.037731 -0.002244 0.000000 0.000000 0.000000
# 3 -0.002149 -0.002244 0.011054 0.000000 0.000000 0.000000
# 4 0.000000 0.000000 0.000000 0.076979 0.000000 0.000000
# 5 0.000000 0.000000 0.000000 0.000000 -0.527616 0.000000
# 6 0.000000 0.000000 0.000000 0.000000 0.000000 0.034996
#
#
# Mechanical properties :
#
#
# Convention : Reuss Voigt Hill
#
# Bulk Modulus (GPa) = 24.85104 32.44147 28.64625
# Shear Modulus (GPa) = -15.86250 18.61422 1.37586
#
# Velocity S-wave (km/s) = -2.85795 3.09593 0.84170
# Velocity P-wave (km/s) = 1.38048 5.42995 3.96170
#
# Compressibility (1/GPa) = 0.04023977
#
# Stress axis : x y z
#
# Youngs Moduli (GPa) = 67.36799 26.50310 90.46184
#
# Poissons Ratio (x) = 0.19350 0.19443
# Poissons Ratio (y) = 0.49186 0.20304
# Poissons Ratio (z) = 0.14480 0.05949
#
# Static dielectric constant tensor:
#      x y z
#    x 1.666310 0.000000 0.000000 
#    y 0.000000 1.689850 0.000000 
#    z 0.000000 0.000000 1.679320 
# 
# From -- ./inp_files/16549.got.cif
#   From: 2010.05.17/outbox.cif.g08.bks.cpg/sg57_9_cif.got.tgz:16549.got - 2010.06.03 13:58:18.
