data_PCOD9435665
_publ_section_title
;
Structure prediction by ZEFSAII (Michael W. Deem and Ramdas Pophale) SiO2 
 PCOD9435665
Probable space group: P B C M
;
_chemical_formula_sum "Si O2"
_cell_formula_units_Z 56
_cell_length_a 15.619429
_cell_length_b 14.168484
_cell_length_c 13.680340
_cell_angle_alpha 90.000000
_cell_angle_beta 90.000000
_cell_angle_gamma 90.000000
_cell_volume 3027.508900
_symmetry_space_group_name_H-M "P B C M"
_symmetry_group_IT_number 57
_symmetry_cell_setting 'orthorhombic'
loop_
_space_group_symop_operation_xyz
x,y,z
-x,-y,1/2+z
x,1/2-y,-z
-x,1/2+y,1/2-z
-x,-y,-z
x,y,1/2-z
-x,1/2+y,z
x,1/2-y,1/2+z
loop_
_atom_site_type_symbol
_atom_site_label
_atom_site_fract_x
_atom_site_fract_y
_atom_site_fract_z
Si Si1 0.776805 0.494497 0.863848
Si Si2 0.580580 0.027415 0.365745
Si Si3 0.881343 0.494900 0.051855
Si Si4 0.184835 0.205604 0.865049
Si Si5 0.992199 0.845207 0.039739
Si Si6 0.273996 0.104054 0.133803
Si Si7 0.557150 0.863476 0.986838
O O1 0.803126 0.482992 0.750000
O O2 0.682263 0.453584 0.877159
O O3 0.767814 0.607151 0.883799
O O4 0.847031 0.464738 0.943579
O O5 0.561591 0.027970 0.250000
O O6 0.559360 0.924929 0.413405
O O7 0.525863 0.103744 0.425589
O O8 0.796981 0.525171 0.109850
O O9 0.938769 0.410651 0.092697
O O10 0.944994 0.584531 0.037655
O O11 0.183969 0.218676 0.750000
O O12 0.088150 0.191563 0.898703
O O13 0.230132 0.298698 0.903188
O O14 0.033935 0.750000 0.000000
O O15 0.289703 0.107351 0.250000
O O16 0.362252 0.098342 0.076027
O O17 0.561524 0.750000 0.000000
#
# Coordination Sequence:
#
# PCOD9435665 Si02
#       7
#     8   8   8   8   8   8   8
#     4   9  17  33  56  78 108 148 193 231 272 342
#     4  10  21  38  60  88 121 154 193 240 291 351
#     4  10  20  33  54  82 107 150 195 234 298 334
#     4   9  18  31  53  81 108 146 190 238 290 338
#     4  10  19  33  52  76 111 146 189 244 283 345
#     4  11  21  34  56  87 119 146 188 242 294 349
#     4  11  23  37  61  92 121 155 191 242 302 357
#
# _framework density 18.497055
#
# number of rings (size 3 to 8) (size 9 to 14) (size 15 to 20)
#    0.000    2.000    2.857    1.286    2.000    2.857 
#    0.000    3.571    0.000    0.000    0.000    0.000 
#    0.000    0.000    0.000    0.000    0.000    0.000 
#
# Total GULP energy -312185.909079 kJ/mol
# GULP energy per Si atom -5574.748376 kJ/mol
# Density = 1.845495 g / cm^3
# Si number density = 18.497055 Si / 1000 Ang^3
#
#
#
# Elastic Constant Matrix: (Units=GPa)
#
#
# Indices 1 2 3 4 5 6 
#
# 1 61.6848 31.3580 17.7017 0.0000 0.0000 0.0000
# 2 31.3580 50.5170 4.3514 0.0000 0.0000 0.0000
# 3 17.7017 4.3514 70.0750 0.0000 0.0000 0.0000
# 4 0.0000 0.0000 0.0000 14.6760 0.0000 0.0000
# 5 0.0000 0.0000 0.0000 0.0000 15.7919 0.0000
# 6 0.0000 0.0000 0.0000 0.0000 0.0000 41.9894
#
#
#
# Elastic Compliance Matrix: (Units=1/GPa)
#
#
# Indices 1 2 3 4 5 6 
#
# 1 0.025647 -0.015445 -0.005520 0.000000 0.000000 0.000000
# 2 -0.015445 0.029203 0.002088 0.000000 0.000000 0.000000
# 3 -0.005520 0.002088 0.015535 0.000000 0.000000 0.000000
# 4 0.000000 0.000000 0.000000 0.068138 0.000000 0.000000
# 5 0.000000 0.000000 0.000000 0.000000 0.063324 0.000000
# 6 0.000000 0.000000 0.000000 0.000000 0.000000 0.023816
#
#
# Mechanical properties :
#
#
# Convention : Reuss Voigt Hill
#
# Bulk Modulus (GPa) = 30.64456 32.12213 31.38335
# Shear Modulus (GPa) = 18.22877 23.08250 20.65563
#
# Velocity S-wave (km/s) = 3.14267 3.53640 3.34533
# Velocity P-wave (km/s) = 5.45634 5.83769 5.65023
#
# Compressibility (1/GPa) = 0.03263222
#
# Stress axis : x y z
#
# Youngs Moduli (GPa) = 38.99117 34.24358 64.37044
#
# Poissons Ratio (x) = 0.52888 0.35530
# Poissons Ratio (y) = 0.60220 -0.13441
# Poissons Ratio (z) = 0.21522 -0.07150
#
# Static dielectric constant tensor:
#      x y z
#    x 1.653590 0.000000 0.000000 
#    y 0.000000 1.667300 0.000000 
#    z 0.000000 0.000000 1.675350 
# 
# From -- ./inp_files/18498.got.cif
#   From: 2010.05.17/outbox.cif.g08.bks.cpg/sg57_10_cif.got.tgz:18498.got - 2010.06.03 13:58:18.
