data_PCOD9435687
_publ_section_title
;
Structure prediction by ZEFSAII (Michael W. Deem and Ramdas Pophale) SiO2 
 PCOD9435687
Probable space group: P B C M
;
_chemical_formula_sum "Si O2"
_cell_formula_units_Z 48
_cell_length_a 16.157822
_cell_length_b 15.562562
_cell_length_c 9.131757
_cell_angle_alpha 90.000000
_cell_angle_beta 90.000000
_cell_angle_gamma 90.000000
_cell_volume 2296.245194
_symmetry_space_group_name_H-M "P B C M"
_symmetry_group_IT_number 57
_symmetry_cell_setting 'orthorhombic'
loop_
_space_group_symop_operation_xyz
x,y,z
-x,-y,1/2+z
x,1/2-y,-z
-x,1/2+y,1/2-z
-x,-y,-z
x,y,1/2-z
-x,1/2+y,z
x,1/2-y,1/2+z
loop_
_atom_site_type_symbol
_atom_site_label
_atom_site_fract_x
_atom_site_fract_y
_atom_site_fract_z
Si Si1 0.486498 0.836825 0.426641
Si Si2 0.166882 0.381449 0.582057
Si Si3 0.821659 0.091772 0.920393
Si Si4 0.343813 0.924275 0.916585
Si Si5 0.328886 0.129831 0.914129
Si Si6 0.988100 0.406003 0.572387
O O1 0.453789 0.750000 0.500000
O O2 0.484805 0.836115 0.250000
O O3 0.426072 0.908726 0.489892
O O4 0.581643 0.846560 0.477792
O O5 0.175065 0.356040 0.750000
O O6 0.172001 0.486629 0.576506
O O7 0.245154 0.346911 0.495673
O O8 0.073889 0.358474 0.532655
O O9 0.821114 0.117008 0.750000
O O10 0.736403 0.114039 0.002039
O O11 0.902286 0.126858 0.004812
O O12 0.352504 0.891732 0.750000
O O13 0.329978 0.026334 0.907364
O O14 0.325816 0.165071 0.750000
O O15 0.983543 0.412578 0.750000
O O16 0.000000 0.500000 0.500000
#
# Coordination Sequence:
#
# PCOD9435687 Si02
#       6
#     8   8   8   8   8   8
#     4  11  23  38  53  73  99 129 165 206 249 298
#     4   8  15  25  40  64  95 128 162 198 240 286
#     4   9  16  26  41  65  96 130 163 199 240 288
#     4  10  19  33  53  76 100 130 164 204 250 296
#     4   9  19  33  51  74 100 129 165 205 247 294
#     4   9  15  23  36  60  94 130 163 198 240 288
#
# _framework density 20.903690000000001
#
# number of rings (size 3 to 8) (size 9 to 14) (size 15 to 20)
#    0.000    2.667    0.000    3.500    0.000    6.667 
#    0.000    0.000    0.000    0.000    0.000    1.167 
#    0.000    5.333    0.000    0.000    0.000    0.000 
#
# Total GULP energy -267665.425701 kJ/mol
# GULP energy per Si atom -5576.363035 kJ/mol
# Density = 2.085611 g / cm^3
# Si number density = 20.903690 Si / 1000 Ang^3
#
#
#
# Elastic Constant Matrix: (Units=GPa)
#
#
# Indices 1 2 3 4 5 6 
#
# 1 183.4778 17.1639 75.6490 0.0000 0.0000 0.0000
# 2 17.1639 21.2331 15.9217 0.0000 0.0000 0.0000
# 3 75.6490 15.9217 101.0447 0.0000 0.0000 0.0000
# 4 0.0000 0.0000 0.0000 4.6738 0.0000 0.0000
# 5 0.0000 0.0000 0.0000 0.0000 31.8938 0.0000
# 6 0.0000 0.0000 0.0000 0.0000 0.0000 -16.7637
#
#
#
# Elastic Compliance Matrix: (Units=1/GPa)
#
#
# Indices 1 2 3 4 5 6 
#
# 1 0.007976 -0.002234 -0.005620 0.000000 0.000000 0.000000
# 2 -0.002234 0.054032 -0.006842 0.000000 0.000000 0.000000
# 3 -0.005620 -0.006842 0.015182 0.000000 0.000000 0.000000
# 4 0.000000 0.000000 0.000000 0.213958 0.000000 0.000000
# 5 0.000000 0.000000 0.000000 0.000000 0.031354 0.000000
# 6 0.000000 0.000000 0.000000 0.000000 0.000000 -0.059653
#
#
# Mechanical properties :
#
#
# Convention : Reuss Voigt Hill
#
# Bulk Modulus (GPa) = 20.92036 58.13610 39.52823
# Shear Modulus (GPa) = 16.22466 17.09552 16.66009
#
# Velocity S-wave (km/s) = 2.78899 2.86286 2.82617
# Velocity P-wave (km/s) = 4.51675 6.22895 5.44062
#
# Compressibility (1/GPa) = 0.04780033
#
# Stress axis : x y z
#
# Youngs Moduli (GPa) = 125.37323 18.50754 65.86822
#
# Poissons Ratio (x) = 0.04134 0.37015
# Poissons Ratio (y) = 0.28005 0.45064
# Poissons Ratio (z) = 0.70454 0.12662
#
# Static dielectric constant tensor:
#      x y z
#    x 1.764700 0.000000 0.000000 
#    y 0.000000 1.702430 0.000000 
#    z 0.000000 0.000000 1.710620 
# 
# From -- ./inp_files/4831.got.cif
#   From: 2010.05.17/outbox.cif.g08.bks.cpg/sg57_3_cif.got.tgz:4831.got - 2010.06.03 13:58:18.
