data_PCOD9435175
_publ_section_title
;
Structure prediction by ZEFSAII (Michael W. Deem and Ramdas Pophale) SiO2 
 PCOD9435175
Probable space group: P B C M
;
_chemical_formula_sum "Si O2"
_cell_formula_units_Z 40
_cell_length_a 17.445974
_cell_length_b 10.682403
_cell_length_c 9.784342
_cell_angle_alpha 90.000000
_cell_angle_beta 90.000000
_cell_angle_gamma 90.000000
_cell_volume 1823.458163
_symmetry_space_group_name_H-M "P B C M"
_symmetry_group_IT_number 57
_symmetry_cell_setting 'orthorhombic'
loop_
_space_group_symop_operation_xyz
x,y,z
-x,-y,1/2+z
x,1/2-y,-z
-x,1/2+y,1/2-z
-x,-y,-z
x,y,1/2-z
-x,1/2+y,z
x,1/2-y,1/2+z
loop_
_atom_site_type_symbol
_atom_site_label
_atom_site_fract_x
_atom_site_fract_y
_atom_site_fract_z
Si Si1 0.921527 0.357765 0.597344
Si Si2 0.697880 0.363578 0.094598
Si Si3 0.486408 0.872543 0.088656
Si Si4 0.094535 0.079826 0.396559
Si Si5 0.735016 0.857949 0.595572
O O1 0.892393 0.250000 0.500000
O O2 0.891503 0.352396 0.750000
O O3 0.905428 0.488658 0.524631
O O4 0.014490 0.347701 0.603069
O O5 0.727098 0.351576 0.250000
O O6 0.605671 0.360703 0.098853
O O7 0.720832 0.501488 0.043471
O O8 0.723053 0.250000 0.000000
O O9 0.514001 0.877380 0.250000
O O10 0.512865 0.750000 0.000000
O O11 0.500000 0.000000 0.000000
O O12 0.093945 0.007414 0.250000
O O13 0.172828 0.156041 0.395963
O O14 0.703301 0.750000 0.500000
O O15 0.703799 0.850971 0.750000
#
# Coordination Sequence:
#
# PCOD9435175 Si02
#       5
#     8   8   8   8   8
#     4  10  19  31  49  71  96 128 167 213 265 320
#     4   9  20  38  58  81 111 146 184 225 268 317
#     4  10  20  36  58  85 116 150 187 227 272 321
#     4   9  19  34  50  70  98 131 169 214 262 315
#     4  10  21  37  56  80 109 141 180 224 270 322
#
# _framework density 21.936340999999999
#
# number of rings (size 3 to 8) (size 9 to 14) (size 15 to 20)
#    0.000    2.400    0.000    1.800    0.000    4.800 
#    0.000    4.000    0.000    0.000    0.000    0.000 
#    0.000    0.000    0.000    0.000    0.000    0.000 
#
# Total GULP energy -223164.774146 kJ/mol
# GULP energy per Si atom -5579.119354 kJ/mol
# Density = 2.188641 g / cm^3
# Si number density = 21.936341 Si / 1000 Ang^3
#
#
#
# Elastic Constant Matrix: (Units=GPa)
#
#
# Indices 1 2 3 4 5 6 
#
# 1 46.6941 0.8707 7.8847 0.0000 0.0000 0.0000
# 2 0.8707 157.2440 104.1371 0.0000 0.0000 0.0000
# 3 7.8847 104.1371 185.1089 0.0000 0.0000 0.0000
# 4 0.0000 0.0000 0.0000 39.9844 0.0000 0.0000
# 5 0.0000 0.0000 0.0000 0.0000 8.6993 0.0000
# 6 0.0000 0.0000 0.0000 0.0000 0.0000 -2.6253
#
#
#
# Elastic Compliance Matrix: (Units=1/GPa)
#
#
# Indices 1 2 3 4 5 6 
#
# 1 0.021631 0.000782 -0.001361 0.000000 0.000000 0.000000
# 2 0.000782 0.010164 -0.005751 0.000000 0.000000 0.000000
# 3 -0.001361 -0.005751 0.008696 0.000000 0.000000 0.000000
# 4 0.000000 0.000000 0.000000 0.025010 0.000000 0.000000
# 5 0.000000 0.000000 0.000000 0.000000 0.114951 0.000000
# 6 0.000000 0.000000 0.000000 0.000000 0.000000 -0.380911
#
#
# Mechanical properties :
#
#
# Convention : Reuss Voigt Hill
#
# Bulk Modulus (GPa) = 35.93313 68.31468 52.12390
# Shear Modulus (GPa) = -28.00786 27.62199 -0.19294
#
# Velocity S-wave (km/s) = -3.57708 3.55235 -0.29689
# Velocity P-wave (km/s) = 0.80279 6.93076 4.86780
#
# Compressibility (1/GPa) = 0.02782947
#
# Stress axis : x y z
#
# Youngs Moduli (GPa) = 46.22943 98.38525 114.99872
#
# Poissons Ratio (x) = -0.07690 0.15653
# Poissons Ratio (y) = -0.03613 0.66140
# Poissons Ratio (z) = 0.06292 0.56585
#
# Static dielectric constant tensor:
#      x y z
#    x 1.828150 0.000000 0.000000 
#    y 0.000000 1.786520 0.000000 
#    z 0.000000 0.000000 1.825730 
# 
# From -- ./inp_files/7789.got.cif
#   From: 2010.05.17/outbox.cif.g08.bks.cpg/sg57_4_cif.got.tgz:7789.got - 2010.06.03 13:58:18.
