data_PCOD9435305
_publ_section_title
;
Structure prediction by ZEFSAII (Michael W. Deem and Ramdas Pophale) SiO2 
 PCOD9435305
Probable space group: P B C M
;
_chemical_formula_sum "Si O2"
_cell_formula_units_Z 64
_cell_length_a 20.856507
_cell_length_b 20.484988
_cell_length_c 8.306990
_cell_angle_alpha 90.000000
_cell_angle_beta 90.000000
_cell_angle_gamma 90.000000
_cell_volume 3549.122398
_symmetry_space_group_name_H-M "P B C M"
_symmetry_group_IT_number 57
_symmetry_cell_setting 'orthorhombic'
loop_
_space_group_symop_operation_xyz
x,y,z
-x,-y,1/2+z
x,1/2-y,-z
-x,1/2+y,1/2-z
-x,-y,-z
x,y,1/2-z
-x,1/2+y,z
x,1/2-y,1/2+z
loop_
_atom_site_type_symbol
_atom_site_label
_atom_site_fract_x
_atom_site_fract_y
_atom_site_fract_z
Si Si1 0.166532 0.823557 0.944269
Si Si2 0.585985 0.444338 0.944524
Si Si3 0.911291 0.943505 0.557638
Si Si4 0.552432 0.910246 0.555306
Si Si5 0.271513 0.571525 0.446718
Si Si6 0.228486 0.073180 0.558547
Si Si7 0.948364 0.087710 0.055086
Si Si8 0.332061 0.323278 0.941541
O O1 0.167204 0.824391 0.750000
O O2 0.222554 0.872637 0.000602
O O3 0.098555 0.854472 0.997127
O O4 0.175289 0.750000 0.000000
O O5 0.586043 0.444422 0.750000
O O6 0.521722 0.406837 0.998983
O O7 0.654964 0.418130 0.998176
O O8 0.578251 0.519107 0.000675
O O9 0.907037 0.939646 0.750000
O O10 0.845799 0.916996 0.484319
O O11 0.977354 0.908489 0.504446
O O12 0.920416 0.019055 0.507184
O O13 0.552473 0.909284 0.750000
O O14 0.601361 0.855202 0.495958
O O15 0.270012 0.571296 0.250000
O O16 0.248958 0.499374 0.499587
O O17 0.236058 0.073550 0.750000
O O18 0.274802 0.128207 0.489083
O O19 0.947288 0.084569 0.250000
O O20 0.335881 0.321868 0.750000
O O21 0.322350 0.250000 0.000000
#
# Coordination Sequence:
#
# PCOD9435305 Si02
#       8
#     8   8   8   8   8   8   8   8
#     4  10  20  36  53  75 106 143 181 220 265 320
#     4   9  16  30  53  79 104 136 174 213 263 319
#     4  10  19  31  53  83 109 136 175 228 274 318
#     4   9  18  31  50  78 108 133 169 222 265 308
#     4   9  17  31  54  78 105 141 179 215 265 324
#     4  11  20  35  57  81 108 144 181 224 277 333
#     4   9  18  34  53  75 108 143 178 221 270 324
#     4  11  23  38  54  78 110 146 184 228 276 330
#
# _framework density 18.032627000000002
#
# number of rings (size 3 to 8) (size 9 to 14) (size 15 to 20)
#    0.000    2.250    2.500    1.125    0.000    1.500 
#    0.000    1.875    0.000    1.500    0.000    0.000 
#    0.000    0.000    0.000    0.000    0.000    0.000 
#
# Total GULP energy -356964.637495 kJ/mol
# GULP energy per Si atom -5577.572461 kJ/mol
# Density = 1.799158 g / cm^3
# Si number density = 18.032627 Si / 1000 Ang^3
#
#
#
# Elastic Constant Matrix: (Units=GPa)
#
#
# Indices 1 2 3 4 5 6 
#
# 1 165.3397 93.4522 18.4230 0.0000 0.0000 0.0000
# 2 93.4522 133.6380 16.1774 0.0000 0.0000 0.0000
# 3 18.4230 16.1774 11.9822 0.0000 0.0000 0.0000
# 4 0.0000 0.0000 0.0000 24.9435 0.0000 0.0000
# 5 0.0000 0.0000 0.0000 0.0000 16.9902 0.0000
# 6 0.0000 0.0000 0.0000 0.0000 0.0000 25.5542
#
#
#
# Elastic Compliance Matrix: (Units=1/GPa)
#
#
# Indices 1 2 3 4 5 6 
#
# 1 0.010532 -0.006461 -0.007471 0.000000 0.000000 0.000000
# 2 -0.006461 0.012908 -0.007494 0.000000 0.000000 0.000000
# 3 -0.007471 -0.007494 0.105061 0.000000 0.000000 0.000000
# 4 0.000000 0.000000 0.000000 0.040091 0.000000 0.000000
# 5 0.000000 0.000000 0.000000 0.000000 0.058858 0.000000
# 6 0.000000 0.000000 0.000000 0.000000 0.000000 0.039133
#
#
# Mechanical properties :
#
#
# Convention : Reuss Voigt Hill
#
# Bulk Modulus (GPa) = 11.67534 63.00726 37.34130
# Shear Modulus (GPa) = 14.79362 25.69138 20.24250
#
# Velocity S-wave (km/s) = 2.86734 3.77864 3.35408
# Velocity P-wave (km/s) = 4.17741 7.35214 5.97933
#
# Compressibility (1/GPa) = 0.08565064
#
# Stress axis : x y z
#
# Youngs Moduli (GPa) = 94.94558 77.47102 9.51827
#
# Poissons Ratio (x) = 0.50053 0.07111
# Poissons Ratio (y) = 0.61343 0.07133
# Poissons Ratio (z) = 0.70933 0.58054
#
# Static dielectric constant tensor:
#      x y z
#    x 1.651160 0.000000 0.000000 
#    y 0.000000 1.584010 0.000000 
#    z 0.000000 0.000000 1.621750 
# 
# From -- ./inp_files/8681.got.cif
#   From: 2010.05.17/outbox.cif.g08.bks.cpg/sg57_5_cif.got.tgz:8681.got - 2010.06.03 13:58:18.
