data_PCOD9435690
_publ_section_title
;
Structure prediction by ZEFSAII (Michael W. Deem and Ramdas Pophale) SiO2 
 PCOD9435690
Probable space group: P B C M
;
_chemical_formula_sum "Si O2"
_cell_formula_units_Z 48
_cell_length_a 18.743910
_cell_length_b 15.381692
_cell_length_c 8.550778
_cell_angle_alpha 90.000000
_cell_angle_beta 90.000000
_cell_angle_gamma 90.000000
_cell_volume 2465.300889
_symmetry_space_group_name_H-M "P B C M"
_symmetry_group_IT_number 57
_symmetry_cell_setting 'orthorhombic'
loop_
_space_group_symop_operation_xyz
x,y,z
-x,-y,1/2+z
x,1/2-y,-z
-x,1/2+y,1/2-z
-x,-y,-z
x,y,1/2-z
-x,1/2+y,z
x,1/2-y,1/2+z
loop_
_atom_site_type_symbol
_atom_site_label
_atom_site_fract_x
_atom_site_fract_y
_atom_site_fract_z
Si Si1 0.390328 0.155498 0.562668
Si Si2 0.549575 0.345065 0.561985
Si Si3 0.826897 0.027004 0.562748
Si Si4 0.325609 0.976350 0.938590
Si Si5 0.973291 0.092645 0.561655
Si Si6 0.878762 0.659514 0.937582
O O1 0.368965 0.250000 0.500000
O O2 0.390803 0.158642 0.750000
O O3 0.470941 0.137111 0.505310
O O4 0.341217 0.075502 0.511230
O O5 0.570717 0.250000 0.500000
O O6 0.544873 0.343279 0.750000
O O7 0.607920 0.416140 0.514407
O O8 0.828143 0.022242 0.750000
O O9 0.843605 0.929911 0.498009
O O10 0.749455 0.054422 0.505064
O O11 0.890601 0.092797 0.511349
O O12 0.322075 0.975199 0.750000
O O13 0.973762 0.094359 0.750000
O O14 0.037536 0.154893 0.510145
O O15 0.000000 0.000000 0.500000
O O16 0.874832 0.659017 0.750000
O O17 0.847529 0.750000 0.000000
#
# Coordination Sequence:
#
# PCOD9435690 Si02
#       6
#     8   8   8   8   8   8
#     4  10  20  35  55  79 107 138 176 220 265 317
#     4  10  20  36  57  79 104 136 178 225 271 318
#     4  10  20  34  53  76 103 136 173 212 259 313
#     4  10  22  37  53  77 110 146 179 216 267 323
#     4   8  16  31  50  71  94 124 162 202 243 291
#     4  10  19  33  53  76 104 134 169 213 259 310
#
# _framework density 19.470238999999999
#
# number of rings (size 3 to 8) (size 9 to 14) (size 15 to 20)
#    0.000    2.333    0.000    3.500    0.000    4.667 
#    0.000    2.500    0.000    4.000    0.000    0.000 
#    0.000    0.000    0.000    0.000    0.000    0.000 
#
# Total GULP energy -267663.785874 kJ/mol
# GULP energy per Si atom -5576.328872 kJ/mol
# Density = 1.942592 g / cm^3
# Si number density = 19.470239 Si / 1000 Ang^3
#
#
#
# Elastic Constant Matrix: (Units=GPa)
#
#
# Indices 1 2 3 4 5 6 
#
# 1 51.4211 0.3773 4.6221 0.0000 0.0000 0.0000
# 2 0.3773 20.9114 1.7830 0.0000 0.0000 0.0000
# 3 4.6221 1.7830 23.9557 0.0000 0.0000 0.0000
# 4 0.0000 0.0000 0.0000 20.1071 0.0000 0.0000
# 5 0.0000 0.0000 0.0000 0.0000 29.4535 0.0000
# 6 0.0000 0.0000 0.0000 0.0000 0.0000 20.4699
#
#
#
# Elastic Compliance Matrix: (Units=1/GPa)
#
#
# Indices 1 2 3 4 5 6 
#
# 1 0.019791 -0.000032 -0.003816 0.000000 0.000000 0.000000
# 2 -0.000032 0.048126 -0.003576 0.000000 0.000000 0.000000
# 3 -0.003816 -0.003576 0.042746 0.000000 0.000000 0.000000
# 4 0.000000 0.000000 0.000000 0.049734 0.000000 0.000000
# 5 0.000000 0.000000 0.000000 0.000000 0.033952 0.000000
# 6 0.000000 0.000000 0.000000 0.000000 0.000000 0.048852
#
#
# Mechanical properties :
#
#
# Convention : Reuss Voigt Hill
#
# Bulk Modulus (GPa) = 10.43671 12.20589 11.32130
# Shear Modulus (GPa) = 17.24218 19.97315 18.60767
#
# Velocity S-wave (km/s) = 2.97907 3.20633 3.09479
# Velocity P-wave (km/s) = 4.14791 4.47102 4.31249
#
# Compressibility (1/GPa) = 0.09581561
#
# Stress axis : x y z
#
# Youngs Moduli (GPa) = 50.52928 20.77872 23.39388
#
# Poissons Ratio (x) = 0.00066 0.08927
# Poissons Ratio (y) = 0.00160 0.08365
# Poissons Ratio (z) = 0.19282 0.07430
#
# Static dielectric constant tensor:
#      x y z
#    x 1.707250 0.000000 0.000000 
#    y 0.000000 1.644070 0.000000 
#    z 0.000000 0.000000 1.651310 
# 
# From -- ./inp_files/6505.got.cif
#   From: 2010.05.17/outbox.cif.g08.bks.cpg/sg57_4_cif.got.tgz:6505.got - 2010.06.03 13:58:18.
