data_PCOD9435115
_publ_section_title
;
Structure prediction by ZEFSAII (Michael W. Deem and Ramdas Pophale) SiO2 
 PCOD9435115
Probable space group: P B C M
;
_chemical_formula_sum "Si O2"
_cell_formula_units_Z 64
_cell_length_a 22.734208
_cell_length_b 20.091391
_cell_length_c 8.427118
_cell_angle_alpha 90.000000
_cell_angle_beta 90.000000
_cell_angle_gamma 90.000000
_cell_volume 3849.186109
_symmetry_space_group_name_H-M "P B C M"
_symmetry_group_IT_number 57
_symmetry_cell_setting 'orthorhombic'
loop_
_space_group_symop_operation_xyz
x,y,z
-x,-y,1/2+z
x,1/2-y,-z
-x,1/2+y,1/2-z
-x,-y,-z
x,y,1/2-z
-x,1/2+y,z
x,1/2-y,1/2+z
loop_
_atom_site_type_symbol
_atom_site_label
_atom_site_fract_x
_atom_site_fract_y
_atom_site_fract_z
Si Si1 0.635700 0.176782 0.060519
Si Si2 0.058603 0.037366 0.557795
Si Si3 0.172439 0.543918 0.439086
Si Si4 0.524017 0.098704 0.442916
Si Si5 0.697913 0.457643 0.059949
Si Si6 0.411256 0.034194 0.439179
Si Si7 0.119148 0.678115 0.940301
Si Si8 0.982199 0.678673 0.559449
O O1 0.639274 0.177054 0.250000
O O2 0.567744 0.158856 0.014068
O O3 0.652286 0.250000 0.000000
O O4 0.675048 0.114525 0.000996
O O5 0.058039 0.035547 0.750000
O O6 0.053408 0.114082 0.505887
O O7 0.117971 0.001334 0.502328
O O8 0.000000 0.000000 0.500000
O O9 0.175333 0.537789 0.250000
O O10 0.235856 0.528263 0.509310
O O11 0.156074 0.619023 0.485644
O O12 0.525994 0.092463 0.250000
O O13 0.455460 0.093085 0.493407
O O14 0.554441 0.034037 0.519839
O O15 0.694383 0.455134 0.250000
O O16 0.653707 0.516023 0.999713
O O17 0.406426 0.041920 0.250000
O O18 0.121804 0.674880 0.750000
O O19 0.050590 0.670535 0.990776
O O20 0.139229 0.750000 0.000000
O O21 0.960908 0.750000 0.500000
O O22 0.982124 0.679834 0.750000
#
# Coordination Sequence:
#
# PCOD9435115 Si02
#       8
#     8   8   8   8   8   8   8   8
#     4  10  19  31  47  68  97 130 163 196 232 274
#     4  10  20  34  52  74  99 126 158 201 252 300
#     4  11  22  34  49  70  97 129 166 204 248 298
#     4   8  14  25  43  66  89 114 145 184 227 267
#     4  10  20  33  48  66  92 125 162 199 235 281
#     4   8  14  26  44  65  87 112 144 184 228 269
#     4  10  19  32  49  68  94 124 159 198 239 290
#     4   9  18  32  50  73  97 121 150 189 238 293
#
# _framework density 16.626891000000001
#
# number of rings (size 3 to 8) (size 9 to 14) (size 15 to 20)
#    0.000    2.500    1.250    1.500    0.000    3.000 
#    0.000    2.500    0.000    0.000    0.000    0.875 
#    0.000    6.000    0.000    0.000    0.000    0.000 
#
# Total GULP energy -356385.073504 kJ/mol
# GULP energy per Si atom -5568.516773 kJ/mol
# Density = 1.658905 g / cm^3
# Si number density = 16.626891 Si / 1000 Ang^3
#
#
#
# Elastic Constant Matrix: (Units=GPa)
#
#
# Indices 1 2 3 4 5 6 
#
# 1 125.8086 45.9426 15.8396 0.0000 0.0000 0.0000
# 2 45.9426 53.8264 6.2457 0.0000 0.0000 0.0000
# 3 15.8396 6.2457 16.6232 0.0000 0.0000 0.0000
# 4 0.0000 0.0000 0.0000 15.3518 0.0000 0.0000
# 5 0.0000 0.0000 0.0000 0.0000 18.2773 0.0000
# 6 0.0000 0.0000 0.0000 0.0000 0.0000 20.6065
#
#
#
# Elastic Compliance Matrix: (Units=1/GPa)
#
#
# Indices 1 2 3 4 5 6 
#
# 1 0.012555 -0.009753 -0.008299 0.000000 0.000000 0.000000
# 2 -0.009753 0.027002 -0.000852 0.000000 0.000000 0.000000
# 3 -0.008299 -0.000852 0.068384 0.000000 0.000000 0.000000
# 4 0.000000 0.000000 0.000000 0.065139 0.000000 0.000000
# 5 0.000000 0.000000 0.000000 0.000000 0.054713 0.000000
# 6 0.000000 0.000000 0.000000 0.000000 0.000000 0.048528
#
#
# Mechanical properties :
#
#
# Convention : Reuss Voigt Hill
#
# Bulk Modulus (GPa) = 14.25845 36.92378 25.59111
# Shear Modulus (GPa) = 14.81452 19.39580 17.10516
#
# Velocity S-wave (km/s) = 2.98820 3.41916 3.21092
# Velocity P-wave (km/s) = 4.52768 6.15167 5.40106
#
# Compressibility (1/GPa) = 0.07013387
#
# Stress axis : x y z
#
# Youngs Moduli (GPa) = 79.64895 37.03454 14.62324
#
# Poissons Ratio (x) = 0.36121 0.12135
# Poissons Ratio (y) = 0.77684 0.01245
# Poissons Ratio (z) = 0.66098 0.03154
#
# Static dielectric constant tensor:
#      x y z
#    x 1.602720 0.000000 0.000000 
#    y 0.000000 1.546140 0.000000 
#    z 0.000000 0.000000 1.676690 
# 
# From -- ./inp_files/8778.got.cif
#   From: 2010.05.17/outbox.cif.g08.bks.cpg/sg57_5_cif.got.tgz:8778.got - 2010.06.03 13:58:18.
