data_PCOD9435367
_publ_section_title
;
Structure prediction by ZEFSAII (Michael W. Deem and Ramdas Pophale) SiO2 
 PCOD9435367
Probable space group: P B C M
;
_chemical_formula_sum "Si O2"
_cell_formula_units_Z 48
_cell_length_a 32.635679
_cell_length_b 9.610415
_cell_length_c 8.107911
_cell_angle_alpha 90.000000
_cell_angle_beta 90.000000
_cell_angle_gamma 90.000000
_cell_volume 2542.984819
_symmetry_space_group_name_H-M "P B C M"
_symmetry_group_IT_number 57
_symmetry_cell_setting 'orthorhombic'
loop_
_space_group_symop_operation_xyz
x,y,z
-x,-y,1/2+z
x,1/2-y,-z
-x,1/2+y,1/2-z
-x,-y,-z
x,y,1/2-z
-x,1/2+y,z
x,1/2-y,1/2+z
loop_
_atom_site_type_symbol
_atom_site_label
_atom_site_fract_x
_atom_site_fract_y
_atom_site_fract_z
Si Si1 0.538675 0.410478 0.053335
Si Si2 0.716531 0.089087 0.949560
Si Si3 0.372458 0.912146 0.448951
Si Si4 0.792684 0.591134 0.050829
Si Si5 0.960915 0.409949 0.053089
Si Si6 0.115311 0.090423 0.050612
O O1 0.540183 0.412630 0.250000
O O2 0.583236 0.465765 0.991267
O O3 0.534246 0.250000 0.000000
O O4 0.500000 0.500000 0.000000
O O5 0.716691 0.082978 0.750000
O O6 0.671829 0.032842 0.006868
O O7 0.755700 0.004256 0.011358
O O8 0.719700 0.250000 0.000000
O O9 0.372408 0.750000 0.500000
O O10 0.372324 0.921458 0.250000
O O11 0.792930 0.583369 0.250000
O O12 0.838651 0.552978 0.993250
O O13 0.785585 0.750000 0.000000
O O14 0.959276 0.412126 0.250000
O O15 0.919801 0.486525 0.989377
O O16 0.963912 0.250000 0.000000
O O17 0.000000 0.500000 0.000000
O O18 0.115354 0.086498 0.250000
O O19 0.106857 0.250000 0.000000
#
# Coordination Sequence:
#
# PCOD9435367 Si02
#       6
#     8   8   8   8   8   8
#     4  10  19  32  50  71  96 126 162 202 246 295
#     4   9  17  30  49  72  97 124 158 199 240 285
#     4   8  15  28  46  67  92 123 157 195 238 285
#     4   9  18  33  51  72 100 132 164 199 242 291
#     4  11  23  38  56  79 107 137 171 210 253 299
#     4   9  19  35  54  75 100 132 168 205 245 291
#
# _framework density 18.875456
#
# number of rings (size 3 to 8) (size 9 to 14) (size 15 to 20)
#    0.000    2.667    0.000    1.500    0.000    4.667 
#    0.000    0.833    0.000    2.000    0.000    0.000 
#    0.000    0.000    0.000    0.000    0.000    0.000 
#
# Total GULP energy -267465.061547 kJ/mol
# GULP energy per Si atom -5572.188782 kJ/mol
# Density = 1.883249 g / cm^3
# Si number density = 18.875456 Si / 1000 Ang^3
#
#
#
# Elastic Constant Matrix: (Units=GPa)
#
#
# Indices 1 2 3 4 5 6 
#
# 1 234.9778 113.3733 20.7788 0.0000 0.0000 0.0000
# 2 113.3733 89.2331 7.8805 0.0000 0.0000 0.0000
# 3 20.7788 7.8805 16.3748 0.0000 0.0000 0.0000
# 4 0.0000 0.0000 0.0000 26.7814 0.0000 0.0000
# 5 0.0000 0.0000 0.0000 0.0000 15.1593 0.0000
# 6 0.0000 0.0000 0.0000 0.0000 0.0000 34.8176
#
#
#
# Elastic Compliance Matrix: (Units=1/GPa)
#
#
# Indices 1 2 3 4 5 6 
#
# 1 0.011970 -0.014483 -0.008220 0.000000 0.000000 0.000000
# 2 -0.014483 0.029226 0.004312 0.000000 0.000000 0.000000
# 3 -0.008220 0.004312 0.069425 0.000000 0.000000 0.000000
# 4 0.000000 0.000000 0.000000 0.037339 0.000000 0.000000
# 5 0.000000 0.000000 0.000000 0.000000 0.065966 0.000000
# 6 0.000000 0.000000 0.000000 0.000000 0.000000 0.028721
#
#
# Mechanical properties :
#
#
# Convention : Reuss Voigt Hill
#
# Bulk Modulus (GPa) = 13.54256 69.40565 41.47410
# Shear Modulus (GPa) = 16.44510 28.58854 22.51682
#
# Velocity S-wave (km/s) = 2.95488 3.89599 3.45761
# Velocity P-wave (km/s) = 4.33959 7.55569 6.16119
#
# Compressibility (1/GPa) = 0.07384128
#
# Stress axis : x y z
#
# Youngs Moduli (GPa) = 83.54052 34.21567 14.40408
#
# Poissons Ratio (x) = 0.49553 0.11840
# Poissons Ratio (y) = 1.20989 -0.06212
# Poissons Ratio (z) = 0.68669 -0.14755
#
# Static dielectric constant tensor:
#      x y z
#    x 1.730380 0.000000 0.000000 
#    y 0.000000 1.589530 0.000000 
#    z 0.000000 0.000000 1.675210 
# 
# From -- ./inp_files/9982.got.cif
#   From: 2010.05.17/outbox.cif.g08.bks.cpg/sg57_5_cif.got.tgz:9982.got - 2010.06.03 13:58:18.
