data_PCOD9435232
_publ_section_title
;
Structure prediction by ZEFSAII (Michael W. Deem and Ramdas Pophale) SiO2 
 PCOD9435232
Probable space group: P B C M
;
_chemical_formula_sum "Si O2"
_cell_formula_units_Z 64
_cell_length_a 23.870401
_cell_length_b 18.023884
_cell_length_c 8.725259
_cell_angle_alpha 90.000000
_cell_angle_beta 90.000000
_cell_angle_gamma 90.000000
_cell_volume 3753.932211
_symmetry_space_group_name_H-M "P B C M"
_symmetry_group_IT_number 57
_symmetry_cell_setting 'orthorhombic'
loop_
_space_group_symop_operation_xyz
x,y,z
-x,-y,1/2+z
x,1/2-y,-z
-x,1/2+y,1/2-z
-x,-y,-z
x,y,1/2-z
-x,1/2+y,z
x,1/2-y,1/2+z
loop_
_atom_site_type_symbol
_atom_site_label
_atom_site_fract_x
_atom_site_fract_y
_atom_site_fract_z
Si Si1 0.564896 0.831676 0.065536
Si Si2 0.633467 0.527909 0.066684
Si Si3 0.177775 0.174729 0.568536
Si Si4 0.755929 0.976915 0.432797
Si Si5 0.869657 0.046716 0.064846
Si Si6 0.072271 0.098254 0.066564
Si Si7 0.954691 0.168000 0.434823
Si Si8 0.534327 0.069311 0.565770
O O1 0.568353 0.829119 0.250000
O O2 0.501705 0.858725 0.018425
O O3 0.577152 0.750000 0.000000
O O4 0.605970 0.897689 0.007038
O O5 0.629810 0.536379 0.250000
O O6 0.597228 0.454462 0.021524
O O7 0.697050 0.517485 0.015611
O O8 0.201778 0.250000 0.500000
O O9 0.169139 0.181291 0.750000
O O10 0.217774 0.104646 0.541033
O O11 0.118599 0.157247 0.488533
O O12 0.747596 0.985689 0.250000
O O13 0.805600 0.032554 0.484054
O O14 0.869883 0.042193 0.250000
O O15 0.899672 0.122288 0.017433
O O16 0.907570 0.979115 0.004640
O O17 0.073345 0.092890 0.250000
O O18 0.010570 0.123494 0.017091
O O19 0.955902 0.250000 0.500000
O O20 0.955517 0.171365 0.250000
O O21 0.532155 0.068650 0.750000
O O22 0.500000 0.000000 0.500000
#
# Coordination Sequence:
#
# PCOD9435232 Si02
#       8
#     8   8   8   8   8   8   8   8
#     4  10  19  32  50  74 105 134 160 192 234 282
#     4  10  19  32  51  74  98 126 163 202 238 280
#     4  10  20  33  48  67  96 131 164 200 242 289
#     4   9  19  34  50  68  93 128 166 203 242 282
#     4   9  19  36  53  70  97 130 164 203 246 291
#     4  10  19  31  50  75  99 125 160 198 243 299
#     4  10  21  34  50  74 100 126 157 199 250 301
#     4   8  16  30  48  70  96 126 157 191 229 270
#
# _framework density 17.04879
#
# number of rings (size 3 to 8) (size 9 to 14) (size 15 to 20)
#    0.000    2.500    0.000    3.000    0.000    6.500 
#    0.000    1.250    0.000    0.750    0.000    5.250 
#    0.000    0.000    0.000    0.000    0.000    0.000 
#
# Total GULP energy -356629.918468 kJ/mol
# GULP energy per Si atom -5572.342476 kJ/mol
# Density = 1.700999 g / cm^3
# Si number density = 17.048790 Si / 1000 Ang^3
#
#
#
# Elastic Constant Matrix: (Units=GPa)
#
#
# Indices 1 2 3 4 5 6 
#
# 1 132.0746 47.2516 33.8226 0.0000 0.0000 0.0000
# 2 47.2516 50.3229 10.6157 0.0000 0.0000 0.0000
# 3 33.8226 10.6157 15.3462 0.0000 0.0000 0.0000
# 4 0.0000 0.0000 0.0000 17.3994 0.0000 0.0000
# 5 0.0000 0.0000 0.0000 0.0000 24.8360 0.0000
# 6 0.0000 0.0000 0.0000 0.0000 0.0000 4.6241
#
#
#
# Elastic Compliance Matrix: (Units=1/GPa)
#
#
# Indices 1 2 3 4 5 6 
#
# 1 0.022578 -0.012532 -0.041093 0.000000 0.000000 0.000000
# 2 -0.012532 0.030222 0.006713 0.000000 0.000000 0.000000
# 3 -0.041093 0.006713 0.151088 0.000000 0.000000 0.000000
# 4 0.000000 0.000000 0.000000 0.057473 0.000000 0.000000
# 5 0.000000 0.000000 0.000000 0.000000 0.040264 0.000000
# 6 0.000000 0.000000 0.000000 0.000000 0.000000 0.216258
#
#
# Mechanical properties :
#
#
# Convention : Reuss Voigt Hill
#
# Bulk Modulus (GPa) = 9.08556 42.34705 25.71631
# Shear Modulus (GPa) = 7.71133 16.44215 12.07674
#
# Velocity S-wave (km/s) = 2.12906 3.10888 2.66440
# Velocity P-wave (km/s) = 3.37411 6.14650 4.95803
#
# Compressibility (1/GPa) = 0.11006477
#
# Stress axis : x y z
#
# Youngs Moduli (GPa) = 44.29028 33.08815 6.61866
#
# Poissons Ratio (x) = 0.41465 0.27198
# Poissons Ratio (y) = 0.55503 -0.04443
# Poissons Ratio (z) = 1.82004 -0.22212
#
# Static dielectric constant tensor:
#      x y z
#    x 1.595380 0.000000 0.000000 
#    y 0.000000 1.571380 0.000000 
#    z 0.000000 0.000000 1.592300 
# 
# From -- ./inp_files/9565.got.cif
#   From: 2010.05.17/outbox.cif.g08.bks.cpg/sg57_5_cif.got.tgz:9565.got - 2010.06.03 13:58:18.
