data_PCOD9435454
_publ_section_title
;
Structure prediction by ZEFSAII (Michael W. Deem and Ramdas Pophale) SiO2 
 PCOD9435454
Probable space group: P B C M
;
_chemical_formula_sum "Si O2"
_cell_formula_units_Z 48
_cell_length_a 21.352883
_cell_length_b 14.142467
_cell_length_c 8.801042
_cell_angle_alpha 90.000000
_cell_angle_beta 90.000000
_cell_angle_gamma 90.000000
_cell_volume 2657.760166
_symmetry_space_group_name_H-M "P B C M"
_symmetry_group_IT_number 57
_symmetry_cell_setting 'orthorhombic'
loop_
_space_group_symop_operation_xyz
x,y,z
-x,-y,1/2+z
x,1/2-y,-z
-x,1/2+y,1/2-z
-x,-y,-z
x,y,1/2-z
-x,1/2+y,z
x,1/2-y,1/2+z
loop_
_atom_site_type_symbol
_atom_site_label
_atom_site_fract_x
_atom_site_fract_y
_atom_site_fract_z
Si Si1 0.034010 0.645927 0.568131
Si Si2 0.466269 0.145741 0.068104
Si Si3 0.219345 0.354952 0.431761
Si Si4 0.093350 0.036446 0.567022
Si Si5 0.598229 0.146399 0.932042
Si Si6 0.337309 0.461705 0.931776
O O1 0.043306 0.750000 0.500000
O O2 0.037871 0.650824 0.750000
O O3 0.081199 0.565781 0.506470
O O4 0.965121 0.604655 0.526290
O O5 0.474156 0.149780 0.250000
O O6 0.403783 0.087776 0.034193
O O7 0.457209 0.250000 0.000000
O O8 0.531082 0.111004 0.994608
O O9 0.218434 0.250000 0.500000
O O10 0.218767 0.347507 0.250000
O O11 0.157796 0.413786 0.479555
O O12 0.281070 0.410102 0.484994
O O13 0.093004 0.025821 0.750000
O O14 0.593899 0.151742 0.750000
O O15 0.651793 0.071294 0.972410
O O16 0.608853 0.250000 0.000000
O O17 0.327408 0.454620 0.750000
#
# Coordination Sequence:
#
# PCOD9435454 Si02
#       6
#     8   8   8   8   8   8
#     4  10  19  33  57  85 114 146 180 224 270 314
#     4  10  19  32  51  76 104 134 170 215 266 319
#     4  11  23  38  58  81 109 143 177 216 261 314
#     4   9  20  37  55  81 113 146 185 222 263 315
#     4  10  20  35  54  76 102 133 172 220 270 320
#     4  10  22  37  53  76 106 139 178 220 262 313
#
# _framework density 18.060320000000001
#
# number of rings (size 3 to 8) (size 9 to 14) (size 15 to 20)
#    0.000    2.000    0.000    4.500    0.000    6.000 
#    0.000    0.833    0.000    2.000    0.000    0.000 
#    0.000    0.000    0.000    0.000    0.000    0.000 
#
# Total GULP energy -268016.712003 kJ/mol
# GULP energy per Si atom -5583.681500 kJ/mol
# Density = 1.801921 g / cm^3
# Si number density = 18.060320 Si / 1000 Ang^3
#
#
#
# Elastic Constant Matrix: (Units=GPa)
#
#
# Indices 1 2 3 4 5 6 
#
# 1 114.8107 98.2808 52.6287 0.0000 0.0000 0.0000
# 2 98.2808 164.4314 60.8958 0.0000 0.0000 0.0000
# 3 52.6287 60.8958 54.6306 0.0000 0.0000 0.0000
# 4 0.0000 0.0000 0.0000 18.5990 0.0000 0.0000
# 5 0.0000 0.0000 0.0000 0.0000 24.5177 0.0000
# 6 0.0000 0.0000 0.0000 0.0000 0.0000 27.1998
#
#
#
# Elastic Compliance Matrix: (Units=1/GPa)
#
#
# Indices 1 2 3 4 5 6 
#
# 1 0.020896 -0.008574 -0.010573 0.000000 0.000000 0.000000
# 2 -0.008574 0.013875 -0.007207 0.000000 0.000000 0.000000
# 3 -0.010573 -0.007207 0.036524 0.000000 0.000000 0.000000
# 4 0.000000 0.000000 0.000000 0.053766 0.000000 0.000000
# 5 0.000000 0.000000 0.000000 0.000000 0.040787 0.000000
# 6 0.000000 0.000000 0.000000 0.000000 0.000000 0.036765
#
#
# Mechanical properties :
#
#
# Convention : Reuss Voigt Hill
#
# Bulk Modulus (GPa) = 53.79996 84.16484 68.98240
# Shear Modulus (GPa) = 19.11922 22.20111 20.66017
#
# Velocity S-wave (km/s) = 3.25719 3.50991 3.38591
# Velocity P-wave (km/s) = 6.63321 7.94539 7.31876
#
# Compressibility (1/GPa) = 0.01858737
#
# Stress axis : x y z
#
# Youngs Moduli (GPa) = 47.85534 72.07120 27.37952
#
# Poissons Ratio (x) = 0.61794 0.28949
# Poissons Ratio (y) = 0.41031 0.19731
# Poissons Ratio (z) = 0.50599 0.51939
#
# Static dielectric constant tensor:
#      x y z
#    x 1.604820 0.000000 0.000000 
#    y 0.000000 1.601100 0.000000 
#    z 0.000000 0.000000 1.605690 
# 
# From -- ./inp_files/6538.got.cif
#   From: 2010.05.17/outbox.cif.g08.bks.cpg/sg57_4_cif.got.tgz:6538.got - 2010.06.03 13:58:18.
