data_PCOD9435930
_publ_section_title
;
Structure prediction by ZEFSAII (Michael W. Deem and Ramdas Pophale) SiO2 
 PCOD9435930
Probable space group: P B C M
;
_chemical_formula_sum "Si O2"
_cell_formula_units_Z 40
_cell_length_a 9.939209
_cell_length_b 26.235248
_cell_length_c 8.470359
_cell_angle_alpha 90.000000
_cell_angle_beta 90.000000
_cell_angle_gamma 90.000000
_cell_volume 2208.710594
_symmetry_space_group_name_H-M "P B C M"
_symmetry_group_IT_number 57
_symmetry_cell_setting 'orthorhombic'
loop_
_space_group_symop_operation_xyz
x,y,z
-x,-y,1/2+z
x,1/2-y,-z
-x,1/2+y,1/2-z
-x,-y,-z
x,y,1/2-z
-x,1/2+y,z
x,1/2-y,1/2+z
loop_
_atom_site_type_symbol
_atom_site_label
_atom_site_fract_x
_atom_site_fract_y
_atom_site_fract_z
Si Si1 0.043529 0.885589 0.063390
Si Si2 0.463024 0.606946 0.441761
Si Si3 0.745113 0.307215 0.939667
Si Si4 0.762871 0.028009 0.061419
Si Si5 0.763336 0.914294 0.937997
O O1 0.059797 0.891187 0.250000
O O2 0.123299 0.835886 0.005101
O O3 0.115578 0.933847 0.980181
O O4 0.887668 0.885869 0.017945
O O5 0.464824 0.606396 0.250000
O O6 0.380942 0.657256 0.490221
O O7 0.372456 0.558280 0.488902
O O8 0.616178 0.603384 0.495790
O O9 0.750664 0.307819 0.750000
O O10 0.733957 0.250000 0.000000
O O11 0.759711 0.020202 0.250000
O O12 0.775499 0.974174 0.977090
O O13 0.771179 0.906959 0.750000
#
# Coordination Sequence:
#
# PCOD9435930 Si02
#       5
#     8   8   8   8   8
#     4  11  22  36  53  78 107 142 182 220 260 311
#     4   8  18  34  54  78 107 139 176 216 261 312
#     4  10  20  39  62  83 103 132 172 218 266 318
#     4  10  19  34  53  77 108 145 182 219 259 312
#     4  11  20  33  52  78 111 146 177 217 264 311
#
# _framework density 18.110112999999998
#
# number of rings (size 3 to 8) (size 9 to 14) (size 15 to 20)
#    0.000    2.000    0.000    6.000    0.000    0.000 
#    0.000   12.000    0.000    2.400    0.000    0.000 
#    0.000    0.000    0.000    0.000    0.000    0.000 
#
# Total GULP energy -223399.431279 kJ/mol
# GULP energy per Si atom -5584.985782 kJ/mol
# Density = 1.806889 g / cm^3
# Si number density = 18.110113 Si / 1000 Ang^3
#
#
#
# Elastic Constant Matrix: (Units=GPa)
#
#
# Indices 1 2 3 4 5 6 
#
# 1 99.5119 8.4697 9.7950 0.0000 0.0000 0.0000
# 2 8.4697 69.1511 2.6278 0.0000 0.0000 0.0000
# 3 9.7950 2.6278 24.7484 0.0000 0.0000 0.0000
# 4 0.0000 0.0000 0.0000 21.4651 0.0000 0.0000
# 5 0.0000 0.0000 0.0000 0.0000 17.3319 0.0000
# 6 0.0000 0.0000 0.0000 0.0000 0.0000 3.5023
#
#
#
# Elastic Compliance Matrix: (Units=1/GPa)
#
#
# Indices 1 2 3 4 5 6 
#
# 1 0.010545 -0.001138 -0.004053 0.000000 0.000000 0.000000
# 2 -0.001138 0.014642 -0.001105 0.000000 0.000000 0.000000
# 3 -0.004053 -0.001105 0.042128 0.000000 0.000000 0.000000
# 4 0.000000 0.000000 0.000000 0.046587 0.000000 0.000000
# 5 0.000000 0.000000 0.000000 0.000000 0.057697 0.000000
# 6 0.000000 0.000000 0.000000 0.000000 0.000000 0.285530
#
#
# Mechanical properties :
#
#
# Convention : Reuss Voigt Hill
#
# Bulk Modulus (GPa) = 18.27298 26.13294 22.20296
# Shear Modulus (GPa) = 10.24673 19.96111 15.10392
#
# Velocity S-wave (km/s) = 2.38124 3.32355 2.89105
# Velocity P-wave (km/s) = 4.20384 5.40272 4.84054
#
# Compressibility (1/GPa) = 0.05472561
#
# Stress axis : x y z
#
# Youngs Moduli (GPa) = 94.83365 68.29489 23.73720
#
# Poissons Ratio (x) = 0.07769 0.09620
# Poissons Ratio (y) = 0.10788 0.02622
# Poissons Ratio (z) = 0.38433 0.07544
#
# Static dielectric constant tensor:
#      x y z
#    x 1.635570 0.000000 0.000000 
#    y 0.000000 1.584660 0.000000 
#    z 0.000000 0.000000 1.607070 
# 
# From -- ./inp_files/1541.got.cif
#   From: 2010.05.17/outbox.cif.g08.bks.cpg/sg57_1_cif.got.tgz:1541.got - 2010.06.03 13:58:18.
