data_PCOD9435737
_publ_section_title
;
Structure prediction by ZEFSAII (Michael W. Deem and Ramdas Pophale) SiO2 
 PCOD9435737
Probable space group: P B C M
;
_chemical_formula_sum "Si O2"
_cell_formula_units_Z 56
_cell_length_a 15.078051
_cell_length_b 23.082999
_cell_length_c 8.643562
_cell_angle_alpha 90.000000
_cell_angle_beta 90.000000
_cell_angle_gamma 90.000000
_cell_volume 3008.362678
_symmetry_space_group_name_H-M "P B C M"
_symmetry_group_IT_number 57
_symmetry_cell_setting 'orthorhombic'
loop_
_space_group_symop_operation_xyz
x,y,z
-x,-y,1/2+z
x,1/2-y,-z
-x,1/2+y,1/2-z
-x,-y,-z
x,y,1/2-z
-x,1/2+y,z
x,1/2-y,1/2+z
loop_
_atom_site_type_symbol
_atom_site_label
_atom_site_fract_x
_atom_site_fract_y
_atom_site_fract_z
Si Si1 0.788407 0.587724 0.436882
Si Si2 0.075672 0.188930 0.065006
Si Si3 0.607144 0.945850 0.065055
Si Si4 0.308874 0.688536 0.564363
Si Si5 0.905436 0.019646 0.563777
Si Si6 0.414873 0.578292 0.064995
Si Si7 0.886108 0.152178 0.936814
O O1 0.780227 0.588740 0.250000
O O2 0.857462 0.637793 0.482641
O O3 0.692113 0.590161 0.511493
O O4 0.832731 0.526978 0.484996
O O5 0.072731 0.190134 0.250000
O O6 0.107526 0.250000 0.000000
O O7 0.976304 0.178055 0.003989
O O8 0.597212 0.944330 0.250000
O O9 0.619329 0.013818 0.018408
O O10 0.517287 0.922670 0.987998
O O11 0.342723 0.750000 0.500000
O O12 0.311243 0.689651 0.750000
O O13 0.362294 0.632035 0.507862
O O14 0.205925 0.681189 0.513680
O O15 0.909672 0.018503 0.750000
O O16 0.883420 0.084730 0.515775
O O17 0.000000 0.000000 0.500000
O O18 0.409149 0.582636 0.250000
O O19 0.891043 0.155328 0.750000
#
# Coordination Sequence:
#
# PCOD9435737 Si02
#       7
#     8   8   8   8   8   8   8
#     4  10  21  37  56  82 115 150 187 233 286 339
#     4  11  23  38  56  77 108 150 194 237 279 330
#     4  10  21  37  62  92 117 147 187 235 290 347
#     4  11  23  39  59  85 118 156 197 242 289 344
#     4  10  19  33  53  81 114 147 185 232 284 334
#     4  10  21  39  62  89 119 150 186 233 289 348
#     4  10  21  36  57  83 114 151 191 235 285 339
#
# _framework density 18.614775999999999
#
# number of rings (size 3 to 8) (size 9 to 14) (size 15 to 20)
#    0.000    1.714    1.429    3.000    0.000    6.857 
#    0.000    0.714    0.000    1.714    0.000    0.000 
#    0.000    0.000    0.000    0.000    0.000    0.000 
#
# Total GULP energy -312825.747649 kJ/mol
# GULP energy per Si atom -5586.174065 kJ/mol
# Density = 1.857241 g / cm^3
# Si number density = 18.614776 Si / 1000 Ang^3
#
#
#
# Elastic Constant Matrix: (Units=GPa)
#
#
# Indices 1 2 3 4 5 6 
#
# 1 109.7625 46.6615 24.3589 0.0000 0.0000 0.0000
# 2 46.6615 109.1334 28.4819 0.0000 0.0000 0.0000
# 3 24.3589 28.4819 28.7749 0.0000 0.0000 0.0000
# 4 0.0000 0.0000 0.0000 28.0836 0.0000 0.0000
# 5 0.0000 0.0000 0.0000 0.0000 32.5433 0.0000
# 6 0.0000 0.0000 0.0000 0.0000 0.0000 18.0046
#
#
#
# Elastic Compliance Matrix: (Units=1/GPa)
#
#
# Indices 1 2 3 4 5 6 
#
# 1 0.012069 -0.003362 -0.006888 0.000000 0.000000 0.000000
# 2 -0.003362 0.013291 -0.010310 0.000000 0.000000 0.000000
# 3 -0.006888 -0.010310 0.050788 0.000000 0.000000 0.000000
# 4 0.000000 0.000000 0.000000 0.035608 0.000000 0.000000
# 5 0.000000 0.000000 0.000000 0.000000 0.030728 0.000000
# 6 0.000000 0.000000 0.000000 0.000000 0.000000 0.055542
#
#
# Mechanical properties :
#
#
# Convention : Reuss Voigt Hill
#
# Bulk Modulus (GPa) = 28.54892 49.63063 39.08977
# Shear Modulus (GPa) = 19.93438 25.60418 22.76928
#
# Velocity S-wave (km/s) = 3.27600 3.71276 3.50120
# Velocity P-wave (km/s) = 5.44789 6.71560 6.11469
#
# Compressibility (1/GPa) = 0.03502759
#
# Stress axis : x y z
#
# Youngs Moduli (GPa) = 82.85919 75.23684 19.68954
#
# Poissons Ratio (x) = 0.25297 0.13563
# Poissons Ratio (y) = 0.27860 0.20299
# Poissons Ratio (z) = 0.57077 0.77567
#
# Static dielectric constant tensor:
#      x y z
#    x 1.620530 0.000000 0.000000 
#    y 0.000000 1.627300 0.000000 
#    z 0.000000 0.000000 1.616920 
# 
# From -- ./inp_files/5290.got.cif
#   From: 2010.05.17/outbox.cif.g08.bks.cpg/sg57_3_cif.got.tgz:5290.got - 2010.06.03 13:58:18.
