data_PCOD9435372
_publ_section_title
;
Structure prediction by ZEFSAII (Michael W. Deem and Ramdas Pophale) SiO2 
 PCOD9435372
Probable space group: P B C M
;
_chemical_formula_sum "Si O2"
_cell_formula_units_Z 40
_cell_length_a 27.042714
_cell_length_b 9.967369
_cell_length_c 8.367872
_cell_angle_alpha 90.000000
_cell_angle_beta 90.000000
_cell_angle_gamma 90.000000
_cell_volume 2255.515625
_symmetry_space_group_name_H-M "P B C M"
_symmetry_group_IT_number 57
_symmetry_cell_setting 'orthorhombic'
loop_
_space_group_symop_operation_xyz
x,y,z
-x,-y,1/2+z
x,1/2-y,-z
-x,1/2+y,1/2-z
-x,-y,-z
x,y,1/2-z
-x,1/2+y,z
x,1/2-y,1/2+z
loop_
_atom_site_type_symbol
_atom_site_label
_atom_site_fract_x
_atom_site_fract_y
_atom_site_fract_z
Si Si1 0.740453 0.903561 0.556433
Si Si2 0.848420 0.596198 0.057385
Si Si3 0.457917 0.599341 0.940975
Si Si4 0.043324 0.403723 0.941644
Si Si5 0.346369 0.901270 0.443267
O O1 0.735240 0.750000 0.500000
O O2 0.739758 0.902678 0.750000
O O3 0.794821 0.957758 0.504488
O O4 0.695572 0.996287 0.499608
O O5 0.848499 0.592162 0.250000
O O6 0.902122 0.543940 0.003735
O O7 0.848114 0.750000 0.000000
O O8 0.457833 0.599056 0.750000
O O9 0.402188 0.561894 0.995912
O O10 0.467541 0.750000 0.000000
O O11 0.500000 0.500000 0.000000
O O12 0.042943 0.401401 0.750000
O O13 0.037301 0.250000 0.000000
O O14 0.000000 0.500000 0.000000
O O15 0.336546 0.750000 0.500000
O O16 0.345819 0.902080 0.250000
#
# Coordination Sequence:
#
# PCOD9435372 Si02
#       5
#     8   8   8   8   8
#     4   9  17  31  50  73  97 122 156 198 237 280
#     4   8  15  28  47  68  93 123 156 194 237 281
#     4  10  20  35  53  74  99 130 165 202 242 287
#     4  10  19  32  50  72  97 128 163 201 243 289
#     4   9  19  34  51  71  98 129 160 193 236 285
#
# _framework density 17.734304000000002
#
# number of rings (size 3 to 8) (size 9 to 14) (size 15 to 20)
#    0.000    2.800    0.000    1.200    0.000    3.200 
#    0.000    3.000    0.000    2.400    0.000    0.000 
#    0.000    0.000    0.000    0.000    0.000    0.000 
#
# Total GULP energy -222747.990101 kJ/mol
# GULP energy per Si atom -5568.699753 kJ/mol
# Density = 1.769394 g / cm^3
# Si number density = 17.734304 Si / 1000 Ang^3
#
#
#
# Elastic Constant Matrix: (Units=GPa)
#
#
# Indices 1 2 3 4 5 6 
#
# 1 224.5264 109.0109 29.8641 0.0000 0.0000 0.0000
# 2 109.0109 75.5901 15.1411 0.0000 0.0000 0.0000
# 3 29.8641 15.1411 17.7939 0.0000 0.0000 0.0000
# 4 0.0000 0.0000 0.0000 26.7976 0.0000 0.0000
# 5 0.0000 0.0000 0.0000 0.0000 19.3476 0.0000
# 6 0.0000 0.0000 0.0000 0.0000 0.0000 37.1026
#
#
#
# Elastic Compliance Matrix: (Units=1/GPa)
#
#
# Indices 1 2 3 4 5 6 
#
# 1 0.015885 -0.021178 -0.008640 0.000000 0.000000 0.000000
# 2 -0.021178 0.044182 -0.002051 0.000000 0.000000 0.000000
# 3 -0.008640 -0.002051 0.072445 0.000000 0.000000 0.000000
# 4 0.000000 0.000000 0.000000 0.037317 0.000000 0.000000
# 5 0.000000 0.000000 0.000000 0.000000 0.051686 0.000000
# 6 0.000000 0.000000 0.000000 0.000000 0.000000 0.026952
#
#
# Mechanical properties :
#
#
# Convention : Reuss Voigt Hill
#
# Bulk Modulus (GPa) = 14.54045 69.54917 42.04481
# Shear Modulus (GPa) = 14.91961 27.57586 21.24773
#
# Velocity S-wave (km/s) = 2.90364 3.94756 3.46513
# Velocity P-wave (km/s) = 4.41116 7.75113 6.30628
#
# Compressibility (1/GPa) = 0.06877368
#
# Stress axis : x y z
#
# Youngs Moduli (GPa) = 62.95143 22.63389 13.80358
#
# Poissons Ratio (x) = 0.47934 0.11926
# Poissons Ratio (y) = 1.33319 0.02831
# Poissons Ratio (z) = 0.54391 0.04642
#
# Static dielectric constant tensor:
#      x y z
#    x 1.670980 0.000000 0.000000 
#    y 0.000000 1.546810 0.000000 
#    z 0.000000 0.000000 1.619770 
# 
# From -- ./inp_files/7806.got.cif
#   From: 2010.05.17/outbox.cif.g08.bks.cpg/sg57_4_cif.got.tgz:7806.got - 2010.06.03 13:58:18.
