data_PCOD9435870
_publ_section_title
;
Structure prediction by ZEFSAII (Michael W. Deem and Ramdas Pophale) SiO2 
 PCOD9435870
Probable space group: P B C M
;
_chemical_formula_sum "Si O2"
_cell_formula_units_Z 56
_cell_length_a 12.841367
_cell_length_b 13.821565
_cell_length_c 15.016224
_cell_angle_alpha 90.000000
_cell_angle_beta 90.000000
_cell_angle_gamma 90.000000
_cell_volume 2665.196392
_symmetry_space_group_name_H-M "P B C M"
_symmetry_group_IT_number 57
_symmetry_cell_setting 'orthorhombic'
loop_
_space_group_symop_operation_xyz
x,y,z
-x,-y,1/2+z
x,1/2-y,-z
-x,1/2+y,1/2-z
-x,-y,-z
x,y,1/2-z
-x,1/2+y,z
x,1/2-y,1/2+z
loop_
_atom_site_type_symbol
_atom_site_label
_atom_site_fract_x
_atom_site_fract_y
_atom_site_fract_z
Si Si1 0.306458 0.980497 0.147136
Si Si2 0.846810 0.293987 0.900069
Si Si3 0.918213 0.098612 0.650452
Si Si4 0.387262 0.822535 0.915435
Si Si5 0.497161 0.163498 0.846867
Si Si6 0.344942 0.456356 0.460862
Si Si7 0.130446 0.488384 0.358463
O O1 0.300827 0.014841 0.250000
O O2 0.193783 0.938389 0.116243
O O3 0.393706 0.895958 0.147256
O O4 0.335312 0.051958 0.067240
O O5 0.907617 0.213449 0.846538
O O6 0.726098 0.304520 0.872558
O O7 0.889765 0.400689 0.886978
O O8 0.848922 0.250000 0.000000
O O9 0.923047 0.057662 0.750000
O O10 0.027892 0.069104 0.609771
O O11 0.476239 0.776538 0.855202
O O12 0.390599 0.935305 0.940078
O O13 0.390495 0.750000 0.000000
O O14 0.451577 0.141118 0.750000
O O15 0.420887 0.123230 0.921059
O O16 0.234250 0.454525 0.409888
O O17 0.144778 0.482001 0.250000
#
# Coordination Sequence:
#
# PCOD9435870 Si02
#       7
#     8   8   8   8   8   8   8
#     4  10  20  35  58  88 116 153 199 244 294 345
#     4  10  19  33  56  86 113 148 194 241 291 340
#     4  10  19  35  58  85 119 153 193 246 292 339
#     4  10  19  34  58  85 113 147 195 242 287 341
#     4  11  22  36  59  88 119 153 193 240 294 351
#     4  11  22  38  61  86 123 157 194 246 296 351
#     4  10  22  36  58  89 118 153 197 239 291 351
#
# _framework density 21.011583999999999
#
# number of rings (size 3 to 8) (size 9 to 14) (size 15 to 20)
#    0.000    1.714    2.857    3.000    0.000    5.143 
#    0.000    0.000    3.143    1.714    0.000    0.000 
#    0.000    0.000    0.000    0.000    0.000    0.000 
#
# Total GULP energy -312429.744355 kJ/mol
# GULP energy per Si atom -5579.102578 kJ/mol
# Density = 2.096376 g / cm^3
# Si number density = 21.011584 Si / 1000 Ang^3
#
#
#
# Elastic Constant Matrix: (Units=GPa)
#
#
# Indices 1 2 3 4 5 6 
#
# 1 99.6619 43.1759 38.4048 0.0000 0.0000 0.0000
# 2 43.1759 61.6957 18.1510 0.0000 0.0000 0.0000
# 3 38.4048 18.1510 117.1512 0.0000 0.0000 0.0000
# 4 0.0000 0.0000 0.0000 17.7848 0.0000 0.0000
# 5 0.0000 0.0000 0.0000 0.0000 16.2567 0.0000
# 6 0.0000 0.0000 0.0000 0.0000 0.0000 34.6330
#
#
#
# Elastic Compliance Matrix: (Units=1/GPa)
#
#
# Indices 1 2 3 4 5 6 
#
# 1 0.015739 -0.009950 -0.003618 0.000000 0.000000 0.000000
# 2 -0.009950 0.023273 -0.000344 0.000000 0.000000 0.000000
# 3 -0.003618 -0.000344 0.009775 0.000000 0.000000 0.000000
# 4 0.000000 0.000000 0.000000 0.056228 0.000000 0.000000
# 5 0.000000 0.000000 0.000000 0.000000 0.061513 0.000000
# 6 0.000000 0.000000 0.000000 0.000000 0.000000 0.028874
#
#
# Mechanical properties :
#
#
# Convention : Reuss Voigt Hill
#
# Bulk Modulus (GPa) = 47.70236 53.10802 50.40519
# Shear Modulus (GPa) = 21.71904 25.65339 23.68622
#
# Velocity S-wave (km/s) = 3.21856 3.49795 3.36116
# Velocity P-wave (km/s) = 6.04685 6.45327 6.25336
#
# Compressibility (1/GPa) = 0.02096332
#
# Stress axis : x y z
#
# Youngs Moduli (GPa) = 63.53824 42.96844 102.29862
#
# Poissons Ratio (x) = 0.42753 0.37010
# Poissons Ratio (y) = 0.63219 0.03520
# Poissons Ratio (z) = 0.22987 0.01478
#
# Static dielectric constant tensor:
#      x y z
#    x 1.776000 0.000000 0.000000 
#    y 0.000000 1.736770 0.000000 
#    z 0.000000 0.000000 1.856240 
# 
# From -- ./inp_files/17759.got.cif
#   From: 2010.05.17/outbox.cif.g08.bks.cpg/sg57_9_cif.got.tgz:17759.got - 2010.06.03 13:58:18.
