data_PCOD9435303
_publ_section_title
;
Structure prediction by ZEFSAII (Michael W. Deem and Ramdas Pophale) SiO2 
 PCOD9435303
Probable space group: P B C M
;
_chemical_formula_sum "Si O2"
_cell_formula_units_Z 36
_cell_length_a 7.133553
_cell_length_b 13.049286
_cell_length_c 16.647093
_cell_angle_alpha 90.000000
_cell_angle_beta 90.000000
_cell_angle_gamma 90.000000
_cell_volume 1549.640819
_symmetry_space_group_name_H-M "P B C M"
_symmetry_group_IT_number 57
_symmetry_cell_setting 'orthorhombic'
loop_
_space_group_symop_operation_xyz
x,y,z
-x,-y,1/2+z
x,1/2-y,-z
-x,1/2+y,1/2-z
-x,-y,-z
x,y,1/2-z
-x,1/2+y,z
x,1/2-y,1/2+z
loop_
_atom_site_type_symbol
_atom_site_label
_atom_site_fract_x
_atom_site_fract_y
_atom_site_fract_z
Si Si1 0.184566 0.485187 0.250000
Si Si2 0.686215 0.957515 0.909826
Si Si3 0.880747 0.756745 0.411229
Si Si4 0.249906 0.490784 0.420867
Si Si5 0.372596 0.569297 0.750000
Si Si6 0.919195 0.288291 0.250000
O O1 0.162896 0.535860 0.338503
O O2 0.403779 0.447305 0.250000
O O3 0.042126 0.392192 0.250000
O O4 0.737832 0.838342 0.906123
O O5 0.464374 0.972386 0.920464
O O6 0.717532 0.016117 0.827464
O O7 0.798520 0.007048 0.984992
O O8 0.972471 0.750000 0.500000
O O9 0.776789 0.867423 0.409322
O O10 0.016415 0.744455 0.335349
O O11 0.300797 0.685664 0.750000
#
# Coordination Sequence:
#
# PCOD9435303 Si02
#       6
#     4   8   8   8   4   4
#     4   8  16  32  50  74 104 134 170 222 270 312
#     4   9  16  29  51  78 107 146 186 226 281 337
#     4   9  17  31  52  77 109 147 183 229 286 332
#     4   8  15  28  50  78 107 142 184 227 274 332
#     4  10  19  31  53  76 102 142 185 222 270 326
#     4  10  19  33  55  76 102 142 181 224 276 328
#
# _framework density 23.231189000000001
#
# number of rings (size 3 to 8) (size 9 to 14) (size 15 to 20)
#    0.000    3.111    0.000    0.667    0.000    0.000 
#    0.000   10.000    0.000   84.000    0.000    0.000 
#    0.000    0.000    0.000    0.000    0.000    0.000 
#
# Total GULP energy -200459.851654 kJ/mol
# GULP energy per Si atom -5568.329213 kJ/mol
# Density = 2.317831 g / cm^3
# Si number density = 23.231189 Si / 1000 Ang^3
#
#
#
# Elastic Constant Matrix: (Units=GPa)
#
#
# Indices 1 2 3 4 5 6 
#
# 1 67.3009 38.6593 -4.1583 0.0000 0.0000 0.0000
# 2 38.6593 84.9551 29.0218 0.0000 0.0000 0.0000
# 3 -4.1583 29.0218 184.6628 0.0000 0.0000 0.0000
# 4 0.0000 0.0000 0.0000 21.2564 0.0000 0.0000
# 5 0.0000 0.0000 0.0000 0.0000 -82.1959 0.0000
# 6 0.0000 0.0000 0.0000 0.0000 0.0000 19.7105
#
#
#
# Elastic Compliance Matrix: (Units=1/GPa)
#
#
# Indices 1 2 3 4 5 6 
#
# 1 0.020841 -0.010191 0.002071 0.000000 0.000000 0.000000
# 2 -0.010191 0.017422 -0.002968 0.000000 0.000000 0.000000
# 3 0.002071 -0.002968 0.005928 0.000000 0.000000 0.000000
# 4 0.000000 0.000000 0.000000 0.047045 0.000000 0.000000
# 5 0.000000 0.000000 0.000000 0.000000 -0.012166 0.000000
# 6 0.000000 0.000000 0.000000 0.000000 0.000000 0.050734
#
#
# Mechanical properties :
#
#
# Convention : Reuss Voigt Hill
#
# Bulk Modulus (GPa) = 45.42224 51.55161 48.48693
# Shear Modulus (GPa) = 31.38375 9.98060 20.68217
#
# Velocity S-wave (km/s) = 3.67949 2.07498 2.98699
# Velocity P-wave (km/s) = 6.13565 5.28957 5.72826
#
# Compressibility (1/GPa) = 0.02201565
#
# Stress axis : x y z
#
# Youngs Moduli (GPa) = 47.98319 57.39800 168.68249
#
# Poissons Ratio (x) = 0.58495 -0.34933
# Poissons Ratio (y) = 0.48900 0.50058
# Poissons Ratio (z) = -0.09937 0.17033
#
# Static dielectric constant tensor:
#      x y z
#    x 1.864730 0.000000 0.000000 
#    y 0.000000 1.884130 0.000000 
#    z 0.000000 0.000000 2.003720 
# 
# From -- ./inp_files/15861.got.cif
#   From: 2010.05.17/outbox.cif.g08.bks.cpg/sg57_8_cif.got.tgz:15861.got - 2010.06.03 13:58:18.
