data_PCOD9435979
_publ_section_title
;
Structure prediction by ZEFSAII (Michael W. Deem and Ramdas Pophale) SiO2 
 PCOD9435979
Probable space group: P B C M
;
_chemical_formula_sum "Si O2"
_cell_formula_units_Z 40
_cell_length_a 13.552455
_cell_length_b 7.447040
_cell_length_c 15.155537
_cell_angle_alpha 90.000000
_cell_angle_beta 90.000000
_cell_angle_gamma 90.000000
_cell_volume 1529.582794
_symmetry_space_group_name_H-M "P B C M"
_symmetry_group_IT_number 57
_symmetry_cell_setting 'orthorhombic'
loop_
_space_group_symop_operation_xyz
x,y,z
-x,-y,1/2+z
x,1/2-y,-z
-x,1/2+y,1/2-z
-x,-y,-z
x,y,1/2-z
-x,1/2+y,z
x,1/2-y,1/2+z
loop_
_atom_site_type_symbol
_atom_site_label
_atom_site_fract_x
_atom_site_fract_y
_atom_site_fract_z
Si Si1 0.582849 0.091936 0.939098
Si Si2 0.752756 0.423870 0.856925
Si Si3 0.862834 0.086785 0.857473
Si Si4 0.080857 0.198419 0.642400
Si Si5 0.603212 0.770206 0.147391
O O1 0.513555 0.190020 0.865372
O O2 0.633488 0.915596 0.899028
O O3 0.625072 0.250000 0.000000
O O4 0.500000 0.000000 0.000000
O O5 0.744896 0.417987 0.750000
O O6 0.773737 0.218044 0.883075
O O7 0.665277 0.557271 0.885054
O O8 0.851721 0.531029 0.881894
O O9 0.861817 0.081025 0.750000
O O10 0.869582 0.882564 0.888947
O O11 0.967829 0.173653 0.884275
O O12 0.079881 0.203416 0.750000
O O13 0.624795 0.747072 0.250000
#
# Coordination Sequence:
#
# PCOD9435979 Si02
#       5
#     8   8   8   8   8
#     4   9  19  37  58  75 101 142 182 215 268 345
#     4   9  17  27  40  67 103 135 172 220 269 319
#     4   9  14  22  37  57  91 141 180 205 253 323
#     4   9  14  22  37  57  91 141 180 205 252 322
#     4  10  19  34  55  82 111 136 174 233 287 324
#
# _framework density 26.150922999999999
#
# number of rings (size 3 to 8) (size 9 to 14) (size 15 to 20)
#    0.000    2.800    2.000    0.600    0.000    0.000 
#    7.200    0.000    0.000    0.000    0.000    0.000 
#    0.000   20.800    0.000    0.000    0.000    0.000 
#
# Total GULP energy -223616.770419 kJ/mol
# GULP energy per Si atom -5590.419260 kJ/mol
# Density = 2.609140 g / cm^3
# Si number density = 26.150923 Si / 1000 Ang^3
#
#
#
# Elastic Constant Matrix: (Units=GPa)
#
#
# Indices 1 2 3 4 5 6 
#
# 1 23.5367 -18.3333 -1.8810 0.0000 0.0000 0.0000
# 2 -18.3333 163.1720 1.1940 0.0000 0.0000 0.0000
# 3 -1.8810 1.1940 44.3615 0.0000 0.0000 0.0000
# 4 0.0000 0.0000 0.0000 14.3732 0.0000 0.0000
# 5 0.0000 0.0000 0.0000 0.0000 7.8712 0.0000
# 6 0.0000 0.0000 0.0000 0.0000 0.0000 33.8165
#
#
#
# Elastic Compliance Matrix: (Units=1/GPa)
#
#
# Indices 1 2 3 4 5 6 
#
# 1 0.046711 0.005235 0.001840 0.000000 0.000000 0.000000
# 2 0.005235 0.006716 0.000041 0.000000 0.000000 0.000000
# 3 0.001840 0.000041 0.022619 0.000000 0.000000 0.000000
# 4 0.000000 0.000000 0.000000 0.069574 0.000000 0.000000
# 5 0.000000 0.000000 0.000000 0.000000 0.127045 0.000000
# 6 0.000000 0.000000 0.000000 0.000000 0.000000 0.029571
#
#
# Mechanical properties :
#
#
# Convention : Reuss Voigt Hill
#
# Bulk Modulus (GPa) = 11.07689 21.44774 16.26231
# Shear Modulus (GPa) = 15.71843 27.88489 21.80166
#
# Velocity S-wave (km/s) = 2.45432 3.26898 2.89049
# Velocity P-wave (km/s) = 3.50379 4.74000 4.16798
#
# Compressibility (1/GPa) = 0.09027807
#
# Stress axis : x y z
#
# Youngs Moduli (GPa) = 21.40809 148.89012 44.21065
#
# Poissons Ratio (x) = -0.77941 -0.08133
# Poissons Ratio (y) = -0.11207 -0.00182
# Poissons Ratio (z) = -0.03938 -0.00613
#
# Static dielectric constant tensor:
#      x y z
#    x 2.074920 0.000000 0.000000 
#    y 0.000000 2.085320 0.000000 
#    z 0.000000 0.000000 2.082090 
# 
# From -- ./inp_files/18243.got.cif
#   From: 2010.05.17/outbox.cif.g08.bks.cpg/sg57_10_cif.got.tgz:18243.got - 2010.06.03 13:58:18.
