data_PCOD9435727
_publ_section_title
;
Structure prediction by ZEFSAII (Michael W. Deem and Ramdas Pophale) SiO2 
 PCOD9435727
Probable space group: P B C M
;
_chemical_formula_sum "Si O2"
_cell_formula_units_Z 64
_cell_length_a 23.188285
_cell_length_b 17.951472
_cell_length_c 8.750999
_cell_angle_alpha 90.000000
_cell_angle_beta 90.000000
_cell_angle_gamma 90.000000
_cell_volume 3642.724526
_symmetry_space_group_name_H-M "P B C M"
_symmetry_group_IT_number 57
_symmetry_cell_setting 'orthorhombic'
loop_
_space_group_symop_operation_xyz
x,y,z
-x,-y,1/2+z
x,1/2-y,-z
-x,1/2+y,1/2-z
-x,-y,-z
x,y,1/2-z
-x,1/2+y,z
x,1/2-y,1/2+z
loop_
_atom_site_type_symbol
_atom_site_label
_atom_site_fract_x
_atom_site_fract_y
_atom_site_fract_z
Si Si1 0.795052 0.828064 0.431650
Si Si2 0.955107 0.327144 0.568201
Si Si3 0.082994 0.129972 0.067227
Si Si4 0.538489 0.933490 0.066570
Si Si5 0.884380 0.038539 0.568902
Si Si6 0.639063 0.034136 0.065996
Si Si7 0.561339 0.168363 0.565888
Si Si8 0.758093 0.983953 0.566423
O O1 0.773733 0.750000 0.500000
O O2 0.790029 0.828087 0.250000
O O3 0.862202 0.836806 0.480459
O O4 0.763565 0.900346 0.500819
O O5 0.933144 0.250000 0.500000
O O6 0.956358 0.322904 0.750000
O O7 0.916290 0.396027 0.517571
O O8 0.021321 0.339708 0.515850
O O9 0.090700 0.143060 0.250000
O O10 0.084897 0.040972 0.043445
O O11 0.536447 0.935952 0.250000
O O12 0.503701 0.859309 0.021299
O O13 0.602790 0.958917 0.022908
O O14 0.500000 0.000000 0.000000
O O15 0.886310 0.053946 0.750000
O O16 0.817740 0.025643 0.524418
O O17 0.640266 0.039944 0.250000
O O18 0.605038 0.105606 0.999043
O O19 0.702619 0.025168 0.999626
O O20 0.572839 0.250000 0.500000
O O21 0.565634 0.169325 0.750000
O O22 0.755655 0.980127 0.750000
#
# Coordination Sequence:
#
# PCOD9435727 Si02
#       8
#     8   8   8   8   8   8   8   8
#     4  11  21  34  54  79 106 137 172 215 264 315
#     4  11  22  34  51  75 104 135 170 211 262 318
#     4   9  19  35  54  78 104 132 166 209 261 321
#     4   8  16  30  50  75 104 135 168 206 251 302
#     4   9  19  36  55  74 101 133 170 215 262 311
#     4  10  19  34  56  81 107 140 181 221 261 313
#     4  10  19  33  53  80 112 144 177 218 264 308
#     4  10  21  38  57  78 105 140 180 221 263 312
#
# _framework density 17.569268000000001
#
# number of rings (size 3 to 8) (size 9 to 14) (size 15 to 20)
#    0.000    2.250    0.000    4.125    0.000    5.500 
#    0.000    1.250    0.000    4.500    0.000    0.000 
#    0.000    0.000    0.000    0.000    0.000    0.000 
#
# Total GULP energy -356942.772319 kJ/mol
# GULP energy per Si atom -5577.230817 kJ/mol
# Density = 1.752928 g / cm^3
# Si number density = 17.569268 Si / 1000 Ang^3
#
#
#
# Elastic Constant Matrix: (Units=GPa)
#
#
# Indices 1 2 3 4 5 6 
#
# 1 70.4338 45.5745 26.9193 0.0000 0.0000 0.0000
# 2 45.5745 94.4311 37.8400 0.0000 0.0000 0.0000
# 3 26.9193 37.8400 53.8284 0.0000 0.0000 0.0000
# 4 0.0000 0.0000 0.0000 27.4647 0.0000 0.0000
# 5 0.0000 0.0000 0.0000 0.0000 23.8067 0.0000
# 6 0.0000 0.0000 0.0000 0.0000 0.0000 15.8558
#
#
#
# Elastic Compliance Matrix: (Units=1/GPa)
#
#
# Indices 1 2 3 4 5 6 
#
# 1 0.021505 -0.008449 -0.004815 0.000000 0.000000 0.000000
# 2 -0.008449 0.018062 -0.008472 0.000000 0.000000 0.000000
# 3 -0.004815 -0.008472 0.026941 0.000000 0.000000 0.000000
# 4 0.000000 0.000000 0.000000 0.036410 0.000000 0.000000
# 5 0.000000 0.000000 0.000000 0.000000 0.042005 0.000000
# 6 0.000000 0.000000 0.000000 0.000000 0.000000 0.063068
#
#
# Mechanical properties :
#
#
# Convention : Reuss Voigt Hill
#
# Bulk Modulus (GPa) = 43.41009 48.81789 46.11399
# Shear Modulus (GPa) = 19.29431 20.64940 19.97186
#
# Velocity S-wave (km/s) = 3.31748 3.43200 3.37523
# Velocity P-wave (km/s) = 6.27980 6.59933 6.44155
#
# Compressibility (1/GPa) = 0.02303612
#
# Stress axis : x y z
#
# Youngs Moduli (GPa) = 46.50039 55.36350 37.11814
#
# Poissons Ratio (x) = 0.46779 0.17872
# Poissons Ratio (y) = 0.39290 0.31446
# Poissons Ratio (z) = 0.22389 0.46903
#
# Static dielectric constant tensor:
#      x y z
#    x 1.598540 0.000000 0.000000 
#    y 0.000000 1.588550 0.000000 
#    z 0.000000 0.000000 1.592170 
# 
# From -- ./inp_files/8580.got.cif
#   From: 2010.05.17/outbox.cif.g08.bks.cpg/sg57_5_cif.got.tgz:8580.got - 2010.06.03 13:58:18.
