data_PCOD9435077
_publ_section_title
;
Structure prediction by ZEFSAII (Michael W. Deem and Ramdas Pophale) SiO2 
 PCOD9435077
Probable space group: P B C M
;
_chemical_formula_sum "Si O2"
_cell_formula_units_Z 64
_cell_length_a 22.200759
_cell_length_b 20.044858
_cell_length_c 9.474004
_cell_angle_alpha 90.000000
_cell_angle_beta 90.000000
_cell_angle_gamma 90.000000
_cell_volume 4216.036578
_symmetry_space_group_name_H-M "P B C M"
_symmetry_group_IT_number 57
_symmetry_cell_setting 'orthorhombic'
loop_
_space_group_symop_operation_xyz
x,y,z
-x,-y,1/2+z
x,1/2-y,-z
-x,1/2+y,1/2-z
-x,-y,-z
x,y,1/2-z
-x,1/2+y,z
x,1/2-y,1/2+z
loop_
_atom_site_type_symbol
_atom_site_label
_atom_site_fract_x
_atom_site_fract_y
_atom_site_fract_z
Si Si1 0.086119 0.963633 0.412157
Si Si2 0.804188 0.954558 0.921014
Si Si3 0.446447 0.962516 0.418967
Si Si4 0.129048 0.318385 0.579071
Si Si5 0.474531 0.684722 0.914821
Si Si6 0.011438 0.396666 0.588688
Si Si7 0.333188 0.055896 0.418625
Si Si8 0.380323 0.316575 0.083884
O O1 0.092891 0.942145 0.250000
O O2 0.047356 0.909747 0.496234
O O3 0.150243 0.988022 0.472812
O O4 0.047971 0.032959 0.411423
O O5 0.809793 0.955955 0.750000
O O6 0.828005 0.880791 0.961959
O O7 0.734703 0.964715 0.956297
O O8 0.458706 0.964490 0.250000
O O9 0.446011 0.885073 0.462207
O O10 0.500000 0.000000 0.500000
O O11 0.383517 0.999725 0.444271
O O12 0.143949 0.250000 0.500000
O O13 0.132237 0.310876 0.750000
O O14 0.060908 0.342356 0.542518
O O15 0.461257 0.694625 0.750000
O O16 0.547030 0.676980 0.928665
O O17 0.456062 0.750000 0.000000
O O18 0.994662 0.382377 0.750000
O O19 0.334455 0.071405 0.250000
O O20 0.351044 0.120297 0.508502
O O21 0.365778 0.312403 0.250000
O O22 0.362447 0.250000 0.000000
#
# Coordination Sequence:
#
# PCOD9435077 Si02
#       8
#     8   8   8   8   8   8   8   8
#     4   8  13  24  42  60  80 106 137 173 211 253
#     4   8  16  30  44  61  87 118 150 183 219 263
#     4  10  19  31  48  70  93 117 148 190 238 282
#     4   9  17  29  43  60  88 121 151 182 214 250
#     4   9  18  31  46  66  89 113 143 181 226 278
#     4   8  14  24  39  60  83 106 133 173 217 247
#     4  10  19  31  48  67  90 122 157 191 234 282
#     4  10  19  31  45  62  89 119 152 191 228 274
#
# _framework density 15.180135
#
# number of rings (size 3 to 8) (size 9 to 14) (size 15 to 20)
#    0.000    3.000    1.250    1.875    0.000    2.000 
#    0.000    4.375    0.000    0.000    0.000    0.875 
#    0.000    4.000    0.000    0.000    0.000    0.000 
#
# Total GULP energy -356287.314225 kJ/mol
# GULP energy per Si atom -5566.989285 kJ/mol
# Density = 1.514558 g / cm^3
# Si number density = 15.180135 Si / 1000 Ang^3
#
#
#
# Elastic Constant Matrix: (Units=GPa)
#
#
# Indices 1 2 3 4 5 6 
#
# 1 97.2433 52.7342 42.3774 0.0000 0.0000 0.0000
# 2 52.7342 67.6360 32.1412 0.0000 0.0000 0.0000
# 3 42.3774 32.1412 38.1303 0.0000 0.0000 0.0000
# 4 0.0000 0.0000 0.0000 24.5745 0.0000 0.0000
# 5 0.0000 0.0000 0.0000 0.0000 14.2333 0.0000
# 6 0.0000 0.0000 0.0000 0.0000 0.0000 14.6794
#
#
#
# Elastic Compliance Matrix: (Units=1/GPa)
#
#
# Indices 1 2 3 4 5 6 
#
# 1 0.023252 -0.009757 -0.017617 0.000000 0.000000 0.000000
# 2 -0.009757 0.028759 -0.013398 0.000000 0.000000 0.000000
# 3 -0.017617 -0.013398 0.057099 0.000000 0.000000 0.000000
# 4 0.000000 0.000000 0.000000 0.040693 0.000000 0.000000
# 5 0.000000 0.000000 0.000000 0.000000 0.070258 0.000000
# 6 0.000000 0.000000 0.000000 0.000000 0.000000 0.068123
#
#
# Mechanical properties :
#
#
# Convention : Reuss Voigt Hill
#
# Bulk Modulus (GPa) = 36.27753 50.83500 43.55626
# Shear Modulus (GPa) = 13.19545 15.74789 14.47167
#
# Velocity S-wave (km/s) = 2.95152 3.22437 3.09095
# Velocity P-wave (km/s) = 5.96365 6.88641 6.44157
#
# Compressibility (1/GPa) = 0.02756527
#
# Stress axis : x y z
#
# Youngs Moduli (GPa) = 43.00665 34.77117 17.51332
#
# Poissons Ratio (x) = 0.33927 0.30854
# Poissons Ratio (y) = 0.41963 0.23465
# Poissons Ratio (z) = 0.75767 0.46587
#
# Static dielectric constant tensor:
#      x y z
#    x 1.516680 0.000000 0.000000 
#    y 0.000000 1.492030 0.000000 
#    z 0.000000 0.000000 1.509530 
# 
# From -- ./inp_files/8702.got.cif
#   From: 2010.05.17/outbox.cif.g08.bks.cpg/sg57_5_cif.got.tgz:8702.got - 2010.06.03 13:58:18.
