data_PCOD9435492
_publ_section_title
;
Structure prediction by ZEFSAII (Michael W. Deem and Ramdas Pophale) SiO2 
 PCOD9435492
Probable space group: P B C M
;
_chemical_formula_sum "Si O2"
_cell_formula_units_Z 64
_cell_length_a 22.427758
_cell_length_b 19.390773
_cell_length_c 8.328525
_cell_angle_alpha 90.000000
_cell_angle_beta 90.000000
_cell_angle_gamma 90.000000
_cell_volume 3622.005265
_symmetry_space_group_name_H-M "P B C M"
_symmetry_group_IT_number 57
_symmetry_cell_setting 'orthorhombic'
loop_
_space_group_symop_operation_xyz
x,y,z
-x,-y,1/2+z
x,1/2-y,-z
-x,1/2+y,1/2-z
-x,-y,-z
x,y,1/2-z
-x,1/2+y,z
x,1/2-y,1/2+z
loop_
_atom_site_type_symbol
_atom_site_label
_atom_site_fract_x
_atom_site_fract_y
_atom_site_fract_z
Si Si1 0.986321 0.922481 0.442569
Si Si2 0.392657 0.178177 0.558013
Si Si3 0.147538 0.082845 0.554028
Si Si4 0.196558 0.568750 0.056035
Si Si5 0.438557 0.468263 0.559256
Si Si6 0.310275 0.990216 0.059006
Si Si7 0.905474 0.171791 0.057951
Si Si8 0.732703 0.635390 0.937624
O O1 0.986073 0.922726 0.250000
O O2 0.919585 0.902518 0.498606
O O3 0.036752 0.870552 0.501729
O O4 0.000000 0.000000 0.500000
O O5 0.419848 0.250000 0.500000
O O6 0.389678 0.178079 0.750000
O O7 0.425741 0.108519 0.506126
O O8 0.324417 0.173845 0.489873
O O9 0.148889 0.084860 0.750000
O O10 0.200081 0.134063 0.495321
O O11 0.165304 0.004220 0.509167
O O12 0.200576 0.569405 0.250000
O O13 0.153340 0.630097 0.002442
O O14 0.263077 0.568783 0.984407
O O15 0.500000 0.500000 0.500000
O O16 0.440848 0.463310 0.750000
O O17 0.380221 0.514894 0.518819
O O18 0.305601 0.005153 0.250000
O O19 0.287300 0.055713 0.957053
O O20 0.904947 0.170794 0.250000
O O21 0.906409 0.250000 0.000000
O O22 0.736436 0.654124 0.750000
#
# Coordination Sequence:
#
# PCOD9435492 Si02
#       8
#     8   8   8   8   8   8   8   8
#     4  11  20  33  53  77 105 138 179 226 271 323
#     4  10  19  32  52  76 105 142 181 220 264 317
#     4   8  14  28  49  72  97 127 165 211 257 306
#     4   9  17  32  52  72  98 130 165 208 261 320
#     4  10  20  34  53  80 113 145 180 222 264 311
#     4   9  17  28  47  77 105 126 160 210 254 295
#     4  11  23  39  54  74 102 136 177 223 278 334
#     4   8  15  29  47  68  97 133 167 202 252 306
#
# _framework density 17.669771999999998
#
# number of rings (size 3 to 8) (size 9 to 14) (size 15 to 20)
#    0.000    2.500    1.250    2.625    0.000    3.000 
#    0.000    1.250    0.000    2.250    0.000    1.750 
#    0.000    0.000    0.000    0.000    0.000    0.000 
#
# Total GULP energy -356486.165955 kJ/mol
# GULP energy per Si atom -5570.096343 kJ/mol
# Density = 1.762955 g / cm^3
# Si number density = 17.669772 Si / 1000 Ang^3
#
#
#
# Elastic Constant Matrix: (Units=GPa)
#
#
# Indices 1 2 3 4 5 6 
#
# 1 165.3363 67.8283 29.0615 0.0000 0.0000 0.0000
# 2 67.8283 94.9114 17.4767 0.0000 0.0000 0.0000
# 3 29.0615 17.4767 32.4610 0.0000 0.0000 0.0000
# 4 0.0000 0.0000 0.0000 21.2708 0.0000 0.0000
# 5 0.0000 0.0000 0.0000 0.0000 23.3282 0.0000
# 6 0.0000 0.0000 0.0000 0.0000 0.0000 15.4519
#
#
#
# Elastic Compliance Matrix: (Units=1/GPa)
#
#
# Indices 1 2 3 4 5 6 
#
# 1 0.009305 -0.005679 -0.005273 0.000000 0.000000 0.000000
# 2 -0.005679 0.015161 -0.003079 0.000000 0.000000 0.000000
# 3 -0.005273 -0.003079 0.037184 0.000000 0.000000 0.000000
# 4 0.000000 0.000000 0.000000 0.047013 0.000000 0.000000
# 5 0.000000 0.000000 0.000000 0.000000 0.042867 0.000000
# 6 0.000000 0.000000 0.000000 0.000000 0.000000 0.064717
#
#
# Mechanical properties :
#
#
# Convention : Reuss Voigt Hill
#
# Bulk Modulus (GPa) = 29.77094 57.93796 43.85445
# Shear Modulus (GPa) = 19.56913 23.89965 21.73439
#
# Velocity S-wave (km/s) = 3.33151 3.68172 3.51099
# Velocity P-wave (km/s) = 5.62883 7.13680 6.42719
#
# Compressibility (1/GPa) = 0.03358980
#
# Stress axis : x y z
#
# Youngs Moduli (GPa) = 107.47165 65.95728 26.89295
#
# Poissons Ratio (x) = 0.37455 0.14181
# Poissons Ratio (y) = 0.61030 0.08280
# Poissons Ratio (z) = 0.56670 0.20306
#
# Static dielectric constant tensor:
#      x y z
#    x 1.659820 0.000000 0.000000 
#    y 0.000000 1.589870 0.000000 
#    z 0.000000 0.000000 1.625210 
# 
# From -- ./inp_files/8426.got.cif
#   From: 2010.05.17/outbox.cif.g08.bks.cpg/sg57_5_cif.got.tgz:8426.got - 2010.06.03 13:58:18.
