data_PCOD9435571
_publ_section_title
;
Structure prediction by ZEFSAII (Michael W. Deem and Ramdas Pophale) SiO2 
 PCOD9435571
Probable space group: P B C M
;
_chemical_formula_sum "Si O2"
_cell_formula_units_Z 48
_cell_length_a 9.044574
_cell_length_b 9.726964
_cell_length_c 28.329335
_cell_angle_alpha 90.000000
_cell_angle_beta 90.000000
_cell_angle_gamma 90.000000
_cell_volume 2492.308536
_symmetry_space_group_name_H-M "P B C M"
_symmetry_group_IT_number 57
_symmetry_cell_setting 'orthorhombic'
loop_
_space_group_symop_operation_xyz
x,y,z
-x,-y,1/2+z
x,1/2-y,-z
-x,1/2+y,1/2-z
-x,-y,-z
x,y,1/2-z
-x,1/2+y,z
x,1/2-y,1/2+z
loop_
_atom_site_type_symbol
_atom_site_label
_atom_site_fract_x
_atom_site_fract_y
_atom_site_fract_z
Si Si1 0.748952 0.347139 0.068616
Si Si2 0.999511 0.250000 0.000000
Si Si3 0.164533 0.170643 0.853988
Si Si4 0.254334 0.354487 0.934145
Si Si5 0.164563 0.178751 0.750000
Si Si6 0.499694 0.250000 0.500000
Si Si7 0.873332 0.139792 0.250000
Si Si8 0.141929 0.655500 0.146696
O O1 0.749867 0.498222 0.090703
O O2 0.760038 0.227024 0.106943
O O3 0.891164 0.334211 0.034221
O O4 0.606651 0.327781 0.036022
O O5 0.107772 0.335600 0.966094
O O6 0.259646 0.231121 0.896687
O O7 0.236573 0.190504 0.801874
O O8 0.014538 0.262832 0.855354
O O9 0.128831 0.008876 0.860910
O O10 0.391501 0.345388 0.969562
O O11 0.030263 0.285106 0.750000
O O12 0.101161 0.023660 0.750000
O O13 0.798703 0.175063 0.299817
#
# Coordination Sequence:
#
# PCOD9435571 Si02
#       8
#     8   4   8   8   4   4   4   8
#     4  11  22  38  58  82 112 147 188 233 282 333
#     4  10  22  34  56  82 114 138 186 230 282 332
#     4  10  19  32  54  83 115 147 183 226 275 330
#     4  11  22  38  58  82 112 147 188 233 282 333
#     4   8  16  30  48  77 114 147 176 218 274 328
#     4  10  26  42  56  78 110 150 196 232 282 332
#     4   8  16  30  48  77 114 147 176 218 274 328
#     4  10  19  32  54  83 115 147 183 226 275 330
#
# _framework density 19.259253999999999
#
# number of rings (size 3 to 8) (size 9 to 14) (size 15 to 20)
#    0.000    2.000    1.667    2.000    0.000    8.000 
#    0.000    0.000    0.000    1.000    0.000    0.000 
#    0.000    0.000    0.000    0.000    0.000    0.000 
#
# Total GULP energy -267533.634683 kJ/mol
# GULP energy per Si atom -5573.617389 kJ/mol
# Density = 1.921542 g / cm^3
# Si number density = 19.259254 Si / 1000 Ang^3
#
#
#
# Elastic Constant Matrix: (Units=GPa)
#
#
# Indices 1 2 3 4 5 6 
#
# 1 65.8218 12.9919 18.2768 0.0000 0.0000 0.0000
# 2 12.9919 103.3178 32.8374 0.0000 0.0000 0.0000
# 3 18.2768 32.8374 85.8360 0.0000 0.0000 0.0000
# 4 0.0000 0.0000 0.0000 14.6872 0.0000 0.0000
# 5 0.0000 0.0000 0.0000 0.0000 18.3323 0.0000
# 6 0.0000 0.0000 0.0000 0.0000 0.0000 0.3583
#
#
#
# Elastic Compliance Matrix: (Units=1/GPa)
#
#
# Indices 1 2 3 4 5 6 
#
# 1 0.016251 -0.001074 -0.003049 0.000000 0.000000 0.000000
# 2 -0.001074 0.011090 -0.004014 0.000000 0.000000 0.000000
# 3 -0.003049 -0.004014 0.013835 0.000000 0.000000 0.000000
# 4 0.000000 0.000000 0.000000 0.068086 0.000000 0.000000
# 5 0.000000 0.000000 0.000000 0.000000 0.054549 0.000000
# 6 0.000000 0.000000 0.000000 0.000000 0.000000 2.791016
#
#
# Mechanical properties :
#
#
# Convention : Reuss Voigt Hill
#
# Bulk Modulus (GPa) = 40.15899 42.57643 41.36771
# Shear Modulus (GPa) = 1.67819 19.40020 10.53919
#
# Velocity S-wave (km/s) = 0.93448 3.17727 2.34183
# Velocity P-wave (km/s) = 4.69696 5.96784 5.37012
#
# Compressibility (1/GPa) = 0.02490103
#
# Stress axis : x y z
#
# Youngs Moduli (GPa) = 61.53353 90.17428 72.28106
#
# Poissons Ratio (x) = 0.09688 0.22041
# Poissons Ratio (y) = 0.06611 0.29011
# Poissons Ratio (z) = 0.18764 0.36193
#
# Static dielectric constant tensor:
#      x y z
#    x 1.650420 0.000000 0.000000 
#    y 0.000000 1.677700 0.000000 
#    z 0.000000 0.000000 1.726550 
# 
# From -- ./inp_files/29541.got.cif
#   From: 2010.05.17/outbox.cif.g08.bks.cpg/sg57_15_cif.got.tgz:29541.got - 2010.06.03 13:58:18.
