data_PCOD9435545
_publ_section_title
;
Structure prediction by ZEFSAII (Michael W. Deem and Ramdas Pophale) SiO2 
 PCOD9435545
Probable space group: P B C M
;
_chemical_formula_sum "Si O2"
_cell_formula_units_Z 64
_cell_length_a 11.665862
_cell_length_b 30.230060
_cell_length_c 9.563879
_cell_angle_alpha 90.000000
_cell_angle_beta 90.000000
_cell_angle_gamma 90.000000
_cell_volume 3372.794778
_symmetry_space_group_name_H-M "P B C M"
_symmetry_group_IT_number 57
_symmetry_cell_setting 'orthorhombic'
loop_
_space_group_symop_operation_xyz
x,y,z
-x,-y,1/2+z
x,1/2-y,-z
-x,1/2+y,1/2-z
-x,-y,-z
x,y,1/2-z
-x,1/2+y,z
x,1/2-y,1/2+z
loop_
_atom_site_type_symbol
_atom_site_label
_atom_site_fract_x
_atom_site_fract_y
_atom_site_fract_z
Si Si1 0.910485 0.025205 0.095271
Si Si2 0.410476 0.295008 0.585048
Si Si3 0.959476 0.618500 0.405871
Si Si4 0.270159 0.944989 0.098779
Si Si5 0.473582 0.045143 0.584637
Si Si6 0.680112 0.294910 0.584593
Si Si7 0.306585 0.390208 0.917122
Si Si8 0.146867 0.648559 0.906772
O O1 0.904606 0.006012 0.250000
O O2 0.963042 0.074470 0.104621
O O3 0.786331 0.026403 0.023016
O O4 0.000000 0.000000 0.000000
O O5 0.384677 0.250000 0.500000
O O6 0.392086 0.286309 0.750000
O O7 0.545604 0.305887 0.565924
O O8 0.342237 0.339592 0.547207
O O9 0.958617 0.639239 0.250000
O O10 0.829488 0.605494 0.440257
O O11 0.022016 0.647784 0.522366
O O12 0.263328 0.968637 0.250000
O O13 0.401314 0.931532 0.077947
O O14 0.192798 0.901489 0.106718
O O15 0.447526 0.037871 0.750000
O O16 0.379686 0.075010 0.507056
O O17 0.500000 0.000000 0.500000
O O18 0.699194 0.250000 0.500000
O O19 0.701357 0.290538 0.750000
O O20 0.765014 0.329237 0.513268
O O21 0.329055 0.396607 0.750000
O O22 0.147810 0.667913 0.750000
#
# Coordination Sequence:
#
# PCOD9435545 Si02
#       8
#     8   8   8   8   8   8   8   8
#     4  10  20  33  53  78 103 136 180 230 279 327
#     4   9  19  35  58  87 116 148 187 231 280 337
#     4   9  20  37  55  76 106 147 186 226 278 336
#     4   9  20  37  54  74 103 138 176 221 272 325
#     4  11  24  39  56  81 113 149 189 235 287 344
#     4  10  19  32  53  82 113 142 175 220 272 328
#     4  10  21  39  60  82 113 153 193 235 287 343
#     4  10  19  34  56  80 106 137 178 226 274 326
#
# _framework density 18.975359999999998
#
# number of rings (size 3 to 8) (size 9 to 14) (size 15 to 20)
#    0.000    2.250    0.000    2.250    1.750    3.500 
#    0.000    0.625    0.000    1.500    0.000    0.000 
#    0.000    0.000    0.000    0.000    0.000    0.000 
#
# Total GULP energy -356802.307353 kJ/mol
# GULP energy per Si atom -5575.036052 kJ/mol
# Density = 1.893217 g / cm^3
# Si number density = 18.975360 Si / 1000 Ang^3
#
#
#
# Elastic Constant Matrix: (Units=GPa)
#
#
# Indices 1 2 3 4 5 6 
#
# 1 82.4099 15.7988 52.8053 0.0000 0.0000 0.0000
# 2 15.7988 38.5460 26.6362 0.0000 0.0000 0.0000
# 3 52.8053 26.6362 116.5510 0.0000 0.0000 0.0000
# 4 0.0000 0.0000 0.0000 29.7880 0.0000 0.0000
# 5 0.0000 0.0000 0.0000 0.0000 23.4538 0.0000
# 6 0.0000 0.0000 0.0000 0.0000 0.0000 20.5213
#
#
#
# Elastic Compliance Matrix: (Units=1/GPa)
#
#
# Indices 1 2 3 4 5 6 
#
# 1 0.017225 -0.001980 -0.007351 0.000000 0.000000 0.000000
# 2 -0.001980 0.031036 -0.006196 0.000000 0.000000 0.000000
# 3 -0.007351 -0.006196 0.013327 0.000000 0.000000 0.000000
# 4 0.000000 0.000000 0.000000 0.033571 0.000000 0.000000
# 5 0.000000 0.000000 0.000000 0.000000 0.042637 0.000000
# 6 0.000000 0.000000 0.000000 0.000000 0.000000 0.048730
#
#
# Mechanical properties :
#
#
# Convention : Reuss Voigt Hill
#
# Bulk Modulus (GPa) = 32.75151 47.55416 40.15284
# Shear Modulus (GPa) = 21.95329 24.23707 23.09518
#
# Velocity S-wave (km/s) = 3.40507 3.57780 3.49250
# Velocity P-wave (km/s) = 5.72336 6.49484 6.12126
#
# Compressibility (1/GPa) = 0.03053294
#
# Stress axis : x y z
#
# Youngs Moduli (GPa) = 58.05678 32.22065 75.03793
#
# Poissons Ratio (x) = 0.06379 0.55163
# Poissons Ratio (y) = 0.11494 0.46493
# Poissons Ratio (z) = 0.42680 0.19964
#
# Static dielectric constant tensor:
#      x y z
#    x 1.655860 0.000000 0.000000 
#    y 0.000000 1.680820 0.000000 
#    z 0.000000 0.000000 1.672170 
# 
# From -- ./inp_files/3729.got.cif
#   From: 2010.05.17/outbox.cif.g08.bks.cpg/sg57_2_cif.got.tgz:3729.got - 2010.06.03 13:58:18.
