data_PCOD9435655
_publ_section_title
;
Structure prediction by ZEFSAII (Michael W. Deem and Ramdas Pophale) SiO2 
 PCOD9435655
Probable space group: P B C M
;
_chemical_formula_sum "Si O2"
_cell_formula_units_Z 56
_cell_length_a 19.731465
_cell_length_b 18.892030
_cell_length_c 8.594511
_cell_angle_alpha 90.000000
_cell_angle_beta 90.000000
_cell_angle_gamma 90.000000
_cell_volume 3203.753767
_symmetry_space_group_name_H-M "P B C M"
_symmetry_group_IT_number 57
_symmetry_cell_setting 'orthorhombic'
loop_
_space_group_symop_operation_xyz
x,y,z
-x,-y,1/2+z
x,1/2-y,-z
-x,1/2+y,1/2-z
-x,-y,-z
x,y,1/2-z
-x,1/2+y,z
x,1/2-y,1/2+z
loop_
_atom_site_type_symbol
_atom_site_label
_atom_site_fract_x
_atom_site_fract_y
_atom_site_fract_z
Si Si1 0.352009 0.566376 0.939181
Si Si2 0.739599 0.620966 0.935698
Si Si3 0.791203 0.472719 0.434044
Si Si4 0.469941 0.670260 0.562809
Si Si5 0.072439 0.477450 0.436425
Si Si6 0.397952 0.407772 0.563005
Si Si7 0.882019 0.822505 0.065479
O O1 0.350663 0.564775 0.750000
O O2 0.273335 0.573648 0.989722
O O3 0.401551 0.629246 0.987642
O O4 0.383324 0.489670 0.986334
O O5 0.737739 0.606783 0.750000
O O6 0.801252 0.673898 0.964894
O O7 0.762571 0.550820 0.027628
O O8 0.665167 0.637645 0.997104
O O9 0.799672 0.463146 0.250000
O O10 0.865127 0.472480 0.511096
O O11 0.473121 0.750000 0.500000
O O12 0.471963 0.671782 0.750000
O O13 0.532920 0.623870 0.502139
O O14 0.071887 0.476658 0.250000
O O15 0.088198 0.397096 0.492925
O O16 0.000000 0.500000 0.500000
O O17 0.398164 0.405479 0.750000
O O18 0.891222 0.822050 0.250000
O O19 0.911014 0.750000 0.000000
#
# Coordination Sequence:
#
# PCOD9435655 Si02
#       7
#     8   8   8   8   8   8   8
#     4   8  17  33  54  75  97 126 166 210 254 302
#     4   9  17  30  46  70 101 131 162 200 242 295
#     4   9  16  30  52  77  99 124 159 203 249 296
#     4  11  22  36  50  69  98 132 168 213 263 310
#     4  10  20  34  52  79 108 136 168 206 250 300
#     4  10  19  33  52  75  98 128 169 211 257 309
#     4   9  19  32  48  71 101 133 168 201 239 292
#
# _framework density 17.479495
#
# number of rings (size 3 to 8) (size 9 to 14) (size 15 to 20)
#    0.000    2.571    0.000    4.286    0.000    4.000 
#    0.000    9.286    0.000    0.857    0.000    2.000 
#    0.000    0.000    0.000    0.000    0.000    0.000 
#
# Total GULP energy -311894.371516 kJ/mol
# GULP energy per Si atom -5569.542348 kJ/mol
# Density = 1.743971 g / cm^3
# Si number density = 17.479495 Si / 1000 Ang^3
#
#
#
# Elastic Constant Matrix: (Units=GPa)
#
#
# Indices 1 2 3 4 5 6 
#
# 1 151.8133 39.9098 30.8131 0.0000 0.0000 0.0000
# 2 39.9098 50.1528 15.0550 0.0000 0.0000 0.0000
# 3 30.8131 15.0550 35.2894 0.0000 0.0000 0.0000
# 4 0.0000 0.0000 0.0000 15.9754 0.0000 0.0000
# 5 0.0000 0.0000 0.0000 0.0000 25.2672 0.0000
# 6 0.0000 0.0000 0.0000 0.0000 0.0000 -0.3001
#
#
#
# Elastic Compliance Matrix: (Units=1/GPa)
#
#
# Indices 1 2 3 4 5 6 
#
# 1 0.009214 -0.005639 -0.005640 0.000000 0.000000 0.000000
# 2 -0.005639 0.026319 -0.006304 0.000000 0.000000 0.000000
# 3 -0.005640 -0.006304 0.035951 0.000000 0.000000 0.000000
# 4 0.000000 0.000000 0.000000 0.062596 0.000000 0.000000
# 5 0.000000 0.000000 0.000000 0.000000 0.039577 0.000000
# 6 0.000000 0.000000 0.000000 0.000000 0.000000 -3.332558
#
#
# Mechanical properties :
#
#
# Convention : Reuss Voigt Hill
#
# Bulk Modulus (GPa) = 27.53458 45.42347 36.47903
# Shear Modulus (GPa) = -1.60688 18.28702 8.34007
#
# Velocity S-wave (km/s) = -0.95984 3.23801 2.18671
# Velocity P-wave (km/s) = 3.81554 6.32635 5.22403
#
# Compressibility (1/GPa) = 0.03631797
#
# Stress axis : x y z
#
# Youngs Moduli (GPa) = 108.52778 37.99519 27.81591
#
# Poissons Ratio (x) = 0.21427 0.15687
# Poissons Ratio (y) = 0.61204 0.17535
# Poissons Ratio (z) = 0.61205 0.23952
#
# Static dielectric constant tensor:
#      x y z
#    x 1.621940 0.000000 0.000000 
#    y 0.000000 1.604570 0.000000 
#    z 0.000000 0.000000 1.593450 
# 
# From -- ./inp_files/7035.got.cif
#   From: 2010.05.17/outbox.cif.g08.bks.cpg/sg57_4_cif.got.tgz:7035.got - 2010.06.03 13:58:18.
