data_PCOD9435109
_publ_section_title
;
Structure prediction by ZEFSAII (Michael W. Deem and Ramdas Pophale) SiO2 
 PCOD9435109
Probable space group: P B C M
;
_chemical_formula_sum "Si O2"
_cell_formula_units_Z 48
_cell_length_a 14.167097
_cell_length_b 24.496014
_cell_length_c 8.597950
_cell_angle_alpha 90.000000
_cell_angle_beta 90.000000
_cell_angle_gamma 90.000000
_cell_volume 2983.810269
_symmetry_space_group_name_H-M "P B C M"
_symmetry_group_IT_number 57
_symmetry_cell_setting 'orthorhombic'
loop_
_space_group_symop_operation_xyz
x,y,z
-x,-y,1/2+z
x,1/2-y,-z
-x,1/2+y,1/2-z
-x,-y,-z
x,y,1/2-z
-x,1/2+y,z
x,1/2-y,1/2+z
loop_
_atom_site_type_symbol
_atom_site_label
_atom_site_fract_x
_atom_site_fract_y
_atom_site_fract_z
Si Si1 0.643722 0.476278 0.437713
Si Si2 0.958719 0.585693 0.563952
Si Si3 0.649607 0.690778 0.563110
Si Si4 0.860391 0.809090 0.564892
Si Si5 0.143117 0.520208 0.562026
Si Si6 0.457425 0.083002 0.937885
O O1 0.642555 0.478019 0.250000
O O2 0.750866 0.464997 0.486776
O O3 0.609447 0.534887 0.499479
O O4 0.563734 0.432907 0.487449
O O5 0.954207 0.590877 0.750000
O O6 0.928115 0.642204 0.487697
O O7 0.888579 0.537443 0.509762
O O8 0.063160 0.564331 0.519379
O O9 0.620676 0.750000 0.500000
O O10 0.652330 0.692584 0.750000
O O11 0.755554 0.679970 0.502403
O O12 0.581287 0.641727 0.512416
O O13 0.890196 0.750000 0.500000
O O14 0.854377 0.806459 0.750000
O O15 0.141017 0.514798 0.750000
O O16 0.454451 0.081557 0.750000
#
# Coordination Sequence:
#
# PCOD9435109 Si02
#       6
#     8   8   8   8   8   8
#     4   9  17  30  47  67  91 120 153 185 221 267
#     4  10  19  31  47  69  96 123 153 190 231 272
#     4  10  19  31  47  68  93 120 150 184 225 269
#     4  11  21  33  49  69  93 121 153 188 229 274
#     4   9  18  31  48  69  93 124 157 189 227 271
#     4   9  18  30  45  67  93 120 149 185 226 266
#
# _framework density 16.086814
#
# number of rings (size 3 to 8) (size 9 to 14) (size 15 to 20)
#    0.000    2.333    0.000    4.500    0.000    5.333 
#    0.000    0.000    0.000    1.000    0.000    2.333 
#    0.000    0.000    0.000    0.000    0.000    0.000 
#
# Total GULP energy -267726.177564 kJ/mol
# GULP energy per Si atom -5577.628699 kJ/mol
# Density = 1.605020 g / cm^3
# Si number density = 16.086814 Si / 1000 Ang^3
#
#
#
# Elastic Constant Matrix: (Units=GPa)
#
#
# Indices 1 2 3 4 5 6 
#
# 1 121.5714 84.4892 29.0791 0.0000 0.0000 0.0000
# 2 84.4892 143.1463 38.3821 0.0000 0.0000 0.0000
# 3 29.0791 38.3821 43.3303 0.0000 0.0000 0.0000
# 4 0.0000 0.0000 0.0000 28.1609 0.0000 0.0000
# 5 0.0000 0.0000 0.0000 0.0000 19.1922 0.0000
# 6 0.0000 0.0000 0.0000 0.0000 0.0000 18.4430
#
#
#
# Elastic Compliance Matrix: (Units=1/GPa)
#
#
# Indices 1 2 3 4 5 6 
#
# 1 0.014194 -0.007637 -0.002760 0.000000 0.000000 0.000000
# 2 -0.007637 0.013272 -0.006630 0.000000 0.000000 0.000000
# 3 -0.002760 -0.006630 0.030804 0.000000 0.000000 0.000000
# 4 0.000000 0.000000 0.000000 0.035510 0.000000 0.000000
# 5 0.000000 0.000000 0.000000 0.000000 0.052105 0.000000
# 6 0.000000 0.000000 0.000000 0.000000 0.000000 0.054221
#
#
# Mechanical properties :
#
#
# Convention : Reuss Voigt Hill
#
# Bulk Modulus (GPa) = 41.29966 67.99429 54.64698
# Shear Modulus (GPa) = 20.64132 23.56572 22.10352
#
# Velocity S-wave (km/s) = 3.58595 3.83156 3.71079
# Velocity P-wave (km/s) = 6.54783 7.86978 7.23904
#
# Compressibility (1/GPa) = 0.02421327
#
# Stress axis : x y z
#
# Youngs Moduli (GPa) = 70.45396 75.34922 32.46319
#
# Poissons Ratio (x) = 0.57548 0.08960
# Poissons Ratio (y) = 0.53809 0.21525
# Poissons Ratio (z) = 0.19446 0.49960
#
# Static dielectric constant tensor:
#      x y z
#    x 1.545570 0.000000 0.000000 
#    y 0.000000 1.517990 0.000000 
#    z 0.000000 0.000000 1.543620 
# 
# From -- ./inp_files/5334.got.cif
#   From: 2010.05.17/outbox.cif.g08.bks.cpg/sg57_3_cif.got.tgz:5334.got - 2010.06.03 13:58:18.
