data_PCOD9435878
_publ_section_title
;
Structure prediction by ZEFSAII (Michael W. Deem and Ramdas Pophale) SiO2 
 PCOD9435878
Probable space group: P B C M
;
_chemical_formula_sum "Si O2"
_cell_formula_units_Z 56
_cell_length_a 22.715400
_cell_length_b 14.445205
_cell_length_c 9.112468
_cell_angle_alpha 90.000000
_cell_angle_beta 90.000000
_cell_angle_gamma 90.000000
_cell_volume 2990.061455
_symmetry_space_group_name_H-M "P B C M"
_symmetry_group_IT_number 57
_symmetry_cell_setting 'orthorhombic'
loop_
_space_group_symop_operation_xyz
x,y,z
-x,-y,1/2+z
x,1/2-y,-z
-x,1/2+y,1/2-z
-x,-y,-z
x,y,1/2-z
-x,1/2+y,z
x,1/2-y,1/2+z
loop_
_atom_site_type_symbol
_atom_site_label
_atom_site_fract_x
_atom_site_fract_y
_atom_site_fract_z
Si Si1 0.080255 0.545672 0.924151
Si Si2 0.602083 0.158991 0.919456
Si Si3 0.651620 0.842861 0.424776
Si Si4 0.202534 0.849954 0.075209
Si Si5 0.308360 0.540568 0.424367
Si Si6 0.475307 0.089643 0.580396
Si Si7 0.972207 0.850069 0.925881
O O1 0.066576 0.555295 0.750000
O O2 0.144760 0.587030 0.949260
O O3 0.072346 0.436172 0.959280
O O4 0.033690 0.607363 0.014384
O O5 0.620543 0.155029 0.750000
O O6 0.531426 0.157222 0.922615
O O7 0.624658 0.250000 0.000000
O O8 0.629794 0.075152 0.009601
O O9 0.672469 0.750000 0.500000
O O10 0.648072 0.829046 0.250000
O O11 0.585149 0.867478 0.478618
O O12 0.692770 0.931065 0.452575
O O13 0.210643 0.838348 0.250000
O O14 0.195237 0.750000 0.000000
O O15 0.257865 0.902389 0.004709
O O16 0.306728 0.556430 0.250000
O O17 0.463698 0.064554 0.750000
O O18 0.500000 0.000000 0.500000
O O19 0.974403 0.837859 0.750000
O O20 0.960483 0.750000 0.000000
#
# Coordination Sequence:
#
# PCOD9435878 Si02
#       7
#     8   8   8   8   8   8   8
#     4   9  20  37  57  84 118 156 196 239 282 332
#     4  11  22  35  55  81 109 142 177 219 274 332
#     4  10  22  39  59  82 108 141 181 226 277 334
#     4  11  23  40  61  85 114 148 190 234 282 334
#     4  11  23  40  59  80 110 143 184 232 277 329
#     4  10  20  35  55  81 109 140 176 219 274 332
#     4  10  19  33  56  87 122 158 195 235 282 334
#
# _framework density 18.728712999999999
#
# number of rings (size 3 to 8) (size 9 to 14) (size 15 to 20)
#    0.000    1.714    1.429    3.000    0.000    5.143 
#    0.000    0.714    0.000    3.429    0.000    0.000 
#    0.000    0.000    0.000    0.000    0.000    0.000 
#
# Total GULP energy -312535.721658 kJ/mol
# GULP energy per Si atom -5580.995030 kJ/mol
# Density = 1.868609 g / cm^3
# Si number density = 18.728713 Si / 1000 Ang^3
#
#
#
# Elastic Constant Matrix: (Units=GPa)
#
#
# Indices 1 2 3 4 5 6 
#
# 1 76.8899 37.5101 39.9067 0.0000 0.0000 0.0000
# 2 37.5101 147.5801 70.2490 0.0000 0.0000 0.0000
# 3 39.9067 70.2490 80.1851 0.0000 0.0000 0.0000
# 4 0.0000 0.0000 0.0000 35.4847 0.0000 0.0000
# 5 0.0000 0.0000 0.0000 0.0000 19.1936 0.0000
# 6 0.0000 0.0000 0.0000 0.0000 0.0000 -30.5475
#
#
#
# Elastic Compliance Matrix: (Units=1/GPa)
#
#
# Indices 1 2 3 4 5 6 
#
# 1 0.017558 -0.000520 -0.008283 0.000000 0.000000 0.000000
# 2 -0.000520 0.011638 -0.009937 0.000000 0.000000 0.000000
# 3 -0.008283 -0.009937 0.025299 0.000000 0.000000 0.000000
# 4 0.000000 0.000000 0.000000 0.028181 0.000000 0.000000
# 5 0.000000 0.000000 0.000000 0.000000 0.052101 0.000000
# 6 0.000000 0.000000 0.000000 0.000000 0.000000 -0.032736
#
#
# Mechanical properties :
#
#
# Convention : Reuss Voigt Hill
#
# Bulk Modulus (GPa) = 58.77015 66.66519 62.71767
# Shear Modulus (GPa) = 34.43660 15.29210 24.86435
#
# Velocity S-wave (km/s) = 4.29267 2.86056 3.64759
# Velocity P-wave (km/s) = 7.48446 6.82516 7.16240
#
# Compressibility (1/GPa) = 0.01701544
#
# Stress axis : x y z
#
# Youngs Moduli (GPa) = 56.95361 85.92208 39.52670
#
# Poissons Ratio (x) = 0.04469 0.32739
# Poissons Ratio (y) = 0.02962 0.39279
# Poissons Ratio (z) = 0.47173 0.85385
#
# Static dielectric constant tensor:
#      x y z
#    x 1.656820 0.000000 0.000000 
#    y 0.000000 1.568960 0.000000 
#    z 0.000000 0.000000 1.632250 
# 
# From -- ./inp_files/8167.got.cif
#   From: 2010.05.17/outbox.cif.g08.bks.cpg/sg57_5_cif.got.tgz:8167.got - 2010.06.03 13:58:18.
