data_PCOD9435815
_publ_section_title
;
Structure prediction by ZEFSAII (Michael W. Deem and Ramdas Pophale) SiO2 
 PCOD9435815
Probable space group: P B C M
;
_chemical_formula_sum "Si O2"
_cell_formula_units_Z 64
_cell_length_a 24.062150
_cell_length_b 15.966148
_cell_length_c 8.682178
_cell_angle_alpha 90.000000
_cell_angle_beta 90.000000
_cell_angle_gamma 90.000000
_cell_volume 3335.517825
_symmetry_space_group_name_H-M "P B C M"
_symmetry_group_IT_number 57
_symmetry_cell_setting 'orthorhombic'
loop_
_space_group_symop_operation_xyz
x,y,z
-x,-y,1/2+z
x,1/2-y,-z
-x,1/2+y,1/2-z
-x,-y,-z
x,y,1/2-z
-x,1/2+y,z
x,1/2-y,1/2+z
loop_
_atom_site_type_symbol
_atom_site_label
_atom_site_fract_x
_atom_site_fract_y
_atom_site_fract_z
Si Si1 0.566040 0.087546 0.065574
Si Si2 0.669888 0.662586 0.931791
Si Si3 0.027561 0.415821 0.435128
Si Si4 0.440098 0.100016 0.432920
Si Si5 0.137790 0.493328 0.064801
Si Si6 0.083178 0.662670 0.934984
Si Si7 0.260170 0.490902 0.565588
Si Si8 0.322539 0.838686 0.065111
O O1 0.571808 0.076935 0.250000
O O2 0.504219 0.122662 0.035243
O O3 0.616070 0.142563 0.000937
O O4 0.567881 0.996548 0.985088
O O5 0.676525 0.662096 0.750000
O O6 0.691133 0.750000 0.000000
O O7 0.605287 0.652785 0.976805
O O8 0.700941 0.582729 0.002698
O O9 0.027198 0.418538 0.250000
O O10 0.091938 0.422839 0.482571
O O11 0.000000 0.500000 0.500000
O O12 0.982329 0.346556 0.480514
O O13 0.430086 0.106525 0.250000
O O14 0.140400 0.495640 0.250000
O O15 0.114851 0.582502 0.003754
O O16 0.198281 0.478887 0.996923
O O17 0.087634 0.660641 0.750000
O O18 0.104933 0.750000 0.000000
O O19 0.260224 0.488020 0.750000
O O20 0.284645 0.581799 0.519307
O O21 0.324808 0.835192 0.250000
O O22 0.302349 0.750000 0.000000
#
# Coordination Sequence:
#
# PCOD9435815 Si02
#       8
#     8   8   8   8   8   8   8   8
#     4  10  20  35  59  88 120 156 195 239 298 363
#     4  12  25  42  66  91 117 154 199 251 307 366
#     4   8  16  31  52  78 108 142 182 225 272 328
#     4  10  20  36  59  89 121 153 192 242 298 363
#     4  10  20  36  59  84 112 152 197 239 289 350
#     4  10  19  33  54  84 120 154 190 236 287 342
#     4  11  24  43  63  87 120 160 204 255 305 356
#     4  11  24  40  61  85 118 157 201 250 301 362
#
# _framework density 19.187425000000001
#
# number of rings (size 3 to 8) (size 9 to 14) (size 15 to 20)
#    0.000    1.750    1.250    3.375    0.000    5.000 
#    0.000    1.875    0.000    1.500    0.000    0.000 
#    0.000    0.000    0.000    0.000    0.000    0.000 
#
# Total GULP energy -357301.789397 kJ/mol
# GULP energy per Si atom -5582.840459 kJ/mol
# Density = 1.914375 g / cm^3
# Si number density = 19.187425 Si / 1000 Ang^3
#
#
#
# Elastic Constant Matrix: (Units=GPa)
#
#
# Indices 1 2 3 4 5 6 
#
# 1 89.5652 10.4736 23.9136 0.0000 0.0000 0.0000
# 2 10.4736 56.8901 12.1821 0.0000 0.0000 0.0000
# 3 23.9136 12.1821 54.8519 0.0000 0.0000 0.0000
# 4 0.0000 0.0000 0.0000 26.7411 0.0000 0.0000
# 5 0.0000 0.0000 0.0000 0.0000 28.7709 0.0000
# 6 0.0000 0.0000 0.0000 0.0000 0.0000 6.0119
#
#
#
# Elastic Compliance Matrix: (Units=1/GPa)
#
#
# Indices 1 2 3 4 5 6 
#
# 1 0.012715 -0.001211 -0.005274 0.000000 0.000000 0.000000
# 2 -0.001211 0.018571 -0.003596 0.000000 0.000000 0.000000
# 3 -0.005274 -0.003596 0.021329 0.000000 0.000000 0.000000
# 4 0.000000 0.000000 0.000000 0.037396 0.000000 0.000000
# 5 0.000000 0.000000 0.000000 0.000000 0.034757 0.000000
# 6 0.000000 0.000000 0.000000 0.000000 0.000000 0.166336
#
#
# Mechanical properties :
#
#
# Convention : Reuss Voigt Hill
#
# Bulk Modulus (GPa) = 30.81581 32.71621 31.76601
# Shear Modulus (GPa) = 15.52386 22.62065 19.07226
#
# Velocity S-wave (km/s) = 2.84749 3.43728 3.15619
# Velocity P-wave (km/s) = 5.18712 5.73071 5.46568
#
# Compressibility (1/GPa) = 0.03245088
#
# Stress axis : x y z
#
# Youngs Moduli (GPa) = 78.64772 53.84781 46.88457
#
# Poissons Ratio (x) = 0.06523 0.24728
# Poissons Ratio (y) = 0.09528 0.16861
# Poissons Ratio (z) = 0.41481 0.19365
#
# Static dielectric constant tensor:
#      x y z
#    x 1.684570 0.000000 0.000000 
#    y 0.000000 1.663590 0.000000 
#    z 0.000000 0.000000 1.637050 
# 
# From -- ./inp_files/9503.got.cif
#   From: 2010.05.17/outbox.cif.g08.bks.cpg/sg57_5_cif.got.tgz:9503.got - 2010.06.03 13:58:18.
