data_PCOD9435344
_publ_section_title
;
Structure prediction by ZEFSAII (Michael W. Deem and Ramdas Pophale) SiO2 
 PCOD9435344
Probable space group: P B C M
;
_chemical_formula_sum "Si O2"
_cell_formula_units_Z 40
_cell_length_a 27.497577
_cell_length_b 9.218876
_cell_length_c 8.624515
_cell_angle_alpha 90.000000
_cell_angle_beta 90.000000
_cell_angle_gamma 90.000000
_cell_volume 2186.286546
_symmetry_space_group_name_H-M "P B C M"
_symmetry_group_IT_number 57
_symmetry_cell_setting 'orthorhombic'
loop_
_space_group_symop_operation_xyz
x,y,z
-x,-y,1/2+z
x,1/2-y,-z
-x,1/2+y,1/2-z
-x,-y,-z
x,y,1/2-z
-x,1/2+y,z
x,1/2-y,1/2+z
loop_
_atom_site_type_symbol
_atom_site_label
_atom_site_fract_x
_atom_site_fract_y
_atom_site_fract_z
Si Si1 0.348470 0.914517 0.563128
Si Si2 0.243420 0.915320 0.563694
Si Si3 0.857440 0.413681 0.064364
Si Si4 0.545712 0.413490 0.563831
Si Si5 0.045988 0.087718 0.436176
O O1 0.348566 0.750000 0.500000
O O2 0.348162 0.908458 0.750000
O O3 0.296108 0.980501 0.516868
O O4 0.401048 0.977191 0.516449
O O5 0.244150 0.750000 0.500000
O O6 0.240274 0.912349 0.750000
O O7 0.193572 0.978460 0.496736
O O8 0.855337 0.405741 0.250000
O O9 0.904097 0.507180 0.017384
O O10 0.862499 0.250000 0.000000
O O11 0.543554 0.250000 0.500000
O O12 0.500000 0.500000 0.500000
O O13 0.543631 0.410710 0.750000
O O14 0.045177 0.250000 0.500000
O O15 0.043787 0.090105 0.250000
O O16 0.000000 0.000000 0.500000
#
# Coordination Sequence:
#
# PCOD9435344 Si02
#       5
#     8   8   8   8   8
#     4   8  15  26  42  66  95 125 161 203 247 294
#     4   9  15  25  44  70  98 129 162 201 246 293
#     4  10  20  33  51  78 107 135 166 204 248 297
#     4  10  19  32  49  71  99 131 168 211 257 306
#     4  11  24  40  59  81 107 138 174 213 255 300
#
# _framework density 18.295863000000001
#
# number of rings (size 3 to 8) (size 9 to 14) (size 15 to 20)
#    0.000    2.400    0.000    4.200    0.000    6.400 
#    0.000    0.000    0.000    1.200    0.000    2.800 
#    0.000    0.000    0.000    0.000    0.000    0.000 
#
# Total GULP energy -222852.373166 kJ/mol
# GULP energy per Si atom -5571.309329 kJ/mol
# Density = 1.825422 g / cm^3
# Si number density = 18.295863 Si / 1000 Ang^3
#
#
#
# Elastic Constant Matrix: (Units=GPa)
#
#
# Indices 1 2 3 4 5 6 
#
# 1 254.3839 67.7600 54.2860 0.0000 0.0000 0.0000
# 2 67.7600 53.9713 18.4414 0.0000 0.0000 0.0000
# 3 54.2860 18.4414 44.7583 0.0000 0.0000 0.0000
# 4 0.0000 0.0000 0.0000 21.7035 0.0000 0.0000
# 5 0.0000 0.0000 0.0000 0.0000 28.1552 0.0000
# 6 0.0000 0.0000 0.0000 0.0000 0.0000 16.2994
#
#
#
# Elastic Compliance Matrix: (Units=1/GPa)
#
#
# Indices 1 2 3 4 5 6 
#
# 1 0.006939 -0.006793 -0.005618 0.000000 0.000000 0.000000
# 2 -0.006793 0.028213 -0.003386 0.000000 0.000000 0.000000
# 3 -0.005618 -0.003386 0.030551 0.000000 0.000000 0.000000
# 4 0.000000 0.000000 0.000000 0.046075 0.000000 0.000000
# 5 0.000000 0.000000 0.000000 0.000000 0.035517 0.000000
# 6 0.000000 0.000000 0.000000 0.000000 0.000000 0.061352
#
#
# Mechanical properties :
#
#
# Convention : Reuss Voigt Hill
#
# Bulk Modulus (GPa) = 29.31619 70.45426 49.88523
# Shear Modulus (GPa) = 19.87195 27.40669 23.63932
#
# Velocity S-wave (km/s) = 3.29925 3.87456 3.59842
# Velocity P-wave (km/s) = 5.52915 7.65560 6.67757
#
# Compressibility (1/GPa) = 0.03411085
#
# Stress axis : x y z
#
# Youngs Moduli (GPa) = 144.10850 35.44439 32.73232
#
# Poissons Ratio (x) = 0.24076 0.18388
# Poissons Ratio (y) = 0.97886 0.11083
# Poissons Ratio (z) = 0.80956 0.12001
#
# Static dielectric constant tensor:
#      x y z
#    x 1.711150 0.000000 0.000000 
#    y 0.000000 1.594980 0.000000 
#    z 0.000000 0.000000 1.618830 
# 
# From -- ./inp_files/9624.got.cif
#   From: 2010.05.17/outbox.cif.g08.bks.cpg/sg57_5_cif.got.tgz:9624.got - 2010.06.03 13:58:18.
