data_PCOD9435113
_publ_section_title
;
Structure prediction by ZEFSAII (Michael W. Deem and Ramdas Pophale) SiO2 
 PCOD9435113
Probable space group: P B C M
;
_chemical_formula_sum "Si O2"
_cell_formula_units_Z 64
_cell_length_a 19.601758
_cell_length_b 19.631846
_cell_length_c 8.888500
_cell_angle_alpha 90.000000
_cell_angle_beta 90.000000
_cell_angle_gamma 90.000000
_cell_volume 3420.460965
_symmetry_space_group_name_H-M "P B C M"
_symmetry_group_IT_number 57
_symmetry_cell_setting 'orthorhombic'
loop_
_space_group_symop_operation_xyz
x,y,z
-x,-y,1/2+z
x,1/2-y,-z
-x,1/2+y,1/2-z
-x,-y,-z
x,y,1/2-z
-x,1/2+y,z
x,1/2-y,1/2+z
loop_
_atom_site_type_symbol
_atom_site_label
_atom_site_fract_x
_atom_site_fract_y
_atom_site_fract_z
Si Si1 0.220204 0.535592 0.419088
Si Si2 0.277328 0.116130 0.918703
Si Si3 0.356227 0.571587 0.569766
Si Si4 0.527120 0.325890 0.430954
Si Si5 0.854997 0.676418 0.070665
Si Si6 0.934063 0.038117 0.068548
Si Si7 0.588722 0.921898 0.570815
Si Si8 0.002887 0.823920 0.928988
O O1 0.212022 0.564317 0.250000
O O2 0.254999 0.462039 0.406758
O O3 0.278950 0.575451 0.508549
O O4 0.143774 0.522734 0.481798
O O5 0.291598 0.142334 0.750000
O O6 0.211973 0.149662 0.992495
O O7 0.342671 0.118387 0.024844
O O8 0.352574 0.566868 0.750000
O O9 0.401234 0.637259 0.528981
O O10 0.395890 0.500908 0.522493
O O11 0.519837 0.250000 0.500000
O O12 0.521999 0.321015 0.250000
O O13 0.471267 0.380486 0.489803
O O14 0.846376 0.677046 0.250000
O O15 0.928313 0.643667 0.033247
O O16 0.865038 0.750000 0.000000
O O17 0.937233 0.027952 0.250000
O O18 0.943410 0.118251 0.033116
O O19 0.000000 0.000000 0.000000
O O20 0.577773 0.921671 0.750000
O O21 0.002215 0.813788 0.750000
O O22 0.013578 0.750000 0.000000
#
# Coordination Sequence:
#
# PCOD9435113 Si02
#       8
#     8   8   8   8   8   8   8   8
#     4   9  19  34  54  79 108 139 175 218 266 317
#     4  10  19  32  50  75 105 137 171 212 259 313
#     4   9  20  38  60  83 109 141 181 222 264 316
#     4  11  23  39  58  84 114 144 179 222 268 318
#     4  10  19  31  47  68  95 133 175 216 261 315
#     4  10  20  34  53  81 111 141 177 222 272 322
#     4  10  20  36  58  83 109 141 177 218 266 318
#     4   9  19  34  51  71 100 136 177 220 265 317
#
# _framework density 18.710929
#
# number of rings (size 3 to 8) (size 9 to 14) (size 15 to 20)
#    0.000    2.250    0.000    2.625    0.000    4.000 
#    0.000    3.125    0.000    3.000    0.000    0.000 
#    0.000    0.000    0.000    0.000    0.000    0.000 
#
# Total GULP energy -356352.505493 kJ/mol
# GULP energy per Si atom -5568.007898 kJ/mol
# Density = 1.866834 g / cm^3
# Si number density = 18.710929 Si / 1000 Ang^3
#
#
#
# Elastic Constant Matrix: (Units=GPa)
#
#
# Indices 1 2 3 4 5 6 
#
# 1 120.0070 37.0519 25.5336 0.0000 0.0000 0.0000
# 2 37.0519 55.7125 23.8293 0.0000 0.0000 0.0000
# 3 25.5336 23.8293 35.5079 0.0000 0.0000 0.0000
# 4 0.0000 0.0000 0.0000 19.5317 0.0000 0.0000
# 5 0.0000 0.0000 0.0000 0.0000 33.8133 0.0000
# 6 0.0000 0.0000 0.0000 0.0000 0.0000 27.5944
#
#
#
# Elastic Compliance Matrix: (Units=1/GPa)
#
#
# Indices 1 2 3 4 5 6 
#
# 1 0.010910 -0.005470 -0.004174 0.000000 0.000000 0.000000
# 2 -0.005470 0.027919 -0.014803 0.000000 0.000000 0.000000
# 3 -0.004174 -0.014803 0.041098 0.000000 0.000000 0.000000
# 4 0.000000 0.000000 0.000000 0.051199 0.000000 0.000000
# 5 0.000000 0.000000 0.000000 0.000000 0.029574 0.000000
# 6 0.000000 0.000000 0.000000 0.000000 0.000000 0.036239
#
#
# Mechanical properties :
#
#
# Convention : Reuss Voigt Hill
#
# Bulk Modulus (GPa) = 32.22382 42.67300 37.44841
# Shear Modulus (GPa) = 19.51773 24.50872 22.01322
#
# Velocity S-wave (km/s) = 3.23324 3.62313 3.43372
# Velocity P-wave (km/s) = 5.58550 6.35285 5.98149
#
# Compressibility (1/GPa) = 0.03103295
#
# Stress axis : x y z
#
# Youngs Moduli (GPa) = 91.65973 35.81834 24.33189
#
# Poissons Ratio (x) = 0.19594 0.10157
# Poissons Ratio (y) = 0.50141 0.36017
# Poissons Ratio (z) = 0.38260 0.53020
#
# Static dielectric constant tensor:
#      x y z
#    x 1.699340 0.000000 0.000000 
#    y 0.000000 1.662820 0.000000 
#    z 0.000000 0.000000 1.658900 
# 
# From -- ./inp_files/7246.got.cif
#   From: 2010.05.17/outbox.cif.g08.bks.cpg/sg57_4_cif.got.tgz:7246.got - 2010.06.03 13:58:18.
