data_PCOD9435924
_publ_section_title
;
Structure prediction by ZEFSAII (Michael W. Deem and Ramdas Pophale) SiO2 
 PCOD9435924
Probable space group: P B C M
;
_chemical_formula_sum "Si O2"
_cell_formula_units_Z 56
_cell_length_a 21.354160
_cell_length_b 14.302885
_cell_length_c 8.571418
_cell_angle_alpha 90.000000
_cell_angle_beta 90.000000
_cell_angle_gamma 90.000000
_cell_volume 2617.934726
_symmetry_space_group_name_H-M "P B C M"
_symmetry_group_IT_number 57
_symmetry_cell_setting 'orthorhombic'
loop_
_space_group_symop_operation_xyz
x,y,z
-x,-y,1/2+z
x,1/2-y,-z
-x,1/2+y,1/2-z
-x,-y,-z
x,y,1/2-z
-x,1/2+y,z
x,1/2-y,1/2+z
loop_
_atom_site_type_symbol
_atom_site_label
_atom_site_fract_x
_atom_site_fract_y
_atom_site_fract_z
Si Si1 0.725112 0.049636 0.937792
Si Si2 0.851129 0.382984 0.075698
Si Si3 0.533175 0.852671 0.436699
Si Si4 0.890413 0.596989 0.424119
Si Si5 0.764926 0.651520 0.932865
Si Si6 0.012535 0.651981 0.937749
Si Si7 0.409719 0.949626 0.937129
O O1 0.727283 0.052900 0.750000
O O2 0.782198 0.116161 0.997678
O O3 0.657850 0.078665 0.000163
O O4 0.736655 0.942050 0.990432
O O5 0.848221 0.339843 0.250000
O O6 0.863502 0.493207 0.092562
O O7 0.916303 0.352466 0.998545
O O8 0.550136 0.750000 0.500000
O O9 0.533411 0.848161 0.250000
O O10 0.464571 0.884483 0.495661
O O11 0.576239 0.941751 0.483841
O O12 0.892841 0.639018 0.250000
O O13 0.839632 0.647356 0.531836
O O14 0.959244 0.585470 0.494748
O O15 0.753246 0.647630 0.750000
O O16 0.741018 0.750000 0.000000
O O17 0.014975 0.644396 0.750000
O O18 0.986707 0.750000 0.000000
O O19 0.411438 0.945300 0.750000
#
# Coordination Sequence:
#
# PCOD9435924 Si02
#       7
#     8   8   8   8   8   8   8
#     4  10  20  37  58  80 108 145 185 227 275 325
#     4   8  18  35  54  73  98 132 173 217 262 315
#     4  10  21  38  62  91 123 157 194 237 282 330
#     4  10  19  34  53  74  97 128 170 218 273 330
#     4  11  21  34  51  75 106 141 180 225 277 334
#     4  11  21  34  50  72  99 129 167 215 268 320
#     4  10  21  38  60  89 123 158 196 235 280 336
#
# _framework density 21.390906999999999
#
# number of rings (size 3 to 8) (size 9 to 14) (size 15 to 20)
#    0.000    2.000    0.000    5.143    0.000    2.286 
#    0.000   10.000    0.000    1.714    0.000    0.000 
#    0.000    0.000    0.000    0.000    0.000    0.000 
#
# Total GULP energy -312307.805333 kJ/mol
# GULP energy per Si atom -5576.925095 kJ/mol
# Density = 2.134222 g / cm^3
# Si number density = 21.390907 Si / 1000 Ang^3
#
#
#
# Elastic Constant Matrix: (Units=GPa)
#
#
# Indices 1 2 3 4 5 6 
#
# 1 106.3541 -25.7929 4.3558 0.0000 0.0000 0.0000
# 2 -25.7929 20.1147 -4.0744 0.0000 0.0000 0.0000
# 3 4.3558 -4.0744 57.9564 0.0000 0.0000 0.0000
# 4 0.0000 0.0000 0.0000 19.5578 0.0000 0.0000
# 5 0.0000 0.0000 0.0000 0.0000 -599.3997 0.0000
# 6 0.0000 0.0000 0.0000 0.0000 0.0000 12.5378
#
#
#
# Elastic Compliance Matrix: (Units=1/GPa)
#
#
# Indices 1 2 3 4 5 6 
#
# 1 0.013649 0.017544 0.000208 0.000000 0.000000 0.000000
# 2 0.017544 0.072983 0.003812 0.000000 0.000000 0.000000
# 3 0.000208 0.003812 0.017507 0.000000 0.000000 0.000000
# 4 0.000000 0.000000 0.000000 0.051130 0.000000 0.000000
# 5 0.000000 0.000000 0.000000 0.000000 -0.001668 0.000000
# 6 0.000000 0.000000 0.000000 0.000000 0.000000 0.079759
#
#
# Mechanical properties :
#
#
# Convention : Reuss Voigt Hill
#
# Bulk Modulus (GPa) = 6.79046 14.82248 10.80647
# Shear Modulus (GPa) = 20.89243 -99.46504 -39.28631
#
# Velocity S-wave (km/s) = 3.12861 -6.82640 -4.29019
# Velocity P-wave (km/s) = 4.02893 7.42890 4.41341
#
# Compressibility (1/GPa) = 0.14726553
#
# Stress axis : x y z
#
# Youngs Moduli (GPa) = 73.26698 13.70178 57.12080
#
# Poissons Ratio (x) = -0.24038 -0.01185
# Poissons Ratio (y) = -1.28537 -0.21776
# Poissons Ratio (z) = -0.01521 -0.05223
#
# Static dielectric constant tensor:
#      x y z
#    x 1.806410 0.000000 0.000000 
#    y 0.000000 1.861800 0.000000 
#    z 0.000000 0.000000 1.743580 
# 
# From -- ./inp_files/8148.got.cif
#   From: 2010.05.17/outbox.cif.g08.bks.cpg/sg57_5_cif.got.tgz:8148.got - 2010.06.03 13:58:18.
