data_PCOD9435796
_publ_section_title
;
Structure prediction by ZEFSAII (Michael W. Deem and Ramdas Pophale) SiO2 
 PCOD9435796
Probable space group: P B C M
;
_chemical_formula_sum "Si O2"
_cell_formula_units_Z 60
_cell_length_a 13.197165
_cell_length_b 17.713128
_cell_length_c 14.888907
_cell_angle_alpha 90.000000
_cell_angle_beta 90.000000
_cell_angle_gamma 90.000000
_cell_volume 3480.476652
_symmetry_space_group_name_H-M "P B C M"
_symmetry_group_IT_number 57
_symmetry_cell_setting 'orthorhombic'
loop_
_space_group_symop_operation_xyz
x,y,z
-x,-y,1/2+z
x,1/2-y,-z
-x,1/2+y,1/2-z
-x,-y,-z
x,y,1/2-z
-x,1/2+y,z
x,1/2-y,1/2+z
loop_
_atom_site_type_symbol
_atom_site_label
_atom_site_fract_x
_atom_site_fract_y
_atom_site_fract_z
Si Si1 0.913624 0.009619 0.924778
Si Si2 0.389155 0.632200 0.351053
Si Si3 0.077804 0.250000 0.000000
Si Si4 0.052658 0.670133 0.848013
Si Si5 0.312474 0.941209 0.029469
Si Si6 0.390831 0.072526 0.147536
Si Si7 0.169834 0.142903 0.352070
Si Si8 0.728352 0.219369 0.900556
O O1 0.938741 0.080364 0.861596
O O2 0.804042 0.031082 0.966923
O O3 0.895659 0.932614 0.870675
O O4 0.000000 0.000000 0.000000
O O5 0.365750 0.606037 0.250000
O O6 0.340675 0.580767 0.428357
O O7 0.509868 0.623660 0.364505
O O8 0.345378 0.717005 0.360694
O O9 0.142338 0.199663 0.068463
O O10 0.008709 0.299412 0.066758
O O11 0.008040 0.687095 0.750000
O O12 0.164919 0.706487 0.851977
O O13 0.319940 0.863311 0.086185
O O14 0.380683 0.005238 0.075810
O O15 0.394264 0.041407 0.250000
O O16 0.287473 0.119782 0.141280
O O17 0.150861 0.169485 0.250000
O O18 0.753527 0.250000 0.000000
#
# Coordination Sequence:
#
# PCOD9435796 Si02
#       8
#     8   8   4   8   8   8   8   8
#     4  10  19  37  58  78 111 145 186 228 263 319
#     4  10  19  33  54  82 114 143 172 223 280 327
#     4  12  22  36  54  80 116 140 180 228 276 324
#     4  11  21  34  56  82 111 146 181 222 272 326
#     4   9  19  33  56  79 107 141 184 226 266 318
#     4   9  19  36  58  78 102 142 192 227 262 320
#     4  10  21  38  58  79 105 147 190 227 271 322
#     4   9  18  33  50  80 111 139 175 221 269 326
#
# _framework density 17.239018000000002
#
# number of rings (size 3 to 8) (size 9 to 14) (size 15 to 20)
#    0.000    2.133    2.000    1.600    0.000    3.733 
#    3.600    1.333    0.000    0.000    0.000    0.000 
#    0.000    0.000    0.000    0.000    0.000    0.000 
#
# Total GULP energy -334392.173529 kJ/mol
# GULP energy per Si atom -5573.202892 kJ/mol
# Density = 1.719978 g / cm^3
# Si number density = 17.239018 Si / 1000 Ang^3
#
#
#
# Elastic Constant Matrix: (Units=GPa)
#
#
# Indices 1 2 3 4 5 6 
#
# 1 60.1131 37.4171 48.6479 0.0000 0.0000 0.0000
# 2 37.4171 96.8708 54.5026 0.0000 0.0000 0.0000
# 3 48.6479 54.5026 140.2002 0.0000 0.0000 0.0000
# 4 0.0000 0.0000 0.0000 12.9493 0.0000 0.0000
# 5 0.0000 0.0000 0.0000 0.0000 15.6672 0.0000
# 6 0.0000 0.0000 0.0000 0.0000 0.0000 14.7149
#
#
#
# Elastic Compliance Matrix: (Units=1/GPa)
#
#
# Indices 1 2 3 4 5 6 
#
# 1 0.025834 -0.006317 -0.006509 0.000000 0.000000 0.000000
# 2 -0.006317 0.014758 -0.003545 0.000000 0.000000 0.000000
# 3 -0.006509 -0.003545 0.010769 0.000000 0.000000 0.000000
# 4 0.000000 0.000000 0.000000 0.077224 0.000000 0.000000
# 5 0.000000 0.000000 0.000000 0.000000 0.063828 0.000000
# 6 0.000000 0.000000 0.000000 0.000000 0.000000 0.067958
#
#
# Mechanical properties :
#
#
# Convention : Reuss Voigt Hill
#
# Bulk Modulus (GPa) = 53.70527 64.25772 58.98150
# Shear Modulus (GPa) = 16.70458 19.10738 17.90598
#
# Velocity S-wave (km/s) = 3.11625 3.33285 3.22637
# Velocity P-wave (km/s) = 6.64597 7.22260 6.94028
#
# Compressibility (1/GPa) = 0.01862015
#
# Stress axis : x y z
#
# Youngs Moduli (GPa) = 38.70800 67.76196 92.85716
#
# Poissons Ratio (x) = 0.42804 0.60437
# Poissons Ratio (y) = 0.24451 0.32919
# Poissons Ratio (z) = 0.25194 0.24022
#
# Static dielectric constant tensor:
#      x y z
#    x 1.571800 0.000000 0.000000 
#    y 0.000000 1.585340 0.000000 
#    z 0.000000 0.000000 1.581910 
# 
# From -- ./inp_files/17907.got.cif
#   From: 2010.05.17/outbox.cif.g08.bks.cpg/sg57_9_cif.got.tgz:17907.got - 2010.06.03 13:58:18.
