data_PCOD9435382
_publ_section_title
;
Structure prediction by ZEFSAII (Michael W. Deem and Ramdas Pophale) SiO2 
 PCOD9435382
Probable space group: P B C M
;
_chemical_formula_sum "Si O2"
_cell_formula_units_Z 64
_cell_length_a 17.529544
_cell_length_b 20.567806
_cell_length_c 9.048259
_cell_angle_alpha 90.000000
_cell_angle_beta 90.000000
_cell_angle_gamma 90.000000
_cell_volume 3262.297848
_symmetry_space_group_name_H-M "P B C M"
_symmetry_group_IT_number 57
_symmetry_cell_setting 'orthorhombic'
loop_
_space_group_symop_operation_xyz
x,y,z
-x,-y,1/2+z
x,1/2-y,-z
-x,1/2+y,1/2-z
-x,-y,-z
x,y,1/2-z
-x,1/2+y,z
x,1/2-y,1/2+z
loop_
_atom_site_type_symbol
_atom_site_label
_atom_site_fract_x
_atom_site_fract_y
_atom_site_fract_z
Si Si1 0.819186 0.183000 0.922083
Si Si2 0.211341 0.964201 0.070578
Si Si3 0.238419 0.180175 0.074831
Si Si4 0.596588 0.818238 0.574193
Si Si5 0.509803 0.408280 0.075190
Si Si6 0.003167 0.182325 0.578328
Si Si7 0.895693 0.920777 0.573142
Si Si8 0.630129 0.008635 0.425806
O O1 0.797485 0.187150 0.750000
O O2 0.793237 0.111556 0.977197
O O3 0.911423 0.181571 0.930536
O O4 0.793590 0.250000 0.000000
O O5 0.215120 0.966067 0.250000
O O6 0.137374 0.008327 0.029171
O O7 0.288468 0.995091 0.004805
O O8 0.237805 0.192195 0.250000
O O9 0.321313 0.148765 0.041845
O O10 0.173366 0.129030 0.040083
O O11 0.226340 0.250000 0.000000
O O12 0.612005 0.750000 0.500000
O O13 0.585656 0.817556 0.750000
O O14 0.522311 0.843066 0.492517
O O15 0.522384 0.407956 0.250000
O O16 0.435968 0.454810 0.044522
O O17 0.585574 0.429427 0.991660
O O18 0.028938 0.250000 0.500000
O O19 0.025988 0.184975 0.750000
O O20 0.034856 0.115917 0.506420
O O21 0.909345 0.921898 0.750000
O O22 0.640700 0.011543 0.250000
#
# Coordination Sequence:
#
# PCOD9435382 Si02
#       8
#     8   8   8   8   8   8   8   8
#     4   9  20  39  61  82 106 141 182 225 274 328
#     4  10  21  38  58  81 111 143 177 221 276 331
#     4   9  18  30  45  68 101 142 181 215 257 312
#     4  10  19  32  50  73 103 139 179 221 266 316
#     4  10  20  35  55  78 106 140 177 218 266 319
#     4  10  20  35  55  80 110 145 186 225 264 315
#     4  10  20  33  51  78 111 145 179 220 270 321
#     4  10  21  36  56  82 108 137 176 220 266 320
#
# _framework density 19.618072000000002
#
# number of rings (size 3 to 8) (size 9 to 14) (size 15 to 20)
#    0.000    2.250    0.000    2.625    0.000    6.500 
#    0.000    0.625    0.000    1.500    0.000    0.000 
#    0.000    0.000    0.000    0.000    0.000    0.000 
#
# Total GULP energy -356545.205244 kJ/mol
# GULP energy per Si atom -5571.018832 kJ/mol
# Density = 1.957342 g / cm^3
# Si number density = 19.618072 Si / 1000 Ang^3
#
#
#
# Elastic Constant Matrix: (Units=GPa)
#
#
# Indices 1 2 3 4 5 6 
#
# 1 19.6826 8.2737 14.9387 0.0000 0.0000 0.0000
# 2 8.2737 88.7473 31.0974 0.0000 0.0000 0.0000
# 3 14.9387 31.0974 -28.9207 0.0000 0.0000 0.0000
# 4 0.0000 0.0000 0.0000 24.5830 0.0000 0.0000
# 5 0.0000 0.0000 0.0000 0.0000 24.1146 0.0000
# 6 0.0000 0.0000 0.0000 0.0000 0.0000 13.7492
#
#
#
# Elastic Compliance Matrix: (Units=1/GPa)
#
#
# Indices 1 2 3 4 5 6 
#
# 1 0.044343 -0.008832 0.013408 0.000000 0.000000 0.000000
# 2 -0.008832 0.009943 0.006130 0.000000 0.000000 0.000000
# 3 0.013408 0.006130 -0.021061 0.000000 0.000000 0.000000
# 4 0.000000 0.000000 0.000000 0.040678 0.000000 0.000000
# 5 0.000000 0.000000 0.000000 0.000000 0.041469 0.000000
# 6 0.000000 0.000000 0.000000 0.000000 0.000000 0.072731
#
#
# Mechanical properties :
#
#
# Convention : Reuss Voigt Hill
#
# Bulk Modulus (GPa) = 18.30281 20.90319 19.60300
# Shear Modulus (GPa) = 27.04087 14.16933 20.60510
#
# Velocity S-wave (km/s) = 3.71666 2.69040 3.24437
# Velocity P-wave (km/s) = 5.26953 4.50879 4.90393
#
# Compressibility (1/GPa) = 0.05463643
#
# Stress axis : x y z
#
# Youngs Moduli (GPa) = 22.55169 100.56853 -47.48217
#
# Poissons Ratio (x) = 0.88823 0.63663
# Poissons Ratio (y) = 0.19918 0.29105
# Poissons Ratio (z) = -0.30237 -0.61646
#
# Static dielectric constant tensor:
#      x y z
#    x 1.743090 0.000000 0.000000 
#    y 0.000000 1.748000 0.000000 
#    z 0.000000 0.000000 1.656820 
# 
# From -- ./inp_files/7133.got.cif
#   From: 2010.05.17/outbox.cif.g08.bks.cpg/sg57_4_cif.got.tgz:7133.got - 2010.06.03 13:58:18.
