data_PCOD9435804
_publ_section_title
;
Structure prediction by ZEFSAII (Michael W. Deem and Ramdas Pophale) SiO2 
 PCOD9435804
Probable space group: P B C M
;
_chemical_formula_sum "Si O2"
_cell_formula_units_Z 64
_cell_length_a 20.080547
_cell_length_b 21.072602
_cell_length_c 8.803715
_cell_angle_alpha 90.000000
_cell_angle_beta 90.000000
_cell_angle_gamma 90.000000
_cell_volume 3725.286499
_symmetry_space_group_name_H-M "P B C M"
_symmetry_group_IT_number 57
_symmetry_cell_setting 'orthorhombic'
loop_
_space_group_symop_operation_xyz
x,y,z
-x,-y,1/2+z
x,1/2-y,-z
-x,1/2+y,1/2-z
-x,-y,-z
x,y,1/2-z
-x,1/2+y,z
x,1/2-y,1/2+z
loop_
_atom_site_type_symbol
_atom_site_label
_atom_site_fract_x
_atom_site_fract_y
_atom_site_fract_z
Si Si1 0.679758 0.865125 0.068102
Si Si2 0.682761 0.485819 0.568141
Si Si3 0.961852 0.816308 0.566851
Si Si4 0.462176 0.938896 0.567295
Si Si5 0.180631 0.365436 0.932301
Si Si6 0.822442 0.484930 0.431098
Si Si7 0.535791 0.817208 0.067017
Si Si8 0.957879 0.058139 0.067912
O O1 0.684387 0.861269 0.250000
O O2 0.612878 0.829470 0.019900
O O3 0.671818 0.939818 0.027513
O O4 0.749371 0.842341 0.998826
O O5 0.692853 0.483376 0.750000
O O6 0.615968 0.447754 0.530930
O O7 0.749649 0.463721 0.485821
O O8 0.985335 0.750000 0.500000
O O9 0.961553 0.813461 0.750000
O O10 0.885744 0.829716 0.515736
O O11 0.007169 0.876035 0.522082
O O12 0.469311 0.938777 0.750000
O O13 0.493080 0.875534 0.497039
O O14 0.500000 0.000000 0.500000
O O15 0.184056 0.361851 0.750000
O O16 0.172441 0.440063 0.972736
O O17 0.828460 0.480286 0.250000
O O18 0.882784 0.448451 0.509429
O O19 0.532890 0.817154 0.250000
O O20 0.513781 0.750000 0.000000
O O21 0.959855 0.053949 0.250000
O O22 0.000000 0.000000 0.000000
#
# Coordination Sequence:
#
# PCOD9435804 Si02
#       8
#     8   8   8   8   8   8   8   8
#     4   9  18  33  51  75 108 145 185 223 263 322
#     4   9  18  34  54  81 112 143 180 223 275 329
#     4  10  22  38  53  76 109 143 182 223 268 320
#     4  11  21  36  59  85 113 147 187 233 281 332
#     4   9  18  33  50  74 109 143 180 222 262 317
#     4  10  19  33  54  83 112 140 179 225 274 326
#     4  11  23  39  55  79 113 150 192 234 280 336
#     4  11  21  36  57  81 110 143 182 229 274 323
#
# _framework density 17.179886
#
# number of rings (size 3 to 8) (size 9 to 14) (size 15 to 20)
#    0.000    2.000    2.500    1.500    0.000    4.500 
#    0.000    2.500    0.000    0.750    0.000    3.500 
#    0.000    0.000    0.000    0.000    0.000    0.000 
#
# Total GULP energy -357290.117831 kJ/mol
# GULP energy per Si atom -5582.658091 kJ/mol
# Density = 1.714078 g / cm^3
# Si number density = 17.179886 Si / 1000 Ang^3
#
#
#
# Elastic Constant Matrix: (Units=GPa)
#
#
# Indices 1 2 3 4 5 6 
#
# 1 117.7879 66.5478 43.0133 0.0000 0.0000 0.0000
# 2 66.5478 119.3430 40.3091 0.0000 0.0000 0.0000
# 3 43.0133 40.3091 38.4211 0.0000 0.0000 0.0000
# 4 0.0000 0.0000 0.0000 23.2262 0.0000 0.0000
# 5 0.0000 0.0000 0.0000 0.0000 31.0824 0.0000
# 6 0.0000 0.0000 0.0000 0.0000 0.0000 21.3861
#
#
#
# Elastic Compliance Matrix: (Units=1/GPa)
#
#
# Indices 1 2 3 4 5 6 
#
# 1 0.015704 -0.004366 -0.013001 0.000000 0.000000 0.000000
# 2 -0.004366 0.014192 -0.010002 0.000000 0.000000 0.000000
# 3 -0.013001 -0.010002 0.051075 0.000000 0.000000 0.000000
# 4 0.000000 0.000000 0.000000 0.043055 0.000000 0.000000
# 5 0.000000 0.000000 0.000000 0.000000 0.032173 0.000000
# 6 0.000000 0.000000 0.000000 0.000000 0.000000 0.046759
#
#
# Mechanical properties :
#
#
# Convention : Reuss Voigt Hill
#
# Bulk Modulus (GPa) = 38.11747 63.92137 51.01942
# Shear Modulus (GPa) = 18.76609 23.51771 21.14190
#
# Velocity S-wave (km/s) = 3.30863 3.70389 3.51182
# Velocity P-wave (km/s) = 6.06889 7.45517 6.79746
#
# Compressibility (1/GPa) = 0.02623469
#
# Stress axis : x y z
#
# Youngs Moduli (GPa) = 63.67857 70.46353 19.57908
#
# Poissons Ratio (x) = 0.30762 0.25454
# Poissons Ratio (y) = 0.27800 0.19582
# Poissons Ratio (z) = 0.82786 0.70475
#
# Static dielectric constant tensor:
#      x y z
#    x 1.581610 0.000000 0.000000 
#    y 0.000000 1.569190 0.000000 
#    z 0.000000 0.000000 1.576830 
# 
# From -- ./inp_files/7153.got.cif
#   From: 2010.05.17/outbox.cif.g08.bks.cpg/sg57_4_cif.got.tgz:7153.got - 2010.06.03 13:58:18.
