data_PCOD9435728
_publ_section_title
;
Structure prediction by ZEFSAII (Michael W. Deem and Ramdas Pophale) SiO2 
 PCOD9435728
Probable space group: P B C M
;
_chemical_formula_sum "Si O2"
_cell_formula_units_Z 56
_cell_length_a 15.940361
_cell_length_b 23.598192
_cell_length_c 8.654635
_cell_angle_alpha 90.000000
_cell_angle_beta 90.000000
_cell_angle_gamma 90.000000
_cell_volume 3255.559519
_symmetry_space_group_name_H-M "P B C M"
_symmetry_group_IT_number 57
_symmetry_cell_setting 'orthorhombic'
loop_
_space_group_symop_operation_xyz
x,y,z
-x,-y,1/2+z
x,1/2-y,-z
-x,1/2+y,1/2-z
-x,-y,-z
x,y,1/2-z
-x,1/2+y,z
x,1/2-y,1/2+z
loop_
_atom_site_type_symbol
_atom_site_label
_atom_site_fract_x
_atom_site_fract_y
_atom_site_fract_z
Si Si1 0.000521 0.189090 0.065393
Si Si2 0.840120 0.873283 0.434140
Si Si3 0.691361 0.313919 0.936797
Si Si4 0.906276 0.991476 0.566173
Si Si5 0.845464 0.393150 0.563863
Si Si6 0.323171 0.314280 0.936088
Si Si7 0.492748 0.686293 0.064111
O O1 0.009325 0.192086 0.250000
O O2 0.929134 0.142996 0.029283
O O3 0.975264 0.250000 0.000000
O O4 0.087793 0.169609 0.991740
O O5 0.838712 0.874117 0.250000
O O6 0.865919 0.934723 0.497698
O O7 0.751431 0.851967 0.498248
O O8 0.694129 0.310309 0.750000
O O9 0.765592 0.355772 0.985068
O O10 0.598638 0.336645 0.983463
O O11 0.702232 0.250000 0.000000
O O12 0.911706 0.986280 0.750000
O O13 0.853525 0.046535 0.517190
O O14 0.000000 0.000000 0.500000
O O15 0.841979 0.401161 0.750000
O O16 0.317862 0.312225 0.750000
O O17 0.416112 0.337355 0.981711
O O18 0.315428 0.250000 0.000000
O O19 0.492671 0.687757 0.250000
O O20 0.492854 0.750000 0.000000
#
# Coordination Sequence:
#
# PCOD9435728 Si02
#       7
#     8   8   8   8   8   8   8
#     4  11  22  35  52  76 109 143 176 214 262 317
#     4  12  24  38  56  77 104 139 179 224 269 317
#     4   9  17  31  52  81 113 145 179 216 262 315
#     4  12  24  40  60  79 102 136 181 225 267 316
#     4  10  21  36  55  78 108 143 179 220 263 312
#     4  10  19  33  53  80 112 144 179 220 267 320
#     4   8  15  28  49  76 108 143 177 215 260 312
#
# _framework density 17.201343999999999
#
# number of rings (size 3 to 8) (size 9 to 14) (size 15 to 20)
#    0.000    1.714    1.429    4.286    0.000    1.714 
#    0.000    0.000    0.000    0.857    0.000    0.000 
#    0.000    0.000    0.000    0.000    0.000    0.000 
#
# Total GULP energy -312525.466703 kJ/mol
# GULP energy per Si atom -5580.811905 kJ/mol
# Density = 1.716219 g / cm^3
# Si number density = 17.201344 Si / 1000 Ang^3
#
#
#
# Elastic Constant Matrix: (Units=GPa)
#
#
# Indices 1 2 3 4 5 6 
#
# 1 124.8626 19.0091 27.8807 0.0000 0.0000 0.0000
# 2 19.0091 61.7460 19.6386 0.0000 0.0000 0.0000
# 3 27.8807 19.6386 58.0143 0.0000 0.0000 0.0000
# 4 0.0000 0.0000 0.0000 28.3312 0.0000 0.0000
# 5 0.0000 0.0000 0.0000 0.0000 10.7709 0.0000
# 6 0.0000 0.0000 0.0000 0.0000 0.0000 8.7793
#
#
#
# Elastic Compliance Matrix: (Units=1/GPa)
#
#
# Indices 1 2 3 4 5 6 
#
# 1 0.009107 -0.001582 -0.003841 0.000000 0.000000 0.000000
# 2 -0.001582 0.018424 -0.005477 0.000000 0.000000 0.000000
# 3 -0.003841 -0.005477 0.020937 0.000000 0.000000 0.000000
# 4 0.000000 0.000000 0.000000 0.035297 0.000000 0.000000
# 5 0.000000 0.000000 0.000000 0.000000 0.092843 0.000000
# 6 0.000000 0.000000 0.000000 0.000000 0.000000 0.113905
#
#
# Mechanical properties :
#
#
# Convention : Reuss Voigt Hill
#
# Bulk Modulus (GPa) = 37.49684 41.96442 39.73063
# Shear Modulus (GPa) = 15.56649 21.44924 18.50787
#
# Velocity S-wave (km/s) = 3.01152 3.53505 3.28373
# Velocity P-wave (km/s) = 5.82567 6.41179 6.12574
#
# Compressibility (1/GPa) = 0.02666892
#
# Stress axis : x y z
#
# Youngs Moduli (GPa) = 109.80096 54.27628 47.76221
#
# Poissons Ratio (x) = 0.08587 0.18347
# Poissons Ratio (y) = 0.17371 0.26157
# Poissons Ratio (z) = 0.42178 0.29725
#
# Static dielectric constant tensor:
#      x y z
#    x 1.614810 0.000000 0.000000 
#    y 0.000000 1.543970 0.000000 
#    z 0.000000 0.000000 1.574120 
# 
# From -- ./inp_files/5107.got.cif
#   From: 2010.05.17/outbox.cif.g08.bks.cpg/sg57_3_cif.got.tgz:5107.got - 2010.06.03 13:58:18.
