data_PCOD9435568
_publ_section_title
;
Structure prediction by ZEFSAII (Michael W. Deem and Ramdas Pophale) SiO2 
 PCOD9435568
Probable space group: P B C M
;
_chemical_formula_sum "Si O2"
_cell_formula_units_Z 48
_cell_length_a 11.344533
_cell_length_b 12.957726
_cell_length_c 19.427028
_cell_angle_alpha 90.000000
_cell_angle_beta 90.000000
_cell_angle_gamma 90.000000
_cell_volume 2855.760493
_symmetry_space_group_name_H-M "P B C M"
_symmetry_group_IT_number 57
_symmetry_cell_setting 'orthorhombic'
loop_
_space_group_symop_operation_xyz
x,y,z
-x,-y,1/2+z
x,1/2-y,-z
-x,1/2+y,1/2-z
-x,-y,-z
x,y,1/2-z
-x,1/2+y,z
x,1/2-y,1/2+z
loop_
_atom_site_type_symbol
_atom_site_label
_atom_site_fract_x
_atom_site_fract_y
_atom_site_fract_z
Si Si1 0.811264 0.916577 0.329661
Si Si2 0.579790 0.647078 0.047472
Si Si3 0.232501 0.179043 0.330885
Si Si4 0.109225 0.629507 0.000725
Si Si5 0.954195 0.518783 0.112418
Si Si6 0.660245 0.027622 0.441007
O O1 0.783905 0.929796 0.250000
O O2 0.820456 0.793793 0.343500
O O3 0.707549 0.965579 0.375154
O O4 0.933234 0.974910 0.346902
O O5 0.661733 0.666178 0.114069
O O6 0.453848 0.599060 0.068901
O O7 0.568647 0.750000 0.000000
O O8 0.636305 0.558112 0.999529
O O9 0.267740 0.173851 0.250000
O O10 0.135841 0.090312 0.346060
O O11 0.105166 0.578340 0.925501
O O12 0.096085 0.750000 0.000000
O O13 0.231875 0.597543 0.034557
O O14 0.005305 0.585348 0.048755
#
# Coordination Sequence:
#
# PCOD9435568 Si02
#       6
#     8   8   8   8   8   8
#     4  10  21  37  57  82 116 152 187 230 283 346
#     4  11  21  37  60  82 111 143 192 242 279 337
#     4  11  22  37  58  84 115 152 190 231 289 347
#     4  10  19  32  54  83 112 140 188 238 279 334
#     4  10  20  34  54  83 114 152 185 230 284 339
#     4  10  21  36  57  83 106 146 186 233 288 328
#
# _framework density 16.808133000000002
#
# number of rings (size 3 to 8) (size 9 to 14) (size 15 to 20)
#    0.000    1.667    3.333    2.000    0.000    1.333 
#    0.000    0.000    0.000    1.000    0.000    0.000 
#    0.000    0.000    0.000    0.000    0.000    0.000 
#
# Total GULP energy -267706.167971 kJ/mol
# GULP energy per Si atom -5577.211833 kJ/mol
# Density = 1.676988 g / cm^3
# Si number density = 16.808133 Si / 1000 Ang^3
#
#
#
# Elastic Constant Matrix: (Units=GPa)
#
#
# Indices 1 2 3 4 5 6 
#
# 1 67.9734 46.4070 49.3642 0.0000 0.0000 0.0000
# 2 46.4070 128.6569 53.0451 0.0000 0.0000 0.0000
# 3 49.3642 53.0451 103.3064 0.0000 0.0000 0.0000
# 4 0.0000 0.0000 0.0000 27.3806 0.0000 0.0000
# 5 0.0000 0.0000 0.0000 0.0000 14.4552 0.0000
# 6 0.0000 0.0000 0.0000 0.0000 0.0000 -72.1074
#
#
#
# Elastic Compliance Matrix: (Units=1/GPa)
#
#
# Indices 1 2 3 4 5 6 
#
# 1 0.024993 -0.005190 -0.009278 0.000000 0.000000 0.000000
# 2 -0.005190 0.010938 -0.003136 0.000000 0.000000 0.000000
# 3 -0.009278 -0.003136 0.015724 0.000000 0.000000 0.000000
# 4 0.000000 0.000000 0.000000 0.036522 0.000000 0.000000
# 5 0.000000 0.000000 0.000000 0.000000 0.069179 0.000000
# 6 0.000000 0.000000 0.000000 0.000000 0.000000 -0.013868
#
#
# Mechanical properties :
#
#
# Convention : Reuss Voigt Hill
#
# Bulk Modulus (GPa) = 60.80387 66.39658 63.60022
# Shear Modulus (GPa) = 27.14787 4.02038 15.58413
#
# Velocity S-wave (km/s) = 4.02327 1.54826 3.04826
# Velocity P-wave (km/s) = 7.60500 6.54099 7.09298
#
# Compressibility (1/GPa) = 0.01644632
#
# Stress axis : x y z
#
# Youngs Moduli (GPa) = 40.01199 91.42728 63.59839
#
# Poissons Ratio (x) = 0.47448 0.59005
# Poissons Ratio (y) = 0.20765 0.19947
# Poissons Ratio (z) = 0.37122 0.28675
#
# Static dielectric constant tensor:
#      x y z
#    x 1.555800 0.000000 0.000000 
#    y 0.000000 1.563520 0.000000 
#    z 0.000000 0.000000 1.555170 
# 
# From -- ./inp_files/21794.got.cif
#   From: 2010.05.17/outbox.cif.g08.bks.cpg/sg57_11_cif.got.tgz:21794.got - 2010.06.03 13:58:18.
