data_PCOD9435239
_publ_section_title
;
Structure prediction by ZEFSAII (Michael W. Deem and Ramdas Pophale) SiO2 
 PCOD9435239
Probable space group: P B C M
;
_chemical_formula_sum "Si O2"
_cell_formula_units_Z 64
_cell_length_a 16.577175
_cell_length_b 25.096672
_cell_length_c 8.355123
_cell_angle_alpha 90.000000
_cell_angle_beta 90.000000
_cell_angle_gamma 90.000000
_cell_volume 3475.997894
_symmetry_space_group_name_H-M "P B C M"
_symmetry_group_IT_number 57
_symmetry_cell_setting 'orthorhombic'
loop_
_space_group_symop_operation_xyz
x,y,z
-x,-y,1/2+z
x,1/2-y,-z
-x,1/2+y,1/2-z
-x,-y,-z
x,y,1/2-z
-x,1/2+y,z
x,1/2-y,1/2+z
loop_
_atom_site_type_symbol
_atom_site_label
_atom_site_fract_x
_atom_site_fract_y
_atom_site_fract_z
Si Si1 0.022983 0.941027 0.942334
Si Si2 0.136278 0.110867 0.559063
Si Si3 0.606046 0.886497 0.437544
Si Si4 0.709405 0.307471 0.943434
Si Si5 0.524034 0.192719 0.059963
Si Si6 0.724740 0.526143 0.944541
Si Si7 0.742746 0.809542 0.937349
Si Si8 0.794351 0.084536 0.054352
O O1 0.021104 0.940096 0.750000
O O2 0.113309 0.925672 0.994435
O O3 0.954050 0.902794 0.010333
O O4 0.000000 0.000000 0.000000
O O5 0.142409 0.118033 0.750000
O O6 0.196144 0.061551 0.515126
O O7 0.172335 0.161842 0.470184
O O8 0.590603 0.606924 0.750000
O O9 0.528742 0.858250 0.512929
O O10 0.645417 0.941667 0.501462
O O11 0.677784 0.844079 0.465325
O O12 0.709016 0.307737 0.750000
O O13 0.616213 0.312111 0.999585
O O14 0.759610 0.358722 0.998459
O O15 0.740373 0.250000 0.000000
O O16 0.525669 0.195922 0.250000
O O17 0.490737 0.250000 0.000000
O O18 0.720610 0.525739 0.750000
O O19 0.740078 0.465892 0.998373
O O20 0.722169 0.811622 0.750000
O O21 0.743050 0.750000 0.000000
O O22 0.793237 0.084199 0.250000
#
# Coordination Sequence:
#
# PCOD9435239 Si02
#       8
#     8   8   8   8   8   8   8   8
#     4  11  20  32  54  81 107 135 175 222 266 317
#     4  10  19  34  52  75 106 139 175 218 263 313
#     4  10  19  31  50  76 106 139 174 216 262 312
#     4   9  19  36  58  78 101 134 175 220 268 315
#     4  10  19  32  51  75 101 133 176 224 265 310
#     4   8  15  29  50  74 101 135 171 207 252 310
#     4  11  21  34  51  74 105 142 179 217 261 314
#     4   9  17  33  56  79 102 137 177 215 264 323
#
# _framework density 18.411978999999999
#
# number of rings (size 3 to 8) (size 9 to 14) (size 15 to 20)
#    0.000    2.250    1.250    3.750    0.000    0.500 
#    0.000    2.500    0.000    1.500    0.000    0.000 
#    0.000    0.000    0.000    0.000    0.000    0.000 
#
# Total GULP energy -356971.847164 kJ/mol
# GULP energy per Si atom -5577.685112 kJ/mol
# Density = 1.837007 g / cm^3
# Si number density = 18.411979 Si / 1000 Ang^3
#
#
#
# Elastic Constant Matrix: (Units=GPa)
#
#
# Indices 1 2 3 4 5 6 
#
# 1 75.3969 52.0168 3.4472 0.0000 0.0000 0.0000
# 2 52.0168 124.3383 1.1868 0.0000 0.0000 0.0000
# 3 3.4472 1.1868 22.8820 0.0000 0.0000 0.0000
# 4 0.0000 0.0000 0.0000 22.7282 0.0000 0.0000
# 5 0.0000 0.0000 0.0000 0.0000 19.4523 0.0000
# 6 0.0000 0.0000 0.0000 0.0000 0.0000 23.5795
#
#
#
# Elastic Compliance Matrix: (Units=1/GPa)
#
#
# Indices 1 2 3 4 5 6 
#
# 1 0.018778 -0.007832 -0.002423 0.000000 0.000000 0.000000
# 2 -0.007832 0.011314 0.000593 0.000000 0.000000 0.000000
# 3 -0.002423 0.000593 0.044037 0.000000 0.000000 0.000000
# 4 0.000000 0.000000 0.000000 0.043998 0.000000 0.000000
# 5 0.000000 0.000000 0.000000 0.000000 0.051408 0.000000
# 6 0.000000 0.000000 0.000000 0.000000 0.000000 0.042410
#
#
# Mechanical properties :
#
#
# Convention : Reuss Voigt Hill
#
# Bulk Modulus (GPa) = 18.24683 37.32433 27.78558
# Shear Modulus (GPa) = 20.03723 24.21642 22.12682
#
# Velocity S-wave (km/s) = 3.30247 3.63058 3.47041
# Velocity P-wave (km/s) = 4.94708 6.15553 5.58409
#
# Compressibility (1/GPa) = 0.05480405
#
# Stress axis : x y z
#
# Youngs Moduli (GPa) = 53.25505 88.38914 22.70833
#
# Poissons Ratio (x) = 0.69230 0.05501
# Poissons Ratio (y) = 0.41712 -0.01347
# Poissons Ratio (z) = 0.12902 -0.05243
#
# Static dielectric constant tensor:
#      x y z
#    x 1.640190 0.000000 0.000000 
#    y 0.000000 1.620230 0.000000 
#    z 0.000000 0.000000 1.665210 
# 
# From -- ./inp_files/7368.got.cif
#   From: 2010.05.17/outbox.cif.g08.bks.cpg/sg57_4_cif.got.tgz:7368.got - 2010.06.03 13:58:18.
