data_PCOD9435148
_publ_section_title
;
Structure prediction by ZEFSAII (Michael W. Deem and Ramdas Pophale) SiO2 
 PCOD9435148
Probable space group: P B C M
;
_chemical_formula_sum "Si O2"
_cell_formula_units_Z 64
_cell_length_a 15.154238
_cell_length_b 31.002190
_cell_length_c 8.036932
_cell_angle_alpha 90.000000
_cell_angle_beta 90.000000
_cell_angle_gamma 90.000000
_cell_volume 3775.867718
_symmetry_space_group_name_H-M "P B C M"
_symmetry_group_IT_number 57
_symmetry_cell_setting 'orthorhombic'
loop_
_space_group_symop_operation_xyz
x,y,z
-x,-y,1/2+z
x,1/2-y,-z
-x,1/2+y,1/2-z
-x,-y,-z
x,y,1/2-z
-x,1/2+y,z
x,1/2-y,1/2+z
loop_
_atom_site_type_symbol
_atom_site_label
_atom_site_fract_x
_atom_site_fract_y
_atom_site_fract_z
Si Si1 0.125908 0.940382 0.445403
Si Si2 0.710546 0.385740 0.947392
Si Si3 0.628187 0.528132 0.450220
Si Si4 0.829514 0.964407 0.954331
Si Si5 0.209169 0.796640 0.949856
Si Si6 0.005682 0.797107 0.549068
Si Si7 0.043544 0.389420 0.553365
Si Si8 0.450369 0.936515 0.448552
O O1 0.104980 0.940795 0.250000
O O2 0.222463 0.919745 0.469854
O O3 0.053012 0.910657 0.531867
O O4 0.128914 0.989735 0.507032
O O5 0.726437 0.387974 0.750000
O O6 0.736794 0.338104 0.007917
O O7 0.610440 0.398605 0.983442
O O8 0.630359 0.526291 0.250000
O O9 0.727382 0.537252 0.507409
O O10 0.552446 0.561669 0.500950
O O11 0.594097 0.481360 0.511470
O O12 0.830679 0.964841 0.750000
O O13 0.886204 0.923790 0.014638
O O14 0.206437 0.798088 0.750000
O O15 0.107692 0.799565 0.010635
O O16 0.244883 0.750000 0.000000
O O17 0.970458 0.750000 0.500000
O O18 0.007176 0.798807 0.750000
O O19 0.958046 0.840504 0.486723
O O20 0.061363 0.386050 0.750000
O O21 0.444811 0.936266 0.250000
#
# Coordination Sequence:
#
# PCOD9435148 Si02
#       8
#     8   8   8   8   8   8   8   8
#     4  11  20  31  45  68  98 129 163 196 229 273
#     4  11  20  32  49  70  96 128 161 192 233 286
#     4   9  17  32  48  67  94 124 158 196 235 277
#     4   9  18  32  49  67  94 128 163 200 234 275
#     4   9  18  31  46  67  92 121 156 192 233 281
#     4   9  17  30  46  66  90 119 155 194 235 278
#     4  10  19  33  49  67  93 128 163 195 234 280
#     4  10  19  31  48  71  95 121 156 196 238 279
#
# _framework density 16.949746000000001
#
# number of rings (size 3 to 8) (size 9 to 14) (size 15 to 20)
#    0.000    2.250    2.500    1.500    0.000    2.000 
#    0.000    1.250    0.000    0.000    0.000    0.875 
#    0.000    2.000    0.000    0.000    0.000    0.000 
#
# Total GULP energy -356918.325893 kJ/mol
# GULP energy per Si atom -5576.848842 kJ/mol
# Density = 1.691117 g / cm^3
# Si number density = 16.949746 Si / 1000 Ang^3
#
#
#
# Elastic Constant Matrix: (Units=GPa)
#
#
# Indices 1 2 3 4 5 6 
#
# 1 49.8638 40.4422 -5.0791 0.0000 0.0000 0.0000
# 2 40.4422 147.2363 5.3248 0.0000 0.0000 0.0000
# 3 -5.0791 5.3248 10.0509 0.0000 0.0000 0.0000
# 4 0.0000 0.0000 0.0000 14.6976 0.0000 0.0000
# 5 0.0000 0.0000 0.0000 0.0000 15.7931 0.0000
# 6 0.0000 0.0000 0.0000 0.0000 0.0000 23.5525
#
#
#
# Elastic Compliance Matrix: (Units=1/GPa)
#
#
# Indices 1 2 3 4 5 6 
#
# 1 0.029058 -0.008679 0.019282 0.000000 0.000000 0.000000
# 2 -0.008679 0.009517 -0.009427 0.000000 0.000000 0.000000
# 3 0.019282 -0.009427 0.114232 0.000000 0.000000 0.000000
# 4 0.000000 0.000000 0.000000 0.068038 0.000000 0.000000
# 5 0.000000 0.000000 0.000000 0.000000 0.063319 0.000000
# 6 0.000000 0.000000 0.000000 0.000000 0.000000 0.042458
#
#
# Mechanical properties :
#
#
# Convention : Reuss Voigt Hill
#
# Bulk Modulus (GPa) = 6.44509 32.05852 19.25180
# Shear Modulus (GPa) = 13.29826 21.90618 17.60222
#
# Velocity S-wave (km/s) = 2.80406 3.59892 3.22606
# Velocity P-wave (km/s) = 3.78079 6.01869 5.02588
#
# Compressibility (1/GPa) = 0.15515692
#
# Stress axis : x y z
#
# Youngs Moduli (GPa) = 34.41450 105.07990 8.75414
#
# Poissons Ratio (x) = 0.91196 -0.16879
# Poissons Ratio (y) = 0.29867 0.08253
# Poissons Ratio (z) = -0.66357 0.99062
#
# Static dielectric constant tensor:
#      x y z
#    x 1.558740 0.000000 0.000000 
#    y 0.000000 1.592570 0.000000 
#    z 0.000000 0.000000 1.595230 
# 
# From -- ./inp_files/5957.got.cif
#   From: 2010.05.17/outbox.cif.g08.bks.cpg/sg57_3_cif.got.tgz:5957.got - 2010.06.03 13:58:18.
