data_PCOD9435394
_publ_section_title
;
Structure prediction by ZEFSAII (Michael W. Deem and Ramdas Pophale) SiO2 
 PCOD9435394
Probable space group: P B C M
;
_chemical_formula_sum "Si O2"
_cell_formula_units_Z 64
_cell_length_a 18.287103
_cell_length_b 23.286041
_cell_length_c 8.084939
_cell_angle_alpha 90.000000
_cell_angle_beta 90.000000
_cell_angle_gamma 90.000000
_cell_volume 3442.843776
_symmetry_space_group_name_H-M "P B C M"
_symmetry_group_IT_number 57
_symmetry_cell_setting 'orthorhombic'
loop_
_space_group_symop_operation_xyz
x,y,z
-x,-y,1/2+z
x,1/2-y,-z
-x,1/2+y,1/2-z
-x,-y,-z
x,y,1/2-z
-x,1/2+y,z
x,1/2-y,1/2+z
loop_
_atom_site_type_symbol
_atom_site_label
_atom_site_fract_x
_atom_site_fract_y
_atom_site_fract_z
Si Si1 0.651087 0.582693 0.950513
Si Si2 0.070005 0.686769 0.446934
Si Si3 0.919583 0.519959 0.050559
Si Si4 0.491331 0.566312 0.949078
Si Si5 0.822921 0.414853 0.050492
Si Si6 0.090342 0.349806 0.550094
Si Si7 0.248326 0.312563 0.446607
Si Si8 0.333160 0.550490 0.549947
O O1 0.652430 0.582779 0.750000
O O2 0.567053 0.595158 0.005831
O O3 0.706109 0.632235 0.011479
O O4 0.669691 0.517332 0.003668
O O5 0.093081 0.750000 0.500000
O O6 0.066284 0.684082 0.250000
O O7 0.126984 0.638639 0.503012
O O8 0.987356 0.674764 0.511101
O O9 0.916382 0.521070 0.250000
O O10 0.862456 0.472838 0.989668
O O11 0.000000 0.500000 0.000000
O O12 0.095410 0.415783 0.008410
O O13 0.490770 0.570952 0.750000
O O14 0.409178 0.579319 0.009254
O O15 0.500000 0.500000 0.000000
O O16 0.821515 0.416872 0.250000
O O17 0.739469 0.417149 0.991092
O O18 0.088398 0.349273 0.750000
O O19 0.163590 0.318049 0.497212
O O20 0.276558 0.250000 0.500000
O O21 0.252146 0.315010 0.250000
O O22 0.334016 0.552015 0.750000
#
# Coordination Sequence:
#
# PCOD9435394 Si02
#       8
#     8   8   8   8   8   8   8   8
#     4   9  18  32  50  75 105 135 167 204 249 301
#     4  11  23  38  55  72  94 128 171 213 253 295
#     4  10  19  32  50  74 103 131 161 201 247 298
#     4   8  14  27  48  74 103 131 159 193 237 293
#     4  10  20  33  51  76 105 134 166 204 248 298
#     4  10  21  37  55  76 101 130 168 210 252 299
#     4  11  23  36  51  72  99 135 175 214 255 299
#     4   9  17  30  52  80 106 134 165 202 253 304
#
# _framework density 18.589283999999999
#
# number of rings (size 3 to 8) (size 9 to 14) (size 15 to 20)
#    0.000    2.250    1.250    1.875    0.000    5.000 
#    0.000    0.000    0.000    0.750    0.000    1.750 
#    0.000    0.000    0.000    0.000    0.000    0.000 
#
# Total GULP energy -356859.012441 kJ/mol
# GULP energy per Si atom -5575.922069 kJ/mol
# Density = 1.854697 g / cm^3
# Si number density = 18.589284 Si / 1000 Ang^3
#
#
#
# Elastic Constant Matrix: (Units=GPa)
#
#
# Indices 1 2 3 4 5 6 
#
# 1 148.6942 40.1496 10.2901 0.0000 0.0000 0.0000
# 2 40.1496 83.7288 3.6672 0.0000 0.0000 0.0000
# 3 10.2901 3.6672 11.5126 0.0000 0.0000 0.0000
# 4 0.0000 0.0000 0.0000 19.0862 0.0000 0.0000
# 5 0.0000 0.0000 0.0000 0.0000 15.2138 0.0000
# 6 0.0000 0.0000 0.0000 0.0000 0.0000 15.4018
#
#
#
# Elastic Compliance Matrix: (Units=1/GPa)
#
#
# Indices 1 2 3 4 5 6 
#
# 1 0.008128 -0.003630 -0.006109 0.000000 0.000000 0.000000
# 2 -0.003630 0.013733 -0.001130 0.000000 0.000000 0.000000
# 3 -0.006109 -0.001130 0.092681 0.000000 0.000000 0.000000
# 4 0.000000 0.000000 0.000000 0.052394 0.000000 0.000000
# 5 0.000000 0.000000 0.000000 0.000000 0.065730 0.000000
# 6 0.000000 0.000000 0.000000 0.000000 0.000000 0.064928
#
#
# Mechanical properties :
#
#
# Convention : Reuss Voigt Hill
#
# Bulk Modulus (GPa) = 10.77524 39.12770 24.95147
# Shear Modulus (GPa) = 14.27483 22.59560 18.43521
#
# Velocity S-wave (km/s) = 2.77412 3.49021 3.15256
# Velocity P-wave (km/s) = 4.00875 6.11034 5.16751
#
# Compressibility (1/GPa) = 0.09280534
#
# Stress axis : x y z
#
# Youngs Moduli (GPa) = 123.02977 72.81466 10.78965
#
# Poissons Ratio (x) = 0.26432 0.06591
# Poissons Ratio (y) = 0.44660 0.01219
# Poissons Ratio (z) = 0.75155 0.08229
#
# Static dielectric constant tensor:
#      x y z
#    x 1.691710 0.000000 0.000000 
#    y 0.000000 1.094100 0.000000 
#    z 0.000000 0.000000 1.656630 
# 
# From -- ./inp_files/5661.got.cif
#   From: 2010.05.17/outbox.cif.g08.bks.cpg/sg57_3_cif.got.tgz:5661.got - 2010.06.03 13:58:18.
