data_PCOD9435263
_publ_section_title
;
Structure prediction by ZEFSAII (Michael W. Deem and Ramdas Pophale) SiO2 
 PCOD9435263
Probable space group: P B C M
;
_chemical_formula_sum "Si O2"
_cell_formula_units_Z 64
_cell_length_a 22.067899
_cell_length_b 19.164360
_cell_length_c 8.873109
_cell_angle_alpha 90.000000
_cell_angle_beta 90.000000
_cell_angle_gamma 90.000000
_cell_volume 3752.590066
_symmetry_space_group_name_H-M "P B C M"
_symmetry_group_IT_number 57
_symmetry_cell_setting 'orthorhombic'
loop_
_space_group_symop_operation_xyz
x,y,z
-x,-y,1/2+z
x,1/2-y,-z
-x,1/2+y,1/2-z
-x,-y,-z
x,y,1/2-z
-x,1/2+y,z
x,1/2-y,1/2+z
loop_
_atom_site_type_symbol
_atom_site_label
_atom_site_fract_x
_atom_site_fract_y
_atom_site_fract_z
Si Si1 0.032882 0.326253 0.931284
Si Si2 0.603566 0.678001 0.070812
Si Si3 0.726725 0.641440 0.578354
Si Si4 0.311660 0.978281 0.921384
Si Si5 0.895801 0.173516 0.430431
Si Si6 0.154109 0.097957 0.068881
Si Si7 0.439349 0.032329 0.932315
Si Si8 0.808013 0.439774 0.428706
O O1 0.034172 0.320852 0.750000
O O2 0.964674 0.348467 0.974193
O O3 0.087325 0.377139 0.976536
O O4 0.043474 0.250000 0.000000
O O5 0.596723 0.677203 0.250000
O O6 0.579703 0.750000 0.000000
O O7 0.674640 0.673439 0.025404
O O8 0.573024 0.609516 0.997927
O O9 0.723401 0.668263 0.750000
O O10 0.709799 0.559142 0.583214
O O11 0.793854 0.643823 0.510552
O O12 0.309905 0.951401 0.750000
O O13 0.381029 0.984350 0.973933
O O14 0.262204 0.939270 0.021126
O O15 0.885710 0.250000 0.500000
O O16 0.892874 0.177926 0.250000
O O17 0.847339 0.118684 0.490123
O O18 0.160677 0.105023 0.250000
O O19 0.166035 0.016813 0.032041
O O20 0.440986 0.035895 0.750000
O O21 0.500000 0.000000 0.000000
O O22 0.812500 0.431200 0.250000
#
# Coordination Sequence:
#
# PCOD9435263 Si02
#       8
#     8   8   8   8   8   8   8   8
#     4   9  19  34  49  66  92 128 167 208 254 306
#     4  11  21  34  52  75 105 141 180 222 262 302
#     4   9  17  30  47  70  99 131 167 205 248 298
#     4   8  16  31  50  73 102 131 162 200 240 287
#     4  10  20  35  53  71  94 125 164 210 261 315
#     4   9  18  32  48  70 101 134 168 206 251 303
#     4  10  20  35  56  83 112 144 180 214 253 304
#     4  10  19  31  51  76 100 128 164 207 254 302
#
# _framework density 17.054887000000001
#
# number of rings (size 3 to 8) (size 9 to 14) (size 15 to 20)
#    0.000    2.500    0.000    3.375    0.000    6.000 
#    0.000    1.250    0.000    0.750    0.000    0.000 
#    0.000    0.000    0.000    0.000    0.000    0.000 
#
# Total GULP energy -356852.689809 kJ/mol
# GULP energy per Si atom -5575.823278 kJ/mol
# Density = 1.701607 g / cm^3
# Si number density = 17.054887 Si / 1000 Ang^3
#
#
#
# Elastic Constant Matrix: (Units=GPa)
#
#
# Indices 1 2 3 4 5 6 
#
# 1 146.1176 67.9926 55.4447 0.0000 0.0000 0.0000
# 2 67.9926 66.1595 42.3012 0.0000 0.0000 0.0000
# 3 55.4447 42.3012 72.5817 0.0000 0.0000 0.0000
# 4 0.0000 0.0000 0.0000 25.8050 0.0000 0.0000
# 5 0.0000 0.0000 0.0000 0.0000 26.3809 0.0000
# 6 0.0000 0.0000 0.0000 0.0000 0.0000 14.5438
#
#
#
# Elastic Compliance Matrix: (Units=1/GPa)
#
#
# Indices 1 2 3 4 5 6 
#
# 1 0.013681 -0.011760 -0.003597 0.000000 0.000000 0.000000
# 2 -0.011760 0.034202 -0.010950 0.000000 0.000000 0.000000
# 3 -0.003597 -0.010950 0.022907 0.000000 0.000000 0.000000
# 4 0.000000 0.000000 0.000000 0.038752 0.000000 0.000000
# 5 0.000000 0.000000 0.000000 0.000000 0.037906 0.000000
# 6 0.000000 0.000000 0.000000 0.000000 0.000000 0.068758
#
#
# Mechanical properties :
#
#
# Convention : Reuss Voigt Hill
#
# Bulk Modulus (GPa) = 55.01676 68.48178 61.74927
# Shear Modulus (GPa) = 18.18983 21.28729 19.73856
#
# Velocity S-wave (km/s) = 3.26935 3.53677 3.40568
# Velocity P-wave (km/s) = 6.82497 7.54448 7.19373
#
# Compressibility (1/GPa) = 0.01817628
#
# Stress axis : x y z
#
# Youngs Moduli (GPa) = 73.09371 29.23785 43.65527
#
# Poissons Ratio (x) = 0.34385 0.15702
# Poissons Ratio (y) = 0.85961 0.47801
# Poissons Ratio (z) = 0.26291 0.32014
#
# Static dielectric constant tensor:
#      x y z
#    x 1.583000 0.000000 0.000000 
#    y 0.000000 1.562270 0.000000 
#    z 0.000000 0.000000 1.573190 
# 
# From -- ./inp_files/8677.got.cif
#   From: 2010.05.17/outbox.cif.g08.bks.cpg/sg57_5_cif.got.tgz:8677.got - 2010.06.03 13:58:18.
