data_PCOD9435366
_publ_section_title
;
Structure prediction by ZEFSAII (Michael W. Deem and Ramdas Pophale) SiO2 
 PCOD9435366
Probable space group: P B C M
;
_chemical_formula_sum "Si O2"
_cell_formula_units_Z 56
_cell_length_a 20.076319
_cell_length_b 18.856554
_cell_length_c 7.884001
_cell_angle_alpha 90.000000
_cell_angle_beta 90.000000
_cell_angle_gamma 90.000000
_cell_volume 2984.647783
_symmetry_space_group_name_H-M "P B C M"
_symmetry_group_IT_number 57
_symmetry_cell_setting 'orthorhombic'
loop_
_space_group_symop_operation_xyz
x,y,z
-x,-y,1/2+z
x,1/2-y,-z
-x,1/2+y,1/2-z
-x,-y,-z
x,y,1/2-z
-x,1/2+y,z
x,1/2-y,1/2+z
loop_
_atom_site_type_symbol
_atom_site_label
_atom_site_fract_x
_atom_site_fract_y
_atom_site_fract_z
Si Si1 0.859817 0.670462 0.453540
Si Si2 0.723418 0.899783 0.542507
Si Si3 0.557891 0.166591 0.454255
Si Si4 0.702385 0.167939 0.048536
Si Si5 0.793222 0.042132 0.953063
Si Si6 0.927488 0.527525 0.045778
Si Si7 0.413455 0.333097 0.545129
O O1 0.878820 0.750000 0.500000
O O2 0.858915 0.666460 0.250000
O O3 0.784495 0.651255 0.510899
O O4 0.907974 0.606949 0.514391
O O5 0.721904 0.898889 0.750000
O O6 0.651604 0.874051 0.481559
O O7 0.744758 0.978543 0.487571
O O8 0.557680 0.250000 0.500000
O O9 0.557627 0.159294 0.250000
O O10 0.629953 0.140991 0.519241
O O11 0.485969 0.139545 0.516686
O O12 0.698422 0.165485 0.250000
O O13 0.711410 0.250000 0.000000
O O14 0.762005 0.117342 0.995126
O O15 0.795545 0.036767 0.750000
O O16 0.867508 0.023692 0.015258
O O17 0.924663 0.529077 0.250000
O O18 0.000000 0.500000 0.000000
O O19 0.407555 0.250000 0.500000
O O20 0.413741 0.337867 0.750000
#
# Coordination Sequence:
#
# PCOD9435366 Si02
#       7
#     8   8   8   8   8   8   8
#     4   9  17  30  48  73 100 126 157 192 226 269
#     4   8  15  28  46  66  93 127 158 187 227 276
#     4   8  15  26  41  62  89 119 154 194 235 275
#     4  10  19  32  50  71  93 120 156 200 242 281
#     4   9  18  34  52  70  93 123 156 190 230 281
#     4   9  19  35  54  74  99 128 158 191 231 279
#     4   9  15  25  42  64  90 123 159 194 231 273
#
# _framework density 18.762682999999999
#
# number of rings (size 3 to 8) (size 9 to 14) (size 15 to 20)
#    0.000    3.143    0.000    2.571    0.000    1.714 
#    0.000    4.286    0.000    1.714    0.000    0.000 
#    0.000    0.000    0.000    0.000    0.000    0.000 
#
# Total GULP energy -311817.701018 kJ/mol
# GULP energy per Si atom -5568.173232 kJ/mol
# Density = 1.871998 g / cm^3
# Si number density = 18.762683 Si / 1000 Ang^3
#
#
#
# Elastic Constant Matrix: (Units=GPa)
#
#
# Indices 1 2 3 4 5 6 
#
# 1 180.7513 98.1174 13.0700 0.0000 0.0000 0.0000
# 2 98.1174 100.9024 6.0378 0.0000 0.0000 0.0000
# 3 13.0700 6.0378 18.4211 0.0000 0.0000 0.0000
# 4 0.0000 0.0000 0.0000 19.1132 0.0000 0.0000
# 5 0.0000 0.0000 0.0000 0.0000 -16.3493 0.0000
# 6 0.0000 0.0000 0.0000 0.0000 0.0000 20.0430
#
#
#
# Elastic Compliance Matrix: (Units=1/GPa)
#
#
# Indices 1 2 3 4 5 6 
#
# 1 0.012125 -0.011501 -0.004833 0.000000 0.000000 0.000000
# 2 -0.011501 0.021018 0.001271 0.000000 0.000000 0.000000
# 3 -0.004833 0.001271 0.057298 0.000000 0.000000 0.000000
# 4 0.000000 0.000000 0.000000 0.052320 0.000000 0.000000
# 5 0.000000 0.000000 0.000000 0.000000 -0.061165 0.000000
# 6 0.000000 0.000000 0.000000 0.000000 0.000000 0.049893
#
#
# Mechanical properties :
#
#
# Convention : Reuss Voigt Hill
#
# Bulk Modulus (GPa) = 16.57963 59.39169 37.98566
# Shear Modulus (GPa) = 27.51464 16.75135 22.13300
#
# Velocity S-wave (km/s) = 3.83359 2.99122 3.43830
# Velocity P-wave (km/s) = 5.33394 6.60702 6.00432
#
# Compressibility (1/GPa) = 0.06031498
#
# Stress axis : x y z
#
# Youngs Moduli (GPa) = 82.47245 47.57726 17.45259
#
# Poissons Ratio (x) = 0.54720 0.08435
# Poissons Ratio (y) = 0.94855 -0.02219
# Poissons Ratio (z) = 0.39861 -0.06048
#
# Static dielectric constant tensor:
#      x y z
#    x 1.691650 0.000000 0.000000 
#    y 0.000000 1.449390 0.000000 
#    z 0.000000 0.000000 1.677600 
# 
# From -- ./inp_files/8368.got.cif
#   From: 2010.05.17/outbox.cif.g08.bks.cpg/sg57_5_cif.got.tgz:8368.got - 2010.06.03 13:58:18.
