data_PCOD9435740
_publ_section_title
;
Structure prediction by ZEFSAII (Michael W. Deem and Ramdas Pophale) SiO2 
 PCOD9435740
Probable space group: P B C M
;
_chemical_formula_sum "Si O2"
_cell_formula_units_Z 64
_cell_length_a 24.290152
_cell_length_b 13.846144
_cell_length_c 8.019036
_cell_angle_alpha 90.000000
_cell_angle_beta 90.000000
_cell_angle_gamma 90.000000
_cell_volume 2697.001821
_symmetry_space_group_name_H-M "P B C M"
_symmetry_group_IT_number 57
_symmetry_cell_setting 'orthorhombic'
loop_
_space_group_symop_operation_xyz
x,y,z
-x,-y,1/2+z
x,1/2-y,-z
-x,1/2+y,1/2-z
-x,-y,-z
x,y,1/2-z
-x,1/2+y,z
x,1/2-y,1/2+z
loop_
_atom_site_type_symbol
_atom_site_label
_atom_site_fract_x
_atom_site_fract_y
_atom_site_fract_z
Si Si1 0.891571 0.148824 0.939229
Si Si2 0.284683 0.638752 0.444213
Si Si3 0.406444 0.636589 0.549271
Si Si4 0.474883 0.364174 0.048106
Si Si5 0.125618 0.067588 0.044819
Si Si6 0.756612 0.946851 0.943046
Si Si7 0.357609 0.139155 0.946111
Si Si8 0.991655 0.611424 0.450381
O O1 0.874560 0.139715 0.750000
O O2 0.880261 0.043868 0.018131
O O3 0.867123 0.250000 0.000000
O O4 0.957911 0.158570 0.953035
O O5 0.280348 0.750000 0.500000
O O6 0.272523 0.632757 0.250000
O O7 0.348167 0.604865 0.474127
O O8 0.245577 0.563030 0.536888
O O9 0.408396 0.750000 0.500000
O O10 0.402420 0.627989 0.750000
O O11 0.465745 0.597111 0.486993
O O12 0.477384 0.371233 0.250000
O O13 0.415704 0.401381 0.981794
O O14 0.473996 0.250000 0.000000
O O15 0.124336 0.065607 0.250000
O O16 0.186511 0.096704 0.988457
O O17 0.071779 0.129005 0.997725
O O18 0.754947 0.922426 0.750000
O O19 0.700090 0.909216 0.016532
O O20 0.365115 0.135753 0.750000
O O21 0.353369 0.250000 0.000000
O O22 0.997722 0.624526 0.250000
O O23 0.000000 0.500000 0.500000
#
# Coordination Sequence:
#
# PCOD9435740 Si02
#       8
#     8   8   8   8   8   8   8   8
#     4  10  19  33  53  82 113 142 173 214 262 313
#     4  11  22  37  55  79 110 147 186 230 277 331
#     4   9  15  27  48  75 103 137 175 218 272 333
#     4   8  15  27  48  75 104 133 170 218 274 334
#     4   8  18  35  55  76 104 139 179 221 265 312
#     4  11  22  39  59  81 109 147 190 235 279 326
#     4  10  20  37  58  83 110 141 180 229 283 338
#     4   9  16  31  53  77 102 132 165 203 249 301
#
# _framework density 23.730056000000001
#
# number of rings (size 3 to 8) (size 9 to 14) (size 15 to 20)
#    0.000    2.500    0.000    4.500    0.000    1.500 
#    0.000   10.000    0.000    0.000    0.000    0.000 
#    0.000    0.000    0.000    0.000    0.000    0.000 
#
# Total GULP energy -356981.077291 kJ/mol
# GULP energy per Si atom -5577.829333 kJ/mol
# Density = 2.367605 g / cm^3
# Si number density = 23.730056 Si / 1000 Ang^3
#
#
#
# Elastic Constant Matrix: (Units=GPa)
#
#
# Indices 1 2 3 4 5 6 
#
# 1 140.8623 8.9544 -7.1879 0.0000 0.0000 0.0000
# 2 8.9544 41.5393 -12.6671 0.0000 0.0000 0.0000
# 3 -7.1879 -12.6671 40.6805 0.0000 0.0000 0.0000
# 4 0.0000 0.0000 0.0000 22.3051 0.0000 0.0000
# 5 0.0000 0.0000 0.0000 0.0000 38.6625 0.0000
# 6 0.0000 0.0000 0.0000 0.0000 0.0000 -0.0520
#
#
#
# Elastic Compliance Matrix: (Units=1/GPa)
#
#
# Indices 1 2 3 4 5 6 
#
# 1 0.007226 -0.001291 0.000875 0.000000 0.000000 0.000000
# 2 -0.001291 0.026830 0.008126 0.000000 0.000000 0.000000
# 3 0.000875 0.008126 0.027267 0.000000 0.000000 0.000000
# 4 0.000000 0.000000 0.000000 0.044833 0.000000 0.000000
# 5 0.000000 0.000000 0.000000 0.000000 0.025865 0.000000
# 6 0.000000 0.000000 0.000000 0.000000 0.000000-19.226905
#
#
# Mechanical properties :
#
#
# Convention : Reuss Voigt Hill
#
# Bulk Modulus (GPa) = 13.03059 22.36457 17.69758
# Shear Modulus (GPa) = -0.26199 27.78196 13.75998
#
# Velocity S-wave (km/s) = -0.33263 3.42533 2.41063
# Velocity P-wave (km/s) = 2.31421 5.00888 3.90157
#
# Compressibility (1/GPa) = 0.07674250
#
# Stress axis : x y z
#
# Youngs Moduli (GPa) = 138.39242 37.27190 36.67481
#
# Poissons Ratio (x) = 0.04811 -0.03208
# Poissons Ratio (y) = 0.17865 -0.29803
# Poissons Ratio (z) = -0.12106 -0.30288
#
# Static dielectric constant tensor:
#      x y z
#    x 2.013200 0.000000 0.000000 
#    y 0.000000 1.846310 0.000000 
#    z 0.000000 0.000000 1.836590 
# 
# From -- ./inp_files/9383.got.cif
#   From: 2010.05.17/outbox.cif.g08.bks.cpg/sg57_5_cif.got.tgz:9383.got - 2010.06.03 13:58:18.
