data_PCOD9435910
_publ_section_title
;
Structure prediction by ZEFSAII (Michael W. Deem and Ramdas Pophale) SiO2 
 PCOD9435910
Probable space group: P B C M
;
_chemical_formula_sum "Si O2"
_cell_formula_units_Z 48
_cell_length_a 8.927635
_cell_length_b 15.648331
_cell_length_c 17.560804
_cell_angle_alpha 90.000000
_cell_angle_beta 90.000000
_cell_angle_gamma 90.000000
_cell_volume 2453.289758
_symmetry_space_group_name_H-M "P B C M"
_symmetry_group_IT_number 57
_symmetry_cell_setting 'orthorhombic'
loop_
_space_group_symop_operation_xyz
x,y,z
-x,-y,1/2+z
x,1/2-y,-z
-x,1/2+y,1/2-z
-x,-y,-z
x,y,1/2-z
-x,1/2+y,z
x,1/2-y,1/2+z
loop_
_atom_site_type_symbol
_atom_site_label
_atom_site_fract_x
_atom_site_fract_y
_atom_site_fract_z
Si Si1 0.596694 0.920720 0.586013
Si Si2 0.945970 0.534353 0.083265
Si Si3 0.422878 0.415664 0.096753
Si Si4 0.904307 0.878086 0.339249
Si Si5 0.574498 0.245049 0.407094
Si Si6 0.082988 0.721767 0.088735
O O1 0.769799 0.946464 0.591567
O O2 0.569772 0.916939 0.495025
O O3 0.542739 0.828702 0.615608
O O4 0.491403 0.994030 0.621192
O O5 0.991811 0.458774 0.139878
O O6 0.026412 0.625003 0.096253
O O7 0.000000 0.500000 0.000000
O O8 0.253663 0.397527 0.120459
O O9 0.523286 0.336504 0.123211
O O10 0.880151 0.872058 0.250000
O O11 0.980081 0.791086 0.369094
O O12 0.573226 0.250000 0.500000
O O13 0.744692 0.225590 0.385019
O O14 0.078438 0.750000 0.000000
#
# Coordination Sequence:
#
# PCOD9435910 Si02
#       6
#     8   8   8   8   8   8
#     4  10  19  33  60  92 119 156 215 268 312 366
#     4  12  22  38  67  96 127 167 217 271 315 387
#     4  10  19  35  57  84 124 163 207 262 316 379
#     4  12  26  42  62  95 135 173 212 270 339 391
#     4   9  19  32  57  92 121 154 205 267 313 366
#     4  11  21  39  67  95 126 166 217 266 319 385
#
# _framework density 19.565563999999998
#
# number of rings (size 3 to 8) (size 9 to 14) (size 15 to 20)
#    0.000    1.333    3.333    3.000    4.667    2.000 
#    0.000    3.333    0.000    4.000    0.000    0.000 
#    0.000    0.000    0.000    0.000    0.000    0.000 
#
# Total GULP energy -268028.170940 kJ/mol
# GULP energy per Si atom -5583.920228 kJ/mol
# Density = 1.952103 g / cm^3
# Si number density = 19.565564 Si / 1000 Ang^3
#
#
#
# Elastic Constant Matrix: (Units=GPa)
#
#
# Indices 1 2 3 4 5 6 
#
# 1 134.0571 72.5986 -3.3352 0.0000 0.0000 0.0000
# 2 72.5986 174.1453 23.5925 0.0000 0.0000 0.0000
# 3 -3.3352 23.5925 22.2611 0.0000 0.0000 0.0000
# 4 0.0000 0.0000 0.0000 11.6493 0.0000 0.0000
# 5 0.0000 0.0000 0.0000 0.0000 1.6324 0.0000
# 6 0.0000 0.0000 0.0000 0.0000 0.0000 43.6074
#
#
#
# Elastic Compliance Matrix: (Units=1/GPa)
#
#
# Indices 1 2 3 4 5 6 
#
# 1 0.010560 -0.005391 0.007295 0.000000 0.000000 0.000000
# 2 -0.005391 0.009457 -0.010830 0.000000 0.000000 0.000000
# 3 0.007295 -0.010830 0.057492 0.000000 0.000000 0.000000
# 4 0.000000 0.000000 0.000000 0.085842 0.000000 0.000000
# 5 0.000000 0.000000 0.000000 0.000000 0.612586 0.000000
# 6 0.000000 0.000000 0.000000 0.000000 0.000000 0.022932
#
#
# Mechanical properties :
#
#
# Convention : Reuss Voigt Hill
#
# Bulk Modulus (GPa) = 16.76206 57.35280 37.05743
# Shear Modulus (GPa) = 5.97653 27.21834 16.59743
#
# Velocity S-wave (km/s) = 1.74964 3.73384 2.91572
# Velocity P-wave (km/s) = 3.55913 6.92571 5.50604
#
# Compressibility (1/GPa) = 0.05965855
#
# Stress axis : x y z
#
# Youngs Moduli (GPa) = 94.69312 105.74259 17.39361
#
# Poissons Ratio (x) = 0.57004 -0.12689
# Poissons Ratio (y) = 0.51048 0.18838
# Poissons Ratio (z) = -0.69083 1.14521
#
# Static dielectric constant tensor:
#      x y z
#    x 1.689010 0.000000 0.000000 
#    y 0.000000 1.680760 0.000000 
#    z 0.000000 0.000000 1.690420 
# 
# From -- ./inp_files/20929.got.cif
#   From: 2010.05.17/outbox.cif.g08.bks.cpg/sg57_11_cif.got.tgz:20929.got - 2010.06.03 13:58:18.
