data_PCOD9435260
_publ_section_title
;
Structure prediction by ZEFSAII (Michael W. Deem and Ramdas Pophale) SiO2 
 PCOD9435260
Probable space group: P B C M
;
_chemical_formula_sum "Si O2"
_cell_formula_units_Z 64
_cell_length_a 24.286490
_cell_length_b 16.073072
_cell_length_c 8.595617
_cell_angle_alpha 90.000000
_cell_angle_beta 90.000000
_cell_angle_gamma 90.000000
_cell_volume 3355.372179
_symmetry_space_group_name_H-M "P B C M"
_symmetry_group_IT_number 57
_symmetry_cell_setting 'orthorhombic'
loop_
_space_group_symop_operation_xyz
x,y,z
-x,-y,1/2+z
x,1/2-y,-z
-x,1/2+y,1/2-z
-x,-y,-z
x,y,1/2-z
-x,1/2+y,z
x,1/2-y,1/2+z
loop_
_atom_site_type_symbol
_atom_site_label
_atom_site_fract_x
_atom_site_fract_y
_atom_site_fract_z
Si Si1 0.565759 0.093913 0.064140
Si Si2 0.667565 0.663534 0.936369
Si Si3 0.028269 0.416171 0.437514
Si Si4 0.441741 0.093426 0.436496
Si Si5 0.135959 0.495883 0.061853
Si Si6 0.080335 0.663270 0.936307
Si Si7 0.261747 0.497117 0.438181
Si Si8 0.321835 0.839546 0.065574
O O1 0.573068 0.098427 0.250000
O O2 0.503726 0.122072 0.023683
O O3 0.614953 0.143226 0.984128
O O4 0.567992 0.997390 0.011941
O O5 0.666216 0.665553 0.750000
O O6 0.701860 0.582191 0.986529
O O7 0.691015 0.750000 0.000000
O O8 0.606176 0.651855 0.001926
O O9 0.028087 0.416667 0.250000
O O10 0.091845 0.424772 0.487752
O O11 0.000000 0.500000 0.500000
O O12 0.984083 0.347040 0.486656
O O13 0.438678 0.085208 0.250000
O O14 0.135637 0.498275 0.250000
O O15 0.198647 0.484552 0.011124
O O16 0.113034 0.583915 0.000983
O O17 0.083031 0.662222 0.750000
O O18 0.102286 0.750000 0.000000
O O19 0.263296 0.500781 0.250000
O O20 0.286797 0.583035 0.500475
O O21 0.317715 0.838532 0.250000
O O22 0.304272 0.750000 0.000000
#
# Coordination Sequence:
#
# PCOD9435260 Si02
#       8
#     8   8   8   8   8   8   8   8
#     4  10  20  36  58  86 119 150 186 232 287 350
#     4  11  23  39  61  85 114 149 191 243 294 350
#     4   8  15  29  50  75 102 134 172 213 258 313
#     4  10  20  35  59  88 116 149 187 232 289 351
#     4   9  18  35  58  79 104 142 186 229 278 332
#     4  10  19  31  50  80 115 147 181 223 272 325
#     4  10  22  41  62  84 113 151 194 244 295 342
#     4  12  25  40  61  85 115 154 196 240 290 350
#
# _framework density 19.073891
#
# number of rings (size 3 to 8) (size 9 to 14) (size 15 to 20)
#    0.000    2.000    1.250    2.625    0.000    4.000 
#    0.000    0.625    0.000    0.000    0.000    0.000 
#    0.000    0.000    0.000    0.000    0.000    0.000 
#
# Total GULP energy -357101.428506 kJ/mol
# GULP energy per Si atom -5579.709820 kJ/mol
# Density = 1.903048 g / cm^3
# Si number density = 19.073891 Si / 1000 Ang^3
#
#
#
# Elastic Constant Matrix: (Units=GPa)
#
#
# Indices 1 2 3 4 5 6 
#
# 1 117.0433 35.3110 24.0727 0.0000 0.0000 0.0000
# 2 35.3110 77.2870 12.2496 0.0000 0.0000 0.0000
# 3 24.0727 12.2496 27.7119 0.0000 0.0000 0.0000
# 4 0.0000 0.0000 0.0000 23.6348 0.0000 0.0000
# 5 0.0000 0.0000 0.0000 0.0000 19.5112 0.0000
# 6 0.0000 0.0000 0.0000 0.0000 0.0000 2.1942
#
#
#
# Elastic Compliance Matrix: (Units=1/GPa)
#
#
# Indices 1 2 3 4 5 6 
#
# 1 0.011407 -0.003916 -0.008178 0.000000 0.000000 0.000000
# 2 -0.003916 0.015258 -0.003343 0.000000 0.000000 0.000000
# 3 -0.008178 -0.003343 0.044668 0.000000 0.000000 0.000000
# 4 0.000000 0.000000 0.000000 0.042310 0.000000 0.000000
# 5 0.000000 0.000000 0.000000 0.000000 0.051253 0.000000
# 6 0.000000 0.000000 0.000000 0.000000 0.000000 0.455748
#
#
# Mechanical properties :
#
#
# Convention : Reuss Voigt Hill
#
# Bulk Modulus (GPa) = 24.71665 40.58988 32.65326
# Shear Modulus (GPa) = 7.51876 19.09530 13.30703
#
# Velocity S-wave (km/s) = 1.98758 3.16748 2.64419
# Velocity P-wave (km/s) = 4.27245 5.89099 5.14576
#
# Compressibility (1/GPa) = 0.04045856
#
# Stress axis : x y z
#
# Youngs Moduli (GPa) = 87.66389 65.54131 22.38756
#
# Poissons Ratio (x) = 0.25663 0.18309
# Poissons Ratio (y) = 0.34325 0.07484
# Poissons Ratio (z) = 0.71695 0.21911
#
# Static dielectric constant tensor:
#      x y z
#    x 1.691980 0.000000 0.000000 
#    y 0.000000 1.657910 0.000000 
#    z 0.000000 0.000000 1.638810 
# 
# From -- ./inp_files/9502.got.cif
#   From: 2010.05.17/outbox.cif.g08.bks.cpg/sg57_5_cif.got.tgz:9502.got - 2010.06.03 13:58:18.
