data_PCOD9435079
_publ_section_title
;
Structure prediction by ZEFSAII (Michael W. Deem and Ramdas Pophale) SiO2 
 PCOD9435079
Probable space group: P B C M
;
_chemical_formula_sum "Si O2"
_cell_formula_units_Z 64
_cell_length_a 14.472342
_cell_length_b 28.858684
_cell_length_c 8.724789
_cell_angle_alpha 90.000000
_cell_angle_beta 90.000000
_cell_angle_gamma 90.000000
_cell_volume 3643.932071
_symmetry_space_group_name_H-M "P B C M"
_symmetry_group_IT_number 57
_symmetry_cell_setting 'orthorhombic'
loop_
_space_group_symop_operation_xyz
x,y,z
-x,-y,1/2+z
x,1/2-y,-z
-x,1/2+y,1/2-z
-x,-y,-z
x,y,1/2-z
-x,1/2+y,z
x,1/2-y,1/2+z
loop_
_atom_site_type_symbol
_atom_site_label
_atom_site_fract_x
_atom_site_fract_y
_atom_site_fract_z
Si Si1 0.385766 0.124660 0.065082
Si Si2 0.599272 0.983144 0.934056
Si Si3 0.021329 0.199421 0.063946
Si Si4 0.717771 0.063485 0.065148
Si Si5 0.722013 0.294909 0.923279
Si Si6 0.763195 0.799741 0.934302
Si Si7 0.122939 0.874220 0.575173
Si Si8 0.583024 0.141442 0.569652
O O1 0.392807 0.126968 0.250000
O O2 0.380769 0.070278 0.024494
O O3 0.301015 0.157433 0.016923
O O4 0.479888 0.142867 0.991654
O O5 0.594808 0.987054 0.750000
O O6 0.500000 0.000000 0.000000
O O7 0.680618 0.015598 0.998155
O O8 0.011530 0.200887 0.250000
O O9 0.129227 0.193394 0.023610
O O10 0.962323 0.154967 0.006808
O O11 0.992663 0.250000 0.000000
O O12 0.720148 0.062232 0.250000
O O13 0.818438 0.082347 0.009509
O O14 0.639829 0.100572 0.014382
O O15 0.691725 0.286043 0.750000
O O16 0.797611 0.335091 0.918533
O O17 0.764280 0.250000 0.000000
O O18 0.637364 0.312211 0.025228
O O19 0.759461 0.797072 0.750000
O O20 0.732727 0.750000 0.000000
O O21 0.096454 0.887003 0.750000
O O22 0.585583 0.132960 0.750000
#
# Coordination Sequence:
#
# PCOD9435079 Si02
#       8
#     8   8   8   8   8   8   8   8
#     4  10  21  36  52  72 101 135 169 210 258 304
#     4  11  21  33  53  76 101 134 175 217 260 303
#     4   9  16  30  52  77 101 128 168 210 253 306
#     4  10  19  33  50  72 104 134 164 207 255 302
#     4  10  19  31  45  65  97 132 166 204 249 300
#     4   9  19  35  55  77 102 133 168 210 256 302
#     4   8  16  29  48  72  99 131 163 202 252 302
#     4  11  21  32  48  69  94 129 170 207 251 304
#
# _framework density 17.563445000000002
#
# number of rings (size 3 to 8) (size 9 to 14) (size 15 to 20)
#    0.000    2.250    1.250    3.375    0.000    1.500 
#    0.000    4.375    0.000    0.750    0.000    0.000 
#    0.000    0.000    0.000    0.000    0.000    0.625 
#
# Total GULP energy -356598.686987 kJ/mol
# GULP energy per Si atom -5571.854484 kJ/mol
# Density = 1.752347 g / cm^3
# Si number density = 17.563445 Si / 1000 Ang^3
#
#
#
# Elastic Constant Matrix: (Units=GPa)
#
#
# Indices 1 2 3 4 5 6 
#
# 1 93.1747 54.6620 21.3634 0.0000 0.0000 0.0000
# 2 54.6620 88.2794 26.1739 0.0000 0.0000 0.0000
# 3 21.3634 26.1739 23.3262 0.0000 0.0000 0.0000
# 4 0.0000 0.0000 0.0000 26.5875 0.0000 0.0000
# 5 0.0000 0.0000 0.0000 0.0000 12.2988 0.0000
# 6 0.0000 0.0000 0.0000 0.0000 0.0000 34.2169
#
#
#
# Elastic Compliance Matrix: (Units=1/GPa)
#
#
# Indices 1 2 3 4 5 6 
#
# 1 0.017355 -0.009041 -0.005749 0.000000 0.000000 0.000000
# 2 -0.009041 0.021685 -0.016052 0.000000 0.000000 0.000000
# 3 -0.005749 -0.016052 0.066148 0.000000 0.000000 0.000000
# 4 0.000000 0.000000 0.000000 0.037612 0.000000 0.000000
# 5 0.000000 0.000000 0.000000 0.000000 0.081308 0.000000
# 6 0.000000 0.000000 0.000000 0.000000 0.000000 0.029225
#
#
# Mechanical properties :
#
#
# Convention : Reuss Voigt Hill
#
# Bulk Modulus (GPa) = 22.98737 45.46432 34.22585
# Shear Modulus (GPa) = 15.17357 21.45937 18.31647
#
# Velocity S-wave (km/s) = 2.94246 3.49925 3.23286
# Velocity P-wave (km/s) = 4.96595 6.50141 5.78485
#
# Compressibility (1/GPa) = 0.04350215
#
# Stress axis : x y z
#
# Youngs Moduli (GPa) = 57.62006 46.11403 15.11767
#
# Poissons Ratio (x) = 0.41694 0.08692
# Poissons Ratio (y) = 0.52097 0.24267
# Poissons Ratio (z) = 0.33128 0.74023
#
# Static dielectric constant tensor:
#      x y z
#    x 1.604730 0.000000 0.000000 
#    y 0.000000 1.666250 0.000000 
#    z 0.000000 0.000000 1.604840 
# 
# From -- ./inp_files/6050.got.cif
#   From: 2010.05.17/outbox.cif.g08.bks.cpg/sg57_4_cif.got.tgz:6050.got - 2010.06.03 13:58:18.
