data_PCOD9435172
_publ_section_title
;
Structure prediction by ZEFSAII (Michael W. Deem and Ramdas Pophale) SiO2 
 PCOD9435172
Probable space group: P B C M
;
_chemical_formula_sum "Si O2"
_cell_formula_units_Z 56
_cell_length_a 15.197993
_cell_length_b 21.202300
_cell_length_c 8.922343
_cell_angle_alpha 90.000000
_cell_angle_beta 90.000000
_cell_angle_gamma 90.000000
_cell_volume 2875.068061
_symmetry_space_group_name_H-M "P B C M"
_symmetry_group_IT_number 57
_symmetry_cell_setting 'orthorhombic'
loop_
_space_group_symop_operation_xyz
x,y,z
-x,-y,1/2+z
x,1/2-y,-z
-x,1/2+y,1/2-z
-x,-y,-z
x,y,1/2-z
-x,1/2+y,z
x,1/2-y,1/2+z
loop_
_atom_site_type_symbol
_atom_site_label
_atom_site_fract_x
_atom_site_fract_y
_atom_site_fract_z
Si Si1 0.349309 0.185707 0.078270
Si Si2 0.958636 0.682779 0.428104
Si Si3 0.420276 0.958334 0.931480
Si Si4 0.794695 0.872624 0.420258
Si Si5 0.950526 0.060690 0.571642
Si Si6 0.560557 0.315255 0.577785
Si Si7 0.781602 0.482153 0.577343
O O1 0.320906 0.181302 0.250000
O O2 0.454246 0.185071 0.076158
O O3 0.319806 0.250000 0.000000
O O4 0.304730 0.132966 0.977848
O O5 0.982300 0.750000 0.500000
O O6 0.969462 0.683989 0.250000
O O7 0.857963 0.666638 0.472613
O O8 0.011904 0.624886 0.501043
O O9 0.432698 0.958234 0.750000
O O10 0.418550 0.884920 0.984101
O O11 0.321467 0.982371 0.963819
O O12 0.500000 0.000000 0.000000
O O13 0.803557 0.849737 0.250000
O O14 0.816343 0.946142 0.424310
O O15 0.963552 0.060072 0.750000
O O16 0.847550 0.055392 0.528691
O O17 0.000000 0.000000 0.500000
O O18 0.589771 0.250000 0.500000
O O19 0.590963 0.313254 0.750000
O O20 0.787798 0.459048 0.750000
#
# Coordination Sequence:
#
# PCOD9435172 Si02
#       7
#     8   8   8   8   8   8   8
#     4  10  19  31  48  73 108 149 194 244 302 367
#     4  12  25  42  64  91 125 163 204 257 314 371
#     4  10  21  38  60  90 125 162 206 263 318 371
#     4  11  21  34  54  82 117 155 199 247 305 375
#     4  12  24  42  67  94 124 162 208 255 308 371
#     4   9  19  35  55  79 111 154 203 253 308 366
#     4  10  22  39  61  88 121 162 207 254 311 375
#
# _framework density 19.477799999999998
#
# number of rings (size 3 to 8) (size 9 to 14) (size 15 to 20)
#    0.000    1.429    1.429    4.714    0.000    2.286 
#    0.000    0.714    0.000    1.714    0.000    0.000 
#    0.000    0.000    0.000    0.000    0.000    0.000 
#
# Total GULP energy -312534.296830 kJ/mol
# GULP energy per Si atom -5580.969586 kJ/mol
# Density = 1.943347 g / cm^3
# Si number density = 19.477800 Si / 1000 Ang^3
#
#
#
# Elastic Constant Matrix: (Units=GPa)
#
#
# Indices 1 2 3 4 5 6 
#
# 1 75.0845 38.2210 40.5527 0.0000 0.0000 0.0000
# 2 38.2210 141.3955 59.0510 0.0000 0.0000 0.0000
# 3 40.5527 59.0510 122.4767 0.0000 0.0000 0.0000
# 4 0.0000 0.0000 0.0000 28.9042 0.0000 0.0000
# 5 0.0000 0.0000 0.0000 0.0000 24.8710 0.0000
# 6 0.0000 0.0000 0.0000 0.0000 0.0000 38.6658
#
#
#
# Elastic Compliance Matrix: (Units=1/GPa)
#
#
# Indices 1 2 3 4 5 6 
#
# 1 0.017073 -0.002823 -0.004292 0.000000 0.000000 0.000000
# 2 -0.002823 0.009322 -0.003560 0.000000 0.000000 0.000000
# 3 -0.004292 -0.003560 0.011302 0.000000 0.000000 0.000000
# 4 0.000000 0.000000 0.000000 0.034597 0.000000 0.000000
# 5 0.000000 0.000000 0.000000 0.000000 0.040207 0.000000
# 6 0.000000 0.000000 0.000000 0.000000 0.000000 0.025863
#
#
# Mechanical properties :
#
#
# Convention : Reuss Voigt Hill
#
# Bulk Modulus (GPa) = 61.16848 68.28958 64.72903
# Shear Modulus (GPa) = 30.27296 31.89701 31.08498
#
# Velocity S-wave (km/s) = 3.94665 4.05113 3.99923
# Velocity P-wave (km/s) = 7.22775 7.55106 7.39117
#
# Compressibility (1/GPa) = 0.01634829
#
# Stress axis : x y z
#
# Youngs Moduli (GPa) = 58.57093 107.27189 88.47673
#
# Poissons Ratio (x) = 0.30278 0.37976
# Poissons Ratio (y) = 0.16532 0.31498
# Poissons Ratio (z) = 0.25140 0.38189
#
# Static dielectric constant tensor:
#      x y z
#    x 1.699380 0.000000 0.000000 
#    y 0.000000 1.697900 0.000000 
#    z 0.000000 0.000000 1.668310 
# 
# From -- ./inp_files/5112.got.cif
#   From: 2010.05.17/outbox.cif.g08.bks.cpg/sg57_3_cif.got.tgz:5112.got - 2010.06.03 13:58:18.
