data_PCOD9435154
_publ_section_title
;
Structure prediction by ZEFSAII (Michael W. Deem and Ramdas Pophale) SiO2 
 PCOD9435154
Probable space group: P B C M
;
_chemical_formula_sum "Si O2"
_cell_formula_units_Z 64
_cell_length_a 21.772084
_cell_length_b 19.344562
_cell_length_c 9.047576
_cell_angle_alpha 90.000000
_cell_angle_beta 90.000000
_cell_angle_gamma 90.000000
_cell_volume 3810.580511
_symmetry_space_group_name_H-M "P B C M"
_symmetry_group_IT_number 57
_symmetry_cell_setting 'orthorhombic'
loop_
_space_group_symop_operation_xyz
x,y,z
-x,-y,1/2+z
x,1/2-y,-z
-x,1/2+y,1/2-z
-x,-y,-z
x,y,1/2-z
-x,1/2+y,z
x,1/2-y,1/2+z
loop_
_atom_site_type_symbol
_atom_site_label
_atom_site_fract_x
_atom_site_fract_y
_atom_site_fract_z
Si Si1 0.816425 0.518168 0.418066
Si Si2 0.894951 0.317970 0.925994
Si Si3 0.061785 0.527693 0.073270
Si Si4 0.459938 0.675099 0.572704
Si Si5 0.304024 0.442913 0.426647
Si Si6 0.228917 0.641176 0.581098
Si Si7 0.650642 0.400859 0.926270
Si Si8 0.398075 0.176106 0.927258
O O1 0.828047 0.540524 0.250000
O O2 0.879230 0.512941 0.509445
O O3 0.761724 0.560526 0.493970
O O4 0.790514 0.439624 0.413353
O O5 0.892913 0.310332 0.750000
O O6 0.927901 0.390750 0.961252
O O7 0.923583 0.250000 0.000000
O O8 0.826188 0.324752 0.990742
O O9 0.059724 0.520723 0.250000
O O10 0.000000 0.500000 0.000000
O O11 0.448267 0.750000 0.500000
O O12 0.452424 0.678601 0.750000
O O13 0.412315 0.621925 0.502026
O O14 0.531037 0.657148 0.539316
O O15 0.294692 0.438135 0.250000
O O16 0.333826 0.518440 0.454061
O O17 0.350682 0.383033 0.474425
O O18 0.232721 0.666771 0.750000
O O19 0.293784 0.643068 0.498150
O O20 0.648646 0.390181 0.750000
O O21 0.393858 0.182974 0.750000
O O22 0.385058 0.250000 0.000000
#
# Coordination Sequence:
#
# PCOD9435154 Si02
#       8
#     8   8   8   8   8   8   8   8
#     4   9  17  30  50  76 102 127 159 198 239 285
#     4  10  20  33  50  74 103 135 171 209 247 289
#     4  10  20  34  54  79 107 140 174 206 245 294
#     4  10  20  34  49  66  92 126 165 207 251 302
#     4   9  18  33  52  74 101 130 160 201 253 301
#     4   9  17  30  47  68  96 128 161 198 239 285
#     4  10  19  31  48  71  99 130 164 202 247 299
#     4   9  19  35  53  72  95 126 164 207 256 308
#
# _framework density 16.795342000000002
#
# number of rings (size 3 to 8) (size 9 to 14) (size 15 to 20)
#    0.000    2.500    0.000    2.250    0.000    7.000 
#    0.000    2.500    0.000    0.750    0.000    5.250 
#    0.000    0.000    0.000    0.000    0.000    0.000 
#
# Total GULP energy -356920.518605 kJ/mol
# GULP energy per Si atom -5576.883103 kJ/mol
# Density = 1.675711 g / cm^3
# Si number density = 16.795342 Si / 1000 Ang^3
#
#
#
# Elastic Constant Matrix: (Units=GPa)
#
#
# Indices 1 2 3 4 5 6 
#
# 1 137.5992 71.0803 72.0643 0.0000 0.0000 0.0000
# 2 71.0803 72.3207 54.5113 0.0000 0.0000 0.0000
# 3 72.0643 54.5113 86.1392 0.0000 0.0000 0.0000
# 4 0.0000 0.0000 0.0000 23.7825 0.0000 0.0000
# 5 0.0000 0.0000 0.0000 0.0000 31.1902 0.0000
# 6 0.0000 0.0000 0.0000 0.0000 0.0000 15.1694
#
#
#
# Elastic Compliance Matrix: (Units=1/GPa)
#
#
# Indices 1 2 3 4 5 6 
#
# 1 0.016625 -0.011197 -0.006822 0.000000 0.000000 0.000000
# 2 -0.011197 0.033980 -0.012136 0.000000 0.000000 0.000000
# 3 -0.006822 -0.012136 0.024996 0.000000 0.000000 0.000000
# 4 0.000000 0.000000 0.000000 0.042048 0.000000 0.000000
# 5 0.000000 0.000000 0.000000 0.000000 0.032061 0.000000
# 6 0.000000 0.000000 0.000000 0.000000 0.000000 0.065922
#
#
# Mechanical properties :
#
#
# Convention : Reuss Voigt Hill
#
# Bulk Modulus (GPa) = 65.40054 76.81899 71.10977
# Shear Modulus (GPa) = 17.79108 20.58864 19.18986
#
# Velocity S-wave (km/s) = 3.25820 3.50502 3.38386
# Velocity P-wave (km/s) = 7.29237 7.88782 7.59594
#
# Compressibility (1/GPa) = 0.01529039
#
# Stress axis : x y z
#
# Youngs Moduli (GPa) = 60.15112 29.42926 40.00563
#
# Poissons Ratio (x) = 0.32953 0.27293
# Poissons Ratio (y) = 0.67353 0.48549
# Poissons Ratio (z) = 0.41037 0.35714
#
# Static dielectric constant tensor:
#      x y z
#    x 1.546330 0.000000 0.000000 
#    y 0.000000 1.571290 0.000000 
#    z 0.000000 0.000000 1.565890 
# 
# From -- ./inp_files/8388.got.cif
#   From: 2010.05.17/outbox.cif.g08.bks.cpg/sg57_5_cif.got.tgz:8388.got - 2010.06.03 13:58:18.
