data_PCOD9435680
_publ_section_title
;
Structure prediction by ZEFSAII (Michael W. Deem and Ramdas Pophale) SiO2 
 PCOD9435680
Probable space group: P B C M
;
_chemical_formula_sum "Si O2"
_cell_formula_units_Z 64
_cell_length_a 25.354267
_cell_length_b 13.942354
_cell_length_c 7.576897
_cell_angle_alpha 90.000000
_cell_angle_beta 90.000000
_cell_angle_gamma 90.000000
_cell_volume 2678.419193
_symmetry_space_group_name_H-M "P B C M"
_symmetry_group_IT_number 57
_symmetry_cell_setting 'orthorhombic'
loop_
_space_group_symop_operation_xyz
x,y,z
-x,-y,1/2+z
x,1/2-y,-z
-x,1/2+y,1/2-z
-x,-y,-z
x,y,1/2-z
-x,1/2+y,z
x,1/2-y,1/2+z
loop_
_atom_site_type_symbol
_atom_site_label
_atom_site_fract_x
_atom_site_fract_y
_atom_site_fract_z
Si Si1 0.028141 0.635324 0.039806
Si Si2 0.645029 0.137598 0.039300
Si Si3 0.806080 0.544992 0.031783
Si Si4 0.085189 0.137288 0.461175
Si Si5 0.692449 0.948133 0.545907
Si Si6 0.144586 0.639350 0.951448
Si Si7 0.415413 0.363362 0.962170
Si Si8 0.528720 0.135644 0.461320
O O1 0.030251 0.624188 0.250000
O O2 0.971574 0.598170 0.970688
O O3 0.028106 0.750000 0.000000
O O4 0.084328 0.601181 0.967721
O O5 0.645615 0.127332 0.250000
O O6 0.586455 0.106595 0.970466
O O7 0.653234 0.250000 0.000000
O O8 0.686670 0.063331 0.961751
O O9 0.805072 0.548456 0.250000
O O10 0.858933 0.599029 0.973480
O O11 0.749129 0.581028 0.970918
O O12 0.816226 0.436718 0.964623
O O13 0.084371 0.250000 0.500000
O O14 0.084129 0.122864 0.250000
O O15 0.692206 0.917212 0.750000
O O16 0.638425 0.908016 0.464648
O O17 0.159060 0.638257 0.750000
O O18 0.146093 0.750000 0.000000
O O19 0.416511 0.376766 0.750000
O O20 0.472239 0.401838 0.030440
O O21 0.413728 0.250000 0.000000
O O22 0.527407 0.250000 0.500000
O O23 0.529467 0.123399 0.250000
#
# Coordination Sequence:
#
# PCOD9435680 Si02
#       8
#     8   8   8   8   8   8   8   8
#     4   9  16  28  49  76 103 128 159 201 249 302
#     4  10  20  35  55  78 105 135 169 212 260 309
#     4   9  20  37  53  71 100 138 174 207 248 298
#     4   9  18  34  54  76 103 134 166 202 249 301
#     4  10  21  37  54  74 103 139 178 215 254 303
#     4  10  19  33  53  74  99 131 165 204 251 300
#     4   9  18  33  54  78 105 137 171 210 257 307
#     4   8  15  29  49  75 104 132 164 204 254 309
#
# _framework density 23.894691000000002
#
# number of rings (size 3 to 8) (size 9 to 14) (size 15 to 20)
#    0.000    2.750    0.000    1.875    0.000    3.500 
#    0.000    4.375    0.000    0.000    0.000    0.000 
#    0.000    0.000    0.000    0.000    0.000    0.000 
#
# Total GULP energy -357135.813009 kJ/mol
# GULP energy per Si atom -5580.247078 kJ/mol
# Density = 2.384031 g / cm^3
# Si number density = 23.894691 Si / 1000 Ang^3
#
#
#
# Elastic Constant Matrix: (Units=GPa)
#
#
# Indices 1 2 3 4 5 6 
#
# 1 122.0585 19.4895 -13.2972 0.0000 0.0000 0.0000
# 2 19.4895 41.4083 -9.9623 0.0000 0.0000 0.0000
# 3 -13.2972 -9.9623 67.2492 0.0000 0.0000 0.0000
# 4 0.0000 0.0000 0.0000 14.0929 0.0000 0.0000
# 5 0.0000 0.0000 0.0000 0.0000 8.7529 0.0000
# 6 0.0000 0.0000 0.0000 0.0000 0.0000 29.9640
#
#
#
# Elastic Compliance Matrix: (Units=1/GPa)
#
#
# Indices 1 2 3 4 5 6 
#
# 1 0.008949 -0.003926 0.001188 0.000000 0.000000 0.000000
# 2 -0.003926 0.026765 0.003189 0.000000 0.000000 0.000000
# 3 0.001188 0.003189 0.015577 0.000000 0.000000 0.000000
# 4 0.000000 0.000000 0.000000 0.070958 0.000000 0.000000
# 5 0.000000 0.000000 0.000000 0.000000 0.114248 0.000000
# 6 0.000000 0.000000 0.000000 0.000000 0.000000 0.033373
#
#
# Mechanical properties :
#
#
# Convention : Reuss Voigt Hill
#
# Bulk Modulus (GPa) = 19.16013 24.79734 21.97873
# Shear Modulus (GPa) = 17.46013 26.19437 21.82725
#
# Velocity S-wave (km/s) = 2.70610 3.31455 3.02566
# Velocity P-wave (km/s) = 4.21900 5.00486 4.62864
#
# Compressibility (1/GPa) = 0.05219172
#
# Stress axis : x y z
#
# Youngs Moduli (GPa) = 111.74278 37.36240 64.19599
#
# Poissons Ratio (x) = 0.14670 -0.07626
# Poissons Ratio (y) = 0.43873 -0.20470
# Poissons Ratio (z) = -0.13274 -0.11913
#
# Static dielectric constant tensor:
#      x y z
#    x 1.948390 0.000000 0.000000 
#    y 0.000000 1.981260 0.000000 
#    z 0.000000 0.000000 1.853470 
# 
# From -- ./inp_files/9327.got.cif
#   From: 2010.05.17/outbox.cif.g08.bks.cpg/sg57_5_cif.got.tgz:9327.got - 2010.06.03 13:58:18.
