data_PCOD9435256
_publ_section_title
;
Structure prediction by ZEFSAII (Michael W. Deem and Ramdas Pophale) SiO2 
 PCOD9435256
Probable space group: P B C M
;
_chemical_formula_sum "Si O2"
_cell_formula_units_Z 64
_cell_length_a 24.768635
_cell_length_b 15.059192
_cell_length_c 8.711390
_cell_angle_alpha 90.000000
_cell_angle_beta 90.000000
_cell_angle_gamma 90.000000
_cell_volume 3249.310402
_symmetry_space_group_name_H-M "P B C M"
_symmetry_group_IT_number 57
_symmetry_cell_setting 'orthorhombic'
loop_
_space_group_symop_operation_xyz
x,y,z
-x,-y,1/2+z
x,1/2-y,-z
-x,1/2+y,1/2-z
-x,-y,-z
x,y,1/2-z
-x,1/2+y,z
x,1/2-y,1/2+z
loop_
_atom_site_type_symbol
_atom_site_label
_atom_site_fract_x
_atom_site_fract_y
_atom_site_fract_z
Si Si1 0.367177 0.655428 0.067065
Si Si2 0.517826 0.405103 0.067284
Si Si3 0.119817 0.461746 0.064296
Si Si4 0.223321 0.348901 0.065041
Si Si5 0.673540 0.532082 0.565670
Si Si6 0.972793 0.655098 0.433767
Si Si7 0.900663 0.343774 0.565848
Si Si8 0.589150 0.662798 0.431856
O O1 0.371799 0.662865 0.250000
O O2 0.327741 0.572705 0.031735
O O3 0.350382 0.750000 0.000000
O O4 0.426079 0.629163 0.001660
O O5 0.522197 0.410107 0.250000
O O6 0.500000 0.500000 0.000000
O O7 0.467973 0.344243 0.016883
O O8 0.117668 0.460713 0.250000
O O9 0.168253 0.397363 0.014376
O O10 0.127371 0.564424 0.016717
O O11 0.064170 0.422102 0.001229
O O12 0.222358 0.342745 0.250000
O O13 0.272916 0.413738 0.023918
O O14 0.228683 0.250000 0.000000
O O15 0.664848 0.541757 0.750000
O O16 0.624172 0.577820 0.477739
O O17 0.953831 0.750000 0.500000
O O18 0.968989 0.655856 0.250000
O O19 0.035865 0.646229 0.476795
O O20 0.880904 0.250000 0.500000
O O21 0.897849 0.338219 0.750000
O O22 0.617891 0.750000 0.500000
O O23 0.582488 0.668611 0.250000
#
# Coordination Sequence:
#
# PCOD9435256 Si02
#       8
#     8   8   8   8   8   8   8   8
#     4  11  23  40  62  86 117 153 192 236 285 338
#     4  12  23  38  59  87 121 155 192 231 280 337
#     4  10  20  35  55  80 112 148 189 235 288 342
#     4  10  22  40  61  85 112 145 183 231 288 344
#     4  10  22  41  62  83 111 147 189 235 284 337
#     4  10  19  31  50  78 112 149 190 232 283 340
#     4   9  19  34  52  77 111 151 190 234 281 335
#     4  12  24  38  59  86 117 152 189 231 281 337
#
# _framework density 19.696487000000001
#
# number of rings (size 3 to 8) (size 9 to 14) (size 15 to 20)
#    0.000    1.500    1.250    4.500    0.000    4.500 
#    0.000    0.625    0.000    0.000    0.000    0.000 
#    0.000    0.000    0.000    0.000    0.000    0.000 
#
# Total GULP energy -357606.998676 kJ/mol
# GULP energy per Si atom -5587.609354 kJ/mol
# Density = 1.965166 g / cm^3
# Si number density = 19.696487 Si / 1000 Ang^3
#
#
#
# Elastic Constant Matrix: (Units=GPa)
#
#
# Indices 1 2 3 4 5 6 
#
# 1 53.1784 40.7418 21.1514 0.0000 0.0000 0.0000
# 2 40.7418 184.1217 47.1385 0.0000 0.0000 0.0000
# 3 21.1514 47.1385 53.3775 0.0000 0.0000 0.0000
# 4 0.0000 0.0000 0.0000 35.6443 0.0000 0.0000
# 5 0.0000 0.0000 0.0000 0.0000 12.7936 0.0000
# 6 0.0000 0.0000 0.0000 0.0000 0.0000 28.1487
#
#
#
# Elastic Compliance Matrix: (Units=1/GPa)
#
#
# Indices 1 2 3 4 5 6 
#
# 1 0.024166 -0.003742 -0.006272 0.000000 0.000000 0.000000
# 2 -0.003742 0.007597 -0.005227 0.000000 0.000000 0.000000
# 3 -0.006272 -0.005227 0.025835 0.000000 0.000000 0.000000
# 4 0.000000 0.000000 0.000000 0.028055 0.000000 0.000000
# 5 0.000000 0.000000 0.000000 0.000000 0.078164 0.000000
# 6 0.000000 0.000000 0.000000 0.000000 0.000000 0.035526
#
#
# Mechanical properties :
#
#
# Convention : Reuss Voigt Hill
#
# Bulk Modulus (GPa) = 36.87501 56.52678 46.70089
# Shear Modulus (GPa) = 20.93256 27.42704 24.17980
#
# Velocity S-wave (km/s) = 3.26353 3.73565 3.50754
# Velocity P-wave (km/s) = 5.74135 6.88244 6.33763
#
# Compressibility (1/GPa) = 0.02711864
#
# Stress axis : x y z
#
# Youngs Moduli (GPa) = 41.38090 131.62699 38.70663
#
# Poissons Ratio (x) = 0.49250 0.24275
# Poissons Ratio (y) = 0.15483 0.20230
# Poissons Ratio (z) = 0.25953 0.68796
#
# Static dielectric constant tensor:
#      x y z
#    x 1.702780 0.000000 0.000000 
#    y 0.000000 1.732140 0.000000 
#    z 0.000000 0.000000 1.659870 
# 
# From -- ./inp_files/9427.got.cif
#   From: 2010.05.17/outbox.cif.g08.bks.cpg/sg57_5_cif.got.tgz:9427.got - 2010.06.03 13:58:18.
