data_PCOD9435767
_publ_section_title
;
Structure prediction by ZEFSAII (Michael W. Deem and Ramdas Pophale) SiO2 
 PCOD9435767
Probable space group: P B C M
;
_chemical_formula_sum "Si O2"
_cell_formula_units_Z 40
_cell_length_a 11.728058
_cell_length_b 22.336748
_cell_length_c 8.646348
_cell_angle_alpha 90.000000
_cell_angle_beta 90.000000
_cell_angle_gamma 90.000000
_cell_volume 2265.055046
_symmetry_space_group_name_H-M "P B C M"
_symmetry_group_IT_number 57
_symmetry_cell_setting 'orthorhombic'
loop_
_space_group_symop_operation_xyz
x,y,z
-x,-y,1/2+z
x,1/2-y,-z
-x,1/2+y,1/2-z
-x,-y,-z
x,y,1/2-z
-x,1/2+y,z
x,1/2-y,1/2+z
loop_
_atom_site_type_symbol
_atom_site_label
_atom_site_fract_x
_atom_site_fract_y
_atom_site_fract_z
Si Si1 0.678287 0.461999 0.932543
Si Si2 0.438124 0.420915 0.933164
Si Si3 0.025760 0.184365 0.564905
Si Si4 0.705219 0.685470 0.934689
Si Si5 0.072715 0.556202 0.934526
O O1 0.702278 0.458638 0.750000
O O2 0.572627 0.418244 0.971733
O O3 0.623774 0.526087 0.974100
O O4 0.795122 0.452216 0.022204
O O5 0.430156 0.433835 0.750000
O O6 0.371502 0.362078 0.978453
O O7 0.990882 0.250000 0.500000
O O8 0.011228 0.187561 0.750000
O O9 0.160436 0.176292 0.531916
O O10 0.966241 0.122713 0.509514
O O11 0.689928 0.681620 0.750000
O O12 0.675033 0.750000 0.000000
O O13 0.057512 0.555363 0.750000
O O14 0.000000 0.500000 0.000000
#
# Coordination Sequence:
#
# PCOD9435767 Si02
#       5
#     8   8   8   8   8
#     4  10  21  36  54  78 107 139 176 218 267 321
#     4  10  20  35  55  78 105 138 176 219 268 319
#     4   9  20  36  54  78 107 140 177 218 266 319
#     4  10  19  33  54  79 107 137 174 219 265 317
#     4  11  22  36  56  83 112 143 182 225 271 324
#
# _framework density 17.659613
#
# number of rings (size 3 to 8) (size 9 to 14) (size 15 to 20)
#    0.000    2.000    0.000    3.600    0.000    6.400 
#    0.000    1.000    0.000    2.400    0.000    0.000 
#    0.000    0.000    0.000    0.000    0.000    0.000 
#
# Total GULP energy -223108.619059 kJ/mol
# GULP energy per Si atom -5577.715476 kJ/mol
# Density = 1.761942 g / cm^3
# Si number density = 17.659613 Si / 1000 Ang^3
#
#
#
# Elastic Constant Matrix: (Units=GPa)
#
#
# Indices 1 2 3 4 5 6 
#
# 1 79.1748 58.1899 19.7488 0.0000 0.0000 0.0000
# 2 58.1899 108.2081 19.3199 0.0000 0.0000 0.0000
# 3 19.7488 19.3199 31.2809 0.0000 0.0000 0.0000
# 4 0.0000 0.0000 0.0000 32.2031 0.0000 0.0000
# 5 0.0000 0.0000 0.0000 0.0000 24.1030 0.0000
# 6 0.0000 0.0000 0.0000 0.0000 0.0000 34.8683
#
#
#
# Elastic Compliance Matrix: (Units=1/GPa)
#
#
# Indices 1 2 3 4 5 6 
#
# 1 0.022354 -0.010679 -0.007517 0.000000 0.000000 0.000000
# 2 -0.010679 0.015488 -0.002824 0.000000 0.000000 0.000000
# 3 -0.007517 -0.002824 0.038459 0.000000 0.000000 0.000000
# 4 0.000000 0.000000 0.000000 0.031053 0.000000 0.000000
# 5 0.000000 0.000000 0.000000 0.000000 0.041489 0.000000
# 6 0.000000 0.000000 0.000000 0.000000 0.000000 0.028679
#
#
# Mechanical properties :
#
#
# Convention : Reuss Voigt Hill
#
# Bulk Modulus (GPa) = 29.18827 45.90901 37.54864
# Shear Modulus (GPa) = 21.64672 26.32854 23.98763
#
# Velocity S-wave (km/s) = 3.50491 3.86539 3.68955
# Velocity P-wave (km/s) = 5.73963 6.78047 6.28164
#
# Compressibility (1/GPa) = 0.03426034
#
# Stress axis : x y z
#
# Youngs Moduli (GPa) = 44.73522 64.56494 26.00205
#
# Poissons Ratio (x) = 0.68947 0.19546
# Poissons Ratio (y) = 0.47772 0.07343
# Poissons Ratio (z) = 0.33629 0.18233
#
# Static dielectric constant tensor:
#      x y z
#    x 1.592380 0.000000 0.000000 
#    y 0.000000 1.584860 0.000000 
#    z 0.000000 0.000000 1.599970 
# 
# From -- ./inp_files/2691.got.cif
#   From: 2010.05.17/outbox.cif.g08.bks.cpg/sg57_2_cif.got.tgz:2691.got - 2010.06.03 13:58:18.
