data_PCOD9435997
_publ_section_title
;
Structure prediction by ZEFSAII (Michael W. Deem and Ramdas Pophale) SiO2 
 PCOD9435997
Probable space group: P B C M
;
_chemical_formula_sum "Si O2"
_cell_formula_units_Z 64
_cell_length_a 21.324999
_cell_length_b 18.187558
_cell_length_c 8.634144
_cell_angle_alpha 90.000000
_cell_angle_beta 90.000000
_cell_angle_gamma 90.000000
_cell_volume 3348.749782
_symmetry_space_group_name_H-M "P B C M"
_symmetry_group_IT_number 57
_symmetry_cell_setting 'orthorhombic'
loop_
_space_group_symop_operation_xyz
x,y,z
-x,-y,1/2+z
x,1/2-y,-z
-x,1/2+y,1/2-z
-x,-y,-z
x,y,1/2-z
-x,1/2+y,z
x,1/2-y,1/2+z
loop_
_atom_site_type_symbol
_atom_site_label
_atom_site_fract_x
_atom_site_fract_y
_atom_site_fract_z
Si Si1 0.000118 0.672360 0.933762
Si Si2 0.374730 0.100493 0.062692
Si Si3 0.501725 0.328989 0.564712
Si Si4 0.740727 0.411349 0.566623
Si Si5 0.759197 0.925653 0.563439
Si Si6 0.102160 0.436367 0.565258
Si Si7 0.610161 0.429083 0.065489
Si Si8 0.121602 0.600885 0.436123
O O1 0.004380 0.675453 0.750000
O O2 0.977173 0.750000 0.000000
O O3 0.068101 0.654772 0.004747
O O4 0.953022 0.607914 0.984507
O O5 0.396138 0.926512 0.250000
O O6 0.432160 0.149276 0.005081
O O7 0.302968 0.119971 0.019730
O O8 0.386293 0.015154 0.018451
O O9 0.520083 0.250000 0.500000
O O10 0.500665 0.326467 0.750000
O O11 0.551682 0.389395 0.511772
O O12 0.732210 0.402628 0.750000
O O13 0.751776 0.497007 0.524034
O O14 0.676069 0.391680 0.482662
O O15 0.807312 0.375955 0.519655
O O16 0.755909 0.939824 0.750000
O O17 0.829670 0.899494 0.532126
O O18 0.092182 0.436598 0.750000
O O19 0.106927 0.520344 0.507067
O O20 0.622756 0.897047 0.750000
O O21 0.119673 0.594953 0.250000
#
# Coordination Sequence:
#
# PCOD9435997 Si02
#       8
#     8   8   8   8   8   8   8   8
#     4  12  25  40  56  76 107 144 183 225 270 320
#     4   8  16  32  55  80 105 135 172 215 261 309
#     4  11  22  36  52  73 105 141 177 217 261 310
#     4   9  17  30  52  82 111 136 168 214 263 312
#     4   8  15  30  53  80 108 137 172 216 264 311
#     4  10  19  34  58  85 112 143 179 219 265 316
#     4  10  19  34  56  80 105 135 174 217 263 314
#     4  10  20  36  58  84 112 141 177 219 264 316
#
# _framework density 19.111609000000001
#
# number of rings (size 3 to 8) (size 9 to 14) (size 15 to 20)
#    0.000    2.250    0.000    4.500    0.000    2.000 
#    0.000    6.875    0.000    4.500    0.000    0.000 
#    0.000    0.000    0.000    0.000    0.000    0.000 
#
# Total GULP energy -356924.381664 kJ/mol
# GULP energy per Si atom -5576.943463 kJ/mol
# Density = 1.906811 g / cm^3
# Si number density = 19.111609 Si / 1000 Ang^3
#
#
#
# Elastic Constant Matrix: (Units=GPa)
#
#
# Indices 1 2 3 4 5 6 
#
# 1 64.6693 -7.8927 11.3215 0.0000 0.0000 0.0000
# 2 -7.8927 16.7797 1.7225 0.0000 0.0000 0.0000
# 3 11.3215 1.7225 48.3150 0.0000 0.0000 0.0000
# 4 0.0000 0.0000 0.0000 16.6465 0.0000 0.0000
# 5 0.0000 0.0000 0.0000 0.0000 20.8689 0.0000
# 6 0.0000 0.0000 0.0000 0.0000 0.0000 1.7680
#
#
#
# Elastic Compliance Matrix: (Units=1/GPa)
#
#
# Indices 1 2 3 4 5 6 
#
# 1 0.017271 0.008571 -0.004353 0.000000 0.000000 0.000000
# 2 0.008571 0.064068 -0.004293 0.000000 0.000000 0.000000
# 3 -0.004353 -0.004293 0.021870 0.000000 0.000000 0.000000
# 4 0.000000 0.000000 0.000000 0.060073 0.000000 0.000000
# 5 0.000000 0.000000 0.000000 0.000000 0.047918 0.000000
# 6 0.000000 0.000000 0.000000 0.000000 0.000000 0.565613
#
#
# Mechanical properties :
#
#
# Convention : Reuss Voigt Hill
#
# Bulk Modulus (GPa) = 9.70300 15.56296 12.63298
# Shear Modulus (GPa) = 6.16283 16.16420 11.16351
#
# Velocity S-wave (km/s) = 1.79768 2.91138 2.41948
# Velocity P-wave (km/s) = 3.06544 4.41162 3.79864
#
# Compressibility (1/GPa) = 0.10306089
#
# Stress axis : x y z
#
# Youngs Moduli (GPa) = 57.89941 15.60843 45.72370
#
# Poissons Ratio (x) = -0.13378 0.19902
# Poissons Ratio (y) = -0.49624 0.19627
# Poissons Ratio (z) = 0.25202 0.06700
#
# Static dielectric constant tensor:
#      x y z
#    x 1.716760 0.000000 0.000000 
#    y 0.000000 1.663210 0.000000 
#    z 0.000000 0.000000 1.640090 
# 
# From -- ./inp_files/8518.got.cif
#   From: 2010.05.17/outbox.cif.g08.bks.cpg/sg57_5_cif.got.tgz:8518.got - 2010.06.03 13:58:18.
