data_PCOD9435346
_publ_section_title
;
Structure prediction by ZEFSAII (Michael W. Deem and Ramdas Pophale) SiO2 
 PCOD9435346
Probable space group: P B C M
;
_chemical_formula_sum "Si O2"
_cell_formula_units_Z 48
_cell_length_a 32.642194
_cell_length_b 9.136997
_cell_length_c 8.560878
_cell_angle_alpha 90.000000
_cell_angle_beta 90.000000
_cell_angle_gamma 90.000000
_cell_volume 2553.295806
_symmetry_space_group_name_H-M "P B C M"
_symmetry_group_IT_number 57
_symmetry_cell_setting 'orthorhombic'
loop_
_space_group_symop_operation_xyz
x,y,z
-x,-y,1/2+z
x,1/2-y,-z
-x,1/2+y,1/2-z
-x,-y,-z
x,y,1/2-z
-x,1/2+y,z
x,1/2-y,1/2+z
loop_
_atom_site_type_symbol
_atom_site_label
_atom_site_fract_x
_atom_site_fract_y
_atom_site_fract_z
Si Si1 0.197562 0.083310 0.063454
Si Si2 0.881267 0.085296 0.063147
Si Si3 0.539136 0.584637 0.562634
Si Si4 0.039612 0.085114 0.436956
Si Si5 0.283366 0.417479 0.438139
Si Si6 0.628068 0.916712 0.438286
O O1 0.195498 0.086760 0.250000
O O2 0.194559 0.250000 0.000000
O O3 0.241706 0.020399 0.009991
O O4 0.160412 0.990642 0.994449
O O5 0.882752 0.085283 0.250000
O O6 0.883300 0.250000 0.000000
O O7 0.919673 0.995124 0.997071
O O8 0.537493 0.750000 0.500000
O O9 0.500000 0.500000 0.500000
O O10 0.537773 0.586255 0.750000
O O11 0.583836 0.520061 0.513495
O O12 0.038995 0.250000 0.500000
O O13 0.039145 0.085752 0.250000
O O14 0.000000 0.000000 0.500000
O O15 0.284507 0.250000 0.500000
O O16 0.279960 0.416744 0.250000
O O17 0.327805 0.483070 0.484723
O O18 0.627907 0.750000 0.500000
O O19 0.628368 0.911789 0.250000
#
# Coordination Sequence:
#
# PCOD9435346 Si02
#       6
#     8   8   8   8   8   8
#     4  11  21  35  55  83 114 147 183 226 274 326
#     4  12  25  43  63  87 117 154 194 236 281 332
#     4  10  19  32  49  72 100 134 172 216 265 320
#     4  12  25  44  67  95 126 160 197 239 285 334
#     4   9  15  26  45  72 102 134 170 217 268 320
#     4   8  15  26  43  67  97 129 167 212 263 316
#
# _framework density 18.799232
#
# number of rings (size 3 to 8) (size 9 to 14) (size 15 to 20)
#    0.000    1.667    0.000    7.500    0.000    1.333 
#    0.000    0.000    0.000    1.000    0.000    4.667 
#    0.000    0.000    0.000    0.000    0.000    0.000 
#
# Total GULP energy -267865.739633 kJ/mol
# GULP energy per Si atom -5580.536242 kJ/mol
# Density = 1.875644 g / cm^3
# Si number density = 18.799232 Si / 1000 Ang^3
#
#
#
# Elastic Constant Matrix: (Units=GPa)
#
#
# Indices 1 2 3 4 5 6 
#
# 1 243.6105 80.1418 77.7564 0.0000 0.0000 0.0000
# 2 80.1418 83.0216 41.9802 0.0000 0.0000 0.0000
# 3 77.7564 41.9802 149.4827 0.0000 0.0000 0.0000
# 4 0.0000 0.0000 0.0000 27.0708 0.0000 0.0000
# 5 0.0000 0.0000 0.0000 0.0000 33.4421 0.0000
# 6 0.0000 0.0000 0.0000 0.0000 0.0000 17.1413
#
#
#
# Elastic Compliance Matrix: (Units=1/GPa)
#
#
# Indices 1 2 3 4 5 6 
#
# 1 0.006433 -0.005266 -0.001868 0.000000 0.000000 0.000000
# 2 -0.005266 0.018349 -0.002414 0.000000 0.000000 0.000000
# 3 -0.001868 -0.002414 0.008339 0.000000 0.000000 0.000000
# 4 0.000000 0.000000 0.000000 0.036940 0.000000 0.000000
# 5 0.000000 0.000000 0.000000 0.000000 0.029902 0.000000
# 6 0.000000 0.000000 0.000000 0.000000 0.000000 0.058339
#
#
# Mechanical properties :
#
#
# Convention : Reuss Voigt Hill
#
# Bulk Modulus (GPa) = 71.29293 97.31908 84.30601
# Shear Modulus (GPa) = 27.46154 33.94660 30.70407
#
# Velocity S-wave (km/s) = 3.82616 4.25401 4.04575
# Velocity P-wave (km/s) = 7.58452 8.71830 8.17110
#
# Compressibility (1/GPa) = 0.01402664
#
# Stress axis : x y z
#
# Youngs Moduli (GPa) = 155.44014 54.49942 119.91687
#
# Poissons Ratio (x) = 0.28698 0.22396
# Poissons Ratio (y) = 0.81852 0.28947
# Poissons Ratio (z) = 0.29030 0.13156
#
# Static dielectric constant tensor:
#      x y z
#    x 1.707500 0.000000 0.000000 
#    y 0.000000 1.616450 0.000000 
#    z 0.000000 0.000000 1.632580 
# 
# From -- ./inp_files/9923.got.cif
#   From: 2010.05.17/outbox.cif.g08.bks.cpg/sg57_5_cif.got.tgz:9923.got - 2010.06.03 13:58:18.
