data_PCOD9435819
_publ_section_title
;
Structure prediction by ZEFSAII (Michael W. Deem and Ramdas Pophale) SiO2 
 PCOD9435819
Probable space group: P B C M
;
_chemical_formula_sum "Si O2"
_cell_formula_units_Z 64
_cell_length_a 21.969948
_cell_length_b 19.595557
_cell_length_c 8.879969
_cell_angle_alpha 90.000000
_cell_angle_beta 90.000000
_cell_angle_gamma 90.000000
_cell_volume 3822.945365
_symmetry_space_group_name_H-M "P B C M"
_symmetry_group_IT_number 57
_symmetry_cell_setting 'orthorhombic'
loop_
_space_group_symop_operation_xyz
x,y,z
-x,-y,1/2+z
x,1/2-y,-z
-x,1/2+y,1/2-z
-x,-y,-z
x,y,1/2-z
-x,1/2+y,z
x,1/2-y,1/2+z
loop_
_atom_site_type_symbol
_atom_site_label
_atom_site_fract_x
_atom_site_fract_y
_atom_site_fract_z
Si Si1 0.318338 0.055940 0.571738
Si Si2 0.772758 0.362565 0.426229
Si Si3 0.893784 0.319086 0.928992
Si Si4 0.192088 0.002550 0.571775
Si Si5 0.396029 0.323912 0.929427
Si Si6 0.059921 0.531536 0.070724
Si Si7 0.537863 0.324465 0.569793
Si Si8 0.355594 0.589566 0.930943
O O1 0.330310 0.055496 0.750000
O O2 0.244789 0.058127 0.551260
O O3 0.352748 0.118286 0.495704
O O4 0.341439 0.984215 0.502542
O O5 0.780619 0.346796 0.250000
O O6 0.822842 0.323665 0.523193
O O7 0.789089 0.441198 0.462215
O O8 0.701490 0.359876 0.466728
O O9 0.897985 0.315787 0.750000
O O10 0.924449 0.390668 0.979886
O O11 0.919845 0.250000 0.000000
O O12 0.196170 0.980541 0.750000
O O13 0.120807 0.013680 0.542374
O O14 0.389503 0.320261 0.750000
O O15 0.466999 0.340453 0.962809
O O16 0.383034 0.250000 0.000000
O O17 0.051736 0.534496 0.250000
O O18 0.000000 0.500000 0.000000
O O19 0.550412 0.250000 0.500000
O O20 0.545866 0.322437 0.750000
O O21 0.583271 0.378602 0.496728
O O22 0.358061 0.583164 0.750000
#
# Coordination Sequence:
#
# PCOD9435819 Si02
#       8
#     8   8   8   8   8   8   8   8
#     4  10  19  33  55  78 101 131 165 206 254 298
#     4   9  17  29  46  69  96 127 161 197 239 285
#     4  10  20  33  49  71 100 133 170 210 247 288
#     4   8  16  31  49  72 101 128 157 195 237 284
#     4  10  21  37  55  75  98 126 165 211 259 312
#     4   9  18  32  51  76 104 134 168 203 242 291
#     4  10  21  36  52  69  94 130 168 208 255 306
#     4  10  20  33  50  74 103 133 168 208 249 297
#
# _framework density 16.741019999999999
#
# number of rings (size 3 to 8) (size 9 to 14) (size 15 to 20)
#    0.000    2.500    0.000    3.000    0.000    7.000 
#    0.000    0.000    0.000    0.750    0.000    1.750 
#    0.000    0.000    0.000    0.000    0.000    0.000 
#
# Total GULP energy -356583.085047 kJ/mol
# GULP energy per Si atom -5571.610704 kJ/mol
# Density = 1.670292 g / cm^3
# Si number density = 16.741020 Si / 1000 Ang^3
#
#
#
# Elastic Constant Matrix: (Units=GPa)
#
#
# Indices 1 2 3 4 5 6 
#
# 1 127.2261 79.4285 51.6682 0.0000 0.0000 0.0000
# 2 79.4285 90.8903 39.0452 0.0000 0.0000 0.0000
# 3 51.6682 39.0452 51.6238 0.0000 0.0000 0.0000
# 4 0.0000 0.0000 0.0000 30.4568 0.0000 0.0000
# 5 0.0000 0.0000 0.0000 0.0000 27.6102 0.0000
# 6 0.0000 0.0000 0.0000 0.0000 0.0000 15.5363
#
#
#
# Elastic Compliance Matrix: (Units=1/GPa)
#
#
# Indices 1 2 3 4 5 6 
#
# 1 0.020417 -0.013426 -0.010280 0.000000 0.000000 0.000000
# 2 -0.013426 0.025127 -0.005567 0.000000 0.000000 0.000000
# 3 -0.010280 -0.005567 0.033870 0.000000 0.000000 0.000000
# 4 0.000000 0.000000 0.000000 0.032833 0.000000 0.000000
# 5 0.000000 0.000000 0.000000 0.000000 0.036219 0.000000
# 6 0.000000 0.000000 0.000000 0.000000 0.000000 0.064365
#
#
# Mechanical properties :
#
#
# Convention : Reuss Voigt Hill
#
# Bulk Modulus (GPa) = 47.91952 67.78044 57.84998
# Shear Modulus (GPa) = 17.96423 21.36056 19.66239
#
# Velocity S-wave (km/s) = 3.27932 3.57591 3.43082
# Velocity P-wave (km/s) = 6.55933 7.59111 7.09400
#
# Compressibility (1/GPa) = 0.02086832
#
# Stress axis : x y z
#
# Youngs Moduli (GPa) = 48.97942 39.79852 29.52495
#
# Poissons Ratio (x) = 0.53434 0.30351
# Poissons Ratio (y) = 0.65760 0.16435
# Poissons Ratio (z) = 0.50349 0.22154
#
# Static dielectric constant tensor:
#      x y z
#    x 1.579640 0.000000 0.000000 
#    y 0.000000 1.558100 0.000000 
#    z 0.000000 0.000000 1.563560 
# 
# From -- ./inp_files/8442.got.cif
#   From: 2010.05.17/outbox.cif.g08.bks.cpg/sg57_5_cif.got.tgz:8442.got - 2010.06.03 13:58:18.
