data_PCOD9435491
_publ_section_title
;
Structure prediction by ZEFSAII (Michael W. Deem and Ramdas Pophale) SiO2 
 PCOD9435491
Probable space group: P B C M
;
_chemical_formula_sum "Si O2"
_cell_formula_units_Z 40
_cell_length_a 13.279625
_cell_length_b 19.810678
_cell_length_c 8.811199
_cell_angle_alpha 90.000000
_cell_angle_beta 90.000000
_cell_angle_gamma 90.000000
_cell_volume 2318.035913
_symmetry_space_group_name_H-M "P B C M"
_symmetry_group_IT_number 57
_symmetry_cell_setting 'orthorhombic'
loop_
_space_group_symop_operation_xyz
x,y,z
-x,-y,1/2+z
x,1/2-y,-z
-x,1/2+y,1/2-z
-x,-y,-z
x,y,1/2-z
-x,1/2+y,z
x,1/2-y,1/2+z
loop_
_atom_site_type_symbol
_atom_site_label
_atom_site_fract_x
_atom_site_fract_y
_atom_site_fract_z
Si Si1 0.613831 0.571666 0.432493
Si Si2 0.382706 0.575601 0.068758
Si Si3 0.781589 0.174837 0.568509
Si Si4 0.210276 0.325147 0.568050
Si Si5 0.994909 0.674477 0.568271
O O1 0.617525 0.562202 0.250000
O O2 0.636059 0.500331 0.510839
O O3 0.499144 0.591776 0.472012
O O4 0.695422 0.628037 0.473400
O O5 0.373435 0.578336 0.250000
O O6 0.304769 0.627014 0.994985
O O7 0.773076 0.250000 0.500000
O O8 0.774605 0.179833 0.750000
O O9 0.894017 0.146485 0.532238
O O10 0.221982 0.250000 0.500000
O O11 0.203893 0.320089 0.750000
O O12 0.105630 0.355956 0.504595
O O13 0.997467 0.750000 0.500000
O O14 0.983706 0.677208 0.750000
#
# Coordination Sequence:
#
# PCOD9435491 Si02
#       5
#     8   8   8   8   8
#     4   9  20  37  53  73 102 135 169 207 253 301
#     4  10  20  35  55  76 100 133 171 209 253 303
#     4  10  20  34  53  77 105 134 167 209 251 296
#     4  10  19  32  52  76 103 132 165 206 249 296
#     4   9  17  30  49  73 101 132 165 202 248 297
#
# _framework density 17.255987999999999
#
# number of rings (size 3 to 8) (size 9 to 14) (size 15 to 20)
#    0.000    2.400    0.000    3.600    0.000    5.600 
#    0.000    3.000    0.000    0.000    0.000    0.000 
#    0.000    0.000    0.000    0.000    0.000    0.000 
#
# Total GULP energy -223007.451208 kJ/mol
# GULP energy per Si atom -5575.186280 kJ/mol
# Density = 1.721671 g / cm^3
# Si number density = 17.255988 Si / 1000 Ang^3
#
#
#
# Elastic Constant Matrix: (Units=GPa)
#
#
# Indices 1 2 3 4 5 6 
#
# 1 182.2903 98.6359 68.7289 0.0000 0.0000 0.0000
# 2 98.6359 75.9690 43.1134 0.0000 0.0000 0.0000
# 3 68.7289 43.1134 60.2049 0.0000 0.0000 0.0000
# 4 0.0000 0.0000 0.0000 28.2853 0.0000 0.0000
# 5 0.0000 0.0000 0.0000 0.0000 33.1610 0.0000
# 6 0.0000 0.0000 0.0000 0.0000 0.0000 -35.3272
#
#
#
# Elastic Compliance Matrix: (Units=1/GPa)
#
#
# Indices 1 2 3 4 5 6 
#
# 1 0.020131 -0.022061 -0.007183 0.000000 0.000000 0.000000
# 2 -0.022061 0.046352 -0.008008 0.000000 0.000000 0.000000
# 3 -0.007183 -0.008008 0.030545 0.000000 0.000000 0.000000
# 4 0.000000 0.000000 0.000000 0.035354 0.000000 0.000000
# 5 0.000000 0.000000 0.000000 0.000000 0.030156 0.000000
# 6 0.000000 0.000000 0.000000 0.000000 0.000000 -0.028307
#
#
# Mechanical properties :
#
#
# Convention : Reuss Voigt Hill
#
# Bulk Modulus (GPa) = 44.39995 82.15784 63.27890
# Shear Modulus (GPa) = 23.12209 12.42289 17.77249
#
# Velocity S-wave (km/s) = 3.66450 2.68604 3.21274
# Velocity P-wave (km/s) = 6.60990 7.57194 7.10722
#
# Compressibility (1/GPa) = 0.02252255
#
# Stress axis : x y z
#
# Youngs Moduli (GPa) = 49.67428 21.57423 32.73870
#
# Poissons Ratio (x) = 0.47595 0.23517
# Poissons Ratio (y) = 1.09587 0.26218
# Poissons Ratio (z) = 0.35682 0.17277
#
# Static dielectric constant tensor:
#      x y z
#    x 1.622330 0.000000 0.000000 
#    y 0.000000 1.544920 0.000000 
#    z 0.000000 0.000000 1.577250 
# 
# From -- ./inp_files/2891.got.cif
#   From: 2010.05.17/outbox.cif.g08.bks.cpg/sg57_2_cif.got.tgz:2891.got - 2010.06.03 13:58:18.
