data_PCOD9435458
_publ_section_title
;
Structure prediction by ZEFSAII (Michael W. Deem and Ramdas Pophale) SiO2 
 PCOD9435458
Probable space group: P B C M
;
_chemical_formula_sum "Si O2"
_cell_formula_units_Z 64
_cell_length_a 17.018256
_cell_length_b 23.635370
_cell_length_c 7.939575
_cell_angle_alpha 90.000000
_cell_angle_beta 90.000000
_cell_angle_gamma 90.000000
_cell_volume 3193.557303
_symmetry_space_group_name_H-M "P B C M"
_symmetry_group_IT_number 57
_symmetry_cell_setting 'orthorhombic'
loop_
_space_group_symop_operation_xyz
x,y,z
-x,-y,1/2+z
x,1/2-y,-z
-x,1/2+y,1/2-z
-x,-y,-z
x,y,1/2-z
-x,1/2+y,z
x,1/2-y,1/2+z
loop_
_atom_site_type_symbol
_atom_site_label
_atom_site_fract_x
_atom_site_fract_y
_atom_site_fract_z
Si Si1 0.023310 0.926247 0.553951
Si Si2 0.491886 0.184998 0.557786
Si Si3 0.989477 0.688751 0.549488
Si Si4 0.545644 0.059120 0.546776
Si Si5 0.657200 0.631399 0.446130
Si Si6 0.809058 0.812334 0.049195
Si Si7 0.133691 0.020714 0.443856
Si Si8 0.310146 0.008747 0.043947
O O1 0.024825 0.943690 0.750000
O O2 0.037327 0.860599 0.535881
O O3 0.934893 0.938685 0.483620
O O4 0.087623 0.961572 0.455293
O O5 0.509662 0.250000 0.500000
O O6 0.517719 0.184065 0.750000
O O7 0.521783 0.122970 0.483826
O O8 0.397921 0.175161 0.542270
O O9 0.018712 0.750000 0.500000
O O10 0.989741 0.682073 0.750000
O O11 0.898722 0.684493 0.488426
O O12 0.540350 0.061644 0.750000
O O13 0.500000 0.000000 0.500000
O O14 0.635477 0.043767 0.494914
O O15 0.636754 0.635205 0.250000
O O16 0.749042 0.644453 0.467751
O O17 0.647404 0.567221 0.507505
O O18 0.807790 0.819211 0.250000
O O19 0.780432 0.750000 0.000000
O O20 0.144657 0.038403 0.250000
O O21 0.220267 0.012744 0.518475
O O22 0.307688 0.008847 0.250000
#
# Coordination Sequence:
#
# PCOD9435458 Si02
#       8
#     8   8   8   8   8   8   8   8
#     4  10  19  32  51  76 108 139 175 221 267 321
#     4  11  23  37  55  79 109 145 184 226 274 331
#     4  10  20  33  50  71  98 136 177 219 266 320
#     4  10  20  37  59  83 110 141 182 230 280 332
#     4  11  20  32  52  75 105 140 176 219 268 325
#     4  10  20  32  45  66  99 136 177 219 263 318
#     4   9  18  33  53  77 105 140 178 216 267 325
#     4   9  18  33  55  80 105 137 177 221 272 329
#
# _framework density 20.040347000000001
#
# number of rings (size 3 to 8) (size 9 to 14) (size 15 to 20)
#    0.000    2.000    1.250    3.000    0.000    3.500 
#    0.000    1.875    0.000    0.750    0.000    1.750 
#    0.000    0.000    0.000    0.000    0.000    0.000 
#
# Total GULP energy -356539.045449 kJ/mol
# GULP energy per Si atom -5570.922585 kJ/mol
# Density = 1.999473 g / cm^3
# Si number density = 20.040347 Si / 1000 Ang^3
#
#
#
# Elastic Constant Matrix: (Units=GPa)
#
#
# Indices 1 2 3 4 5 6 
#
# 1 55.3965 33.0759 1.2879 0.0000 0.0000 0.0000
# 2 33.0759 153.9050 10.7527 0.0000 0.0000 0.0000
# 3 1.2879 10.7527 35.6190 0.0000 0.0000 0.0000
# 4 0.0000 0.0000 0.0000 17.5163 0.0000 0.0000
# 5 0.0000 0.0000 0.0000 0.0000 12.2115 0.0000
# 6 0.0000 0.0000 0.0000 0.0000 0.0000 22.2800
#
#
#
# Elastic Compliance Matrix: (Units=1/GPa)
#
#
# Indices 1 2 3 4 5 6 
#
# 1 0.020722 -0.004496 0.000608 0.000000 0.000000 0.000000
# 2 -0.004496 0.007613 -0.002136 0.000000 0.000000 0.000000
# 3 0.000608 -0.002136 0.028698 0.000000 0.000000 0.000000
# 4 0.000000 0.000000 0.000000 0.057090 0.000000 0.000000
# 5 0.000000 0.000000 0.000000 0.000000 0.081890 0.000000
# 6 0.000000 0.000000 0.000000 0.000000 0.000000 0.044883
#
#
# Mechanical properties :
#
#
# Convention : Reuss Voigt Hill
#
# Bulk Modulus (GPa) = 22.22942 37.23927 29.73434
# Shear Modulus (GPa) = 18.66105 23.72182 21.19143
#
# Velocity S-wave (km/s) = 3.05482 3.44423 3.25536
# Velocity P-wave (km/s) = 4.85376 5.86851 5.38509
#
# Compressibility (1/GPa) = 0.04498543
#
# Stress axis : x y z
#
# Youngs Moduli (GPa) = 48.25809 131.35544 34.84604
#
# Poissons Ratio (x) = 0.59055 -0.02118
# Poissons Ratio (y) = 0.21696 0.07442
# Poissons Ratio (z) = -0.02934 0.28053
#
# Static dielectric constant tensor:
#      x y z
#    x 1.732560 0.000000 0.000000 
#    y 0.000000 1.791500 0.000000 
#    z 0.000000 0.000000 1.729830 
# 
# From -- ./inp_files/7423.got.cif
#   From: 2010.05.17/outbox.cif.g08.bks.cpg/sg57_4_cif.got.tgz:7423.got - 2010.06.03 13:58:18.
