data_PCOD9435869
_publ_section_title
;
Structure prediction by ZEFSAII (Michael W. Deem and Ramdas Pophale) SiO2 
 PCOD9435869
Probable space group: P B C M
;
_chemical_formula_sum "Si O2"
_cell_formula_units_Z 56
_cell_length_a 20.285750
_cell_length_b 15.899421
_cell_length_c 8.731130
_cell_angle_alpha 90.000000
_cell_angle_beta 90.000000
_cell_angle_gamma 90.000000
_cell_volume 2816.066023
_symmetry_space_group_name_H-M "P B C M"
_symmetry_group_IT_number 57
_symmetry_cell_setting 'orthorhombic'
loop_
_space_group_symop_operation_xyz
x,y,z
-x,-y,1/2+z
x,1/2-y,-z
-x,1/2+y,1/2-z
-x,-y,-z
x,y,1/2-z
-x,1/2+y,z
x,1/2-y,1/2+z
loop_
_atom_site_type_symbol
_atom_site_label
_atom_site_fract_x
_atom_site_fract_y
_atom_site_fract_z
Si Si1 0.331957 0.343413 0.566381
Si Si2 0.250670 0.873622 0.576168
Si Si3 0.378529 0.663059 0.572925
Si Si4 0.878449 0.177707 0.923414
Si Si5 0.426815 0.490171 0.067485
Si Si6 0.206300 0.067230 0.570465
Si Si7 0.070883 0.488686 0.922770
O O1 0.345393 0.250000 0.500000
O O2 0.336091 0.342046 0.750000
O O3 0.383924 0.413515 0.503318
O O4 0.258404 0.372734 0.515052
O O5 0.274121 0.857136 0.750000
O O6 0.299924 0.838873 0.448760
O O7 0.181156 0.832094 0.542309
O O8 0.238364 0.973576 0.558950
O O9 0.404014 0.750000 0.500000
O O10 0.397797 0.655762 0.750000
O O11 0.396646 0.580288 0.477725
O O12 0.859672 0.197950 0.750000
O O13 0.907009 0.085303 0.916339
O O14 0.922831 0.250000 0.000000
O O15 0.428083 0.479405 0.250000
O O16 0.500000 0.500000 0.000000
O O17 0.203988 0.089324 0.750000
O O18 0.131668 0.059874 0.505474
O O19 0.064123 0.455181 0.750000
O O20 0.000000 0.500000 0.000000
#
# Coordination Sequence:
#
# PCOD9435869 Si02
#       7
#     8   8   8   8   8   8   8
#     4  12  25  44  71 102 135 176 226 282 338 398
#     4  10  19  33  56  85 120 157 195 242 299 363
#     4  12  24  39  61  91 127 166 206 254 311 376
#     4  10  20  33  51  78 112 148 191 240 295 361
#     4  12  26  47  70  97 131 171 218 270 332 398
#     4  10  20  37  63  92 125 165 212 265 322 384
#     4  10  21  37  58  85 119 161 209 261 322 390
#
# _framework density 19.885898000000001
#
# number of rings (size 3 to 8) (size 9 to 14) (size 15 to 20)
#    0.000    1.143    1.429    6.000    0.000    3.429 
#    0.000    3.571    0.000    1.714    0.000    0.000 
#    0.000    0.000    0.000    0.000    0.000    0.000 
#
# Total GULP energy -312406.089872 kJ/mol
# GULP energy per Si atom -5578.680176 kJ/mol
# Density = 1.984064 g / cm^3
# Si number density = 19.885898 Si / 1000 Ang^3
#
#
#
# Elastic Constant Matrix: (Units=GPa)
#
#
# Indices 1 2 3 4 5 6 
#
# 1 112.8131 40.2011 57.2056 0.0000 0.0000 0.0000
# 2 40.2011 116.1605 62.2359 0.0000 0.0000 0.0000
# 3 57.2056 62.2359 176.1107 0.0000 0.0000 0.0000
# 4 0.0000 0.0000 0.0000 33.4623 0.0000 0.0000
# 5 0.0000 0.0000 0.0000 0.0000 29.3605 0.0000
# 6 0.0000 0.0000 0.0000 0.0000 0.0000 -0.4572
#
#
#
# Elastic Compliance Matrix: (Units=1/GPa)
#
#
# Indices 1 2 3 4 5 6 
#
# 1 0.011112 -0.002358 -0.002776 0.000000 0.000000 0.000000
# 2 -0.002358 0.011120 -0.003164 0.000000 0.000000 0.000000
# 3 -0.002776 -0.003164 0.007698 0.000000 0.000000 0.000000
# 4 0.000000 0.000000 0.000000 0.029884 0.000000 0.000000
# 5 0.000000 0.000000 0.000000 0.000000 0.034059 0.000000
# 6 0.000000 0.000000 0.000000 0.000000 0.000000 -2.187058
#
#
# Mechanical properties :
#
#
# Convention : Reuss Voigt Hill
#
# Bulk Modulus (GPa) = 74.99631 80.48550 77.74091
# Shear Modulus (GPa) = -2.41296 28.83589 13.21146
#
# Velocity S-wave (km/s) = -1.10274 3.81211 2.58032
# Velocity P-wave (km/s) = 6.01447 7.74195 6.93223
#
# Compressibility (1/GPa) = 0.01333399
#
# Stress axis : x y z
#
# Youngs Moduli (GPa) = 89.98964 89.92827 129.90355
#
# Poissons Ratio (x) = 0.21209 0.36063
# Poissons Ratio (y) = 0.21223 0.41097
# Poissons Ratio (z) = 0.24983 0.28450
#
# Static dielectric constant tensor:
#      x y z
#    x 1.787630 0.000000 0.000000 
#    y 0.000000 1.779880 0.000000 
#    z 0.000000 0.000000 1.693090 
# 
# From -- ./inp_files/8108.got.cif
#   From: 2010.05.17/outbox.cif.g08.bks.cpg/sg57_5_cif.got.tgz:8108.got - 2010.06.03 13:58:18.
