data_PCOD9435339
_publ_section_title
;
Structure prediction by ZEFSAII (Michael W. Deem and Ramdas Pophale) SiO2 
 PCOD9435339
Probable space group: P B C M
;
_chemical_formula_sum "Si O2"
_cell_formula_units_Z 56
_cell_length_a 15.238851
_cell_length_b 23.840784
_cell_length_c 8.280021
_cell_angle_alpha 90.000000
_cell_angle_beta 90.000000
_cell_angle_gamma 90.000000
_cell_volume 3008.182594
_symmetry_space_group_name_H-M "P B C M"
_symmetry_group_IT_number 57
_symmetry_cell_setting 'orthorhombic'
loop_
_space_group_symop_operation_xyz
x,y,z
-x,-y,1/2+z
x,1/2-y,-z
-x,1/2+y,1/2-z
-x,-y,-z
x,y,1/2-z
-x,1/2+y,z
x,1/2-y,1/2+z
loop_
_atom_site_type_symbol
_atom_site_label
_atom_site_fract_x
_atom_site_fract_y
_atom_site_fract_z
Si Si1 0.243931 0.423892 0.051473
Si Si2 0.599327 0.004641 0.444877
Si Si3 0.159641 0.812239 0.063726
Si Si4 0.109547 0.985659 0.938843
Si Si5 0.276276 0.900404 0.562323
Si Si6 0.000919 0.616601 0.439596
Si Si7 0.164438 0.186213 0.940145
O O1 0.240554 0.426067 0.250000
O O2 0.332347 0.456048 0.000963
O O3 0.156635 0.458277 0.993287
O O4 0.236051 0.359291 0.998804
O O5 0.602229 0.004000 0.250000
O O6 0.500000 0.000000 0.500000
O O7 0.641435 0.063811 0.496761
O O8 0.132019 0.812984 0.250000
O O9 0.168929 0.750000 0.000000
O O10 0.248422 0.847278 0.040412
O O11 0.086768 0.844641 0.959952
O O12 0.089009 0.995130 0.750000
O O13 0.194526 0.944000 0.942343
O O14 0.031383 0.945195 0.006156
O O15 0.287962 0.884325 0.750000
O O16 0.981214 0.610358 0.250000
O O17 0.925628 0.652954 0.523150
O O18 0.175071 0.190115 0.750000
O O19 0.165015 0.250000 0.000000
#
# Coordination Sequence:
#
# PCOD9435339 Si02
#       7
#     8   8   8   8   8   8   8
#     4   8  16  32  52  73  99 132 164 198 249 304
#     4   9  17  32  56  82 104 124 151 193 247 305
#     4  11  20  30  46  68  96 131 170 206 240 284
#     4   7  12  26  48  70  93 123 157 196 244 292
#     4   8  15  29  47  69  99 129 155 191 241 291
#     4  10  19  32  49  70  98 130 167 210 252 292
#     4  11  22  35  50  68  95 133 177 216 246 283
#
# _framework density 18.615891999999999
#
# number of rings (size 3 to 8) (size 9 to 14) (size 15 to 20)
#    0.000    2.857    0.000    5.143    0.000    1.143 
#    0.000    1.429    0.000    8.571    0.000    4.000 
#    0.000    0.000    0.000    0.000    0.000    0.000 
#
# Total GULP energy -311971.961861 kJ/mol
# GULP energy per Si atom -5570.927890 kJ/mol
# Density = 1.857352 g / cm^3
# Si number density = 18.615892 Si / 1000 Ang^3
#
#
#
# Elastic Constant Matrix: (Units=GPa)
#
#
# Indices 1 2 3 4 5 6 
#
# 1 87.6720 38.2814 -3.8298 0.0000 0.0000 0.0000
# 2 38.2814 163.1177 15.0123 0.0000 0.0000 0.0000
# 3 -3.8298 15.0123 15.2217 0.0000 0.0000 0.0000
# 4 0.0000 0.0000 0.0000 17.1420 0.0000 0.0000
# 5 0.0000 0.0000 0.0000 0.0000 21.8352 0.0000
# 6 0.0000 0.0000 0.0000 0.0000 0.0000 11.2922
#
#
#
# Elastic Compliance Matrix: (Units=1/GPa)
#
#
# Indices 1 2 3 4 5 6 
#
# 1 0.013372 -0.003792 0.007104 0.000000 0.000000 0.000000
# 2 -0.003792 0.007818 -0.008664 0.000000 0.000000 0.000000
# 3 0.007104 -0.008664 0.076028 0.000000 0.000000 0.000000
# 4 0.000000 0.000000 0.000000 0.058336 0.000000 0.000000
# 5 0.000000 0.000000 0.000000 0.000000 0.045798 0.000000
# 6 0.000000 0.000000 0.000000 0.000000 0.000000 0.088556
#
#
# Mechanical properties :
#
#
# Convention : Reuss Voigt Hill
#
# Bulk Modulus (GPa) = 11.55877 40.54879 26.05378
# Shear Modulus (GPa) = 15.17674 24.49039 19.83357
#
# Velocity S-wave (km/s) = 2.85837 3.63100 3.26760
# Velocity P-wave (km/s) = 4.13718 6.27758 5.31622
#
# Compressibility (1/GPa) = 0.08651439
#
# Stress axis : x y z
#
# Youngs Moduli (GPa) = 74.78142 127.91118 13.15297
#
# Poissons Ratio (x) = 0.48506 -0.09344
# Poissons Ratio (y) = 0.28358 0.11396
# Poissons Ratio (z) = -0.53128 1.10828
#
# Static dielectric constant tensor:
#      x y z
#    x 1.671570 0.000000 0.000000 
#    y 0.000000 1.702930 0.000000 
#    z 0.000000 0.000000 1.709140 
# 
# From -- ./inp_files/5129.got.cif
#   From: 2010.05.17/outbox.cif.g08.bks.cpg/sg57_3_cif.got.tgz:5129.got - 2010.06.03 13:58:18.
