data_PCOD9435918
_publ_section_title
;
Structure prediction by ZEFSAII (Michael W. Deem and Ramdas Pophale) SiO2 
 PCOD9435918
Probable space group: P B C M
;
_chemical_formula_sum "Si O2"
_cell_formula_units_Z 56
_cell_length_a 21.635336
_cell_length_b 14.596769
_cell_length_c 8.484638
_cell_angle_alpha 90.000000
_cell_angle_beta 90.000000
_cell_angle_gamma 90.000000
_cell_volume 2679.499604
_symmetry_space_group_name_H-M "P B C M"
_symmetry_group_IT_number 57
_symmetry_cell_setting 'orthorhombic'
loop_
_space_group_symop_operation_xyz
x,y,z
-x,-y,1/2+z
x,1/2-y,-z
-x,1/2+y,1/2-z
-x,-y,-z
x,y,1/2-z
-x,1/2+y,z
x,1/2-y,1/2+z
loop_
_atom_site_type_symbol
_atom_site_label
_atom_site_fract_x
_atom_site_fract_y
_atom_site_fract_z
Si Si1 0.893979 0.096186 0.426082
Si Si2 0.014973 0.346444 0.439278
Si Si3 0.271280 0.457001 0.059576
Si Si4 0.591390 0.966156 0.440412
Si Si5 0.770299 0.346976 0.066057
Si Si6 0.529258 0.353311 0.438975
Si Si7 0.148195 0.386842 0.427100
O O1 0.895594 0.136593 0.250000
O O2 0.844101 0.147404 0.532951
O O3 0.962330 0.087592 0.495197
O O4 0.867504 0.994150 0.411993
O O5 0.989688 0.250000 0.500000
O O6 0.017948 0.353907 0.250000
O O7 0.085015 0.351969 0.504883
O O8 0.267783 0.451067 0.250000
O O9 0.340598 0.434771 0.008154
O O10 0.216210 0.390754 0.997526
O O11 0.258180 0.562708 0.014120
O O12 0.590517 0.970091 0.250000
O O13 0.576614 0.068459 0.501989
O O14 0.537285 0.896124 0.490104
O O15 0.758256 0.351858 0.250000
O O16 0.747348 0.250000 0.000000
O O17 0.538708 0.250000 0.500000
O O18 0.531172 0.351037 0.250000
O O19 0.152343 0.346032 0.250000
#
# Coordination Sequence:
#
# PCOD9435918 Si02
#       7
#     8   8   8   8   8   8   8
#     4  10  19  34  53  72  93 124 165 211 261 310
#     4  11  21  33  48  70  97 126 161 205 255 304
#     4   9  18  36  57  76 100 134 174 214 258 305
#     4   9  19  36  59  84 112 147 185 226 269 315
#     4  11  21  33  49  73 103 135 170 211 261 316
#     4  10  20  35  57  86 118 150 184 223 267 315
#     4   8  17  33  53  72  94 125 162 204 250 302
#
# _framework density 20.899425000000001
#
# number of rings (size 3 to 8) (size 9 to 14) (size 15 to 20)
#    0.000    2.286    0.000    4.286    0.000    1.714 
#    0.000    7.143    0.000    0.000    0.000    0.000 
#    0.000    0.000    0.000    0.000    0.000    0.000 
#
# Total GULP energy -312115.493875 kJ/mol
# GULP energy per Si atom -5573.490962 kJ/mol
# Density = 2.085186 g / cm^3
# Si number density = 20.899425 Si / 1000 Ang^3
#
#
#
# Elastic Constant Matrix: (Units=GPa)
#
#
# Indices 1 2 3 4 5 6 
#
# 1 112.4818 -19.4711 6.1120 0.0000 0.0000 0.0000
# 2 -19.4711 20.7465 -6.5769 0.0000 0.0000 0.0000
# 3 6.1120 -6.5769 29.6764 0.0000 0.0000 0.0000
# 4 0.0000 0.0000 0.0000 10.4470 0.0000 0.0000
# 5 0.0000 0.0000 0.0000 0.0000 8.7144 0.0000
# 6 0.0000 0.0000 0.0000 0.0000 0.0000 14.2625
#
#
#
# Elastic Compliance Matrix: (Units=1/GPa)
#
#
# Indices 1 2 3 4 5 6 
#
# 1 0.010615 0.009970 0.000023 0.000000 0.000000 0.000000
# 2 0.009970 0.061207 0.011512 0.000000 0.000000 0.000000
# 3 0.000023 0.011512 0.036243 0.000000 0.000000 0.000000
# 4 0.000000 0.000000 0.000000 0.095721 0.000000 0.000000
# 5 0.000000 0.000000 0.000000 0.000000 0.114753 0.000000
# 6 0.000000 0.000000 0.000000 0.000000 0.000000 0.070114
#
#
# Mechanical properties :
#
#
# Convention : Reuss Voigt Hill
#
# Bulk Modulus (GPa) = 6.61927 13.67029 10.14478
# Shear Modulus (GPa) = 12.62620 18.87416 15.75018
#
# Velocity S-wave (km/s) = 2.46060 3.00841 2.74819
# Velocity P-wave (km/s) = 3.35362 4.31539 3.86454
#
# Compressibility (1/GPa) = 0.15107411
#
# Stress axis : x y z
#
# Youngs Moduli (GPa) = 94.20755 16.33801 27.59133
#
# Poissons Ratio (x) = -0.16288 -0.00064
# Poissons Ratio (y) = -0.93922 -0.31762
# Poissons Ratio (z) = -0.00220 -0.18808
#
# Static dielectric constant tensor:
#      x y z
#    x 1.817230 0.000000 0.000000 
#    y 0.000000 1.820790 0.000000 
#    z 0.000000 0.000000 1.728300 
# 
# From -- ./inp_files/8205.got.cif
#   From: 2010.05.17/outbox.cif.g08.bks.cpg/sg57_5_cif.got.tgz:8205.got - 2010.06.03 13:58:18.
