data_PCOD9435755
_publ_section_title
;
Structure prediction by ZEFSAII (Michael W. Deem and Ramdas Pophale) SiO2 
 PCOD9435755
Probable space group: P B C M
;
_chemical_formula_sum "Si O2"
_cell_formula_units_Z 64
_cell_length_a 20.177765
_cell_length_b 8.532613
_cell_length_c 14.461487
_cell_angle_alpha 90.000000
_cell_angle_beta 90.000000
_cell_angle_gamma 90.000000
_cell_volume 2489.820622
_symmetry_space_group_name_H-M "P B C M"
_symmetry_group_IT_number 57
_symmetry_cell_setting 'orthorhombic'
loop_
_space_group_symop_operation_xyz
x,y,z
-x,-y,1/2+z
x,1/2-y,-z
-x,1/2+y,1/2-z
-x,-y,-z
x,y,1/2-z
-x,1/2+y,z
x,1/2-y,1/2+z
loop_
_atom_site_type_symbol
_atom_site_label
_atom_site_fract_x
_atom_site_fract_y
_atom_site_fract_z
Si Si1 0.147437 0.195256 0.395489
Si Si2 0.526373 0.181772 0.862766
Si Si3 0.348843 0.513731 0.644120
Si Si4 0.096366 0.830529 0.636286
Si Si5 0.282446 0.307341 0.104527
Si Si6 0.023226 0.365402 0.145254
Si Si7 0.785654 0.360402 0.137659
Si Si8 0.402527 0.497886 0.362011
O O1 0.137769 0.250000 0.500000
O O2 0.207927 0.303670 0.356404
O O3 0.076166 0.223854 0.351517
O O4 0.174439 0.019800 0.385569
O O5 0.519865 0.187911 0.750000
O O6 0.577973 0.045398 0.892151
O O7 0.562773 0.340822 0.891186
O O8 0.452972 0.138276 0.894593
O O9 0.353600 0.568609 0.750000
O O10 0.325108 0.334933 0.646966
O O11 0.288690 0.614088 0.601413
O O12 0.097062 0.833718 0.750000
O O13 0.170379 0.786477 0.606743
O O14 0.045282 0.695445 0.605270
O O15 0.064146 0.991586 0.602659
O O16 0.327688 0.460141 0.108530
O O17 0.274599 0.250000 0.000000
O O18 0.007552 0.412589 0.250000
O O19 0.781917 0.355110 0.250000
O O20 0.400353 0.500002 0.250000
#
# Coordination Sequence:
#
# PCOD9435755 Si02
#       8
#     8   8   8   8   8   8   8   8
#     4  10  21  36  52  73 103 136 171 212 255 299
#     4   9  18  32  53  81 107 131 165 211 255 296
#     4   9  17  32  54  76 100 133 170 207 251 303
#     4   9  18  32  53  81 107 131 165 211 255 296
#     4  10  21  36  52  73 103 136 171 212 255 299
#     4  10  19  33  54  77 103 134 168 207 251 301
#     4   9  17  32  54  76 100 133 170 207 251 303
#     4  10  19  33  54  77 103 134 168 207 251 301
#
# _framework density 25.704661000000002
#
# number of rings (size 3 to 8) (size 9 to 14) (size 15 to 20)
#    0.000    2.500    0.000    2.250    0.000    6.500 
#    0.000    8.750    0.000    4.500    0.000    0.000 
#    0.000    0.000    0.000    0.000    0.000    0.000 
#
# Total GULP energy -357698.434496 kJ/mol
# GULP energy per Si atom -5589.038039 kJ/mol
# Density = 2.564616 g / cm^3
# Si number density = 25.704661 Si / 1000 Ang^3
#
#
#
# Elastic Constant Matrix: (Units=GPa)
#
#
# Indices 1 2 3 4 5 6 
#
# 1 109.3338 -0.6723 -3.3561 0.0000 0.0000 0.0000
# 2 -0.6723 48.8391 -3.8768 0.0000 0.0000 0.0000
# 3 -3.3561 -3.8768 73.8065 0.0000 0.0000 0.0000
# 4 0.0000 0.0000 0.0000 10.8881 0.0000 0.0000
# 5 0.0000 0.0000 0.0000 0.0000 26.3356 0.0000
# 6 0.0000 0.0000 0.0000 0.0000 0.0000 30.4364
#
#
#
# Elastic Compliance Matrix: (Units=1/GPa)
#
#
# Indices 1 2 3 4 5 6 
#
# 1 0.009160 0.000160 0.000425 0.000000 0.000000 0.000000
# 2 0.000160 0.020564 0.001087 0.000000 0.000000 0.000000
# 3 0.000425 0.001087 0.013625 0.000000 0.000000 0.000000
# 4 0.000000 0.000000 0.000000 0.091844 0.000000 0.000000
# 5 0.000000 0.000000 0.000000 0.000000 0.037971 0.000000
# 6 0.000000 0.000000 0.000000 0.000000 0.000000 0.032855
#
#
# Mechanical properties :
#
#
# Convention : Reuss Voigt Hill
#
# Bulk Modulus (GPa) = 21.41603 24.01878 22.71740
# Shear Modulus (GPa) = 22.91051 29.52433 26.21742
#
# Velocity S-wave (km/s) = 2.98870 3.39277 3.19713
# Velocity P-wave (km/s) = 4.50105 4.97115 4.74193
#
# Compressibility (1/GPa) = 0.04669399
#
# Stress axis : x y z
#
# Youngs Moduli (GPa) = 109.16643 48.62889 73.39246
#
# Poissons Ratio (x) = -0.00777 -0.03119
# Poissons Ratio (y) = -0.01745 -0.07981
# Poissons Ratio (z) = -0.04639 -0.05288
#
# Static dielectric constant tensor:
#      x y z
#    x 2.001120 0.000000 0.000000 
#    y 0.000000 2.047520 0.000000 
#    z 0.000000 0.000000 2.144280 
# 
# From -- ./inp_files/23014.got.cif
#   From: 2010.05.17/outbox.cif.g08.bks.cpg/sg57_12_cif.got.tgz:23014.got - 2010.06.03 13:58:18.
