data_PCOD9435377
_publ_section_title
;
Structure prediction by ZEFSAII (Michael W. Deem and Ramdas Pophale) SiO2 
 PCOD9435377
Probable space group: P B C M
;
_chemical_formula_sum "Si O2"
_cell_formula_units_Z 64
_cell_length_a 15.131446
_cell_length_b 28.205159
_cell_length_c 8.630525
_cell_angle_alpha 90.000000
_cell_angle_beta 90.000000
_cell_angle_gamma 90.000000
_cell_volume 3683.377234
_symmetry_space_group_name_H-M "P B C M"
_symmetry_group_IT_number 57
_symmetry_cell_setting 'orthorhombic'
loop_
_space_group_symop_operation_xyz
x,y,z
-x,-y,1/2+z
x,1/2-y,-z
-x,1/2+y,1/2-z
-x,-y,-z
x,y,1/2-z
-x,1/2+y,z
x,1/2-y,1/2+z
loop_
_atom_site_type_symbol
_atom_site_label
_atom_site_fract_x
_atom_site_fract_y
_atom_site_fract_z
Si Si1 0.523768 0.387151 0.062535
Si Si2 0.844577 0.030411 0.063323
Si Si3 0.025918 0.886039 0.935810
Si Si4 0.655366 0.920207 0.935496
Si Si5 0.846976 0.920978 0.435578
Si Si6 0.651196 0.302220 0.436704
Si Si7 0.347061 0.529549 0.563284
Si Si8 0.853745 0.197417 0.936137
O O1 0.519607 0.387307 0.250000
O O2 0.581501 0.341878 0.012862
O O3 0.577329 0.434263 0.012066
O O4 0.425663 0.389304 0.996175
O O5 0.840897 0.030998 0.250000
O O6 0.919305 0.067170 0.012455
O O7 0.861292 0.976057 0.013921
O O8 0.748800 0.044662 0.998731
O O9 0.024066 0.885375 0.750000
O O10 0.078882 0.840755 0.996888
O O11 0.927191 0.890327 0.999686
O O12 0.658637 0.919199 0.750000
O O13 0.638489 0.975087 0.986021
O O14 0.750823 0.906558 0.002191
O O15 0.846773 0.919649 0.250000
O O16 0.631262 0.250000 0.500000
O O17 0.649647 0.300621 0.250000
O O18 0.752200 0.314628 0.482359
O O19 0.344210 0.530586 0.750000
O O20 0.858410 0.197604 0.750000
O O21 0.871796 0.250000 0.000000
#
# Coordination Sequence:
#
# PCOD9435377 Si02
#       8
#     8   8   8   8   8   8   8   8
#     4  10  19  32  50  73 100 133 169 205 247 300
#     4   9  19  32  48  73 105 137 171 209 251 298
#     4  11  21  33  51  77 105 134 170 212 253 301
#     4  10  20  33  49  72 100 133 170 211 253 294
#     4  10  20  35  52  71  99 138 176 212 253 298
#     4   9  19  34  53  76 103 132 164 202 247 296
#     4   9  18  31  48  71 102 135 169 207 248 296
#     4  10  20  36  56  79 106 136 167 204 251 303
#
# _framework density 17.375360000000001
#
# number of rings (size 3 to 8) (size 9 to 14) (size 15 to 20)
#    0.000    2.250    0.000    3.000    0.000    4.500 
#    0.000    0.000    0.000    0.750    0.000    3.500 
#    0.000    0.000    0.000    0.000    0.000    0.000 
#
# Total GULP energy -357287.470531 kJ/mol
# GULP energy per Si atom -5582.616727 kJ/mol
# Density = 1.733581 g / cm^3
# Si number density = 17.375360 Si / 1000 Ang^3
#
#
#
# Elastic Constant Matrix: (Units=GPa)
#
#
# Indices 1 2 3 4 5 6 
#
# 1 167.2895 90.1688 40.3192 0.0000 0.0000 0.0000
# 2 90.1688 81.4971 28.7864 0.0000 0.0000 0.0000
# 3 40.3192 28.7864 31.5533 0.0000 0.0000 0.0000
# 4 0.0000 0.0000 0.0000 23.7621 0.0000 0.0000
# 5 0.0000 0.0000 0.0000 0.0000 29.5284 0.0000
# 6 0.0000 0.0000 0.0000 0.0000 0.0000 29.7858
#
#
#
# Elastic Compliance Matrix: (Units=1/GPa)
#
#
# Indices 1 2 3 4 5 6 
#
# 1 0.015583 -0.015061 -0.006172 0.000000 0.000000 0.000000
# 2 -0.015061 0.032661 -0.010552 0.000000 0.000000 0.000000
# 3 -0.006172 -0.010552 0.049205 0.000000 0.000000 0.000000
# 4 0.000000 0.000000 0.000000 0.042084 0.000000 0.000000
# 5 0.000000 0.000000 0.000000 0.000000 0.033866 0.000000
# 6 0.000000 0.000000 0.000000 0.000000 0.000000 0.033573
#
#
# Mechanical properties :
#
#
# Convention : Reuss Voigt Hill
#
# Bulk Modulus (GPa) = 29.51589 66.54319 48.02954
# Shear Modulus (GPa) = 17.74085 24.68630 21.21357
#
# Velocity S-wave (km/s) = 3.19883 3.77339 3.49793
# Velocity P-wave (km/s) = 5.53782 7.57398 6.63448
#
# Compressibility (1/GPa) = 0.03388006
#
# Stress axis : x y z
#
# Youngs Moduli (GPa) = 64.17176 30.61718 20.32303
#
# Poissons Ratio (x) = 0.46113 0.12543
# Poissons Ratio (y) = 0.96651 0.21444
# Poissons Ratio (z) = 0.39605 0.32307
#
# Static dielectric constant tensor:
#      x y z
#    x 1.573990 0.000000 0.000000 
#    y 0.000000 1.580770 0.000000 
#    z 0.000000 0.000000 1.584750 
# 
# From -- ./inp_files/5593.got.cif
#   From: 2010.05.17/outbox.cif.g08.bks.cpg/sg57_3_cif.got.tgz:5593.got - 2010.06.03 13:58:18.
