data_PCOD9435971
_publ_section_title
;
Structure prediction by ZEFSAII (Michael W. Deem and Ramdas Pophale) SiO2 
 PCOD9435971
Probable space group: P B C M
;
_chemical_formula_sum "Si O2"
_cell_formula_units_Z 64
_cell_length_a 20.093967
_cell_length_b 21.094470
_cell_length_c 8.657984
_cell_angle_alpha 90.000000
_cell_angle_beta 90.000000
_cell_angle_gamma 90.000000
_cell_volume 3669.873393
_symmetry_space_group_name_H-M "P B C M"
_symmetry_group_IT_number 57
_symmetry_cell_setting 'orthorhombic'
loop_
_space_group_symop_operation_xyz
x,y,z
-x,-y,1/2+z
x,1/2-y,-z
-x,1/2+y,1/2-z
-x,-y,-z
x,y,1/2-z
-x,1/2+y,z
x,1/2-y,1/2+z
loop_
_atom_site_type_symbol
_atom_site_label
_atom_site_fract_x
_atom_site_fract_y
_atom_site_fract_z
Si Si1 0.321956 0.993757 0.066501
Si Si2 0.817618 0.013837 0.435693
Si Si3 0.821757 0.634582 0.563035
Si Si4 0.462352 0.938487 0.065581
Si Si5 0.462627 0.182855 0.066750
Si Si6 0.963340 0.682901 0.564305
Si Si7 0.038786 0.561167 0.064319
Si Si8 0.674317 0.864778 0.065097
O O1 0.322360 0.006629 0.250000
O O2 0.384406 0.948982 0.030993
O O3 0.250884 0.966431 0.015635
O O4 0.330743 0.060762 0.978739
O O5 0.809022 0.015873 0.250000
O O6 0.883446 0.052638 0.476712
O O7 0.829230 0.939767 0.478106
O O8 0.821287 0.637296 0.750000
O O9 0.886910 0.671404 0.509348
O O10 0.748328 0.656205 0.511966
O O11 0.471076 0.936925 0.250000
O O12 0.493750 0.875483 0.995014
O O13 0.500000 0.000000 0.000000
O O14 0.464774 0.183901 0.250000
O O15 0.485489 0.250000 0.000000
O O16 0.386810 0.170715 0.012355
O O17 0.986988 0.750000 0.500000
O O18 0.963955 0.683018 0.750000
O O19 0.006609 0.624300 0.504177
O O20 0.033576 0.561368 0.250000
O O21 0.000000 0.500000 0.000000
O O22 0.669701 0.858205 0.250000
#
# Coordination Sequence:
#
# PCOD9435971 Si02
#       8
#     8   8   8   8   8   8   8   8
#     4  10  20  33  54  86 116 143 184 230 278 332
#     4   9  18  34  55  80 112 146 183 227 281 335
#     4   8  16  32  52  76 109 148 185 225 271 326
#     4  11  22  37  59  86 115 148 187 234 280 332
#     4  12  25  40  57  81 113 151 194 236 284 339
#     4  11  22  38  55  79 113 150 191 234 282 336
#     4  11  21  36  58  85 112 147 189 235 283 333
#     4  10  19  34  55  79 113 152 188 230 278 328
#
# _framework density 17.439294
#
# number of rings (size 3 to 8) (size 9 to 14) (size 15 to 20)
#    0.000    1.750    2.500    3.750    0.000    3.000 
#    0.000    3.125    0.000    0.750    0.000    5.250 
#    0.000    0.000    0.000    0.000    0.000    0.000 
#
# Total GULP energy -357380.352596 kJ/mol
# GULP energy per Si atom -5584.068009 kJ/mol
# Density = 1.739960 g / cm^3
# Si number density = 17.439294 Si / 1000 Ang^3
#
#
#
# Elastic Constant Matrix: (Units=GPa)
#
#
# Indices 1 2 3 4 5 6 
#
# 1 117.5732 65.1477 46.9219 0.0000 0.0000 0.0000
# 2 65.1477 121.2662 41.8022 0.0000 0.0000 0.0000
# 3 46.9219 41.8022 72.6019 0.0000 0.0000 0.0000
# 4 0.0000 0.0000 0.0000 25.5827 0.0000 0.0000
# 5 0.0000 0.0000 0.0000 0.0000 28.8663 0.0000
# 6 0.0000 0.0000 0.0000 0.0000 0.0000 19.4541
#
#
#
# Elastic Compliance Matrix: (Units=1/GPa)
#
#
# Indices 1 2 3 4 5 6 
#
# 1 0.013833 -0.005427 -0.005816 0.000000 0.000000 0.000000
# 2 -0.005427 0.012417 -0.003642 0.000000 0.000000 0.000000
# 3 -0.005816 -0.003642 0.019629 0.000000 0.000000 0.000000
# 4 0.000000 0.000000 0.000000 0.039089 0.000000 0.000000
# 5 0.000000 0.000000 0.000000 0.000000 0.034642 0.000000
# 6 0.000000 0.000000 0.000000 0.000000 0.000000 0.051403
#
#
# Mechanical properties :
#
#
# Convention : Reuss Voigt Hill
#
# Bulk Modulus (GPa) = 62.07124 68.79834 65.43479
# Shear Modulus (GPa) = 24.25365 25.28525 24.76945
#
# Velocity S-wave (km/s) = 3.73332 3.81189 3.77281
# Velocity P-wave (km/s) = 7.36570 7.67527 7.52208
#
# Compressibility (1/GPa) = 0.01611052
#
# Stress axis : x y z
#
# Youngs Moduli (GPa) = 72.28883 80.53251 50.94386
#
# Poissons Ratio (x) = 0.43705 0.29627
# Poissons Ratio (y) = 0.39231 0.18555
# Poissons Ratio (z) = 0.42041 0.29331
#
# Static dielectric constant tensor:
#      x y z
#    x 1.612490 0.000000 0.000000 
#    y 0.000000 1.567490 0.000000 
#    z 0.000000 0.000000 1.589340 
# 
# From -- ./inp_files/8550.got.cif
#   From: 2010.05.17/outbox.cif.g08.bks.cpg/sg57_5_cif.got.tgz:8550.got - 2010.06.03 13:58:18.
