data_PCOD9435765
_publ_section_title
;
Structure prediction by ZEFSAII (Michael W. Deem and Ramdas Pophale) SiO2 
 PCOD9435765
Probable space group: P B C M
;
_chemical_formula_sum "Si O2"
_cell_formula_units_Z 64
_cell_length_a 20.671065
_cell_length_b 15.989467
_cell_length_c 9.343375
_cell_angle_alpha 90.000000
_cell_angle_beta 90.000000
_cell_angle_gamma 90.000000
_cell_volume 3088.165874
_symmetry_space_group_name_H-M "P B C M"
_symmetry_group_IT_number 57
_symmetry_cell_setting 'orthorhombic'
loop_
_space_group_symop_operation_xyz
x,y,z
-x,-y,1/2+z
x,1/2-y,-z
-x,1/2+y,1/2-z
-x,-y,-z
x,y,1/2-z
-x,1/2+y,z
x,1/2-y,1/2+z
loop_
_atom_site_type_symbol
_atom_site_label
_atom_site_fract_x
_atom_site_fract_y
_atom_site_fract_z
Si Si1 0.054729 0.610165 0.913662
Si Si2 0.675582 0.167860 0.420372
Si Si3 0.178454 0.874281 0.587083
Si Si4 0.453246 0.115953 0.088823
Si Si5 0.071809 0.406653 0.914841
Si Si6 0.693329 0.835163 0.578349
Si Si7 0.198419 0.425614 0.414711
Si Si8 0.427910 0.917420 0.411229
O O1 0.045460 0.636116 0.750000
O O2 0.063296 0.508390 0.914205
O O3 0.119972 0.646300 0.982086
O O4 0.992215 0.628523 0.009705
O O5 0.650604 0.250000 0.500000
O O6 0.669155 0.171822 0.250000
O O7 0.751240 0.158417 0.455494
O O8 0.632998 0.094006 0.485482
O O9 0.163821 0.847518 0.750000
O O10 0.186377 0.974935 0.589009
O O11 0.470429 0.144469 0.250000
O O12 0.382865 0.150760 0.050066
O O13 0.444833 0.015439 0.094667
O O14 0.510845 0.131043 0.978068
O O15 0.077967 0.380250 0.750000
O O16 0.135795 0.387486 0.006258
O O17 0.713245 0.750000 0.500000
O O18 0.702072 0.832982 0.750000
O O19 0.738180 0.905251 0.506633
O O20 0.204897 0.397046 0.250000
O O21 0.413162 0.889392 0.250000
#
# Coordination Sequence:
#
# PCOD9435765 Si02
#       8
#     8   8   8   8   8   8   8   8
#     4   9  16  26  45  74 105 136 172 217 266 315
#     4  11  23  38  55  77 108 144 181 221 266 317
#     4   9  19  34  53  77 105 139 177 219 267 319
#     4   9  20  38  59  83 111 142 177 218 263 315
#     4   9  16  27  45  72 106 139 172 214 264 316
#     4  11  23  38  55  77 107 142 179 218 262 312
#     4  10  19  33  54  79 106 137 176 220 267 318
#     4  10  20  36  60  86 110 139 176 219 267 316
#
# _framework density 20.724274999999999
#
# number of rings (size 3 to 8) (size 9 to 14) (size 15 to 20)
#    0.000    2.250    0.000    3.000    0.000    6.500 
#    0.000    1.250    0.000    0.750    0.000    3.500 
#    0.000    0.000    0.000    0.000    0.000    0.000 
#
# Total GULP energy -357414.122268 kJ/mol
# GULP energy per Si atom -5584.595660 kJ/mol
# Density = 2.067711 g / cm^3
# Si number density = 20.724275 Si / 1000 Ang^3
#
#
#
# Elastic Constant Matrix: (Units=GPa)
#
#
# Indices 1 2 3 4 5 6 
#
# 1 99.4414 7.2681 79.9899 0.0000 0.0000 0.0000
# 2 7.2681 12.1265 17.3156 0.0000 0.0000 0.0000
# 3 79.9899 17.3156 126.9523 0.0000 0.0000 0.0000
# 4 0.0000 0.0000 0.0000 12.4941 0.0000 0.0000
# 5 0.0000 0.0000 0.0000 0.0000 20.6873 0.0000
# 6 0.0000 0.0000 0.0000 0.0000 0.0000 -10.6319
#
#
#
# Elastic Compliance Matrix: (Units=1/GPa)
#
#
# Indices 1 2 3 4 5 6 
#
# 1 0.020972 0.007822 -0.014281 0.000000 0.000000 0.000000
# 2 0.007822 0.105327 -0.019295 0.000000 0.000000 0.000000
# 3 -0.014281 -0.019295 0.019507 0.000000 0.000000 0.000000
# 4 0.000000 0.000000 0.000000 0.080038 0.000000 0.000000
# 5 0.000000 0.000000 0.000000 0.000000 0.048339 0.000000
# 6 0.000000 0.000000 0.000000 0.000000 0.000000 -0.094056
#
#
# Mechanical properties :
#
#
# Convention : Reuss Voigt Hill
#
# Bulk Modulus (GPa) = 10.60459 49.74082 30.17271
# Shear Modulus (GPa) = 19.00671 13.43966 16.22319
#
# Velocity S-wave (km/s) = 3.03169 2.54933 2.80091
# Velocity P-wave (km/s) = 4.16929 5.72003 5.00508
#
# Compressibility (1/GPa) = 0.09429880
#
# Stress axis : x y z
#
# Youngs Moduli (GPa) = 47.68308 9.49427 51.26450
#
# Poissons Ratio (x) = -0.07427 0.73210
# Poissons Ratio (y) = -0.37299 0.98913
# Poissons Ratio (z) = 0.68095 0.18319
#
# Static dielectric constant tensor:
#      x y z
#    x 1.719020 0.000000 0.000000 
#    y 0.000000 1.856870 0.000000 
#    z 0.000000 0.000000 1.707000 
# 
# From -- ./inp_files/7180.got.cif
#   From: 2010.05.17/outbox.cif.g08.bks.cpg/sg57_4_cif.got.tgz:7180.got - 2010.06.03 13:58:18.
