data_PCOD9435965
_publ_section_title
;
Structure prediction by ZEFSAII (Michael W. Deem and Ramdas Pophale) SiO2 
 PCOD9435965
Probable space group: P B C M
;
_chemical_formula_sum "Si O2"
_cell_formula_units_Z 64
_cell_length_a 18.983637
_cell_length_b 9.935935
_cell_length_c 14.584034
_cell_angle_alpha 90.000000
_cell_angle_beta 90.000000
_cell_angle_gamma 90.000000
_cell_volume 2750.843166
_symmetry_space_group_name_H-M "P B C M"
_symmetry_group_IT_number 57
_symmetry_cell_setting 'orthorhombic'
loop_
_space_group_symop_operation_xyz
x,y,z
-x,-y,1/2+z
x,1/2-y,-z
-x,1/2+y,1/2-z
-x,-y,-z
x,y,1/2-z
-x,1/2+y,z
x,1/2-y,1/2+z
loop_
_atom_site_type_symbol
_atom_site_label
_atom_site_fract_x
_atom_site_fract_y
_atom_site_fract_z
Si Si1 0.059672 0.507568 0.862145
Si Si2 0.069896 0.683770 0.137613
Si Si3 0.659837 0.660197 0.352649
Si Si4 0.183055 0.309814 0.637311
Si Si5 0.385310 0.625893 0.601644
Si Si6 0.543769 0.858563 0.356421
Si Si7 0.653193 0.414306 0.892686
Si Si8 0.189826 0.490438 0.359142
O O1 0.059434 0.511250 0.750000
O O2 0.059463 0.662501 0.893612
O O3 0.128744 0.424437 0.891473
O O4 0.992454 0.418193 0.889031
O O5 0.069641 0.689708 0.250000
O O6 0.142561 0.613999 0.106366
O O7 0.668392 0.719009 0.250000
O O8 0.737201 0.663135 0.394823
O O9 0.633592 0.508938 0.346158
O O10 0.598083 0.748623 0.395202
O O11 0.182153 0.313018 0.750000
O O12 0.166016 0.157260 0.607628
O O13 0.469434 0.638369 0.593875
O O14 0.354295 0.601208 0.501320
O O15 0.353450 0.762052 0.642834
O O16 0.527144 0.826422 0.250000
O O17 0.587383 0.996866 0.360043
O O18 0.727293 0.484248 0.872230
O O19 0.178006 0.486351 0.250000
#
# Coordination Sequence:
#
# PCOD9435965 Si02
#       8
#     8   8   8   8   8   8   8   8
#     4   9  16  27  45  77 120 155 188 233 291 348
#     4   9  17  27  46  78 115 157 192 232 289 345
#     4  10  21  37  59  88 115 146 195 246 300 351
#     4   9  17  31  50  76 113 150 187 238 290 344
#     4  11  25  39  57  83 116 151 194 242 300 355
#     4  11  22  41  64  87 113 149 195 245 302 358
#     4  11  24  41  57  82 117 155 198 240 295 355
#     4  10  19  34  55  78 111 155 201 245 290 345
#
# _framework density 23.265594
#
# number of rings (size 3 to 8) (size 9 to 14) (size 15 to 20)
#    0.000    2.000    1.250    2.625    1.750    7.500 
#    0.000    0.000    0.000    0.000    0.000    0.875 
#    0.000    0.000    0.000    0.000    0.000    0.000 
#
# Total GULP energy -357885.848579 kJ/mol
# GULP energy per Si atom -5591.966384 kJ/mol
# Density = 2.321264 g / cm^3
# Si number density = 23.265594 Si / 1000 Ang^3
#
#
#
# Elastic Constant Matrix: (Units=GPa)
#
#
# Indices 1 2 3 4 5 6 
#
# 1 107.5078 62.2196 -4.5899 0.0000 0.0000 0.0000
# 2 62.2196 182.1368 10.1452 0.0000 0.0000 0.0000
# 3 -4.5899 10.1452 50.7191 0.0000 0.0000 0.0000
# 4 0.0000 0.0000 0.0000 10.5633 0.0000 0.0000
# 5 0.0000 0.0000 0.0000 0.0000 -66.9992 0.0000
# 6 0.0000 0.0000 0.0000 0.0000 0.0000 44.0964
#
#
#
# Elastic Compliance Matrix: (Units=1/GPa)
#
#
# Indices 1 2 3 4 5 6 
#
# 1 0.011770 -0.004126 0.001891 0.000000 0.000000 0.000000
# 2 -0.004126 0.006999 -0.001773 0.000000 0.000000 0.000000
# 3 0.001891 -0.001773 0.020242 0.000000 0.000000 0.000000
# 4 0.000000 0.000000 0.000000 0.094668 0.000000 0.000000
# 5 0.000000 0.000000 0.000000 0.000000 -0.014926 0.000000
# 6 0.000000 0.000000 0.000000 0.000000 0.000000 0.022678
#
#
# Mechanical properties :
#
#
# Convention : Reuss Voigt Hill
#
# Bulk Modulus (GPa) = 32.26500 52.87927 42.57213
# Shear Modulus (GPa) = 31.29302 15.70469 23.49886
#
# Velocity S-wave (km/s) = 3.67145 2.60093 3.18154
# Velocity P-wave (km/s) = 5.64544 5.63894 5.64219
#
# Compressibility (1/GPa) = 0.03099334
#
# Stress axis : x y z
#
# Youngs Moduli (GPa) = 84.95921 142.88396 49.40166
#
# Poissons Ratio (x) = 0.58956 -0.09339
# Poissons Ratio (y) = 0.35056 0.08761
# Poissons Ratio (z) = -0.16062 0.25338
#
# Static dielectric constant tensor:
#      x y z
#    x 1.833160 0.000000 0.000000 
#    y 0.000000 1.864930 0.000000 
#    z 0.000000 0.000000 1.929950 
# 
# From -- ./inp_files/25615.got.cif
#   From: 2010.05.17/outbox.cif.g08.bks.cpg/sg57_13_cif.got.tgz:25615.got - 2010.06.03 13:58:18.
