data_PCOD9435489
_publ_section_title
;
Structure prediction by ZEFSAII (Michael W. Deem and Ramdas Pophale) SiO2 
 PCOD9435489
Probable space group: P B C M
;
_chemical_formula_sum "Si O2"
_cell_formula_units_Z 64
_cell_length_a 14.990227
_cell_length_b 9.234502
_cell_length_c 24.707727
_cell_angle_alpha 90.000000
_cell_angle_beta 90.000000
_cell_angle_gamma 90.000000
_cell_volume 3420.223474
_symmetry_space_group_name_H-M "P B C M"
_symmetry_group_IT_number 57
_symmetry_cell_setting 'orthorhombic'
loop_
_space_group_symop_operation_xyz
x,y,z
-x,-y,1/2+z
x,1/2-y,-z
-x,1/2+y,1/2-z
-x,-y,-z
x,y,1/2-z
-x,1/2+y,z
x,1/2-y,1/2+z
loop_
_atom_site_type_symbol
_atom_site_label
_atom_site_fract_x
_atom_site_fract_y
_atom_site_fract_z
Si Si1 0.902922 0.043254 0.312666
Si Si2 0.747215 0.094010 0.888778
Si Si3 0.256655 0.090044 0.006841
Si Si4 0.594668 0.903152 0.310339
Si Si5 0.914887 0.112429 0.687884
Si Si6 0.537291 0.625933 0.034770
Si Si7 0.572009 0.575768 0.153316
Si Si8 0.266123 0.942321 0.610742
O O1 0.880344 0.003354 0.250000
O O2 0.821953 0.021552 0.353955
O O3 0.991874 0.958237 0.329083
O O4 0.923547 0.214199 0.312920
O O5 0.830869 0.074279 0.848940
O O6 0.660892 0.011980 0.863782
O O7 0.726693 0.266750 0.893187
O O8 0.774147 0.019776 0.946012
O O9 0.356628 0.125448 0.027409
O O10 0.212526 0.250000 0.000000
O O11 0.260365 0.011298 0.948955
O O12 0.629066 0.935840 0.250000
O O13 0.495428 0.970465 0.315445
O O14 0.592912 0.729533 0.318884
O O15 0.654339 0.981074 0.355902
O O16 0.898088 0.066615 0.750000
O O17 0.521140 0.620436 0.097793
O O18 0.493463 0.750000 0.000000
O O19 0.500000 0.500000 0.000000
#
# Coordination Sequence:
#
# PCOD9435489 Si02
#       8
#     8   8   8   8   8   8   8   8
#     4   9  19  36  58  86 114 146 187 235 286 340
#     4  10  22  38  60  87 116 151 190 235 292 345
#     4  10  21  37  55  81 115 149 190 235 282 342
#     4  12  25  40  57  81 115 157 199 240 287 343
#     4   9  19  36  59  85 115 146 185 234 285 341
#     4  10  19  32  52  76 102 135 179 230 279 329
#     4  11  23  39  56  81 115 152 194 240 287 341
#     4  11  21  38  61  85 116 152 190 237 290 345
#
# _framework density 18.712228
#
# number of rings (size 3 to 8) (size 9 to 14) (size 15 to 20)
#    0.000    1.750    0.000    5.625    0.000    6.500 
#    0.000    1.875    0.000    0.000    0.000    0.000 
#    0.000    0.000    0.000    0.000    0.000    0.000 
#
# Total GULP energy -356771.616454 kJ/mol
# GULP energy per Si atom -5574.556507 kJ/mol
# Density = 1.866964 g / cm^3
# Si number density = 18.712228 Si / 1000 Ang^3
#
#
#
# Elastic Constant Matrix: (Units=GPa)
#
#
# Indices 1 2 3 4 5 6 
#
# 1 71.4885 40.0663 41.6934 0.0000 0.0000 0.0000
# 2 40.0663 109.2407 42.3330 0.0000 0.0000 0.0000
# 3 41.6934 42.3330 107.5099 0.0000 0.0000 0.0000
# 4 0.0000 0.0000 0.0000 -54.4605 0.0000 0.0000
# 5 0.0000 0.0000 0.0000 0.0000 -5.1586 0.0000
# 6 0.0000 0.0000 0.0000 0.0000 0.0000 30.3304
#
#
#
# Elastic Compliance Matrix: (Units=1/GPa)
#
#
# Indices 1 2 3 4 5 6 
#
# 1 0.020293 -0.005184 -0.005829 0.000000 0.000000 0.000000
# 2 -0.005184 0.012127 -0.002765 0.000000 0.000000 0.000000
# 3 -0.005829 -0.002765 0.012650 0.000000 0.000000 0.000000
# 4 0.000000 0.000000 0.000000 -0.018362 0.000000 0.000000
# 5 0.000000 0.000000 0.000000 0.000000 -0.193853 0.000000
# 6 0.000000 0.000000 0.000000 0.000000 0.000000 0.032970
#
#
# Mechanical properties :
#
#
# Convention : Reuss Voigt Hill
#
# Bulk Modulus (GPa) = 57.09161 59.60271 58.34716
# Shear Modulus (GPa) = -49.61264 5.08535 -22.26365
#
# Velocity S-wave (km/s) = -5.15471 1.65032 -3.45308
# Velocity P-wave (km/s) = 2.20261 5.96262 3.91799
#
# Compressibility (1/GPa) = 0.01751571
#
# Stress axis : x y z
#
# Youngs Moduli (GPa) = 49.27778 82.46159 79.04890
#
# Poissons Ratio (x) = 0.42750 0.46074
# Poissons Ratio (y) = 0.25547 0.21854
# Poissons Ratio (z) = 0.28722 0.22797
#
# Static dielectric constant tensor:
#      x y z
#    x 1.622150 0.000000 0.000000 
#    y 0.000000 1.667640 0.000000 
#    z 0.000000 0.000000 1.652300 
# 
# From -- ./inp_files/27475.got.cif
#   From: 2010.05.17/outbox.cif.g08.bks.cpg/sg57_14_cif.got.tgz:27475.got - 2010.06.03 13:58:18.
