data_PCOD9435106
_publ_section_title
;
Structure prediction by ZEFSAII (Michael W. Deem and Ramdas Pophale) SiO2 
 PCOD9435106
Probable space group: P B C M
;
_chemical_formula_sum "Si O2"
_cell_formula_units_Z 64
_cell_length_a 15.293075
_cell_length_b 30.497790
_cell_length_c 8.787181
_cell_angle_alpha 90.000000
_cell_angle_beta 90.000000
_cell_angle_gamma 90.000000
_cell_volume 4098.385065
_symmetry_space_group_name_H-M "P B C M"
_symmetry_group_IT_number 57
_symmetry_cell_setting 'orthorhombic'
loop_
_space_group_symop_operation_xyz
x,y,z
-x,-y,1/2+z
x,1/2-y,-z
-x,1/2+y,1/2-z
-x,-y,-z
x,y,1/2-z
-x,1/2+y,z
x,1/2-y,1/2+z
loop_
_atom_site_type_symbol
_atom_site_label
_atom_site_fract_x
_atom_site_fract_y
_atom_site_fract_z
Si Si1 0.012879 0.296208 0.432738
Si Si2 0.868462 0.558128 0.066529
Si Si3 0.698814 0.885437 0.932043
Si Si4 0.207460 0.204833 0.431973
Si Si5 0.453513 0.063129 0.931214
Si Si6 0.036337 0.892263 0.066364
Si Si7 0.182099 0.960616 0.066247
Si Si8 0.373791 0.968496 0.568201
O O1 0.979722 0.250000 0.500000
O O2 0.014330 0.293050 0.250000
O O3 0.112008 0.301635 0.493760
O O4 0.963581 0.340988 0.477977
O O5 0.875380 0.560572 0.250000
O O6 0.777941 0.581992 0.022390
O O7 0.861799 0.507145 0.021346
O O8 0.950052 0.583726 0.996442
O O9 0.687275 0.889910 0.750000
O O10 0.732252 0.836681 0.965230
O O11 0.610062 0.898639 0.014015
O O12 0.243123 0.250000 0.500000
O O13 0.196496 0.208263 0.250000
O O14 0.463130 0.063046 0.750000
O O15 0.404316 0.017755 0.976919
O O16 0.548634 0.062258 0.006999
O O17 0.032169 0.893678 0.250000
O O18 0.120359 0.920485 0.017937
O O19 0.187957 0.960675 0.250000
O O20 0.279279 0.958619 0.000157
O O21 0.370034 0.966579 0.750000
#
# Coordination Sequence:
#
# PCOD9435106 Si02
#       8
#     8   8   8   8   8   8   8   8
#     4  10  19  31  47  67  92 122 159 202 244 285
#     4  10  19  31  47  67  97 134 166 196 232 280
#     4  10  19  31  48  71  98 129 162 197 238 284
#     4  10  19  31  47  68  95 126 160 198 241 285
#     4  10  20  32  50  72  95 125 159 196 238 284
#     4  10  21  33  47  69  96 128 165 203 240 283
#     4  10  20  34  49  67  96 132 166 201 241 282
#     4  10  20  33  49  71  96 124 160 200 238 280
#
# _framework density 15.615907
#
# number of rings (size 3 to 8) (size 9 to 14) (size 15 to 20)
#    0.000    2.000    2.500    2.625    0.000    4.000 
#    0.000    0.000    0.000    0.000    0.000    0.875 
#    0.000    4.000    0.000    0.000    0.000    0.000 
#
# Total GULP energy -357072.852511 kJ/mol
# GULP energy per Si atom -5579.263320 kJ/mol
# Density = 1.558036 g / cm^3
# Si number density = 15.615907 Si / 1000 Ang^3
#
#
#
# Elastic Constant Matrix: (Units=GPa)
#
#
# Indices 1 2 3 4 5 6 
#
# 1 85.9551 58.0989 23.2823 0.0000 0.0000 0.0000
# 2 58.0989 130.2353 37.1578 0.0000 0.0000 0.0000
# 3 23.2823 37.1578 23.7494 0.0000 0.0000 0.0000
# 4 0.0000 0.0000 0.0000 20.4100 0.0000 0.0000
# 5 0.0000 0.0000 0.0000 0.0000 25.1303 0.0000
# 6 0.0000 0.0000 0.0000 0.0000 0.0000 18.7566
#
#
#
# Elastic Compliance Matrix: (Units=1/GPa)
#
#
# Indices 1 2 3 4 5 6 
#
# 1 0.017663 -0.005309 -0.009009 0.000000 0.000000 0.000000
# 2 -0.005309 0.015466 -0.018993 0.000000 0.000000 0.000000
# 3 -0.009009 -0.018993 0.080653 0.000000 0.000000 0.000000
# 4 0.000000 0.000000 0.000000 0.048996 0.000000 0.000000
# 5 0.000000 0.000000 0.000000 0.000000 0.039793 0.000000
# 6 0.000000 0.000000 0.000000 0.000000 0.000000 0.053315
#
#
# Mechanical properties :
#
#
# Convention : Reuss Voigt Hill
#
# Bulk Modulus (GPa) = 21.20408 53.00198 37.10303
# Shear Modulus (GPa) = 14.78304 20.95276 17.86790
#
# Velocity S-wave (km/s) = 3.08013 3.66698 3.38629
# Velocity P-wave (km/s) = 5.12422 7.20719 6.25305
#
# Compressibility (1/GPa) = 0.04716073
#
# Stress axis : x y z
#
# Youngs Moduli (GPa) = 56.61641 64.65930 12.39877
#
# Poissons Ratio (x) = 0.34329 0.11170
# Poissons Ratio (y) = 0.30059 0.23548
# Poissons Ratio (z) = 0.51004 1.22804
#
# Static dielectric constant tensor:
#      x y z
#    x 1.489030 0.000000 0.000000 
#    y 0.000000 1.537440 0.000000 
#    z 0.000000 0.000000 1.525000 
# 
# From -- ./inp_files/6071.got.cif
#   From: 2010.05.17/outbox.cif.g08.bks.cpg/sg57_4_cif.got.tgz:6071.got - 2010.06.03 13:58:18.
