data_PCOD9435249
_publ_section_title
;
Structure prediction by ZEFSAII (Michael W. Deem and Ramdas Pophale) SiO2 
 PCOD9435249
Probable space group: P B C M
;
_chemical_formula_sum "Si O2"
_cell_formula_units_Z 64
_cell_length_a 26.903676
_cell_length_b 14.457364
_cell_length_c 7.962195
_cell_angle_alpha 90.000000
_cell_angle_beta 90.000000
_cell_angle_gamma 90.000000
_cell_volume 3096.945404
_symmetry_space_group_name_H-M "P B C M"
_symmetry_group_IT_number 57
_symmetry_cell_setting 'orthorhombic'
loop_
_space_group_symop_operation_xyz
x,y,z
-x,-y,1/2+z
x,1/2-y,-z
-x,1/2+y,1/2-z
-x,-y,-z
x,y,1/2-z
-x,1/2+y,z
x,1/2-y,1/2+z
loop_
_atom_site_type_symbol
_atom_site_label
_atom_site_fract_x
_atom_site_fract_y
_atom_site_fract_z
Si Si1 0.588426 0.358455 0.547885
Si Si2 0.776217 0.356418 0.052621
Si Si3 0.016288 0.603048 0.549750
Si Si4 0.519345 0.641371 0.047936
Si Si5 0.878435 0.449137 0.948783
Si Si6 0.315467 0.972137 0.448892
Si Si7 0.628208 0.856756 0.546803
Si Si8 0.910687 0.652578 0.547428
O O1 0.591290 0.250000 0.500000
O O2 0.590598 0.365908 0.750000
O O3 0.534116 0.395441 0.487463
O O4 0.635121 0.410901 0.471390
O O5 0.768012 0.355117 0.250000
O O6 0.731744 0.418517 0.976486
O O7 0.774789 0.250000 0.000000
O O8 0.829444 0.402053 0.018934
O O9 0.018720 0.613730 0.750000
O O10 0.072036 0.611727 0.482852
O O11 0.000000 0.500000 0.500000
O O12 0.967908 0.656139 0.482917
O O13 0.519100 0.633198 0.250000
O O14 0.573423 0.609882 0.985315
O O15 0.518578 0.750000 0.000000
O O16 0.872714 0.455531 0.750000
O O17 0.887492 0.554869 0.012818
O O18 0.306526 0.984490 0.250000
O O19 0.329960 0.073152 0.517568
O O20 0.635414 0.750000 0.500000
O O21 0.627132 0.861113 0.750000
O O22 0.886007 0.750000 0.500000
O O23 0.912219 0.646971 0.750000
#
# Coordination Sequence:
#
# PCOD9435249 Si02
#       8
#     8   8   8   8   8   8   8   8
#     4  10  19  31  50  77 108 142 179 218 266 322
#     4  11  24  42  62  82 105 138 179 226 279 331
#     4   9  17  31  51  79 114 152 192 232 273 318
#     4   8  15  28  47  73 105 139 174 213 259 315
#     4  10  21  38  58  83 113 147 190 237 282 331
#     4  10  22  38  56  79 107 139 178 224 274 326
#     4   9  18  35  56  78 107 141 177 219 266 320
#     4   9  19  33  53  83 118 153 187 222 264 316
#
# _framework density 20.665524000000001
#
# number of rings (size 3 to 8) (size 9 to 14) (size 15 to 20)
#    0.000    2.500    0.000    2.625    0.000    7.000 
#    0.000    1.875    0.000    3.000    0.000    0.000 
#    0.000    0.000    0.000    0.000    0.000    0.000 
#
# Total GULP energy -356762.563016 kJ/mol
# GULP energy per Si atom -5574.415047 kJ/mol
# Density = 2.061849 g / cm^3
# Si number density = 20.665524 Si / 1000 Ang^3
#
#
#
# Elastic Constant Matrix: (Units=GPa)
#
#
# Indices 1 2 3 4 5 6 
#
# 1 136.2005 66.7153 -8.1864 0.0000 0.0000 0.0000
# 2 66.7153 113.1271 -4.0534 0.0000 0.0000 0.0000
# 3 -8.1864 -4.0534 8.2787 0.0000 0.0000 0.0000
# 4 0.0000 0.0000 0.0000 21.1197 0.0000 0.0000
# 5 0.0000 0.0000 0.0000 0.0000 4.5874 0.0000
# 6 0.0000 0.0000 0.0000 0.0000 0.0000 11.5252
#
#
#
# Elastic Compliance Matrix: (Units=1/GPa)
#
#
# Indices 1 2 3 4 5 6 
#
# 1 0.010784 -0.006085 0.007685 0.000000 0.000000 0.000000
# 2 -0.006085 0.012430 0.000069 0.000000 0.000000 0.000000
# 3 0.007685 0.000069 0.128425 0.000000 0.000000 0.000000
# 4 0.000000 0.000000 0.000000 0.047349 0.000000 0.000000
# 5 0.000000 0.000000 0.000000 0.000000 0.217986 0.000000
# 6 0.000000 0.000000 0.000000 0.000000 0.000000 0.086767
#
#
# Mechanical properties :
#
#
# Convention : Reuss Voigt Hill
#
# Bulk Modulus (GPa) = 6.45245 40.72859 23.59052
# Shear Modulus (GPa) = 9.05694 20.98853 15.02274
#
# Velocity S-wave (km/s) = 2.09575 3.19035 2.69912
# Velocity P-wave (km/s) = 2.99755 5.77255 4.59933
#
# Compressibility (1/GPa) = 0.15497992
#
# Stress axis : x y z
#
# Youngs Moduli (GPa) = 92.72571 80.44759 7.78663
#
# Poissons Ratio (x) = 0.48950 -0.05984
# Poissons Ratio (y) = 0.56420 -0.00054
# Poissons Ratio (z) = -0.71261 -0.00558
#
# Static dielectric constant tensor:
#      x y z
#    x 1.768130 0.000000 0.000000 
#    y 0.000000 1.173930 0.000000 
#    z 0.000000 0.000000 1.738630 
# 
# From -- ./inp_files/9412.got.cif
#   From: 2010.05.17/outbox.cif.g08.bks.cpg/sg57_5_cif.got.tgz:9412.got - 2010.06.03 13:58:18.
