data_PCOD9435331
_publ_section_title
;
Structure prediction by ZEFSAII (Michael W. Deem and Ramdas Pophale) SiO2 
 PCOD9435331
Probable space group: P B C M
;
_chemical_formula_sum "Si O2"
_cell_formula_units_Z 64
_cell_length_a 22.384502
_cell_length_b 20.056094
_cell_length_c 8.876268
_cell_angle_alpha 90.000000
_cell_angle_beta 90.000000
_cell_angle_gamma 90.000000
_cell_volume 3984.962140
_symmetry_space_group_name_H-M "P B C M"
_symmetry_group_IT_number 57
_symmetry_cell_setting 'orthorhombic'
loop_
_space_group_symop_operation_xyz
x,y,z
-x,-y,1/2+z
x,1/2-y,-z
-x,1/2+y,1/2-z
-x,-y,-z
x,y,1/2-z
-x,1/2+y,z
x,1/2-y,1/2+z
loop_
_atom_site_type_symbol
_atom_site_label
_atom_site_fract_x
_atom_site_fract_y
_atom_site_fract_z
Si Si1 0.019441 0.180532 0.069999
Si Si2 0.699140 0.040028 0.430022
Si Si3 0.407856 0.470956 0.927348
Si Si4 0.878580 0.320260 0.569717
Si Si5 0.634421 0.178863 0.070438
Si Si6 0.173284 0.547524 0.569368
Si Si7 0.942604 0.962838 0.932069
Si Si8 0.523757 0.405122 0.930613
O O1 0.023164 0.185802 0.250000
O O2 0.949105 0.171030 0.032344
O O3 0.054006 0.114417 0.020850
O O4 0.039748 0.250000 0.000000
O O5 0.703585 0.041112 0.250000
O O6 0.652309 0.983368 0.480759
O O7 0.672996 0.113465 0.477180
O O8 0.762867 0.027673 0.504235
O O9 0.394715 0.470842 0.750000
O O10 0.452890 0.409450 0.960720
O O11 0.446570 0.536199 0.971800
O O12 0.859490 0.250000 0.500000
O O13 0.872288 0.319975 0.750000
O O14 0.842832 0.380459 0.497382
O O15 0.641264 0.184276 0.250000
O O16 0.564956 0.158972 0.038872
O O17 0.650317 0.250000 0.000000
O O18 0.175362 0.550113 0.750000
O O19 0.118809 0.498798 0.524462
O O20 0.947575 0.965332 0.750000
O O21 0.000000 0.000000 0.000000
O O22 0.531229 0.419948 0.750000
#
# Coordination Sequence:
#
# PCOD9435331 Si02
#       8
#     8   8   8   8   8   8   8   8
#     4   9  18  32  50  73  98 124 154 192 242 300
#     4  10  21  35  47  63  94 130 164 202 244 289
#     4   9  15  26  46  68  89 115 151 192 233 278
#     4  10  19  32  49  68  95 128 163 201 244 295
#     4   9  18  31  46  66  94 129 163 195 230 272
#     4  11  22  34  50  72  97 128 170 211 253 306
#     4  10  20  34  52  75 101 127 159 205 258 308
#     4   8  15  27  43  66  94 120 148 188 237 278
#
# _framework density 16.060379000000001
#
# number of rings (size 3 to 8) (size 9 to 14) (size 15 to 20)
#    0.000    2.500    1.250    2.250    0.000    5.000 
#    0.000    1.250    0.000    0.000    0.000    0.875 
#    0.000    0.000    0.000    0.000    0.000    0.000 
#
# Total GULP energy -356510.739925 kJ/mol
# GULP energy per Si atom -5570.480311 kJ/mol
# Density = 1.602382 g / cm^3
# Si number density = 16.060379 Si / 1000 Ang^3
#
#
#
# Elastic Constant Matrix: (Units=GPa)
#
#
# Indices 1 2 3 4 5 6 
#
# 1 108.7524 40.4037 33.5892 0.0000 0.0000 0.0000
# 2 40.4037 50.8965 14.1931 0.0000 0.0000 0.0000
# 3 33.5892 14.1931 27.5358 0.0000 0.0000 0.0000
# 4 0.0000 0.0000 0.0000 21.2513 0.0000 0.0000
# 5 0.0000 0.0000 0.0000 0.0000 23.4957 0.0000
# 6 0.0000 0.0000 0.0000 0.0000 0.0000 16.0789
#
#
#
# Elastic Compliance Matrix: (Units=1/GPa)
#
#
# Indices 1 2 3 4 5 6 
#
# 1 0.018003 -0.009539 -0.017045 0.000000 0.000000 0.000000
# 2 -0.009539 0.028000 -0.002797 0.000000 0.000000 0.000000
# 3 -0.017045 -0.002797 0.058550 0.000000 0.000000 0.000000
# 4 0.000000 0.000000 0.000000 0.047056 0.000000 0.000000
# 5 0.000000 0.000000 0.000000 0.000000 0.042561 0.000000
# 6 0.000000 0.000000 0.000000 0.000000 0.000000 0.062193
#
#
# Mechanical properties :
#
#
# Convention : Reuss Voigt Hill
#
# Bulk Modulus (GPa) = 21.83738 40.39519 31.11629
# Shear Modulus (GPa) = 15.13374 18.76507 16.94941
#
# Velocity S-wave (km/s) = 3.07303 3.42191 3.25215
# Velocity P-wave (km/s) = 5.12034 6.38900 5.78952
#
# Compressibility (1/GPa) = 0.04579303
#
# Stress axis : x y z
#
# Youngs Moduli (GPa) = 55.54491 35.71451 17.07952
#
# Poissons Ratio (x) = 0.34067 0.29111
# Poissons Ratio (y) = 0.52983 0.04776
# Poissons Ratio (z) = 0.94674 0.09988
#
# Static dielectric constant tensor:
#      x y z
#    x 1.567710 0.000000 0.000000 
#    y 0.000000 1.533810 0.000000 
#    z 0.000000 0.000000 1.537180 
# 
# From -- ./inp_files/8684.got.cif
#   From: 2010.05.17/outbox.cif.g08.bks.cpg/sg57_5_cif.got.tgz:8684.got - 2010.06.03 13:58:18.
