data_PCOD9435724
_publ_section_title
;
Structure prediction by ZEFSAII (Michael W. Deem and Ramdas Pophale) SiO2 
 PCOD9435724
Probable space group: P B C M
;
_chemical_formula_sum "Si O2"
_cell_formula_units_Z 64
_cell_length_a 21.209415
_cell_length_b 19.502413
_cell_length_c 8.557274
_cell_angle_alpha 90.000000
_cell_angle_beta 90.000000
_cell_angle_gamma 90.000000
_cell_volume 3539.586070
_symmetry_space_group_name_H-M "P B C M"
_symmetry_group_IT_number 57
_symmetry_cell_setting 'orthorhombic'
loop_
_space_group_symop_operation_xyz
x,y,z
-x,-y,1/2+z
x,1/2-y,-z
-x,1/2+y,1/2-z
-x,-y,-z
x,y,1/2-z
-x,1/2+y,z
x,1/2-y,1/2+z
loop_
_atom_site_type_symbol
_atom_site_label
_atom_site_fract_x
_atom_site_fract_y
_atom_site_fract_z
Si Si1 0.004722 0.827727 0.438039
Si Si2 0.607727 0.068229 0.439615
Si Si3 0.248788 0.928249 0.562424
Si Si4 0.500527 0.326483 0.562519
Si Si5 0.385012 0.411104 0.437574
Si Si6 0.753787 0.919621 0.935938
Si Si7 0.142618 0.827789 0.062012
Si Si8 0.133080 0.172099 0.561812
O O1 0.004735 0.750000 0.500000
O O2 0.004750 0.826316 0.250000
O O3 0.936475 0.856682 0.485850
O O4 0.073047 0.856422 0.486157
O O5 0.605533 0.067928 0.250000
O O6 0.678975 0.088622 0.484587
O O7 0.555153 0.121363 0.494774
O O8 0.597687 0.989169 0.489273
O O9 0.247206 0.932915 0.750000
O O10 0.198629 0.873330 0.504620
O O11 0.234268 0.002779 0.492372
O O12 0.509811 0.250000 0.500000
O O13 0.502062 0.324967 0.750000
O O14 0.434280 0.357798 0.507141
O O15 0.387420 0.408884 0.250000
O O16 0.313576 0.398263 0.491889
O O17 0.749327 0.917447 0.750000
O O18 0.810189 0.871927 0.994071
O O19 0.145808 0.826915 0.250000
O O20 0.147382 0.750000 0.000000
O O21 0.137218 0.250000 0.500000
O O22 0.136621 0.172657 0.750000
#
# Coordination Sequence:
#
# PCOD9435724 Si02
#       8
#     8   8   8   8   8   8   8   8
#     4   8  16  30  50  74 104 138 177 219 265 318
#     4   8  18  36  58  79 104 137 177 218 262 314
#     4  10  20  37  57  80 109 143 180 224 270 317
#     4  11  22  37  55  81 112 141 172 215 263 310
#     4  10  20  38  60  81 104 138 178 218 262 315
#     4  11  22  37  56  81 109 141 178 220 266 320
#     4  10  19  33  53  80 109 142 181 224 269 320
#     4  10  19  34  55  80 107 140 178 222 270 320
#
# _framework density 18.081209999999999
#
# number of rings (size 3 to 8) (size 9 to 14) (size 15 to 20)
#    0.000    2.250    0.000    4.125    0.000    2.000 
#    0.000   11.250    0.000    0.000    0.000    0.000 
#    0.000    0.000    0.000    0.000    0.000    0.000 
#
# Total GULP energy -356993.704628 kJ/mol
# GULP energy per Si atom -5578.026635 kJ/mol
# Density = 1.804006 g / cm^3
# Si number density = 18.081210 Si / 1000 Ang^3
#
#
#
# Elastic Constant Matrix: (Units=GPa)
#
#
# Indices 1 2 3 4 5 6 
#
# 1 70.5267 33.5059 14.8527 0.0000 0.0000 0.0000
# 2 33.5059 39.4565 14.7928 0.0000 0.0000 0.0000
# 3 14.8527 14.7928 58.3747 0.0000 0.0000 0.0000
# 4 0.0000 0.0000 0.0000 28.1771 0.0000 0.0000
# 5 0.0000 0.0000 0.0000 0.0000 25.6849 0.0000
# 6 0.0000 0.0000 0.0000 0.0000 0.0000 34.8924
#
#
#
# Elastic Compliance Matrix: (Units=1/GPa)
#
#
# Indices 1 2 3 4 5 6 
#
# 1 0.023824 -0.019844 -0.001033 0.000000 0.000000 0.000000
# 2 -0.019844 0.044533 -0.006236 0.000000 0.000000 0.000000
# 3 -0.001033 -0.006236 0.018974 0.000000 0.000000 0.000000
# 4 0.000000 0.000000 0.000000 0.035490 0.000000 0.000000
# 5 0.000000 0.000000 0.000000 0.000000 0.038933 0.000000
# 6 0.000000 0.000000 0.000000 0.000000 0.000000 0.028660
#
#
# Mechanical properties :
#
#
# Convention : Reuss Voigt Hill
#
# Bulk Modulus (GPa) = 30.20676 32.74007 31.47341
# Shear Modulus (GPa) = 19.55608 24.76464 22.16036
#
# Velocity S-wave (km/s) = 3.29229 3.70487 3.50466
# Velocity P-wave (km/s) = 5.58522 6.03722 5.81561
#
# Compressibility (1/GPa) = 0.03310518
#
# Stress axis : x y z
#
# Youngs Moduli (GPa) = 41.97456 22.45510 52.70398
#
# Poissons Ratio (x) = 0.44559 0.05445
# Poissons Ratio (y) = 0.83293 0.32868
# Poissons Ratio (z) = 0.04336 0.14004
#
# Static dielectric constant tensor:
#      x y z
#    x 1.640690 0.000000 0.000000 
#    y 0.000000 1.584880 0.000000 
#    z 0.000000 0.000000 1.612050 
# 
# From -- ./inp_files/7207.got.cif
#   From: 2010.05.17/outbox.cif.g08.bks.cpg/sg57_4_cif.got.tgz:7207.got - 2010.06.03 13:58:18.
