data_PCOD9435170
_publ_section_title
;
Structure prediction by ZEFSAII (Michael W. Deem and Ramdas Pophale) SiO2 
 PCOD9435170
Probable space group: P B C M
;
_chemical_formula_sum "Si O2"
_cell_formula_units_Z 56
_cell_length_a 16.158868
_cell_length_b 20.707081
_cell_length_c 8.060722
_cell_angle_alpha 90.000000
_cell_angle_beta 90.000000
_cell_angle_gamma 90.000000
_cell_volume 2697.141671
_symmetry_space_group_name_H-M "P B C M"
_symmetry_group_IT_number 57
_symmetry_cell_setting 'orthorhombic'
loop_
_space_group_symop_operation_xyz
x,y,z
-x,-y,1/2+z
x,1/2-y,-z
-x,1/2+y,1/2-z
-x,-y,-z
x,y,1/2-z
-x,1/2+y,z
x,1/2-y,1/2+z
loop_
_atom_site_type_symbol
_atom_site_label
_atom_site_fract_x
_atom_site_fract_y
_atom_site_fract_z
Si Si1 0.842208 0.418255 0.446809
Si Si2 0.491045 0.821600 0.949527
Si Si3 0.021322 0.678833 0.551377
Si Si4 0.757508 0.955282 0.953948
Si Si5 0.300666 0.677289 0.449074
Si Si6 0.572437 0.951702 0.949954
Si Si7 0.169728 0.179086 0.446810
O O1 0.856246 0.424982 0.250000
O O2 0.919839 0.377938 0.515652
O O3 0.820660 0.489366 0.512281
O O4 0.761514 0.374047 0.474004
O O5 0.489710 0.823522 0.750000
O O6 0.395868 0.831965 0.005816
O O7 0.548062 0.879930 0.009247
O O8 0.517643 0.750000 0.000000
O O9 0.052218 0.750000 0.500000
O O10 0.021959 0.676924 0.750000
O O11 0.926840 0.673003 0.493772
O O12 0.758775 0.955756 0.750000
O O13 0.663915 0.971047 0.007390
O O14 0.782370 0.883721 0.011101
O O15 0.276763 0.750000 0.500000
O O16 0.297674 0.671760 0.250000
O O17 0.574931 0.950188 0.750000
O O18 0.500000 0.000000 0.000000
O O19 0.199446 0.250000 0.500000
O O20 0.175735 0.177554 0.250000
#
# Coordination Sequence:
#
# PCOD9435170 Si02
#       7
#     8   8   8   8   8   8   8
#     4  10  20  34  52  76 106 139 176 213 255 312
#     4   9  19  33  50  74 102 133 172 217 261 309
#     4  10  20  34  54  79 106 136 172 213 256 306
#     4   9  20  37  56  78 106 141 174 211 265 318
#     4  10  19  31  48  73 105 139 175 215 260 307
#     4  10  20  36  56  78 106 139 176 216 261 313
#     4  10  20  37  59  80 105 138 176 217 263 313
#
# _framework density 20.762720000000002
#
# number of rings (size 3 to 8) (size 9 to 14) (size 15 to 20)
#    0.000    2.286    0.000    3.429    0.000    4.571 
#    0.000    2.857    0.000    0.000    0.000    0.000 
#    0.000    0.000    0.000    0.000    0.000    0.000 
#
# Total GULP energy -312684.593380 kJ/mol
# GULP energy per Si atom -5583.653453 kJ/mol
# Density = 2.071546 g / cm^3
# Si number density = 20.762720 Si / 1000 Ang^3
#
#
#
# Elastic Constant Matrix: (Units=GPa)
#
#
# Indices 1 2 3 4 5 6 
#
# 1 59.6826 49.1946 1.5327 0.0000 0.0000 0.0000
# 2 49.1946 128.7368 2.0740 0.0000 0.0000 0.0000
# 3 1.5327 2.0740 13.2667 0.0000 0.0000 0.0000
# 4 0.0000 0.0000 0.0000 19.7475 0.0000 0.0000
# 5 0.0000 0.0000 0.0000 0.0000 9.4919 0.0000
# 6 0.0000 0.0000 0.0000 0.0000 0.0000 35.1111
#
#
#
# Elastic Compliance Matrix: (Units=1/GPa)
#
#
# Indices 1 2 3 4 5 6 
#
# 1 0.024484 -0.009334 -0.001369 0.000000 0.000000 0.000000
# 2 -0.009334 0.011346 -0.000695 0.000000 0.000000 0.000000
# 3 -0.001369 -0.000695 0.075643 0.000000 0.000000 0.000000
# 4 0.000000 0.000000 0.000000 0.050639 0.000000 0.000000
# 5 0.000000 0.000000 0.000000 0.000000 0.105353 0.000000
# 6 0.000000 0.000000 0.000000 0.000000 0.000000 0.028481
#
#
# Mechanical properties :
#
#
# Convention : Reuss Voigt Hill
#
# Bulk Modulus (GPa) = 11.27704 34.14318 22.71011
# Shear Modulus (GPa) = 14.35530 22.79576 18.57553
#
# Velocity S-wave (km/s) = 2.63230 3.31708 2.99433
# Velocity P-wave (km/s) = 3.83169 5.58129 4.78710
#
# Compressibility (1/GPa) = 0.08867573
#
# Stress axis : x y z
#
# Youngs Moduli (GPa) = 40.84236 88.13756 13.21992
#
# Poissons Ratio (x) = 0.82270 0.01810
# Poissons Ratio (y) = 0.38123 0.00919
# Poissons Ratio (z) = 0.05593 0.06128
#
# Static dielectric constant tensor:
#      x y z
#    x 1.738230 0.000000 0.000000 
#    y 0.000000 1.753660 0.000000 
#    z 0.000000 0.000000 1.741560 
# 
# From -- ./inp_files/5228.got.cif
#   From: 2010.05.17/outbox.cif.g08.bks.cpg/sg57_3_cif.got.tgz:5228.got - 2010.06.03 13:58:18.
