data_PCOD9435211
_publ_section_title
;
Structure prediction by ZEFSAII (Michael W. Deem and Ramdas Pophale) SiO2 
 PCOD9435211
Probable space group: P B C M
;
_chemical_formula_sum "Si O2"
_cell_formula_units_Z 48
_cell_length_a 9.995443
_cell_length_b 31.754337
_cell_length_c 8.283957
_cell_angle_alpha 90.000000
_cell_angle_beta 90.000000
_cell_angle_gamma 90.000000
_cell_volume 2629.316897
_symmetry_space_group_name_H-M "P B C M"
_symmetry_group_IT_number 57
_symmetry_cell_setting 'orthorhombic'
loop_
_space_group_symop_operation_xyz
x,y,z
-x,-y,1/2+z
x,1/2-y,-z
-x,1/2+y,1/2-z
-x,-y,-z
x,y,1/2-z
-x,1/2+y,z
x,1/2-y,1/2+z
loop_
_atom_site_type_symbol
_atom_site_label
_atom_site_fract_x
_atom_site_fract_y
_atom_site_fract_z
Si Si1 0.211317 0.566925 0.553575
Si Si2 0.303976 0.110100 0.057807
Si Si3 0.809484 0.202364 0.944624
Si Si4 0.416996 0.860122 0.444458
Si Si5 0.011790 0.130135 0.555336
Si Si6 0.353842 0.484808 0.554479
O O1 0.208905 0.566548 0.750000
O O2 0.332356 0.598347 0.506022
O O3 0.246859 0.519997 0.499230
O O4 0.074577 0.589386 0.499757
O O5 0.301471 0.108088 0.250000
O O6 0.323241 0.062174 0.994829
O O7 0.433159 0.136624 0.006245
O O8 0.163408 0.128168 0.999711
O O9 0.809743 0.201745 0.750000
O O10 0.671466 0.179781 0.997918
O O11 0.929622 0.171481 0.998580
O O12 0.822189 0.250000 0.000000
O O13 0.420159 0.860065 0.250000
O O14 0.009196 0.129972 0.750000
O O15 0.500000 0.500000 0.500000
O O16 0.352788 0.484243 0.750000
#
# Coordination Sequence:
#
# PCOD9435211 Si02
#       6
#     8   8   8   8   8   8
#     4   8  15  31  53  72  95 135 182 217 243 292
#     4  11  22  32  47  79 113 137 170 219 265 298
#     4   9  19  36  60  85 102 127 170 213 257 316
#     4   9  17  33  56  76  99 136 175 205 249 314
#     4   9  19  36  55  74 101 142 180 206 252 320
#     4  10  19  31  49  74 104 138 179 221 259 299
#
# _framework density 18.255692
#
# number of rings (size 3 to 8) (size 9 to 14) (size 15 to 20)
#    0.000    2.667    1.667    2.500    0.000    2.667 
#    0.000    4.167    0.000    0.000    0.000    0.000 
#    0.000    0.000    0.000    0.000    0.000    0.000 
#
# Total GULP energy -267650.073622 kJ/mol
# GULP energy per Si atom -5576.043200 kJ/mol
# Density = 1.821414 g / cm^3
# Si number density = 18.255692 Si / 1000 Ang^3
#
#
#
# Elastic Constant Matrix: (Units=GPa)
#
#
# Indices 1 2 3 4 5 6 
#
# 1 170.3258 75.3470 18.3947 0.0000 0.0000 0.0000
# 2 75.3470 128.1380 17.3701 0.0000 0.0000 0.0000
# 3 18.3947 17.3701 10.0852 0.0000 0.0000 0.0000
# 4 0.0000 0.0000 0.0000 20.7917 0.0000 0.0000
# 5 0.0000 0.0000 0.0000 0.0000 17.5433 0.0000
# 6 0.0000 0.0000 0.0000 0.0000 0.0000 16.7064
#
#
#
# Elastic Compliance Matrix: (Units=1/GPa)
#
#
# Indices 1 2 3 4 5 6 
#
# 1 0.008521 -0.003788 -0.009017 0.000000 0.000000 0.000000
# 2 -0.003788 0.011865 -0.013527 0.000000 0.000000 0.000000
# 3 -0.009017 -0.013527 0.138899 0.000000 0.000000 0.000000
# 4 0.000000 0.000000 0.000000 0.048096 0.000000 0.000000
# 5 0.000000 0.000000 0.000000 0.000000 0.057002 0.000000
# 6 0.000000 0.000000 0.000000 0.000000 0.000000 0.059857
#
#
# Mechanical properties :
#
#
# Convention : Reuss Voigt Hill
#
# Bulk Modulus (GPa) = 9.37899 58.97473 34.17686
# Shear Modulus (GPa) = 12.12288 24.17074 18.14681
#
# Velocity S-wave (km/s) = 2.57973 3.64264 3.15625
# Velocity P-wave (km/s) = 3.74461 7.07579 5.66078
#
# Compressibility (1/GPa) = 0.10662130
#
# Stress axis : x y z
#
# Youngs Moduli (GPa) = 117.36334 84.28088 7.19950
#
# Poissons Ratio (x) = 0.31925 0.06492
# Poissons Ratio (y) = 0.44456 0.09739
# Poissons Ratio (z) = 1.05824 1.14005
#
# Static dielectric constant tensor:
#      x y z
#    x 1.614710 0.000000 0.000000 
#    y 0.000000 1.631820 0.000000 
#    z 0.000000 0.000000 1.635260 
# 
# From -- ./inp_files/2032.got.cif
#   From: 2010.05.17/outbox.cif.g08.bks.cpg/sg57_2_cif.got.tgz:2032.got - 2010.06.03 13:58:18.
