data_PCOD9435970
_publ_section_title
;
Structure prediction by ZEFSAII (Michael W. Deem and Ramdas Pophale) SiO2 
 PCOD9435970
Probable space group: P B C M
;
_chemical_formula_sum "Si O2"
_cell_formula_units_Z 64
_cell_length_a 19.085478
_cell_length_b 19.727411
_cell_length_c 9.206491
_cell_angle_alpha 90.000000
_cell_angle_beta 90.000000
_cell_angle_gamma 90.000000
_cell_volume 3466.308939
_symmetry_space_group_name_H-M "P B C M"
_symmetry_group_IT_number 57
_symmetry_cell_setting 'orthorhombic'
loop_
_space_group_symop_operation_xyz
x,y,z
-x,-y,1/2+z
x,1/2-y,-z
-x,1/2+y,1/2-z
-x,-y,-z
x,y,1/2-z
-x,1/2+y,z
x,1/2-y,1/2+z
loop_
_atom_site_type_symbol
_atom_site_label
_atom_site_fract_x
_atom_site_fract_y
_atom_site_fract_z
Si Si1 0.945162 0.950710 0.419958
Si Si2 0.790288 0.519252 0.920659
Si Si3 0.033743 0.817039 0.081828
Si Si4 0.549334 0.823688 0.575692
Si Si5 0.644621 0.553411 0.076329
Si Si6 0.320791 0.687610 0.079841
Si Si7 0.572442 0.430557 0.921317
Si Si8 0.826132 0.360521 0.920304
O O1 0.942371 0.972001 0.250000
O O2 0.864937 0.950945 0.473318
O O3 0.977226 0.876283 0.429162
O O4 0.000000 0.000000 0.500000
O O5 0.779495 0.536468 0.750000
O O6 0.804972 0.439037 0.929392
O O7 0.720894 0.539653 0.007779
O O8 0.046853 0.802172 0.250000
O O9 0.010494 0.750000 0.000000
O O10 0.105286 0.843120 0.009279
O O11 0.547758 0.750000 0.500000
O O12 0.542537 0.813451 0.750000
O O13 0.618081 0.869864 0.546942
O O14 0.487695 0.877036 0.533002
O O15 0.645955 0.544032 0.250000
O O16 0.589215 0.498791 0.009472
O O17 0.319306 0.703120 0.250000
O O18 0.358637 0.616039 0.064588
O O19 0.241967 0.678862 0.024733
O O20 0.357100 0.750000 0.000000
O O21 0.561269 0.446788 0.750000
O O22 0.837653 0.344768 0.750000
#
# Coordination Sequence:
#
# PCOD9435970 Si02
#       8
#     8   8   8   8   8   8   8   8
#     4  10  21  37  60  86 112 146 193 238 286 343
#     4  10  20  38  61  85 115 154 193 237 293 349
#     4  11  23  37  55  83 115 150 189 233 287 346
#     4  10  23  41  62  88 119 154 197 245 295 351
#     4  11  23  38  59  91 121 150 196 247 290 343
#     4  10  20  32  48  75 110 149 189 224 270 331
#     4  10  20  38  60  84 116 154 193 235 286 349
#     4  10  19  34  55  79 111 151 191 231 279 341
#
# _framework density 18.463445
#
# number of rings (size 3 to 8) (size 9 to 14) (size 15 to 20)
#    0.000    1.750    2.500    1.875    0.000    5.000 
#    0.000    0.625    0.000    3.000    0.000    0.000 
#    0.000    0.000    0.000    0.000    0.000    0.000 
#
# Total GULP energy -357072.199723 kJ/mol
# GULP energy per Si atom -5579.253121 kJ/mol
# Density = 1.842142 g / cm^3
# Si number density = 18.463445 Si / 1000 Ang^3
#
#
#
# Elastic Constant Matrix: (Units=GPa)
#
#
# Indices 1 2 3 4 5 6 
#
# 1 86.1522 52.6519 43.1996 0.0000 0.0000 0.0000
# 2 52.6519 104.8229 55.0516 0.0000 0.0000 0.0000
# 3 43.1996 55.0516 63.0147 0.0000 0.0000 0.0000
# 4 0.0000 0.0000 0.0000 30.4829 0.0000 0.0000
# 5 0.0000 0.0000 0.0000 0.0000 22.6529 0.0000
# 6 0.0000 0.0000 0.0000 0.0000 0.0000 16.6889
#
#
#
# Elastic Compliance Matrix: (Units=1/GPa)
#
#
# Indices 1 2 3 4 5 6 
#
# 1 0.019005 -0.004996 -0.008665 0.000000 0.000000 0.000000
# 2 -0.004996 0.018941 -0.013123 0.000000 0.000000 0.000000
# 3 -0.008665 -0.013123 0.033274 0.000000 0.000000 0.000000
# 4 0.000000 0.000000 0.000000 0.032805 0.000000 0.000000
# 5 0.000000 0.000000 0.000000 0.000000 0.044144 0.000000
# 6 0.000000 0.000000 0.000000 0.000000 0.000000 0.059920
#
#
# Mechanical properties :
#
#
# Convention : Reuss Voigt Hill
#
# Bulk Modulus (GPa) = 56.64439 61.75512 59.19976
# Shear Modulus (GPa) = 18.68874 20.83739 19.76306
#
# Velocity S-wave (km/s) = 3.18496 3.36307 3.27523
# Velocity P-wave (km/s) = 6.65366 6.97138 6.81437
#
# Compressibility (1/GPa) = 0.01765400
#
# Stress axis : x y z
#
# Youngs Moduli (GPa) = 52.61727 52.79526 30.05365
#
# Poissons Ratio (x) = 0.26375 0.26040
# Poissons Ratio (y) = 0.26286 0.39439
# Poissons Ratio (z) = 0.45591 0.69282
#
# Static dielectric constant tensor:
#      x y z
#    x 1.664900 0.000000 0.000000 
#    y 0.000000 1.641990 0.000000 
#    z 0.000000 0.000000 1.639380 
# 
# From -- ./inp_files/8399.got.cif
#   From: 2010.05.17/outbox.cif.g08.bks.cpg/sg57_5_cif.got.tgz:8399.got - 2010.06.03 13:58:18.
