data_PCOD9435135
_publ_section_title
;
Structure prediction by ZEFSAII (Michael W. Deem and Ramdas Pophale) SiO2 
 PCOD9435135
Probable space group: P B C M
;
_chemical_formula_sum "Si O2"
_cell_formula_units_Z 64
_cell_length_a 22.723827
_cell_length_b 19.365174
_cell_length_c 7.808084
_cell_angle_alpha 90.000000
_cell_angle_beta 90.000000
_cell_angle_gamma 90.000000
_cell_volume 3435.954109
_symmetry_space_group_name_H-M "P B C M"
_symmetry_group_IT_number 57
_symmetry_cell_setting 'orthorhombic'
loop_
_space_group_symop_operation_xyz
x,y,z
-x,-y,1/2+z
x,1/2-y,-z
-x,1/2+y,1/2-z
-x,-y,-z
x,y,1/2-z
-x,1/2+y,z
x,1/2-y,1/2+z
loop_
_atom_site_type_symbol
_atom_site_label
_atom_site_fract_x
_atom_site_fract_y
_atom_site_fract_z
Si Si1 0.907781 0.669951 0.956102
Si Si2 0.564370 0.474291 0.547457
Si Si3 0.194060 0.430086 0.458011
Si Si4 0.608910 0.323842 0.452646
Si Si5 0.852236 0.083222 0.954907
Si Si6 0.683616 0.970521 0.048997
Si Si7 0.983332 0.421320 0.043137
Si Si8 0.729519 0.122410 0.959048
O O1 0.907915 0.663786 0.750000
O O2 0.849476 0.629944 0.017786
O O3 0.965711 0.629730 0.020287
O O4 0.908250 0.750000 0.000000
O O5 0.500000 0.500000 0.500000
O O6 0.569886 0.479767 0.750000
O O7 0.575836 0.393834 0.505426
O O8 0.618009 0.521291 0.473165
O O9 0.196037 0.429580 0.250000
O O10 0.165869 0.503729 0.509342
O O11 0.261726 0.426030 0.521818
O O12 0.582354 0.250000 0.500000
O O13 0.611877 0.326279 0.250000
O O14 0.676628 0.328521 0.518932
O O15 0.854894 0.091530 0.750000
O O16 0.917755 0.095411 0.023303
O O17 0.797175 0.129934 0.016208
O O18 0.678199 0.952765 0.250000
O O19 0.708805 0.048043 0.028146
O O20 0.981857 0.416418 0.250000
O O21 0.000000 0.500000 0.000000
O O22 0.729461 0.120389 0.750000
#
# Coordination Sequence:
#
# PCOD9435135 Si02
#       8
#     8   8   8   8   8   8   8   8
#     4  10  21  34  47  66  94 126 160 201 250 300
#     4  10  19  32  51  77 106 136 171 207 249 297
#     4   9  16  29  48  69  92 117 152 198 244 287
#     4  10  19  32  50  72 101 136 172 210 251 298
#     4   9  16  27  46  70  93 118 153 198 244 290
#     4   8  15  27  46  70  94 120 151 192 237 282
#     4  10  19  31  48  70  94 123 163 208 250 297
#     4   8  15  27  43  66  94 122 152 191 238 285
#
# _framework density 18.626559
#
# number of rings (size 3 to 8) (size 9 to 14) (size 15 to 20)
#    0.000    2.750    1.250    0.750    0.000    2.000 
#    0.000    0.625    0.000    0.750    0.000    1.750 
#    0.000    0.000    0.000    0.000    0.000    0.000 
#
# Total GULP energy -356273.794741 kJ/mol
# GULP energy per Si atom -5566.778043 kJ/mol
# Density = 1.858416 g / cm^3
# Si number density = 18.626559 Si / 1000 Ang^3
#
#
#
# Elastic Constant Matrix: (Units=GPa)
#
#
# Indices 1 2 3 4 5 6 
#
# 1 193.8864 69.9353 10.8419 0.0000 0.0000 0.0000
# 2 69.9353 86.2828 -1.6238 0.0000 0.0000 0.0000
# 3 10.8419 -1.6238 26.6295 0.0000 0.0000 0.0000
# 4 0.0000 0.0000 0.0000 19.0534 0.0000 0.0000
# 5 0.0000 0.0000 0.0000 0.0000 11.7462 0.0000
# 6 0.0000 0.0000 0.0000 0.0000 0.0000 45.0898
#
#
#
# Elastic Compliance Matrix: (Units=1/GPa)
#
#
# Indices 1 2 3 4 5 6 
#
# 1 0.007596 -0.006222 -0.003472 0.000000 0.000000 0.000000
# 2 -0.006222 0.016700 0.003552 0.000000 0.000000 0.000000
# 3 -0.003472 0.003552 0.039183 0.000000 0.000000 0.000000
# 4 0.000000 0.000000 0.000000 0.052484 0.000000 0.000000
# 5 0.000000 0.000000 0.000000 0.000000 0.085134 0.000000
# 6 0.000000 0.000000 0.000000 0.000000 0.000000 0.022178
#
#
# Mechanical properties :
#
#
# Convention : Reuss Voigt Hill
#
# Bulk Modulus (GPa) = 19.53384 51.67839 35.60612
# Shear Modulus (GPa) = 19.79220 30.35422 25.07321
#
# Velocity S-wave (km/s) = 3.26326 4.04124 3.67290
# Velocity P-wave (km/s) = 4.97075 7.04132 6.09461
#
# Compressibility (1/GPa) = 0.05119320
#
# Stress axis : x y z
#
# Youngs Moduli (GPa) = 131.64407 59.87993 25.52157
#
# Poissons Ratio (x) = 0.37259 0.08861
# Poissons Ratio (y) = 0.81914 -0.09064
# Poissons Ratio (z) = 0.45709 -0.21267
#
# Static dielectric constant tensor:
#      x y z
#    x 0.884750 0.000000 0.000000 
#    y 0.000000 1.612590 0.000000 
#    z 0.000000 0.000000 1.677950 
# 
# From -- ./inp_files/9535.got.cif
#   From: 2010.05.17/outbox.cif.g08.bks.cpg/sg57_5_cif.got.tgz:9535.got - 2010.06.03 13:58:18.
