data_PCOD9435610
_publ_section_title
;
Structure prediction by ZEFSAII (Michael W. Deem and Ramdas Pophale) SiO2 
 PCOD9435610
Probable space group: P B C M
;
_chemical_formula_sum "Si O2"
_cell_formula_units_Z 56
_cell_length_a 17.088495
_cell_length_b 5.533700
_cell_length_c 25.245609
_cell_angle_alpha 90.000000
_cell_angle_beta 90.000000
_cell_angle_gamma 90.000000
_cell_volume 2387.290546
_symmetry_space_group_name_H-M "P B C M"
_symmetry_group_IT_number 57
_symmetry_cell_setting 'orthorhombic'
loop_
_space_group_symop_operation_xyz
x,y,z
-x,-y,1/2+z
x,1/2-y,-z
-x,1/2+y,1/2-z
-x,-y,-z
x,y,1/2-z
-x,1/2+y,z
x,1/2-y,1/2+z
loop_
_atom_site_type_symbol
_atom_site_label
_atom_site_fract_x
_atom_site_fract_y
_atom_site_fract_z
Si Si1 0.923829 0.950953 0.189556
Si Si2 0.812491 0.241622 0.881926
Si Si3 0.028132 0.902855 0.082777
Si Si4 0.672904 0.525285 0.868314
Si Si5 0.548442 0.728565 0.060696
Si Si6 0.548196 0.230085 0.688987
Si Si7 0.772361 0.860378 0.806677
O O1 0.951777 0.999736 0.250000
O O2 0.862737 0.728713 0.192101
O O3 0.988224 0.915955 0.143117
O O4 0.864600 0.152368 0.166835
O O5 0.879779 0.145208 0.919285
O O6 0.749554 0.436301 0.900394
O O7 0.764105 0.027029 0.856929
O O8 0.989944 0.662840 0.059535
O O9 0.619107 0.708649 0.900405
O O10 0.617980 0.305815 0.849605
O O11 0.711413 0.645214 0.816268
O O12 0.510940 0.460676 0.067149
O O13 0.575314 0.750000 0.000000
O O14 0.574128 0.241084 0.750000
O O15 0.488448 0.461261 0.682383
O O16 0.757646 0.976652 0.750000
#
# Coordination Sequence:
#
# PCOD9435610 Si02
#       7
#     8   8   8   8   8   8   8
#     4   9  18  31  45  65  97 147 204 250 287 323
#     4  10  21  33  48  75 109 151 201 243 292 340
#     4  10  19  33  48  67  99 144 199 245 284 325
#     4  11  23  36  58  83 116 153 185 237 301 353
#     4  10  23  44  71 100 122 145 185 236 296 370
#     4  10  22  38  54  75 103 144 193 226 258 320
#     4  10  20  33  48  75 113 156 203 244 284 333
#
# _framework density 23.457557000000001
#
# number of rings (size 3 to 8) (size 9 to 14) (size 15 to 20)
#    0.000    2.000    1.429    1.714    4.000    4.571 
#    0.000    0.000    0.000    0.000    0.000    0.000 
#    0.000   10.286    0.000    1.286    0.000    0.000 
#
# Total GULP energy -312367.830216 kJ/mol
# GULP energy per Si atom -5577.996968 kJ/mol
# Density = 2.340417 g / cm^3
# Si number density = 23.457557 Si / 1000 Ang^3
#
#
#
# Elastic Constant Matrix: (Units=GPa)
#
#
# Indices 1 2 3 4 5 6 
#
# 1 123.6027 39.3647 23.8638 0.0000 0.0000 0.0000
# 2 39.3647 121.1040 -6.5561 0.0000 0.0000 0.0000
# 3 23.8638 -6.5561 50.5558 0.0000 0.0000 0.0000
# 4 0.0000 0.0000 0.0000 12.1399 0.0000 0.0000
# 5 0.0000 0.0000 0.0000 0.0000 5.3329 0.0000
# 6 0.0000 0.0000 0.0000 0.0000 0.0000 44.8845
#
#
#
# Elastic Compliance Matrix: (Units=1/GPa)
#
#
# Indices 1 2 3 4 5 6 
#
# 1 0.010273 -0.003627 -0.005319 0.000000 0.000000 0.000000
# 2 -0.003627 0.009596 0.002957 0.000000 0.000000 0.000000
# 3 -0.005319 0.002957 0.022674 0.000000 0.000000 0.000000
# 4 0.000000 0.000000 0.000000 0.082373 0.000000 0.000000
# 5 0.000000 0.000000 0.000000 0.000000 0.187515 0.000000
# 6 0.000000 0.000000 0.000000 0.000000 0.000000 0.022279
#
#
# Mechanical properties :
#
#
# Convention : Reuss Voigt Hill
#
# Bulk Modulus (GPa) = 32.71854 45.40079 39.05966
# Shear Modulus (GPa) = 14.01038 28.37747 21.19393
#
# Velocity S-wave (km/s) = 2.44655 3.48190 3.00909
# Velocity P-wave (km/s) = 4.68605 5.96333 5.36285
#
# Compressibility (1/GPa) = 0.03056371
#
# Stress axis : x y z
#
# Youngs Moduli (GPa) = 97.34675 104.20587 44.10266
#
# Poissons Ratio (x) = 0.37796 0.23459
# Poissons Ratio (y) = 0.35308 -0.13039
# Poissons Ratio (z) = 0.51782 -0.30809
#
# Static dielectric constant tensor:
#      x y z
#    x 1.868850 0.000000 0.000000 
#    y 0.000000 2.030090 0.000000 
#    z 0.000000 0.000000 1.938380 
# 
# From -- ./inp_files/29864.got.cif
#   From: 2010.05.17/outbox.cif.g08.bks.cpg/sg57_15_cif.got.tgz:29864.got - 2010.06.03 13:58:18.
