data_PCOD9435813
_publ_section_title
;
Structure prediction by ZEFSAII (Michael W. Deem and Ramdas Pophale) SiO2 
 PCOD9435813
Probable space group: P B C M
;
_chemical_formula_sum "Si O2"
_cell_formula_units_Z 56
_cell_length_a 22.017713
_cell_length_b 14.952822
_cell_length_c 8.644519
_cell_angle_alpha 90.000000
_cell_angle_beta 90.000000
_cell_angle_gamma 90.000000
_cell_volume 2846.008567
_symmetry_space_group_name_H-M "P B C M"
_symmetry_group_IT_number 57
_symmetry_cell_setting 'orthorhombic'
loop_
_space_group_symop_operation_xyz
x,y,z
-x,-y,1/2+z
x,1/2-y,-z
-x,1/2+y,1/2-z
-x,-y,-z
x,y,1/2-z
-x,1/2+y,z
x,1/2-y,1/2+z
loop_
_atom_site_type_symbol
_atom_site_label
_atom_site_fract_x
_atom_site_fract_y
_atom_site_fract_z
Si Si1 0.358917 0.469650 0.935662
Si Si2 0.531798 0.845860 0.936182
Si Si3 0.250162 0.350005 0.434342
Si Si4 0.110522 0.844542 0.435363
Si Si5 0.608859 0.345813 0.935292
Si Si6 0.031873 0.346578 0.063971
Si Si7 0.138079 0.460577 0.564116
O O1 0.356993 0.471928 0.750000
O O2 0.422701 0.423931 0.985562
O O3 0.305668 0.407248 0.998104
O O4 0.355289 0.569505 0.000658
O O5 0.532460 0.842101 0.750000
O O6 0.461934 0.857977 0.986103
O O7 0.553071 0.750000 0.000000
O O8 0.251772 0.250000 0.500000
O O9 0.253696 0.347012 0.250000
O O10 0.188808 0.399155 0.487260
O O11 0.132911 0.750000 0.500000
O O12 0.112893 0.840049 0.250000
O O13 0.039209 0.854721 0.478429
O O14 0.143550 0.935564 0.484274
O O15 0.610714 0.344510 0.750000
O O16 0.629207 0.250000 0.000000
O O17 0.037352 0.349040 0.250000
O O18 0.052727 0.250000 0.000000
O O19 0.072971 0.422452 0.987974
O O20 0.142926 0.455606 0.750000
#
# Coordination Sequence:
#
# PCOD9435813 Si02
#       7
#     8   8   8   8   8   8   8
#     4  11  22  38  59  85 115 151 192 237 284 337
#     4   9  19  33  54  84 118 152 188 230 282 338
#     4  12  26  44  63  85 112 147 188 234 283 336
#     4   9  20  36  57  84 116 149 185 228 278 332
#     4  10  20  36  57  85 118 153 190 233 282 337
#     4  10  19  33  54  84 117 151 186 227 278 335
#     4  11  22  38  58  83 113 149 190 235 282 333
#
# _framework density 19.676680000000001
#
# number of rings (size 3 to 8) (size 9 to 14) (size 15 to 20)
#    0.000    1.714    0.000    4.714    0.000    4.571 
#    0.000    0.714    0.000    1.714    0.000    0.000 
#    0.000    0.000    0.000    0.000    0.000    0.000 
#
# Total GULP energy -313002.324027 kJ/mol
# GULP energy per Si atom -5589.327215 kJ/mol
# Density = 1.963190 g / cm^3
# Si number density = 19.676680 Si / 1000 Ang^3
#
#
#
# Elastic Constant Matrix: (Units=GPa)
#
#
# Indices 1 2 3 4 5 6 
#
# 1 37.9572 49.5020 20.8891 0.0000 0.0000 0.0000
# 2 49.5020 194.6880 51.0181 0.0000 0.0000 0.0000
# 3 20.8891 51.0181 64.2510 0.0000 0.0000 0.0000
# 4 0.0000 0.0000 0.0000 34.8774 0.0000 0.0000
# 5 0.0000 0.0000 0.0000 0.0000 25.1498 0.0000
# 6 0.0000 0.0000 0.0000 0.0000 0.0000 51.1295
#
#
#
# Elastic Compliance Matrix: (Units=1/GPa)
#
#
# Indices 1 2 3 4 5 6 
#
# 1 0.041427 -0.008844 -0.006446 0.000000 0.000000 0.000000
# 2 -0.008844 0.008374 -0.003774 0.000000 0.000000 0.000000
# 3 -0.006446 -0.003774 0.020656 0.000000 0.000000 0.000000
# 4 0.000000 0.000000 0.000000 0.028672 0.000000 0.000000
# 5 0.000000 0.000000 0.000000 0.000000 0.039762 0.000000
# 6 0.000000 0.000000 0.000000 0.000000 0.000000 0.019558
#
#
# Mechanical properties :
#
#
# Convention : Reuss Voigt Hill
#
# Bulk Modulus (GPa) = 30.93178 59.96829 45.45003
# Shear Modulus (GPa) = 24.11331 33.93048 29.02189
#
# Velocity S-wave (km/s) = 3.50448 4.15710 3.84466
# Velocity P-wave (km/s) = 5.66827 7.32017 6.54653
#
# Compressibility (1/GPa) = 0.03232921
#
# Stress axis : x y z
#
# Youngs Moduli (GPa) = 24.13879 119.41475 48.41108
#
# Poissons Ratio (x) = 1.05613 0.31206
# Poissons Ratio (y) = 0.21349 0.18271
# Poissons Ratio (z) = 0.15560 0.45068
#
# Static dielectric constant tensor:
#      x y z
#    x 1.699010 0.000000 0.000000 
#    y 0.000000 1.690410 0.000000 
#    z 0.000000 0.000000 1.657110 
# 
# From -- ./inp_files/8198.got.cif
#   From: 2010.05.17/outbox.cif.g08.bks.cpg/sg57_5_cif.got.tgz:8198.got - 2010.06.03 13:58:18.
