data_PCOD9435618
_publ_section_title
;
Structure prediction by ZEFSAII (Michael W. Deem and Ramdas Pophale) SiO2 
 PCOD9435618
Probable space group: P B C M
;
_chemical_formula_sum "Si O2"
_cell_formula_units_Z 40
_cell_length_a 13.550110
_cell_length_b 19.615270
_cell_length_c 8.441018
_cell_angle_alpha 90.000000
_cell_angle_beta 90.000000
_cell_angle_gamma 90.000000
_cell_volume 2243.530292
_symmetry_space_group_name_H-M "P B C M"
_symmetry_group_IT_number 57
_symmetry_cell_setting 'orthorhombic'
loop_
_space_group_symop_operation_xyz
x,y,z
-x,-y,1/2+z
x,1/2-y,-z
-x,1/2+y,1/2-z
-x,-y,-z
x,y,1/2-z
-x,1/2+y,z
x,1/2-y,1/2+z
loop_
_atom_site_type_symbol
_atom_site_label
_atom_site_fract_x
_atom_site_fract_y
_atom_site_fract_z
Si Si1 0.786824 0.421260 0.056943
Si Si2 0.607097 0.172882 0.559688
Si Si3 0.607566 0.672912 0.440270
Si Si4 0.788499 0.920770 0.940929
Si Si5 0.002785 0.422016 0.439651
O O1 0.784811 0.421817 0.250000
O O2 0.695805 0.375419 0.003111
O O3 0.778232 0.500325 0.005548
O O4 0.895518 0.393643 0.010568
O O5 0.621437 0.250000 0.500000
O O6 0.606269 0.173460 0.750000
O O7 0.499607 0.149510 0.500639
O O8 0.622204 0.750000 0.500000
O O9 0.605879 0.673492 0.250000
O O10 0.696735 0.624704 0.494846
O O11 0.788586 0.921626 0.750000
O O12 0.894947 0.892793 0.995245
O O13 0.006991 0.421592 0.250000
O O14 0.000000 0.500000 0.500000
#
# Coordination Sequence:
#
# PCOD9435618 Si02
#       5
#     8   8   8   8   8
#     4   8  16  31  50  71  96 125 155 193 238 279
#     4  10  19  33  51  69  94 127 160 194 236 286
#     4  10  20  34  51  70  96 127 159 198 241 287
#     4   9  18  33  51  72  97 125 160 200 239 280
#     4   9  16  29  49  72  99 128 158 193 238 287
#
# _framework density 17.829044
#
# number of rings (size 3 to 8) (size 9 to 14) (size 15 to 20)
#    0.000    2.800    0.000    4.200    0.000    2.400 
#    0.000   11.000    0.000    4.800    0.000    0.000 
#    0.000    0.000    0.000    0.000    0.000    0.000 
#
# Total GULP energy -222840.423617 kJ/mol
# GULP energy per Si atom -5571.010590 kJ/mol
# Density = 1.778846 g / cm^3
# Si number density = 17.829044 Si / 1000 Ang^3
#
#
#
# Elastic Constant Matrix: (Units=GPa)
#
#
# Indices 1 2 3 4 5 6 
#
# 1 228.2574 87.3993 27.6167 0.0000 0.0000 0.0000
# 2 87.3993 51.7571 12.9114 0.0000 0.0000 0.0000
# 3 27.6167 12.9114 28.1822 0.0000 0.0000 0.0000
# 4 0.0000 0.0000 0.0000 14.8505 0.0000 0.0000
# 5 0.0000 0.0000 0.0000 0.0000 28.5423 0.0000
# 6 0.0000 0.0000 0.0000 0.0000 0.0000 85.2970
#
#
#
# Elastic Compliance Matrix: (Units=1/GPa)
#
#
# Indices 1 2 3 4 5 6 
#
# 1 0.012608 -0.020557 -0.002937 0.000000 0.000000 0.000000
# 2 -0.020557 0.055334 -0.005206 0.000000 0.000000 0.000000
# 3 -0.002937 -0.005206 0.040746 0.000000 0.000000 0.000000
# 4 0.000000 0.000000 0.000000 0.067338 0.000000 0.000000
# 5 0.000000 0.000000 0.000000 0.000000 0.035036 0.000000
# 6 0.000000 0.000000 0.000000 0.000000 0.000000 0.011724
#
#
# Mechanical properties :
#
#
# Convention : Reuss Voigt Hill
#
# Bulk Modulus (GPa) = 19.49769 62.67237 41.08503
# Shear Modulus (GPa) = 16.81917 37.75592 27.28755
#
# Velocity S-wave (km/s) = 3.07475 4.60680 3.91642
# Velocity P-wave (km/s) = 4.85439 7.97026 6.59886
#
# Compressibility (1/GPa) = 0.05128814
#
# Stress axis : x y z
#
# Youngs Moduli (GPa) = 79.31682 18.07219 24.54228
#
# Poissons Ratio (x) = 0.37152 0.07207
# Poissons Ratio (y) = 1.63054 0.12776
# Poissons Ratio (z) = 0.23292 0.09408
#
# Static dielectric constant tensor:
#      x y z
#    x 1.644450 0.000000 0.000000 
#    y 0.000000 1.583930 0.000000 
#    z 0.000000 0.000000 1.613870 
# 
# From -- ./inp_files/2915.got.cif
#   From: 2010.05.17/outbox.cif.g08.bks.cpg/sg57_2_cif.got.tgz:2915.got - 2010.06.03 13:58:18.
