data_PCOD9435069
_publ_section_title
;
Structure prediction by ZEFSAII (Michael W. Deem and Ramdas Pophale) SiO2 
 PCOD9435069
Probable space group: P B C M
;
_chemical_formula_sum "Si O2"
_cell_formula_units_Z 56
_cell_length_a 26.917506
_cell_length_b 5.322391
_cell_length_c 22.251759
_cell_angle_alpha 90.000000
_cell_angle_beta 90.000000
_cell_angle_gamma 90.000000
_cell_volume 3187.909194
_symmetry_space_group_name_H-M "P B C M"
_symmetry_group_IT_number 57
_symmetry_cell_setting 'orthorhombic'
loop_
_space_group_symop_operation_xyz
x,y,z
-x,-y,1/2+z
x,1/2-y,-z
-x,1/2+y,1/2-z
-x,-y,-z
x,y,1/2-z
-x,1/2+y,z
x,1/2-y,1/2+z
loop_
_atom_site_type_symbol
_atom_site_label
_atom_site_fract_x
_atom_site_fract_y
_atom_site_fract_z
Si Si1 0.470728 0.249879 0.176685
Si Si2 0.184723 0.749913 0.129203
Si Si3 0.859297 0.749902 0.071509
Si Si4 0.946599 0.750064 0.750000
Si Si5 0.703934 0.250073 0.823028
Si Si6 0.119989 0.749939 0.250000
Si Si7 0.643519 0.750071 0.822819
Si Si8 0.972895 0.749972 0.384758
O O1 0.470106 0.249878 0.250000
O O2 0.500005 0.499864 0.157999
O O3 0.413544 0.249914 0.156368
O O4 0.168738 0.499228 0.094073
O O5 0.242569 0.749929 0.146042
O O6 0.153846 0.749985 0.191118
O O7 0.168735 0.000519 0.094042
O O8 0.915010 0.749890 0.098602
O O9 0.862836 0.750000 0.000000
O O10 0.912983 0.500566 0.750000
O O11 0.976423 0.750017 0.687898
O O12 0.913008 0.999646 0.750000
O O13 0.710364 0.250078 0.750000
O O14 0.673048 0.498828 0.839833
O O15 0.673050 0.001312 0.839831
O O16 0.641706 0.750066 0.750000
O O17 0.000012 0.500006 0.407443
#
# Coordination Sequence:
#
# PCOD9435069 Si02
#       8
#     8   8   8   4   8   4   8   8
#     4   9  15  23  36  53  84 136 189 227 253 293
#     4  12  22  41  62  86 110 141 186 223 286 329
#     4  12  27  45  63  82 111 148 188 224 258 327
#     4  12  22  39  60  92 122 140 172 215 284 322
#     4  10  19  30  50  76 104 134 168 226 286 327
#     4  12  20  37  64  88 112 144 170 231 272 334
#     4   9  17  27  39  66 101 133 179 228 270 316
#     4  12  24  40  62  88 113 146 176 219 273 322
#
# _framework density 17.566372000000001
#
# number of rings (size 3 to 8) (size 9 to 14) (size 15 to 20)
#    0.000    1.143    3.571    4.286    0.000    4.000 
#    0.000    0.000    0.000    0.000    0.000    0.000 
#    0.000    0.000    0.000    0.000    0.000  180.000 
#
# Total GULP energy -312952.238019 kJ/mol
# GULP energy per Si atom -5588.432822 kJ/mol
# Density = 1.752639 g / cm^3
# Si number density = 17.566372 Si / 1000 Ang^3
#
#
#
# Elastic Constant Matrix: (Units=GPa)
#
#
# Indices 1 2 3 4 5 6 
#
# 1 166.7230 109.2448 13.5161 0.0000 0.0000 0.0000
# 2 109.2448 212.2454 27.1985 0.0000 0.0000 0.0000
# 3 13.5161 27.1985 55.5118 0.0000 0.0000 0.0000
# 4 0.0000 0.0000 0.0000 -28.0731 0.0000 0.0000
# 5 0.0000 0.0000 0.0000 0.0000 -0.2036 0.0000
# 6 0.0000 0.0000 0.0000 0.0000 0.0000 31.0417
#
#
#
# Elastic Compliance Matrix: (Units=1/GPa)
#
#
# Indices 1 2 3 4 5 6 
#
# 1 0.009051 -0.004669 0.000084 0.000000 0.000000 0.000000
# 2 -0.004669 0.007436 -0.002506 0.000000 0.000000 0.000000
# 3 0.000084 -0.002506 0.019222 0.000000 0.000000 0.000000
# 4 0.000000 0.000000 0.000000 -0.035621 0.000000 0.000000
# 5 0.000000 0.000000 0.000000 0.000000 -4.912744 0.000000
# 6 0.000000 0.000000 0.000000 0.000000 0.000000 0.032215
#
#
# Mechanical properties :
#
#
# Convention : Reuss Voigt Hill
#
# Bulk Modulus (GPa) = 46.45719 81.59989 64.02854
# Shear Modulus (GPa) = -1.02900 19.52107 9.24603
#
# Velocity S-wave (km/s) = -0.76619 3.33720 2.29672
# Velocity P-wave (km/s) = 5.07162 7.83596 6.60014
#
# Compressibility (1/GPa) = 0.02152519
#
# Stress axis : x y z
#
# Youngs Moduli (GPa) = 110.48911 134.48043 52.02425
#
# Poissons Ratio (x) = 0.62792 -0.00437
# Poissons Ratio (y) = 0.51590 0.13040
# Poissons Ratio (z) = -0.00929 0.33707
#
# Static dielectric constant tensor:
#      x y z
#    x 1.578190 0.000000 0.000000 
#    y 0.000000 1.606690 0.000000 
#    z 0.000000 0.000000 1.569940 
# 
# From -- ./inp_files/25855.got.cif
#   From: 2010.05.17/outbox.cif.g08.bks.cpg/sg57_13_cif.got.tgz:25855.got - 2010.06.03 13:58:18.
