data_PCOD9435325
_publ_section_title
;
Structure prediction by ZEFSAII (Michael W. Deem and Ramdas Pophale) SiO2 
 PCOD9435325
Probable space group: P B C M
;
_chemical_formula_sum "Si O2"
_cell_formula_units_Z 64
_cell_length_a 23.861106
_cell_length_b 17.862675
_cell_length_c 8.625349
_cell_angle_alpha 90.000000
_cell_angle_beta 90.000000
_cell_angle_gamma 90.000000
_cell_volume 3676.323693
_symmetry_space_group_name_H-M "P B C M"
_symmetry_group_IT_number 57
_symmetry_cell_setting 'orthorhombic'
loop_
_space_group_symop_operation_xyz
x,y,z
-x,-y,1/2+z
x,1/2-y,-z
-x,1/2+y,1/2-z
-x,-y,-z
x,y,1/2-z
-x,1/2+y,z
x,1/2-y,1/2+z
loop_
_atom_site_type_symbol
_atom_site_label
_atom_site_fract_x
_atom_site_fract_y
_atom_site_fract_z
Si Si1 0.565678 0.832230 0.063252
Si Si2 0.632969 0.517630 0.936959
Si Si3 0.181485 0.170175 0.435703
Si Si4 0.761934 0.977962 0.435883
Si Si5 0.868318 0.055803 0.936057
Si Si6 0.068186 0.093886 0.062361
Si Si7 0.953580 0.166877 0.436249
Si Si8 0.535242 0.070131 0.935687
O O1 0.568496 0.829200 0.250000
O O2 0.605953 0.901822 0.013571
O O3 0.502210 0.858006 0.018680
O O4 0.579507 0.750000 0.000000
O O5 0.629378 0.516694 0.750000
O O6 0.697595 0.511199 0.983463
O O7 0.596506 0.448282 0.000015
O O8 0.199002 0.250000 0.500000
O O9 0.185224 0.168237 0.250000
O O10 0.217573 0.102882 0.504987
O O11 0.116750 0.152930 0.480184
O O12 0.765013 0.980091 0.250000
O O13 0.806329 0.036817 0.504511
O O14 0.867989 0.057057 0.750000
O O15 0.908144 0.986363 0.989177
O O16 0.896931 0.129384 0.002547
O O17 0.066068 0.091591 0.250000
O O18 0.007225 0.118315 0.007132
O O19 0.960012 0.250000 0.500000
O O20 0.953699 0.167537 0.250000
O O21 0.536399 0.067704 0.750000
O O22 0.500000 0.000000 0.000000
#
# Coordination Sequence:
#
# PCOD9435325 Si02
#       8
#     8   8   8   8   8   8   8   8
#     4   9  18  31  47  73 105 134 161 195 237 285
#     4   9  19  34  51  73 100 129 169 211 246 289
#     4  10  19  32  48  70 101 136 171 208 250 300
#     4  10  20  35  53  73  98 132 171 213 255 298
#     4  10  20  36  54  75 102 132 168 211 254 305
#     4   8  17  32  51  74 100 129 165 206 251 306
#     4  11  21  34  52  76 102 130 164 206 259 313
#     4   9  17  30  49  72  99 130 166 202 240 284
#
# _framework density 17.408697
#
# number of rings (size 3 to 8) (size 9 to 14) (size 15 to 20)
#    0.000    2.500    0.000    4.125    0.000    4.000 
#    0.000    7.500    0.000    0.750    0.000    1.750 
#    0.000    0.000    0.000    0.000    0.000    0.000 
#
# Total GULP energy -356765.618186 kJ/mol
# GULP energy per Si atom -5574.462784 kJ/mol
# Density = 1.736907 g / cm^3
# Si number density = 17.408697 Si / 1000 Ang^3
#
#
#
# Elastic Constant Matrix: (Units=GPa)
#
#
# Indices 1 2 3 4 5 6 
#
# 1 133.8571 33.2607 31.1270 0.0000 0.0000 0.0000
# 2 33.2607 34.7230 12.0539 0.0000 0.0000 0.0000
# 3 31.1270 12.0539 36.3335 0.0000 0.0000 0.0000
# 4 0.0000 0.0000 0.0000 25.5283 0.0000 0.0000
# 5 0.0000 0.0000 0.0000 0.0000 23.8760 0.0000
# 6 0.0000 0.0000 0.0000 0.0000 0.0000 21.4547
#
#
#
# Elastic Compliance Matrix: (Units=1/GPa)
#
#
# Indices 1 2 3 4 5 6 
#
# 1 0.011102 -0.008287 -0.006762 0.000000 0.000000 0.000000
# 2 -0.008287 0.038734 -0.005750 0.000000 0.000000 0.000000
# 3 -0.006762 -0.005750 0.035224 0.000000 0.000000 0.000000
# 4 0.000000 0.000000 0.000000 0.039172 0.000000 0.000000
# 5 0.000000 0.000000 0.000000 0.000000 0.041883 0.000000
# 6 0.000000 0.000000 0.000000 0.000000 0.000000 0.046610
#
#
# Mechanical properties :
#
#
# Convention : Reuss Voigt Hill
#
# Bulk Modulus (GPa) = 23.00955 39.75522 31.38239
# Shear Modulus (GPa) = 18.60039 22.73659 20.66849
#
# Velocity S-wave (km/s) = 3.27227 3.61785 3.44939
# Velocity P-wave (km/s) = 5.24623 6.35120 5.82498
#
# Compressibility (1/GPa) = 0.04346021
#
# Stress axis : x y z
#
# Youngs Moduli (GPa) = 90.07127 25.81709 28.39010
#
# Poissons Ratio (x) = 0.21396 0.19197
# Poissons Ratio (y) = 0.74646 0.16326
# Poissons Ratio (z) = 0.60906 0.14846
#
# Static dielectric constant tensor:
#      x y z
#    x 1.610330 0.000000 0.000000 
#    y 0.000000 1.527080 0.000000 
#    z 0.000000 0.000000 1.581090 
# 
# From -- ./inp_files/9567.got.cif
#   From: 2010.05.17/outbox.cif.g08.bks.cpg/sg57_5_cif.got.tgz:9567.got - 2010.06.03 13:58:18.
