data_PCOD9435273
_publ_section_title
;
Structure prediction by ZEFSAII (Michael W. Deem and Ramdas Pophale) SiO2 
 PCOD9435273
Probable space group: P B C M
;
_chemical_formula_sum "Si O2"
_cell_formula_units_Z 64
_cell_length_a 27.894980
_cell_length_b 11.710766
_cell_length_c 9.655250
_cell_angle_alpha 90.000000
_cell_angle_beta 90.000000
_cell_angle_gamma 90.000000
_cell_volume 3154.095805
_symmetry_space_group_name_H-M "P B C M"
_symmetry_group_IT_number 57
_symmetry_cell_setting 'orthorhombic'
loop_
_space_group_symop_operation_xyz
x,y,z
-x,-y,1/2+z
x,1/2-y,-z
-x,1/2+y,1/2-z
-x,-y,-z
x,y,1/2-z
-x,1/2+y,z
x,1/2-y,1/2+z
loop_
_atom_site_type_symbol
_atom_site_label
_atom_site_fract_x
_atom_site_fract_y
_atom_site_fract_z
Si Si1 0.503957 0.843696 0.096399
Si Si2 0.862045 0.144911 0.591461
Si Si3 0.424993 0.042240 0.406248
Si Si4 0.990941 0.627919 0.581062
Si Si5 0.776910 0.645309 0.591635
Si Si6 0.244637 0.564319 0.904891
Si Si7 0.116174 0.065494 0.595529
Si Si8 0.351527 0.643523 0.909727
O O1 0.511603 0.799469 0.250000
O O2 0.467954 0.949511 0.104148
O O3 0.480093 0.750000 0.000000
O O4 0.553679 0.875368 0.021712
O O5 0.878349 0.250000 0.500000
O O6 0.876572 0.155488 0.750000
O O7 0.803986 0.137189 0.586557
O O8 0.881191 0.029902 0.522332
O O9 0.417494 0.088157 0.250000
O O10 0.377811 0.973461 0.450932
O O11 0.006039 0.750000 0.500000
O O12 0.005334 0.624380 0.750000
O O13 0.933101 0.632546 0.584296
O O14 0.000000 0.500000 0.500000
O O15 0.760217 0.750000 0.500000
O O16 0.762443 0.656279 0.750000
O O17 0.758510 0.529504 0.523223
O O18 0.835021 0.637444 0.586092
O O19 0.243725 0.510604 0.750000
O O20 0.294250 0.630578 0.916745
O O21 0.117358 0.010555 0.750000
O O22 0.365460 0.662490 0.750000
O O23 0.366597 0.750000 0.000000
#
# Coordination Sequence:
#
# PCOD9435273 Si02
#       8
#     8   8   8   8   8   8   8   8
#     4  10  19  32  52  75 100 129 162 205 254 302
#     4  10  19  31  51  78 110 146 184 228 277 328
#     4   9  19  34  51  74 101 130 166 206 249 300
#     4  11  24  43  66  92 123 160 201 246 297 354
#     4  10  19  33  55  80 105 135 172 217 265 313
#     4   9  19  34  50  73 104 138 175 214 258 310
#     4   9  20  37  57  82 111 144 185 231 279 332
#     4  10  20  34  53  75 102 134 167 206 251 302
#
# _framework density 20.291077999999999
#
# number of rings (size 3 to 8) (size 9 to 14) (size 15 to 20)
#    0.000    2.250    0.000    2.625    0.000    4.000 
#    0.000    0.625    0.000    0.000    0.000    0.000 
#    0.000    0.000    0.000    0.000    0.000    0.000 
#
# Total GULP energy -356505.344894 kJ/mol
# GULP energy per Si atom -5570.396014 kJ/mol
# Density = 2.024489 g / cm^3
# Si number density = 20.291078 Si / 1000 Ang^3
#
#
#
# Elastic Constant Matrix: (Units=GPa)
#
#
# Indices 1 2 3 4 5 6 
#
# 1 67.1068 -0.2152 11.5286 0.0000 0.0000 0.0000
# 2 -0.2152 62.9080 63.7942 0.0000 0.0000 0.0000
# 3 11.5286 63.7942 164.7176 0.0000 0.0000 0.0000
# 4 0.0000 0.0000 0.0000 35.0373 0.0000 0.0000
# 5 0.0000 0.0000 0.0000 0.0000 9.8633 0.0000
# 6 0.0000 0.0000 0.0000 0.0000 0.0000 -4.5624
#
#
#
# Elastic Compliance Matrix: (Units=1/GPa)
#
#
# Indices 1 2 3 4 5 6 
#
# 1 0.015215 0.001864 -0.001787 0.000000 0.000000 0.000000
# 2 0.001864 0.026406 -0.010357 0.000000 0.000000 0.000000
# 3 -0.001787 -0.010357 0.010207 0.000000 0.000000 0.000000
# 4 0.000000 0.000000 0.000000 0.028541 0.000000 0.000000
# 5 0.000000 0.000000 0.000000 0.000000 0.101386 0.000000
# 6 0.000000 0.000000 0.000000 0.000000 0.000000 -0.219182
#
#
# Mechanical properties :
#
#
# Convention : Reuss Voigt Hill
#
# Bulk Modulus (GPa) = 31.98196 49.43861 40.71028
# Shear Modulus (GPa) = -775.81070 22.70928 -376.55071
#
# Velocity S-wave (km/s) = -19.57475 3.34904 -13.63735
# Velocity P-wave (km/s) = 22.25081 6.27474 15.09514
#
# Compressibility (1/GPa) = 0.03126763
#
# Stress axis : x y z
#
# Youngs Moduli (GPa) = 65.72650 37.87042 97.96832
#
# Poissons Ratio (x) = -0.07059 0.17505
# Poissons Ratio (y) = -0.12252 1.01469
# Poissons Ratio (z) = 0.11744 0.39224
#
# Static dielectric constant tensor:
#      x y z
#    x 1.717510 0.000000 0.000000 
#    y 0.000000 1.724070 0.000000 
#    z 0.000000 0.000000 1.825930 
# 
# From -- ./inp_files/10279.got.cif
#   From: 2010.05.17/outbox.cif.g08.bks.cpg/sg57_6_cif.got.tgz:10279.got - 2010.06.03 13:58:18.
