data_PCOD9435752
_publ_section_title
;
Structure prediction by ZEFSAII (Michael W. Deem and Ramdas Pophale) SiO2 
 PCOD9435752
Probable space group: P B C M
;
_chemical_formula_sum "Si O2"
_cell_formula_units_Z 64
_cell_length_a 23.059008
_cell_length_b 17.935575
_cell_length_c 8.886135
_cell_angle_alpha 90.000000
_cell_angle_beta 90.000000
_cell_angle_gamma 90.000000
_cell_volume 3675.097211
_symmetry_space_group_name_H-M "P B C M"
_symmetry_group_IT_number 57
_symmetry_cell_setting 'orthorhombic'
loop_
_space_group_symop_operation_xyz
x,y,z
-x,-y,1/2+z
x,1/2-y,-z
-x,1/2+y,1/2-z
-x,-y,-z
x,y,1/2-z
-x,1/2+y,z
x,1/2-y,1/2+z
loop_
_atom_site_type_symbol
_atom_site_label
_atom_site_fract_x
_atom_site_fract_y
_atom_site_fract_z
Si Si1 0.242882 0.509905 0.929150
Si Si2 0.458948 0.936125 0.430675
Si Si3 0.041545 0.327114 0.430347
Si Si4 0.202899 0.825358 0.429806
Si Si5 0.080926 0.630444 0.427935
Si Si6 0.123293 0.035283 0.572051
Si Si7 0.558224 0.830311 0.069485
Si Si8 0.363009 0.027566 0.930210
O O1 0.249694 0.503481 0.750000
O O2 0.236480 0.598107 0.967176
O O3 0.182700 0.472746 0.980987
O O4 0.297610 0.474651 0.012243
O O5 0.457157 0.942314 0.250000
O O6 0.493431 0.860428 0.469238
O O7 0.500000 0.000000 0.500000
O O8 0.396929 0.956827 0.498845
O O9 0.063165 0.250000 0.500000
O O10 0.038521 0.322533 0.250000
O O11 0.083900 0.394995 0.471770
O O12 0.977600 0.342041 0.495452
O O13 0.228302 0.750000 0.500000
O O14 0.199559 0.819089 0.250000
O O15 0.138350 0.835507 0.497189
O O16 0.080283 0.647449 0.250000
O O17 0.087585 0.541341 0.447747
O O18 0.137190 0.040962 0.750000
O O19 0.561374 0.824833 0.250000
O O20 0.603211 0.896148 0.024092
O O21 0.570174 0.750000 0.000000
O O22 0.366009 0.022887 0.750000
#
# Coordination Sequence:
#
# PCOD9435752 Si02
#       8
#     8   8   8   8   8   8   8   8
#     4  10  21  36  56  79 102 134 176 218 257 303
#     4   9  17  31  51  77 106 135 169 206 249 299
#     4  11  22  35  51  74 103 133 167 210 260 312
#     4  10  20  34  52  76 104 132 166 209 258 311
#     4  10  19  33  54  77 100 129 165 207 259 315
#     4   9  20  37  55  74  99 133 171 212 258 310
#     4   9  19  33  52  80 110 139 172 213 256 299
#     4  10  20  35  55  79 106 139 179 217 255 303
#
# _framework density 17.414504999999998
#
# number of rings (size 3 to 8) (size 9 to 14) (size 15 to 20)
#    0.000    2.250    0.000    3.750    0.000    6.000 
#    0.000    1.250    0.000    0.000    0.000    0.000 
#    0.000    0.000    0.000    0.000    0.000    0.000 
#
# Total GULP energy -357039.738266 kJ/mol
# GULP energy per Si atom -5578.745910 kJ/mol
# Density = 1.737487 g / cm^3
# Si number density = 17.414505 Si / 1000 Ang^3
#
#
#
# Elastic Constant Matrix: (Units=GPa)
#
#
# Indices 1 2 3 4 5 6 
#
# 1 63.0661 38.3412 29.0547 0.0000 0.0000 0.0000
# 2 38.3412 105.1182 41.0655 0.0000 0.0000 0.0000
# 3 29.0547 41.0655 54.4563 0.0000 0.0000 0.0000
# 4 0.0000 0.0000 0.0000 28.7980 0.0000 0.0000
# 5 0.0000 0.0000 0.0000 0.0000 29.7769 0.0000
# 6 0.0000 0.0000 0.0000 0.0000 0.0000 14.2952
#
#
#
# Elastic Compliance Matrix: (Units=1/GPa)
#
#
# Indices 1 2 3 4 5 6 
#
# 1 0.022767 -0.005045 -0.008343 0.000000 0.000000 0.000000
# 2 -0.005045 0.014604 -0.008321 0.000000 0.000000 0.000000
# 3 -0.008343 -0.008321 0.029089 0.000000 0.000000 0.000000
# 4 0.000000 0.000000 0.000000 0.034725 0.000000 0.000000
# 5 0.000000 0.000000 0.000000 0.000000 0.033583 0.000000
# 6 0.000000 0.000000 0.000000 0.000000 0.000000 0.069954
#
#
# Mechanical properties :
#
#
# Convention : Reuss Voigt Hill
#
# Bulk Modulus (GPa) = 43.39752 48.84037 46.11894
# Shear Modulus (GPa) = 19.54496 22.18597 20.86546
#
# Velocity S-wave (km/s) = 3.35377 3.57318 3.46521
# Velocity P-wave (km/s) = 6.32230 6.71790 6.52310
#
# Compressibility (1/GPa) = 0.02304279
#
# Stress axis : x y z
#
# Youngs Moduli (GPa) = 43.92330 68.47464 34.37667
#
# Poissons Ratio (x) = 0.34545 0.28680
# Poissons Ratio (y) = 0.22159 0.28605
# Poissons Ratio (z) = 0.36644 0.56979
#
# Static dielectric constant tensor:
#      x y z
#    x 1.609340 0.000000 0.000000 
#    y 0.000000 1.605860 0.000000 
#    z 0.000000 0.000000 1.592270 
# 
# From -- ./inp_files/8440.got.cif
#   From: 2010.05.17/outbox.cif.g08.bks.cpg/sg57_5_cif.got.tgz:8440.got - 2010.06.03 13:58:18.
