data_PCOD9435309
_publ_section_title
;
Structure prediction by ZEFSAII (Michael W. Deem and Ramdas Pophale) SiO2 
 PCOD9435309
Probable space group: P B C M
;
_chemical_formula_sum "Si O2"
_cell_formula_units_Z 64
_cell_length_a 14.845458
_cell_length_b 20.262957
_cell_length_c 9.995085
_cell_angle_alpha 90.000000
_cell_angle_beta 90.000000
_cell_angle_gamma 90.000000
_cell_volume 3006.650276
_symmetry_space_group_name_H-M "P B C M"
_symmetry_group_IT_number 57
_symmetry_cell_setting 'orthorhombic'
loop_
_space_group_symop_operation_xyz
x,y,z
-x,-y,1/2+z
x,1/2-y,-z
-x,1/2+y,1/2-z
-x,-y,-z
x,y,1/2-z
-x,1/2+y,z
x,1/2-y,1/2+z
loop_
_atom_site_type_symbol
_atom_site_label
_atom_site_fract_x
_atom_site_fract_y
_atom_site_fract_z
Si Si1 0.052756 0.358492 0.096695
Si Si2 0.407801 0.422719 0.095082
Si Si3 0.700902 0.495150 0.096386
Si Si4 0.256369 0.309332 0.402750
Si Si5 0.263679 0.838695 0.397993
Si Si6 0.468400 0.693818 0.597064
Si Si7 0.894376 0.349845 0.903717
Si Si8 0.861686 0.506894 0.599981
O O1 0.027132 0.342315 0.250000
O O2 0.153975 0.333132 0.072428
O O3 0.060641 0.438528 0.087977
O O4 0.982070 0.332491 0.989677
O O5 0.414124 0.445435 0.250000
O O6 0.326176 0.369490 0.085403
O O7 0.494872 0.378637 0.061881
O O8 0.382915 0.479256 0.990484
O O9 0.696799 0.518145 0.250000
O O10 0.711680 0.416425 0.097562
O O11 0.789804 0.518438 0.016669
O O12 0.278789 0.250000 0.500000
O O13 0.260316 0.285964 0.250000
O O14 0.224147 0.825202 0.250000
O O15 0.360419 0.804823 0.407128
O O16 0.193851 0.825934 0.516527
O O17 0.504086 0.750000 0.500000
O O18 0.497618 0.705710 0.750000
O O19 0.897058 0.328078 0.750000
O O20 0.889368 0.430384 0.903681
O O21 0.821174 0.518410 0.750000
#
# Coordination Sequence:
#
# PCOD9435309 Si02
#       8
#     8   8   8   8   8   8   8   8
#     4  10  19  33  52  74 107 148 181 219 273 329
#     4  10  20  37  58  82 114 147 179 222 282 340
#     4  10  19  31  53  84 116 148 185 224 269 331
#     4  10  21  36  54  76 107 146 184 224 274 328
#     4   9  20  39  57  80 115 150 183 227 285 335
#     4  10  22  40  63  85 109 144 187 234 281 331
#     4  10  20  32  53  83 109 140 183 229 271 322
#     4   9  17  32  51  75 111 147 180 218 272 330
#
# _framework density 21.286148000000001
#
# number of rings (size 3 to 8) (size 9 to 14) (size 15 to 20)
#    0.000    2.250    1.250    1.500    0.000    4.000 
#    0.000    0.625    0.000    0.000    0.000    0.000 
#    0.000    0.000    0.000    0.000    0.000    0.000 
#
# Total GULP energy -357515.640919 kJ/mol
# GULP energy per Si atom -5586.181889 kJ/mol
# Density = 2.123770 g / cm^3
# Si number density = 21.286148 Si / 1000 Ang^3
#
#
#
# Elastic Constant Matrix: (Units=GPa)
#
#
# Indices 1 2 3 4 5 6 
#
# 1 79.0983 -2.1563 44.6312 0.0000 0.0000 0.0000
# 2 -2.1563 50.7921 35.7988 0.0000 0.0000 0.0000
# 3 44.6312 35.7988 131.8550 0.0000 0.0000 0.0000
# 4 0.0000 0.0000 0.0000 21.1954 0.0000 0.0000
# 5 0.0000 0.0000 0.0000 0.0000 11.2561 0.0000
# 6 0.0000 0.0000 0.0000 0.0000 0.0000 0.4552
#
#
#
# Elastic Compliance Matrix: (Units=1/GPa)
#
#
# Indices 1 2 3 4 5 6 
#
# 1 0.016940 0.005887 -0.007332 0.000000 0.000000 0.000000
# 2 0.005887 0.026393 -0.009158 0.000000 0.000000 0.000000
# 3 -0.007332 -0.009158 0.012553 0.000000 0.000000 0.000000
# 4 0.000000 0.000000 0.000000 0.047180 0.000000 0.000000
# 5 0.000000 0.000000 0.000000 0.000000 0.088841 0.000000
# 6 0.000000 0.000000 0.000000 0.000000 0.000000 2.197031
#
#
# Mechanical properties :
#
#
# Convention : Reuss Voigt Hill
#
# Bulk Modulus (GPa) = 28.83637 46.47697 37.65667
# Shear Modulus (GPa) = 2.06466 18.81279 10.43872
#
# Velocity S-wave (km/s) = 0.98593 2.97611 2.21690
# Velocity P-wave (km/s) = 3.85649 5.80443 4.92767
#
# Compressibility (1/GPa) = 0.03467842
#
# Stress axis : x y z
#
# Youngs Moduli (GPa) = 59.03075 37.88876 79.66499
#
# Poissons Ratio (x) = -0.22306 0.58414
# Poissons Ratio (y) = -0.34752 0.72961
# Poissons Ratio (z) = 0.43284 0.34700
#
# Static dielectric constant tensor:
#      x y z
#    x 1.781370 0.000000 0.000000 
#    y 0.000000 1.784060 0.000000 
#    z 0.000000 0.000000 1.748280 
# 
# From -- ./inp_files/5677.got.cif
#   From: 2010.05.17/outbox.cif.g08.bks.cpg/sg57_3_cif.got.tgz:5677.got - 2010.06.03 13:58:18.
