data_PCOD9435750
_publ_section_title
;
Structure prediction by ZEFSAII (Michael W. Deem and Ramdas Pophale) SiO2 
 PCOD9435750
Probable space group: P B C M
;
_chemical_formula_sum "Si O2"
_cell_formula_units_Z 40
_cell_length_a 10.347692
_cell_length_b 13.149100
_cell_length_c 16.619294
_cell_angle_alpha 90.000000
_cell_angle_beta 90.000000
_cell_angle_gamma 90.000000
_cell_volume 2261.268289
_symmetry_space_group_name_H-M "P B C M"
_symmetry_group_IT_number 57
_symmetry_cell_setting 'orthorhombic'
loop_
_space_group_symop_operation_xyz
x,y,z
-x,-y,1/2+z
x,1/2-y,-z
-x,1/2+y,1/2-z
-x,-y,-z
x,y,1/2-z
-x,1/2+y,z
x,1/2-y,1/2+z
loop_
_atom_site_type_symbol
_atom_site_label
_atom_site_fract_x
_atom_site_fract_y
_atom_site_fract_z
Si Si1 0.842723 0.591753 0.841911
Si Si2 0.615588 0.642969 0.956953
Si Si3 0.658591 0.419727 0.487960
Si Si4 0.908029 0.311814 0.420682
Si Si5 0.751365 0.364154 0.658768
O O1 0.849204 0.624233 0.750000
O O2 0.712484 0.634096 0.882500
O O3 0.831404 0.469434 0.844945
O O4 0.969818 0.630021 0.886417
O O5 0.647840 0.541583 0.009082
O O6 0.635868 0.750000 0.000000
O O7 0.462970 0.627724 0.941252
O O8 0.792564 0.385072 0.449592
O O9 0.657524 0.377053 0.580707
O O10 0.949119 0.250000 0.500000
O O11 0.843408 0.231248 0.359568
O O12 0.696437 0.357293 0.750000
#
# Coordination Sequence:
#
# PCOD9435750 Si02
#       5
#     8   8   8   8   8
#     4  10  21  34  50  76 106 134 169 213 259 303
#     4  10  19  35  56  77 104 134 168 212 259 302
#     4   9  20  35  54  79 102 132 177 211 243 305
#     4  10  19  33  54  76 101 136 175 210 247 301
#     4   9  18  33  53  75 103 137 169 207 256 303
#
# _framework density 17.689188000000001
#
# number of rings (size 3 to 8) (size 9 to 14) (size 15 to 20)
#    0.000    2.400    0.000    3.000    0.000    8.800 
#    0.000    5.000    0.000    4.800    0.000    0.000 
#    0.000    0.000    0.000    0.000    0.000    0.000 
#
# Total GULP energy -222927.674801 kJ/mol
# GULP energy per Si atom -5573.191870 kJ/mol
# Density = 1.764893 g / cm^3
# Si number density = 17.689188 Si / 1000 Ang^3
#
#
#
# Elastic Constant Matrix: (Units=GPa)
#
#
# Indices 1 2 3 4 5 6 
#
# 1 116.6743 21.4247 65.9484 0.0000 0.0000 0.0000
# 2 21.4247 64.6868 27.2662 0.0000 0.0000 0.0000
# 3 65.9484 27.2662 77.1023 0.0000 0.0000 0.0000
# 4 0.0000 0.0000 0.0000 17.1023 0.0000 0.0000
# 5 0.0000 0.0000 0.0000 0.0000 8.7629 0.0000
# 6 0.0000 0.0000 0.0000 0.0000 0.0000 17.0783
#
#
#
# Elastic Compliance Matrix: (Units=1/GPa)
#
#
# Indices 1 2 3 4 5 6 
#
# 1 0.016611 0.000572 -0.014411 0.000000 0.000000 0.000000
# 2 0.000572 0.018187 -0.006921 0.000000 0.000000 0.000000
# 3 -0.014411 -0.006921 0.027743 0.000000 0.000000 0.000000
# 4 0.000000 0.000000 0.000000 0.058472 0.000000 0.000000
# 5 0.000000 0.000000 0.000000 0.000000 0.114118 0.000000
# 6 0.000000 0.000000 0.000000 0.000000 0.000000 0.058554
#
#
# Mechanical properties :
#
#
# Convention : Reuss Voigt Hill
#
# Bulk Modulus (GPa) = 47.56766 54.19355 50.88061
# Shear Modulus (GPa) = 14.61087 18.17694 16.39391
#
# Velocity S-wave (km/s) = 2.87710 3.20906 3.04760
# Velocity P-wave (km/s) = 6.16329 6.66587 6.41950
#
# Compressibility (1/GPa) = 0.02102268
#
# Stress axis : x y z
#
# Youngs Moduli (GPa) = 60.20079 54.98473 36.04485
#
# Poissons Ratio (x) = -0.03148 0.51942
# Poissons Ratio (y) = -0.03446 0.24947
# Poissons Ratio (z) = 0.86752 0.38056
#
# Static dielectric constant tensor:
#      x y z
#    x 1.590680 0.000000 0.000000 
#    y 0.000000 1.593020 0.000000 
#    z 0.000000 0.000000 1.614420 
# 
# From -- ./inp_files/20711.got.cif
#   From: 2010.05.17/outbox.cif.g08.bks.cpg/sg57_11_cif.got.tgz:20711.got - 2010.06.03 13:58:18.
