data_PCOD9435499
_publ_section_title
;
Structure prediction by ZEFSAII (Michael W. Deem and Ramdas Pophale) SiO2 
 PCOD9435499
Probable space group: P B C M
;
_chemical_formula_sum "Si O2"
_cell_formula_units_Z 64
_cell_length_a 17.293595
_cell_length_b 23.979957
_cell_length_c 8.828000
_cell_angle_alpha 90.000000
_cell_angle_beta 90.000000
_cell_angle_gamma 90.000000
_cell_volume 3660.968638
_symmetry_space_group_name_H-M "P B C M"
_symmetry_group_IT_number 57
_symmetry_cell_setting 'orthorhombic'
loop_
_space_group_symop_operation_xyz
x,y,z
-x,-y,1/2+z
x,1/2-y,-z
-x,1/2+y,1/2-z
-x,-y,-z
x,y,1/2-z
-x,1/2+y,z
x,1/2-y,1/2+z
loop_
_atom_site_type_symbol
_atom_site_label
_atom_site_fract_x
_atom_site_fract_y
_atom_site_fract_z
Si Si1 0.220204 0.571199 0.068118
Si Si2 0.083436 0.487458 0.067886
Si Si3 0.295237 0.311279 0.069325
Si Si4 0.570490 0.888824 0.566063
Si Si5 0.332093 0.487589 0.575450
Si Si6 0.189726 0.101381 0.425586
Si Si7 0.562137 0.191542 0.068027
Si Si8 0.742349 0.307870 0.932366
O O1 0.222336 0.571146 0.250000
O O2 0.145572 0.535237 0.021639
O O3 0.217375 0.635112 0.016417
O O4 0.297982 0.540015 0.013270
O O5 0.080564 0.485660 0.250000
O O6 0.118787 0.430253 0.003002
O O7 0.000000 0.500000 0.000000
O O8 0.299818 0.309566 0.250000
O O9 0.367086 0.346227 0.002461
O O10 0.296143 0.250000 0.000000
O O11 0.219527 0.344932 0.014962
O O12 0.345268 0.996668 0.250000
O O13 0.594881 0.951393 0.517369
O O14 0.488167 0.862334 0.524049
O O15 0.422443 0.388363 0.750000
O O16 0.261703 0.442438 0.571027
O O17 0.174338 0.114182 0.250000
O O18 0.558474 0.195997 0.250000
O O19 0.651762 0.186528 0.023667
O O20 0.531749 0.250000 0.000000
O O21 0.745912 0.304676 0.750000
O O22 0.772076 0.250000 0.000000
#
# Coordination Sequence:
#
# PCOD9435499 Si02
#       8
#     8   8   8   8   8   8   8   8
#     4   9  18  32  50  71  97 125 155 191 236 286
#     4  10  19  32  52  78 102 125 152 187 232 284
#     4  11  20  29  43  65  93 128 166 201 236 279
#     4   9  17  29  43  63  91 124 161 204 247 285
#     4   8  15  27  44  65  91 122 156 191 232 278
#     4   9  17  31  48  68  95 125 156 193 232 275
#     4   9  17  29  45  63  88 121 160 205 251 290
#     4   9  18  33  51  71  93 122 159 200 242 285
#
# _framework density 17.481712000000002
#
# number of rings (size 3 to 8) (size 9 to 14) (size 15 to 20)
#    0.000    2.750    0.000    3.000    0.000    5.500 
#    0.000    0.625    0.000    0.750    0.000    3.500 
#    0.000    0.000    0.000    0.000    0.000    0.000 
#
# Total GULP energy -356645.510809 kJ/mol
# GULP energy per Si atom -5572.586106 kJ/mol
# Density = 1.744192 g / cm^3
# Si number density = 17.481712 Si / 1000 Ang^3
#
#
#
# Elastic Constant Matrix: (Units=GPa)
#
#
# Indices 1 2 3 4 5 6 
#
# 1 33.4343 13.1765 8.1197 0.0000 0.0000 0.0000
# 2 13.1765 93.8818 17.7413 0.0000 0.0000 0.0000
# 3 8.1197 17.7413 28.9220 0.0000 0.0000 0.0000
# 4 0.0000 0.0000 0.0000 26.1914 0.0000 0.0000
# 5 0.0000 0.0000 0.0000 0.0000 15.7408 0.0000
# 6 0.0000 0.0000 0.0000 0.0000 0.0000 22.7370
#
#
#
# Elastic Compliance Matrix: (Units=1/GPa)
#
#
# Indices 1 2 3 4 5 6 
#
# 1 0.032954 -0.003254 -0.007256 0.000000 0.000000 0.000000
# 2 -0.003254 0.012370 -0.006674 0.000000 0.000000 0.000000
# 3 -0.007256 -0.006674 0.040707 0.000000 0.000000 0.000000
# 4 0.000000 0.000000 0.000000 0.038180 0.000000 0.000000
# 5 0.000000 0.000000 0.000000 0.000000 0.063529 0.000000
# 6 0.000000 0.000000 0.000000 0.000000 0.000000 0.043981
#
#
# Mechanical properties :
#
#
# Convention : Reuss Voigt Hill
#
# Bulk Modulus (GPa) = 19.35630 26.03478 22.69554
# Shear Modulus (GPa) = 17.64855 20.74722 19.19788
#
# Velocity S-wave (km/s) = 3.18078 3.44873 3.31746
# Velocity P-wave (km/s) = 4.95844 5.54826 5.26162
#
# Compressibility (1/GPa) = 0.05166276
#
# Stress axis : x y z
#
# Youngs Moduli (GPa) = 30.34542 80.84294 24.56596
#
# Poissons Ratio (x) = 0.26307 0.17824
# Poissons Ratio (y) = 0.09875 0.16396
# Poissons Ratio (z) = 0.22017 0.53956
#
# Static dielectric constant tensor:
#      x y z
#    x 1.599120 0.000000 0.000000 
#    y 0.000000 1.613930 0.000000 
#    z 0.000000 0.000000 1.585370 
# 
# From -- ./inp_files/7172.got.cif
#   From: 2010.05.17/outbox.cif.g08.bks.cpg/sg57_4_cif.got.tgz:7172.got - 2010.06.03 13:58:18.
