data_PCOD9435532
_publ_section_title
;
Structure prediction by ZEFSAII (Michael W. Deem and Ramdas Pophale) SiO2 
 PCOD9435532
Probable space group: P B C M
;
_chemical_formula_sum "Si O2"
_cell_formula_units_Z 48
_cell_length_a 10.606374
_cell_length_b 29.213176
_cell_length_c 8.526806
_cell_angle_alpha 90.000000
_cell_angle_beta 90.000000
_cell_angle_gamma 90.000000
_cell_volume 2641.995627
_symmetry_space_group_name_H-M "P B C M"
_symmetry_group_IT_number 57
_symmetry_cell_setting 'orthorhombic'
loop_
_space_group_symop_operation_xyz
x,y,z
-x,-y,1/2+z
x,1/2-y,-z
-x,1/2+y,1/2-z
-x,-y,-z
x,y,1/2-z
-x,1/2+y,z
x,1/2-y,1/2+z
loop_
_atom_site_type_symbol
_atom_site_label
_atom_site_fract_x
_atom_site_fract_y
_atom_site_fract_z
Si Si1 0.508702 0.395884 0.560500
Si Si2 0.105870 0.798870 0.061910
Si Si3 0.750012 0.942960 0.560553
Si Si4 0.001437 0.895506 0.439367
Si Si5 0.749649 0.451273 0.060353
Si Si6 0.391579 0.798873 0.938002
O O1 0.509703 0.396878 0.750000
O O2 0.377516 0.417863 0.506284
O O3 0.627053 0.425214 0.501586
O O4 0.529053 0.343164 0.511685
O O5 0.110889 0.797561 0.250000
O O6 0.025526 0.842952 0.012392
O O7 0.058869 0.750000 0.000000
O O8 0.248726 0.804785 0.000064
O O9 0.749714 0.942984 0.750000
O O10 0.874033 0.916988 0.503820
O O11 0.751171 0.995913 0.508678
O O12 0.997436 0.896737 0.250000
O O13 0.123204 0.925139 0.489885
O O14 0.745977 0.450254 0.250000
O O15 0.387261 0.797259 0.750000
O O16 0.438663 0.750000 0.000000
#
# Coordination Sequence:
#
# PCOD9435532 Si02
#       6
#     8   8   8   8   8   8
#     4  10  21  36  54  81 110 139 179 222 266 321
#     4  10  19  33  54  80 108 135 174 222 266 317
#     4  10  22  37  54  78 111 147 181 220 268 319
#     4  10  21  36  54  80 110 140 179 223 266 318
#     4  10  20  36  57  80 107 142 183 226 267 313
#     4  10  19  32  53  79 106 135 173 219 265 314
#
# _framework density 18.168084
#
# number of rings (size 3 to 8) (size 9 to 14) (size 15 to 20)
#    0.000    2.000    1.667    3.000    0.000    4.000 
#    0.000    0.833    0.000    4.000    0.000    0.000 
#    0.000    0.000    0.000    0.000    0.000    0.000 
#
# Total GULP energy -267993.111076 kJ/mol
# GULP energy per Si atom -5583.189814 kJ/mol
# Density = 1.812673 g / cm^3
# Si number density = 18.168084 Si / 1000 Ang^3
#
#
#
# Elastic Constant Matrix: (Units=GPa)
#
#
# Indices 1 2 3 4 5 6 
#
# 1 149.8994 105.7716 18.3626 0.0000 0.0000 0.0000
# 2 105.7716 217.8144 33.7838 0.0000 0.0000 0.0000
# 3 18.3626 33.7838 17.6602 0.0000 0.0000 0.0000
# 4 0.0000 0.0000 0.0000 23.3907 0.0000 0.0000
# 5 0.0000 0.0000 0.0000 0.0000 22.1223 0.0000
# 6 0.0000 0.0000 0.0000 0.0000 0.0000 4.0594
#
#
#
# Elastic Compliance Matrix: (Units=1/GPa)
#
#
# Indices 1 2 3 4 5 6 
#
# 1 0.010180 -0.004695 -0.001604 0.000000 0.000000 0.000000
# 2 -0.004695 0.008693 -0.011748 0.000000 0.000000 0.000000
# 3 -0.001604 -0.011748 0.080767 0.000000 0.000000 0.000000
# 4 0.000000 0.000000 0.000000 0.042752 0.000000 0.000000
# 5 0.000000 0.000000 0.000000 0.000000 0.045203 0.000000
# 6 0.000000 0.000000 0.000000 0.000000 0.000000 0.246341
#
#
# Mechanical properties :
#
#
# Convention : Reuss Voigt Hill
#
# Bulk Modulus (GPa) = 15.73670 77.91224 46.82447
# Shear Modulus (GPa) = 10.17889 25.07822 17.62855
#
# Velocity S-wave (km/s) = 2.36955 3.71933 3.11835
# Velocity P-wave (km/s) = 4.02081 7.83720 6.22851
#
# Compressibility (1/GPa) = 0.06354574
#
# Stress axis : x y z
#
# Youngs Moduli (GPa) = 98.22791 115.03376 12.38135
#
# Poissons Ratio (x) = 0.54007 0.01986
# Poissons Ratio (y) = 0.46117 0.14546
# Poissons Ratio (z) = 0.15757 1.35145
#
# Static dielectric constant tensor:
#      x y z
#    x 1.578100 0.000000 0.000000 
#    y 0.000000 1.722190 0.000000 
#    z 0.000000 0.000000 1.589720 
# 
# From -- ./inp_files/2111.got.cif
#   From: 2010.05.17/outbox.cif.g08.bks.cpg/sg57_2_cif.got.tgz:2111.got - 2010.06.03 13:58:18.
