data_PCOD9435598
_publ_section_title
;
Structure prediction by ZEFSAII (Michael W. Deem and Ramdas Pophale) SiO2 
 PCOD9435598
Probable space group: P B C M
;
_chemical_formula_sum "Si O2"
_cell_formula_units_Z 60
_cell_length_a 13.393556
_cell_length_b 17.846843
_cell_length_c 14.528488
_cell_angle_alpha 90.000000
_cell_angle_beta 90.000000
_cell_angle_gamma 90.000000
_cell_volume 3472.783585
_symmetry_space_group_name_H-M "P B C M"
_symmetry_group_IT_number 57
_symmetry_cell_setting 'orthorhombic'
loop_
_space_group_symop_operation_xyz
x,y,z
-x,-y,1/2+z
x,1/2-y,-z
-x,1/2+y,1/2-z
-x,-y,-z
x,y,1/2-z
-x,1/2+y,z
x,1/2-y,1/2+z
loop_
_atom_site_type_symbol
_atom_site_label
_atom_site_fract_x
_atom_site_fract_y
_atom_site_fract_z
Si Si1 0.908603 0.010289 0.929275
Si Si2 0.396162 0.641303 0.358325
Si Si3 0.076709 0.250000 0.000000
Si Si4 0.066394 0.672886 0.854292
Si Si5 0.313804 0.946950 0.021291
Si Si6 0.390289 0.077251 0.144761
Si Si7 0.169493 0.141636 0.353018
Si Si8 0.703824 0.200862 0.858549
O O1 0.925182 0.083431 0.866875
O O2 0.801607 0.026617 0.977653
O O3 0.891225 0.935156 0.871051
O O4 0.000000 0.000000 0.000000
O O5 0.374298 0.631953 0.250000
O O6 0.346209 0.577337 0.420081
O O7 0.514684 0.630140 0.371461
O O8 0.353309 0.722990 0.384824
O O9 0.140833 0.197681 0.066352
O O10 0.007179 0.297740 0.068039
O O11 0.035035 0.690454 0.750000
O O12 0.176351 0.708387 0.869199
O O13 0.324345 0.871796 0.082729
O O14 0.378921 0.011259 0.070392
O O15 0.399338 0.046703 0.250000
O O16 0.286308 0.121671 0.141995
O O17 0.147363 0.169671 0.250000
O O18 0.685180 0.186766 0.750000
#
# Coordination Sequence:
#
# PCOD9435598 Si02
#       8
#     8   8   4   8   8   8   8   8
#     4  10  19  36  58  80 109 145 187 228 262 321
#     4  10  20  34  53  81 114 143 172 223 282 326
#     4  12  22  34  56  80 116 138 184 226 276 324
#     4  10  21  35  55  81 112 147 181 223 272 324
#     4  10  19  32  57  79 107 140 186 224 266 316
#     4   9  19  37  59  77 102 142 189 228 265 319
#     4  10  21  38  58  79 106 147 189 227 270 322
#     4   9  19  33  52  80 109 139 178 220 269 324
#
# _framework density 17.277207000000001
#
# number of rings (size 3 to 8) (size 9 to 14) (size 15 to 20)
#    0.000    2.133    1.333    2.000    3.733    3.200 
#    2.400    1.333    0.000    0.000    0.000    0.000 
#    0.000    0.000    0.000    0.000    0.000    0.000 
#
# Total GULP energy -334617.785118 kJ/mol
# GULP energy per Si atom -5576.963085 kJ/mol
# Density = 1.723788 g / cm^3
# Si number density = 17.277207 Si / 1000 Ang^3
#
#
#
# Elastic Constant Matrix: (Units=GPa)
#
#
# Indices 1 2 3 4 5 6 
#
# 1 68.6901 44.2698 50.1161 0.0000 0.0000 0.0000
# 2 44.2698 93.1975 53.4635 0.0000 0.0000 0.0000
# 3 50.1161 53.4635 101.1214 0.0000 0.0000 0.0000
# 4 0.0000 0.0000 0.0000 28.1094 0.0000 0.0000
# 5 0.0000 0.0000 0.0000 0.0000 23.6789 0.0000
# 6 0.0000 0.0000 0.0000 0.0000 0.0000 88.9720
#
#
#
# Elastic Compliance Matrix: (Units=1/GPa)
#
#
# Indices 1 2 3 4 5 6 
#
# 1 0.025649 -0.007021 -0.009000 0.000000 0.000000 0.000000
# 2 -0.007021 0.017323 -0.005679 0.000000 0.000000 0.000000
# 3 -0.009000 -0.005679 0.017352 0.000000 0.000000 0.000000
# 4 0.000000 0.000000 0.000000 0.035575 0.000000 0.000000
# 5 0.000000 0.000000 0.000000 0.000000 0.042232 0.000000
# 6 0.000000 0.000000 0.000000 0.000000 0.000000 0.011239
#
#
# Mechanical properties :
#
#
# Convention : Reuss Voigt Hill
#
# Bulk Modulus (GPa) = 59.08623 62.07864 60.58244
# Shear Modulus (GPa) = 25.20014 35.82936 30.51475
#
# Velocity S-wave (km/s) = 3.82328 4.55883 4.20716
# Velocity P-wave (km/s) = 7.33233 7.98245 7.66429
#
# Compressibility (1/GPa) = 0.01692442
#
# Stress axis : x y z
#
# Youngs Moduli (GPa) = 38.98751 57.72764 57.63001
#
# Poissons Ratio (x) = 0.40529 0.51866
# Poissons Ratio (y) = 0.27372 0.32729
# Poissons Ratio (z) = 0.35088 0.32784
#
# Static dielectric constant tensor:
#      x y z
#    x 1.575410 0.000000 0.000000 
#    y 0.000000 1.574580 0.000000 
#    z 0.000000 0.000000 1.591190 
# 
# From -- ./inp_files/17906.got.cif
#   From: 2010.05.17/outbox.cif.g08.bks.cpg/sg57_9_cif.got.tgz:17906.got - 2010.06.03 13:58:18.
