data_PCOD9435418
_publ_section_title
;
Structure prediction by ZEFSAII (Michael W. Deem and Ramdas Pophale) SiO2 
 PCOD9435418
Probable space group: P B C M
;
_chemical_formula_sum "Si O2"
_cell_formula_units_Z 48
_cell_length_a 9.042220
_cell_length_b 27.934457
_cell_length_c 9.445293
_cell_angle_alpha 90.000000
_cell_angle_beta 90.000000
_cell_angle_gamma 90.000000
_cell_volume 2385.781891
_symmetry_space_group_name_H-M "P B C M"
_symmetry_group_IT_number 57
_symmetry_cell_setting 'orthorhombic'
loop_
_space_group_symop_operation_xyz
x,y,z
-x,-y,1/2+z
x,1/2-y,-z
-x,1/2+y,1/2-z
-x,-y,-z
x,y,1/2-z
-x,1/2+y,z
x,1/2-y,1/2+z
loop_
_atom_site_type_symbol
_atom_site_label
_atom_site_fract_x
_atom_site_fract_y
_atom_site_fract_z
Si Si1 0.368986 0.023323 0.909776
Si Si2 0.987837 0.706006 0.914533
Si Si3 0.112713 0.440646 0.588721
Si Si4 0.275383 0.336455 0.588902
Si Si5 0.853982 0.103355 0.915165
Si Si6 0.523146 0.374989 0.409512
O O1 0.355686 0.003538 0.750000
O O2 0.420243 0.078379 0.895981
O O3 0.217244 0.024644 0.997349
O O4 0.500000 0.000000 0.000000
O O5 0.968126 0.717968 0.750000
O O6 0.082213 0.657373 0.923012
O O7 0.057346 0.750000 0.000000
O O8 0.832710 0.694192 0.990461
O O9 0.093381 0.457234 0.750000
O O10 0.199599 0.389424 0.594455
O O11 0.959976 0.429035 0.510216
O O12 0.282427 0.318827 0.750000
O O13 0.435628 0.341302 0.516964
O O14 0.860682 0.088169 0.750000
O O15 0.683251 0.106782 0.959024
O O16 0.541221 0.354597 0.250000
#
# Coordination Sequence:
#
# PCOD9435418 Si02
#       6
#     8   8   8   8   8   8
#     4  10  19  32  51  73  98 128 164 206 250 295
#     4  10  19  32  51  73  98 127 160 198 239 284
#     4   9  17  30  49  72  97 126 162 200 239 288
#     4   9  17  30  49  72  96 124 160 198 235 280
#     4   9  18  33  52  73  98 130 165 200 242 292
#     4   9  18  33  52  73  98 129 163 200 245 295
#
# _framework density 20.11919
#
# number of rings (size 3 to 8) (size 9 to 14) (size 15 to 20)
#    0.000    2.667    0.000    2.000    0.000    6.000 
#    0.000    1.667    0.000    2.000    0.000    0.000 
#    0.000    0.000    0.000    0.000    0.000    0.000 
#
# Total GULP energy -267846.046042 kJ/mol
# GULP energy per Si atom -5580.125959 kJ/mol
# Density = 2.007340 g / cm^3
# Si number density = 20.119190 Si / 1000 Ang^3
#
#
#
# Elastic Constant Matrix: (Units=GPa)
#
#
# Indices 1 2 3 4 5 6 
#
# 1 121.7073 4.4035 52.8421 0.0000 0.0000 0.0000
# 2 4.4035 36.0208 24.4801 0.0000 0.0000 0.0000
# 3 52.8421 24.4801 138.1344 0.0000 0.0000 0.0000
# 4 0.0000 0.0000 0.0000 18.4842 0.0000 0.0000
# 5 0.0000 0.0000 0.0000 0.0000 24.1683 0.0000
# 6 0.0000 0.0000 0.0000 0.0000 0.0000 14.0165
#
#
#
# Elastic Compliance Matrix: (Units=1/GPa)
#
#
# Indices 1 2 3 4 5 6 
#
# 1 0.009929 0.001555 -0.004074 0.000000 0.000000 0.000000
# 2 0.001555 0.031807 -0.006232 0.000000 0.000000 0.000000
# 3 -0.004074 -0.006232 0.009902 0.000000 0.000000 0.000000
# 4 0.000000 0.000000 0.000000 0.054100 0.000000 0.000000
# 5 0.000000 0.000000 0.000000 0.000000 0.041377 0.000000
# 6 0.000000 0.000000 0.000000 0.000000 0.000000 0.071344
#
#
# Mechanical properties :
#
#
# Convention : Reuss Voigt Hill
#
# Bulk Modulus (GPa) = 29.29409 51.03489 40.16449
# Shear Modulus (GPa) = 20.21522 25.60960 22.91241
#
# Velocity S-wave (km/s) = 3.17325 3.57164 3.37832
# Velocity P-wave (km/s) = 5.29320 6.51384 5.93498
#
# Compressibility (1/GPa) = 0.03413658
#
# Stress axis : x y z
#
# Youngs Moduli (GPa) = 100.71616 31.43996 100.98922
#
# Poissons Ratio (x) = -0.04888 0.41140
# Poissons Ratio (y) = -0.15659 0.62932
# Poissons Ratio (z) = 0.41029 0.19592
#
# Static dielectric constant tensor:
#      x y z
#    x 1.690940 0.000000 0.000000 
#    y 0.000000 1.750650 0.000000 
#    z 0.000000 0.000000 1.711690 
# 
# From -- ./inp_files/1982.got.cif
#   From: 2010.05.17/outbox.cif.g08.bks.cpg/sg57_1_cif.got.tgz:1982.got - 2010.06.03 13:58:18.
