data_PCOD9435062
_publ_section_title
;
Structure prediction by ZEFSAII (Michael W. Deem and Ramdas Pophale) SiO2 
 PCOD9435062
Probable space group: P B C M
;
_chemical_formula_sum "Si O2"
_cell_formula_units_Z 56
_cell_length_a 17.459413
_cell_length_b 22.095641
_cell_length_c 7.517329
_cell_angle_alpha 90.000000
_cell_angle_beta 90.000000
_cell_angle_gamma 90.000000
_cell_volume 2900.012041
_symmetry_space_group_name_H-M "P B C M"
_symmetry_group_IT_number 57
_symmetry_cell_setting 'orthorhombic'
loop_
_space_group_symop_operation_xyz
x,y,z
-x,-y,1/2+z
x,1/2-y,-z
-x,1/2+y,1/2-z
-x,-y,-z
x,y,1/2-z
-x,1/2+y,z
x,1/2-y,1/2+z
loop_
_atom_site_type_symbol
_atom_site_label
_atom_site_fract_x
_atom_site_fract_y
_atom_site_fract_z
Si Si1 0.120221 0.480647 0.032797
Si Si2 0.142860 0.679907 0.536642
Si Si3 0.016741 0.596818 0.957106
Si Si4 0.705965 0.986586 0.039414
Si Si5 0.541649 0.180933 0.963184
Si Si6 0.452024 0.061561 0.535846
Si Si7 0.301683 0.873560 0.035262
O O1 0.119756 0.482441 0.250000
O O2 0.207731 0.477015 0.969956
O O3 0.063889 0.426965 0.970181
O O4 0.077379 0.541459 0.970745
O O5 0.149713 0.750000 0.500000
O O6 0.141815 0.670495 0.750000
O O7 0.063931 0.652332 0.463976
O O8 0.218801 0.646750 0.467252
O O9 0.001727 0.609548 0.750000
O O10 0.710414 0.974594 0.250000
O O11 0.634538 0.948353 0.967528
O O12 0.684977 0.056923 0.013627
O O13 0.542958 0.175510 0.750000
O O14 0.491084 0.123878 0.029066
O O15 0.628435 0.168193 0.027937
O O16 0.517460 0.250000 0.000000
O O17 0.448473 0.065939 0.750000
O O18 0.500000 0.000000 0.500000
O O19 0.300007 0.870060 0.250000
#
# Coordination Sequence:
#
# PCOD9435062 Si02
#       7
#     8   8   8   8   8   8   8
#     4   9  17  29  47  71  95 120 152 192 236 281
#     4  10  20  31  45  66  95 130 163 194 233 282
#     4   9  17  30  47  67  93 124 157 191 232 278
#     4  10  19  30  49  76 102 127 158 199 246 294
#     4  10  21  35  51  71  98 132 169 206 246 295
#     4  10  20  34  52  75 101 130 165 206 251 298
#     4  10  19  32  48  70 100 131 160 196 243 293
#
# _framework density 19.310264
#
# number of rings (size 3 to 8) (size 9 to 14) (size 15 to 20)
#    0.000    2.286    2.857    0.429    0.000    2.286 
#    0.000    0.000    0.000    0.857    0.000    0.000 
#    0.000    0.000    0.000    0.000    0.000    0.000 
#
# Total GULP energy -312296.191092 kJ/mol
# GULP energy per Si atom -5576.717698 kJ/mol
# Density = 1.926631 g / cm^3
# Si number density = 19.310264 Si / 1000 Ang^3
#
#
#
# Elastic Constant Matrix: (Units=GPa)
#
#
# Indices 1 2 3 4 5 6 
#
# 1 115.0365 52.4673 -4.3033 0.0000 0.0000 0.0000
# 2 52.4673 96.5698 -7.2883 0.0000 0.0000 0.0000
# 3 -4.3033 -7.2883 49.3623 0.0000 0.0000 0.0000
# 4 0.0000 0.0000 0.0000 18.6025 0.0000 0.0000
# 5 0.0000 0.0000 0.0000 0.0000 0.7492 0.0000
# 6 0.0000 0.0000 0.0000 0.0000 0.0000 24.0182
#
#
#
# Elastic Compliance Matrix: (Units=1/GPa)
#
#
# Indices 1 2 3 4 5 6 
#
# 1 0.011557 -0.006273 0.000081 0.000000 0.000000 0.000000
# 2 -0.006273 0.013877 0.001502 0.000000 0.000000 0.000000
# 3 0.000081 0.001502 0.020487 0.000000 0.000000 0.000000
# 4 0.000000 0.000000 0.000000 0.053756 0.000000 0.000000
# 5 0.000000 0.000000 0.000000 0.000000 1.334843 0.000000
# 6 0.000000 0.000000 0.000000 0.000000 0.000000 0.041635
#
#
# Mechanical properties :
#
#
# Convention : Reuss Voigt Hill
#
# Bulk Modulus (GPa) = 27.36589 38.07998 32.72294
# Shear Modulus (GPa) = 3.33842 23.34682 13.34262
#
# Velocity S-wave (km/s) = 1.31628 3.48089 2.63146
# Velocity P-wave (km/s) = 4.06356 5.99319 5.12010
#
# Compressibility (1/GPa) = 0.03654185
#
# Stress axis : x y z
#
# Youngs Moduli (GPa) = 86.52811 72.06344 48.81083
#
# Poissons Ratio (x) = 0.45204 -0.00397
# Poissons Ratio (y) = 0.54278 -0.07331
# Poissons Ratio (z) = -0.00704 -0.10824
#
# Static dielectric constant tensor:
#      x y z
#    x 1.728690 0.000000 0.000000 
#    y 0.000000 1.659780 0.000000 
#    z 0.000000 0.000000 1.716920 
# 
# From -- ./inp_files/6988.got.cif
#   From: 2010.05.17/outbox.cif.g08.bks.cpg/sg57_4_cif.got.tgz:6988.got - 2010.06.03 13:58:18.
