data_PCOD9435166
_publ_section_title
;
Structure prediction by ZEFSAII (Michael W. Deem and Ramdas Pophale) SiO2 
 PCOD9435166
Probable space group: P B C M
;
_chemical_formula_sum "Si O2"
_cell_formula_units_Z 64
_cell_length_a 20.772918
_cell_length_b 19.953986
_cell_length_c 8.768347
_cell_angle_alpha 90.000000
_cell_angle_beta 90.000000
_cell_angle_gamma 90.000000
_cell_volume 3634.501883
_symmetry_space_group_name_H-M "P B C M"
_symmetry_group_IT_number 57
_symmetry_cell_setting 'orthorhombic'
loop_
_space_group_symop_operation_xyz
x,y,z
-x,-y,1/2+z
x,1/2-y,-z
-x,1/2+y,1/2-z
-x,-y,-z
x,y,1/2-z
-x,1/2+y,z
x,1/2-y,1/2+z
loop_
_atom_site_type_symbol
_atom_site_label
_atom_site_fract_x
_atom_site_fract_y
_atom_site_fract_z
Si Si1 0.765972 0.936801 0.565857
Si Si2 0.609350 0.174748 0.933051
Si Si3 0.964972 0.404316 0.933158
Si Si4 0.267130 0.913451 0.066151
Si Si5 0.523095 0.674861 0.067241
Si Si6 0.907005 0.549895 0.568145
Si Si7 0.334145 0.175292 0.433856
Si Si8 0.844140 0.322128 0.932431
O O1 0.768428 0.934960 0.750000
O O2 0.838341 0.933619 0.503615
O O3 0.720991 0.875619 0.514001
O O4 0.735490 0.008601 0.521533
O O5 0.606608 0.180104 0.750000
O O6 0.668418 0.126781 0.976840
O O7 0.618323 0.250000 0.000000
O O8 0.541653 0.145682 0.994578
O O9 0.973083 0.404428 0.750000
O O10 0.929247 0.474240 0.974918
O O11 0.915939 0.345697 0.976815
O O12 0.034465 0.404015 0.010392
O O13 0.261809 0.910091 0.250000
O O14 0.206578 0.875831 0.993750
O O15 0.516249 0.676756 0.250000
O O16 0.594070 0.647454 0.029090
O O17 0.524754 0.750000 0.000000
O O18 0.902263 0.552719 0.750000
O O19 0.327042 0.250000 0.500000
O O20 0.331449 0.180457 0.250000
O O21 0.840755 0.320443 0.750000
O O22 0.828624 0.250000 0.000000
#
# Coordination Sequence:
#
# PCOD9435166 Si02
#       8
#     8   8   8   8   8   8   8   8
#     4  10  20  36  56  78 107 141 174 214 265 319
#     4  10  19  31  48  73 102 136 177 217 258 305
#     4   9  19  35  53  76 104 135 171 214 259 306
#     4  10  21  35  52  75 105 143 181 216 260 314
#     4   9  16  29  50  74  99 131 172 215 260 311
#     4  10  19  33  55  81 104 131 172 216 258 307
#     4   9  19  35  56  80 104 133 171 216 267 322
#     4  11  22  36  54  78 110 143 180 221 263 310
#
# _framework density 17.609016
#
# number of rings (size 3 to 8) (size 9 to 14) (size 15 to 20)
#    0.000    2.250    1.250    2.625    0.000    4.500 
#    0.000    1.250    0.000    0.000    0.000    0.000 
#    0.000    0.000    0.000    0.000    0.000    0.000 
#
# Total GULP energy -356912.570592 kJ/mol
# GULP energy per Si atom -5576.758916 kJ/mol
# Density = 1.756894 g / cm^3
# Si number density = 17.609016 Si / 1000 Ang^3
#
#
#
# Elastic Constant Matrix: (Units=GPa)
#
#
# Indices 1 2 3 4 5 6 
#
# 1 163.7551 63.6442 39.5739 0.0000 0.0000 0.0000
# 2 63.6442 83.0256 24.0602 0.0000 0.0000 0.0000
# 3 39.5739 24.0602 25.9535 0.0000 0.0000 0.0000
# 4 0.0000 0.0000 0.0000 15.0616 0.0000 0.0000
# 5 0.0000 0.0000 0.0000 0.0000 21.7813 0.0000
# 6 0.0000 0.0000 0.0000 0.0000 0.0000 25.0480
#
#
#
# Elastic Compliance Matrix: (Units=1/GPa)
#
#
# Indices 1 2 3 4 5 6 
#
# 1 0.010936 -0.004855 -0.012174 0.000000 0.000000 0.000000
# 2 -0.004855 0.018624 -0.009863 0.000000 0.000000 0.000000
# 3 -0.012174 -0.009863 0.066237 0.000000 0.000000 0.000000
# 4 0.000000 0.000000 0.000000 0.066394 0.000000 0.000000
# 5 0.000000 0.000000 0.000000 0.000000 0.045911 0.000000
# 6 0.000000 0.000000 0.000000 0.000000 0.000000 0.039923
#
#
# Mechanical properties :
#
#
# Convention : Reuss Voigt Hill
#
# Bulk Modulus (GPa) = 23.80210 58.58788 41.19499
# Shear Modulus (GPa) = 15.83220 22.07525 18.95372
#
# Velocity S-wave (km/s) = 3.00175 3.54451 3.28436
# Velocity P-wave (km/s) = 5.05572 7.07779 6.15043
#
# Compressibility (1/GPa) = 0.04201310
#
# Stress axis : x y z
#
# Youngs Moduli (GPa) = 91.44502 53.69352 15.09741
#
# Poissons Ratio (x) = 0.26067 0.18379
# Poissons Ratio (y) = 0.44395 0.14890
# Poissons Ratio (z) = 1.11323 0.52957
#
# Static dielectric constant tensor:
#      x y z
#    x 1.614590 0.000000 0.000000 
#    y 0.000000 1.607250 0.000000 
#    z 0.000000 0.000000 1.591500 
# 
# From -- ./inp_files/8572.got.cif
#   From: 2010.05.17/outbox.cif.g08.bks.cpg/sg57_5_cif.got.tgz:8572.got - 2010.06.03 13:58:18.
