data_PCOD9435068
_publ_section_title
;
Structure prediction by ZEFSAII (Michael W. Deem and Ramdas Pophale) SiO2 
 PCOD9435068
Probable space group: P B C M
;
_chemical_formula_sum "Si O2"
_cell_formula_units_Z 64
_cell_length_a 19.482249
_cell_length_b 23.896905
_cell_length_c 8.943538
_cell_angle_alpha 90.000000
_cell_angle_beta 90.000000
_cell_angle_gamma 90.000000
_cell_volume 4163.802325
_symmetry_space_group_name_H-M "P B C M"
_symmetry_group_IT_number 57
_symmetry_cell_setting 'orthorhombic'
loop_
_space_group_symop_operation_xyz
x,y,z
-x,-y,1/2+z
x,1/2-y,-z
-x,1/2+y,1/2-z
-x,-y,-z
x,y,1/2-z
-x,1/2+y,z
x,1/2-y,1/2+z
loop_
_atom_site_type_symbol
_atom_site_label
_atom_site_fract_x
_atom_site_fract_y
_atom_site_fract_z
Si Si1 0.751243 0.998351 0.928758
Si Si2 0.893749 0.023977 0.071763
Si Si3 0.110843 0.310680 0.429448
Si Si4 0.391277 0.981017 0.571756
Si Si5 0.016626 0.085858 0.571055
Si Si6 0.245374 0.133769 0.069977
Si Si7 0.474514 0.083175 0.070428
Si Si8 0.609097 0.810374 0.570583
O O1 0.750829 0.002356 0.750000
O O2 0.751774 0.932017 0.968547
O O3 0.819940 0.025138 0.995117
O O4 0.682212 0.024649 0.995329
O O5 0.887075 0.027455 0.250000
O O6 0.929596 0.964091 0.034882
O O7 0.946444 0.070438 0.011581
O O8 0.099380 0.250000 0.500000
O O9 0.114289 0.306630 0.250000
O O10 0.051458 0.355381 0.468764
O O11 0.182056 0.336116 0.490530
O O12 0.383376 0.984696 0.750000
O O13 0.446759 0.932447 0.537631
O O14 0.426910 0.037446 0.510039
O O15 0.005569 0.084212 0.750000
O O16 0.237095 0.137987 0.250000
O O17 0.317044 0.163220 0.028795
O O18 0.464290 0.076793 0.250000
O O19 0.448961 0.144601 0.027804
O O20 0.599929 0.750000 0.500000
O O21 0.608501 0.805271 0.750000
#
# Coordination Sequence:
#
# PCOD9435068 Si02
#       8
#     8   8   8   8   8   8   8   8
#     4  11  20  32  50  72 102 134 161 197 248 298
#     4  10  19  32  51  74  98 125 164 204 243 294
#     4  11  22  35  50  70  99 132 171 208 240 285
#     4  10  19  30  50  73  95 125 163 203 244 294
#     4   9  19  34  49  70  98 129 162 203 247 288
#     4  10  20  33  48  67  96 135 171 201 237 283
#     4   9  18  34  49  67  97 129 161 202 248 290
#     4  10  20  34  48  67  95 130 169 203 240 283
#
# _framework density 15.370564999999999
#
# number of rings (size 3 to 8) (size 9 to 14) (size 15 to 20)
#    0.000    2.000    2.500    1.875    0.000    4.500 
#    0.000    0.000    0.000    0.000    0.000    0.875 
#    0.000    4.000    0.000    0.000    0.000    0.000 
#
# Total GULP energy -357154.750988 kJ/mol
# GULP energy per Si atom -5580.542984 kJ/mol
# Density = 1.533558 g / cm^3
# Si number density = 15.370565 Si / 1000 Ang^3
#
#
#
# Elastic Constant Matrix: (Units=GPa)
#
#
# Indices 1 2 3 4 5 6 
#
# 1 151.0666 74.4017 58.4982 0.0000 0.0000 0.0000
# 2 74.4017 102.3017 39.4748 0.0000 0.0000 0.0000
# 3 58.4982 39.4748 38.2315 0.0000 0.0000 0.0000
# 4 0.0000 0.0000 0.0000 21.4596 0.0000 0.0000
# 5 0.0000 0.0000 0.0000 0.0000 28.5144 0.0000
# 6 0.0000 0.0000 0.0000 0.0000 0.0000 18.3099
#
#
#
# Elastic Compliance Matrix: (Units=1/GPa)
#
#
# Indices 1 2 3 4 5 6 
#
# 1 0.017131 -0.003897 -0.022188 0.000000 0.000000 0.000000
# 2 -0.003897 0.017135 -0.011729 0.000000 0.000000 0.000000
# 3 -0.022188 -0.011729 0.072218 0.000000 0.000000 0.000000
# 4 0.000000 0.000000 0.000000 0.046599 0.000000 0.000000
# 5 0.000000 0.000000 0.000000 0.000000 0.035070 0.000000
# 6 0.000000 0.000000 0.000000 0.000000 0.000000 0.054615
#
#
# Mechanical properties :
#
#
# Convention : Reuss Voigt Hill
#
# Bulk Modulus (GPa) = 32.41046 70.70549 51.55797
# Shear Modulus (GPa) = 15.21220 21.60513 18.40867
#
# Velocity S-wave (km/s) = 3.14936 3.75322 3.46447
# Velocity P-wave (km/s) = 5.86144 8.05498 7.04412
#
# Compressibility (1/GPa) = 0.03085424
#
# Stress axis : x y z
#
# Youngs Moduli (GPa) = 58.37294 58.35876 13.84702
#
# Poissons Ratio (x) = 0.22745 0.30724
# Poissons Ratio (y) = 0.22750 0.16241
# Poissons Ratio (z) = 1.29521 0.68450
#
# Static dielectric constant tensor:
#      x y z
#    x 1.501590 0.000000 0.000000 
#    y 0.000000 1.492190 0.000000 
#    z 0.000000 0.000000 1.515920 
# 
# From -- ./inp_files/7345.got.cif
#   From: 2010.05.17/outbox.cif.g08.bks.cpg/sg57_4_cif.got.tgz:7345.got - 2010.06.03 13:58:18.
