data_PCOD9435473
_publ_section_title
;
Structure prediction by ZEFSAII (Michael W. Deem and Ramdas Pophale) SiO2 
 PCOD9435473
Probable space group: P B C M
;
_chemical_formula_sum "Si O2"
_cell_formula_units_Z 48
_cell_length_a 9.884307
_cell_length_b 31.327088
_cell_length_c 8.507288
_cell_angle_alpha 90.000000
_cell_angle_beta 90.000000
_cell_angle_gamma 90.000000
_cell_volume 2634.252423
_symmetry_space_group_name_H-M "P B C M"
_symmetry_group_IT_number 57
_symmetry_cell_setting 'orthorhombic'
loop_
_space_group_symop_operation_xyz
x,y,z
-x,-y,1/2+z
x,1/2-y,-z
-x,1/2+y,1/2-z
-x,-y,-z
x,y,1/2-z
-x,1/2+y,z
x,1/2-y,1/2+z
loop_
_atom_site_type_symbol
_atom_site_label
_atom_site_fract_x
_atom_site_fract_y
_atom_site_fract_z
Si Si1 0.022150 0.130560 0.938473
Si Si2 0.820461 0.202244 0.436702
Si Si3 0.203192 0.566752 0.940495
Si Si4 0.354046 0.484712 0.940342
Si Si5 0.594924 0.357053 0.437850
Si Si6 0.685351 0.887079 0.562044
O O1 0.031406 0.129326 0.750000
O O2 0.935840 0.088900 0.993280
O O3 0.170223 0.130772 0.010792
O O4 0.932947 0.171202 0.987877
O O5 0.832240 0.250000 0.500000
O O6 0.835040 0.201632 0.250000
O O7 0.676655 0.181599 0.484674
O O8 0.198775 0.565835 0.750000
O O9 0.243442 0.519610 0.994750
O O10 0.323644 0.599642 0.983878
O O11 0.356072 0.485165 0.750000
O O12 0.324592 0.436554 0.992080
O O13 0.500000 0.500000 0.000000
O O14 0.604445 0.353057 0.250000
O O15 0.441113 0.361977 0.490024
O O16 0.673728 0.886263 0.750000
#
# Coordination Sequence:
#
# PCOD9435473 Si02
#       6
#     8   8   8   8   8   8
#     4  10  21  38  58  81 113 155 195 233 287 344
#     4  11  22  40  65  91 116 142 181 227 278 341
#     4   8  16  32  53  76 106 146 194 237 276 327
#     4  10  19  32  51  78 111 150 198 245 286 331
#     4  10  19  35  59  83 112 149 189 230 280 335
#     4  11  22  34  52  83 119 153 193 242 290 334
#
# _framework density 18.221489999999999
#
# number of rings (size 3 to 8) (size 9 to 14) (size 15 to 20)
#    0.000    2.000    1.667    4.000    0.000    1.333 
#    0.000    1.667    0.000    0.000    0.000    0.000 
#    0.000    0.000    0.000    0.000    0.000    0.000 
#
# Total GULP energy -267976.116311 kJ/mol
# GULP energy per Si atom -5582.835756 kJ/mol
# Density = 1.818002 g / cm^3
# Si number density = 18.221490 Si / 1000 Ang^3
#
#
#
# Elastic Constant Matrix: (Units=GPa)
#
#
# Indices 1 2 3 4 5 6 
#
# 1 93.2063 12.3548 -10.4914 0.0000 0.0000 0.0000
# 2 12.3548 74.6884 -6.3615 0.0000 0.0000 0.0000
# 3 -10.4914 -6.3615 28.0983 0.0000 0.0000 0.0000
# 4 0.0000 0.0000 0.0000 21.0306 0.0000 0.0000
# 5 0.0000 0.0000 0.0000 0.0000 29.7373 0.0000
# 6 0.0000 0.0000 0.0000 0.0000 0.0000 12.8174
#
#
#
# Elastic Compliance Matrix: (Units=1/GPa)
#
#
# Indices 1 2 3 4 5 6 
#
# 1 0.011373 -0.001549 0.003896 0.000000 0.000000 0.000000
# 2 -0.001549 0.013863 0.002560 0.000000 0.000000 0.000000
# 3 0.003896 0.002560 0.037624 0.000000 0.000000 0.000000
# 4 0.000000 0.000000 0.000000 0.047550 0.000000 0.000000
# 5 0.000000 0.000000 0.000000 0.000000 0.033628 0.000000
# 6 0.000000 0.000000 0.000000 0.000000 0.000000 0.078019
#
#
# Mechanical properties :
#
#
# Convention : Reuss Voigt Hill
#
# Bulk Modulus (GPa) = 13.76043 20.77742 17.26892
# Shear Modulus (GPa) = 21.14455 26.08314 23.61384
#
# Velocity S-wave (km/s) = 3.41019 3.78755 3.60381
# Velocity P-wave (km/s) = 4.80354 5.52765 5.17827
#
# Compressibility (1/GPa) = 0.07267216
#
# Stress axis : x y z
#
# Youngs Moduli (GPa) = 87.92934 72.13282 26.57913
#
# Poissons Ratio (x) = 0.11177 -0.10354
# Poissons Ratio (y) = 0.13624 -0.06805
# Poissons Ratio (z) = -0.34254 -0.18467
#
# Static dielectric constant tensor:
#      x y z
#    x 1.603720 0.000000 0.000000 
#    y 0.000000 1.621020 0.000000 
#    z 0.000000 0.000000 1.613490 
# 
# From -- ./inp_files/1986.got.cif
#   From: 2010.05.17/outbox.cif.g08.bks.cpg/sg57_1_cif.got.tgz:1986.got - 2010.06.03 13:58:18.
