data_PCOD9435929
_publ_section_title
;
Structure prediction by ZEFSAII (Michael W. Deem and Ramdas Pophale) SiO2 
 PCOD9435929
Probable space group: P B C M
;
_chemical_formula_sum "Si O2"
_cell_formula_units_Z 64
_cell_length_a 15.750948
_cell_length_b 24.537847
_cell_length_c 9.197307
_cell_angle_alpha 90.000000
_cell_angle_beta 90.000000
_cell_angle_gamma 90.000000
_cell_volume 3554.707210
_symmetry_space_group_name_H-M "P B C M"
_symmetry_group_IT_number 57
_symmetry_cell_setting 'orthorhombic'
loop_
_space_group_symop_operation_xyz
x,y,z
-x,-y,1/2+z
x,1/2-y,-z
-x,1/2+y,1/2-z
-x,-y,-z
x,y,1/2-z
-x,1/2+y,z
x,1/2-y,1/2+z
loop_
_atom_site_type_symbol
_atom_site_label
_atom_site_fract_x
_atom_site_fract_y
_atom_site_fract_z
Si Si1 0.222676 0.194728 0.581900
Si Si2 0.907071 0.109588 0.416643
Si Si3 0.789733 0.028030 0.923109
Si Si4 0.247711 0.804475 0.917058
Si Si5 0.286012 0.087197 0.076885
Si Si6 0.364319 0.886651 0.076989
Si Si7 0.517308 0.942486 0.576619
Si Si8 0.018000 0.305901 0.418308
O O1 0.248613 0.250000 0.500000
O O2 0.248238 0.197330 0.750000
O O3 0.258881 0.141111 0.506405
O O4 0.120039 0.191809 0.576340
O O5 0.932264 0.098914 0.250000
O O6 0.866932 0.056453 0.492327
O O7 0.830140 0.153309 0.416175
O O8 0.979823 0.140778 0.505149
O O9 0.806543 0.029449 0.750000
O O10 0.704611 0.064538 0.946438
O O11 0.767807 0.966364 0.967084
O O12 0.271348 0.793491 0.750000
O O13 0.222655 0.750000 0.000000
O O14 0.322606 0.833606 0.005702
O O15 0.273519 0.094700 0.250000
O O16 0.385222 0.074281 0.053189
O O17 0.375903 0.881186 0.250000
O O18 0.450867 0.901497 0.996328
O O19 0.503143 0.946654 0.750000
O O20 0.500000 0.000000 0.500000
O O21 0.992178 0.250000 0.500000
O O22 0.990446 0.303305 0.250000
#
# Coordination Sequence:
#
# PCOD9435929 Si02
#       8
#     8   8   8   8   8   8   8   8
#     4  10  22  40  62  86 110 142 183 229 279 330
#     4  10  20  32  51  81 112 144 185 227 272 322
#     4   9  18  34  53  77 112 149 181 219 272 325
#     4  10  20  33  49  74 107 146 184 223 270 324
#     4  10  21  38  59  84 113 146 182 225 277 329
#     4  10  19  34  53  77 108 143 181 224 272 320
#     4  11  21  35  56  84 113 142 181 225 270 323
#     4  10  20  35  56  81 109 142 184 231 278 327
#
# _framework density 18.004294999999999
#
# number of rings (size 3 to 8) (size 9 to 14) (size 15 to 20)
#    0.000    2.000    1.250    2.625    0.000    6.000 
#    0.000    1.250    0.000    3.000    0.000    0.000 
#    0.000    0.000    0.000    0.000    0.000    0.000 
#
# Total GULP energy -357323.707361 kJ/mol
# GULP energy per Si atom -5583.182928 kJ/mol
# Density = 1.796332 g / cm^3
# Si number density = 18.004295 Si / 1000 Ang^3
#
#
#
# Elastic Constant Matrix: (Units=GPa)
#
#
# Indices 1 2 3 4 5 6 
#
# 1 25.2180 25.6398 38.8327 0.0000 0.0000 0.0000
# 2 25.6398 110.0273 71.3953 0.0000 0.0000 0.0000
# 3 38.8327 71.3953 122.1935 0.0000 0.0000 0.0000
# 4 0.0000 0.0000 0.0000 35.4920 0.0000 0.0000
# 5 0.0000 0.0000 0.0000 0.0000 28.5622 0.0000
# 6 0.0000 0.0000 0.0000 0.0000 0.0000 27.8693
#
#
#
# Elastic Compliance Matrix: (Units=1/GPa)
#
#
# Indices 1 2 3 4 5 6 
#
# 1 0.078434 -0.003388 -0.022947 0.000000 0.000000 0.000000
# 2 -0.003388 0.014785 -0.007562 0.000000 0.000000 0.000000
# 3 -0.022947 -0.007562 0.019894 0.000000 0.000000 0.000000
# 4 0.000000 0.000000 0.000000 0.028175 0.000000 0.000000
# 5 0.000000 0.000000 0.000000 0.000000 0.035011 0.000000
# 6 0.000000 0.000000 0.000000 0.000000 0.000000 0.035882
#
#
# Mechanical properties :
#
#
# Convention : Reuss Voigt Hill
#
# Bulk Modulus (GPa) = 22.06509 58.79716 40.43112
# Shear Modulus (GPa) = 16.94450 26.48942 21.71696
#
# Velocity S-wave (km/s) = 3.07112 3.83989 3.47682
# Velocity P-wave (km/s) = 4.98576 7.23795 6.21473
#
# Compressibility (1/GPa) = 0.04532046
#
# Stress axis : x y z
#
# Youngs Moduli (GPa) = 12.74962 67.63629 50.26548
#
# Poissons Ratio (x) = 0.22914 1.15342
# Poissons Ratio (y) = 0.04319 0.38010
# Poissons Ratio (z) = 0.29256 0.51146
#
# Static dielectric constant tensor:
#      x y z
#    x 1.609010 0.000000 0.000000 
#    y 0.000000 1.605050 0.000000 
#    z 0.000000 0.000000 1.608490 
# 
# From -- ./inp_files/5740.got.cif
#   From: 2010.05.17/outbox.cif.g08.bks.cpg/sg57_3_cif.got.tgz:5740.got - 2010.06.03 13:58:18.
