data_PCOD9435236
_publ_section_title
;
Structure prediction by ZEFSAII (Michael W. Deem and Ramdas Pophale) SiO2 
 PCOD9435236
Probable space group: P B C M
;
_chemical_formula_sum "Si O2"
_cell_formula_units_Z 64
_cell_length_a 21.980781
_cell_length_b 18.658521
_cell_length_c 7.706698
_cell_angle_alpha 90.000000
_cell_angle_beta 90.000000
_cell_angle_gamma 90.000000
_cell_volume 3160.739295
_symmetry_space_group_name_H-M "P B C M"
_symmetry_group_IT_number 57
_symmetry_cell_setting 'orthorhombic'
loop_
_space_group_symop_operation_xyz
x,y,z
-x,-y,1/2+z
x,1/2-y,-z
-x,1/2+y,1/2-z
-x,-y,-z
x,y,1/2-z
-x,1/2+y,z
x,1/2-y,1/2+z
loop_
_atom_site_type_symbol
_atom_site_label
_atom_site_fract_x
_atom_site_fract_y
_atom_site_fract_z
Si Si1 0.564350 0.423746 0.463164
Si Si2 0.933790 0.081701 0.958712
Si Si3 0.931474 0.582372 0.041755
Si Si4 0.813557 0.833483 0.543218
Si Si5 0.816298 0.166637 0.959206
Si Si6 0.304596 0.424076 0.044906
Si Si7 0.696766 0.089177 0.953176
Si Si8 0.434647 0.092057 0.951022
O O1 0.563593 0.427875 0.250000
O O2 0.629209 0.392303 0.520794
O O3 0.564441 0.505230 0.533366
O O4 0.501266 0.387039 0.521909
O O5 0.930173 0.078960 0.750000
O O6 0.877638 0.128482 0.024254
O O7 0.928564 0.999698 0.024053
O O8 0.000919 0.110142 0.002023
O O9 0.926278 0.579503 0.250000
O O10 0.875327 0.629252 0.975005
O O11 0.811925 0.750000 0.500000
O O12 0.813863 0.840734 0.750000
O O13 0.753653 0.874721 0.480544
O O14 0.816402 0.158000 0.750000
O O15 0.755221 0.128815 0.029004
O O16 0.816287 0.250000 0.000000
O O17 0.313591 0.435337 0.250000
O O18 0.368016 0.389943 0.974647
O O19 0.295162 0.503245 0.967405
O O20 0.695038 0.107480 0.750000
O O21 0.434814 0.114492 0.750000
#
# Coordination Sequence:
#
# PCOD9435236 Si02
#       8
#     8   8   8   8   8   8   8   8
#     4   8  13  23  42  67  94 126 161 198 245 295
#     4   9  18  34  55  77 101 128 159 197 241 291
#     4   9  19  36  57  78  99 125 158 199 245 292
#     4  11  23  38  54  73 101 134 169 208 249 295
#     4  10  21  35  50  71 101 135 170 207 246 288
#     4  10  19  31  50  76 103 131 165 206 251 299
#     4   9  17  31  51  73  99 133 170 208 251 297
#     4   8  14  24  40  67  99 125 155 200 247 291
#
# _framework density 20.248428000000001
#
# number of rings (size 3 to 8) (size 9 to 14) (size 15 to 20)
#    0.000    2.750    0.000    1.500    0.000    5.000 
#    0.000    5.000    0.000    0.750    0.000    1.750 
#    0.000    0.000    0.000    0.000    0.000    0.000 
#
# Total GULP energy -356652.171216 kJ/mol
# GULP energy per Si atom -5572.690175 kJ/mol
# Density = 2.020234 g / cm^3
# Si number density = 20.248428 Si / 1000 Ang^3
#
#
#
# Elastic Constant Matrix: (Units=GPa)
#
#
# Indices 1 2 3 4 5 6 
#
# 1 257.3888 84.0326 -0.7532 0.0000 0.0000 0.0000
# 2 84.0326 56.2838 -9.3597 0.0000 0.0000 0.0000
# 3 -0.7532 -9.3597 36.1195 0.0000 0.0000 0.0000
# 4 0.0000 0.0000 0.0000 17.5726 0.0000 0.0000
# 5 0.0000 0.0000 0.0000 0.0000 4.0163 0.0000
# 6 0.0000 0.0000 0.0000 0.0000 0.0000 -6.9873
#
#
#
# Elastic Compliance Matrix: (Units=1/GPa)
#
#
# Indices 1 2 3 4 5 6 
#
# 1 0.007882 -0.012270 -0.003015 0.000000 0.000000 0.000000
# 2 -0.012270 0.037666 0.009505 0.000000 0.000000 0.000000
# 3 -0.003015 0.009505 0.030086 0.000000 0.000000 0.000000
# 4 0.000000 0.000000 0.000000 0.056907 0.000000 0.000000
# 5 0.000000 0.000000 0.000000 0.000000 0.248985 0.000000
# 6 0.000000 0.000000 0.000000 0.000000 0.000000 -0.143116
#
#
# Mechanical properties :
#
#
# Convention : Reuss Voigt Hill
#
# Bulk Modulus (GPa) = 15.60680 55.29239 35.44959
# Shear Modulus (GPa) = 18.42787 21.31181 19.86984
#
# Velocity S-wave (km/s) = 3.02004 3.24777 3.13597
# Velocity P-wave (km/s) = 4.45929 6.43664 5.53695
#
# Compressibility (1/GPa) = 0.06407462
#
# Stress axis : x y z
#
# Youngs Moduli (GPa) = 126.86936 26.54892 33.23810
#
# Poissons Ratio (x) = 0.32574 0.10022
# Poissons Ratio (y) = 1.55663 -0.31592
# Poissons Ratio (z) = 0.38252 -0.25234
#
# Static dielectric constant tensor:
#      x y z
#    x 1.791520 0.000000 0.000000 
#    y 0.000000 1.650590 0.000000 
#    z 0.000000 0.000000 1.752640 
# 
# From -- ./inp_files/8558.got.cif
#   From: 2010.05.17/outbox.cif.g08.bks.cpg/sg57_5_cif.got.tgz:8558.got - 2010.06.03 13:58:18.
