data_PCOD9435486
_publ_section_title
;
Structure prediction by ZEFSAII (Michael W. Deem and Ramdas Pophale) SiO2 
 PCOD9435486
Probable space group: P B C M
;
_chemical_formula_sum "Si O2"
_cell_formula_units_Z 64
_cell_length_a 9.375719
_cell_length_b 21.416543
_cell_length_c 18.269655
_cell_angle_alpha 90.000000
_cell_angle_beta 90.000000
_cell_angle_gamma 90.000000
_cell_volume 3668.464312
_symmetry_space_group_name_H-M "P B C M"
_symmetry_group_IT_number 57
_symmetry_cell_setting 'orthorhombic'
loop_
_space_group_symop_operation_xyz
x,y,z
-x,-y,1/2+z
x,1/2-y,-z
-x,1/2+y,1/2-z
-x,-y,-z
x,y,1/2-z
-x,1/2+y,z
x,1/2-y,1/2+z
loop_
_atom_site_type_symbol
_atom_site_label
_atom_site_fract_x
_atom_site_fract_y
_atom_site_fract_z
Si Si1 0.160823 0.750000 0.337909
Si Si2 0.673141 0.005624 0.416018
Si Si3 0.351710 0.630747 0.162513
Si Si4 0.673141 0.494375 0.083982
Si Si5 0.339688 0.368069 0.588403
Si Si6 0.145394 0.250000 0.087924
Si Si7 0.660312 0.868068 0.411597
Si Si8 0.351709 0.630747 0.662513
O O1 0.144659 0.750000 0.250000
O O2 0.250737 0.688398 0.357993
O O3 0.250737 0.811602 0.357993
O O4 0.007648 0.750000 0.375019
O O5 0.708659 0.064801 0.366640
O O6 0.717229 0.017021 0.500000
O O7 0.500000 1.000000 0.415650
O O8 0.721770 0.936658 0.392139
O O9 0.366705 0.628879 0.250000
O O10 0.507097 0.639788 0.126303
O O11 0.721770 0.563342 0.107861
O O12 0.708660 0.435198 0.133359
O O13 0.235906 0.311538 0.607851
O O14 0.360521 0.368458 0.500000
O O15 0.235907 0.311538 0.107851
O O16 0.129209 0.250000 0.000000
O O17 0.507097 0.860212 0.373697
O O18 0.366705 0.628879 0.750000
#
# Coordination Sequence:
#
# PCOD9435486 Si02
#       8
#     8   8   8   8   8   8   8   8
#     4  10  23  38  48  68 104 136 165 206 248 286
#     4   8  15  29  49  74 103 128 154 200 252 288
#     4  10  19  32  52  76 100 130 167 201 240 295
#     4   8  15  29  49  74 103 128 154 200 252 288
#     4   9  18  33  53  78 103 125 159 207 250 290
#     4  10  21  36  54  74  96 130 173 206 240 294
#     4   9  18  33  53  78 103 125 159 207 250 290
#     4  10  19  32  52  76 100 130 167 201 240 295
#
# _framework density 17.445992
#
# number of rings (size 3 to 8) (size 9 to 14) (size 15 to 20)
#    0.000    2.750    0.000    3.000    0.000    7.500 
#    0.000    1.250    0.000    7.500    0.000    0.000 
#    0.000    0.000    0.000    0.000    0.000    0.000 
#
# Total GULP energy -356791.763681 kJ/mol
# GULP energy per Si atom -5574.871308 kJ/mol
# Density = 1.740628 g / cm^3
# Si number density = 17.445992 Si / 1000 Ang^3
#
#
#
# Elastic Constant Matrix: (Units=GPa)
#
#
# Indices 1 2 3 4 5 6 
#
# 1 84.4066 87.9433 42.0914 0.0000 0.0000 0.0000
# 2 87.9433 207.5479 63.3592 0.0000 0.0000 0.0000
# 3 42.0914 63.3592 37.6208 0.0000 0.0000 0.0000
# 4 0.0000 0.0000 0.0000 29.1072 0.0000 0.0000
# 5 0.0000 0.0000 0.0000 0.0000 26.1333 0.0000
# 6 0.0000 0.0000 0.0000 0.0000 0.0000 -3.5842
#
#
#
# Elastic Compliance Matrix: (Units=1/GPa)
#
#
# Indices 1 2 3 4 5 6 
#
# 1 0.029045 -0.004912 -0.024224 0.000000 0.000000 0.000000
# 2 -0.004912 0.010747 -0.012604 0.000000 0.000000 0.000000
# 3 -0.024224 -0.012604 0.074910 0.000000 0.000000 0.000000
# 4 0.000000 0.000000 0.000000 0.034356 0.000000 0.000000
# 5 0.000000 0.000000 0.000000 0.000000 0.038265 0.000000
# 6 0.000000 0.000000 0.000000 0.000000 0.000000 -0.278999
#
#
# Mechanical properties :
#
#
# Convention : Reuss Voigt Hill
#
# Bulk Modulus (GPa) = 32.02781 79.59591 55.81186
# Shear Modulus (GPa) = 2259.36883 19.41002 1139.38943
#
# Velocity S-wave (km/s) = 36.02605 3.33915 25.58345
# Velocity P-wave (km/s) = 41.81985 7.78395 30.07898
#
# Compressibility (1/GPa) = 0.03122287
#
# Stress axis : x y z
#
# Youngs Moduli (GPa) = 34.42901 93.04596 13.34928
#
# Poissons Ratio (x) = 0.45707 0.32337
# Poissons Ratio (y) = 0.16913 0.16826
# Poissons Ratio (z) = 0.83400 1.17276
#
# Static dielectric constant tensor:
#      x y z
#    x 1.549710 0.000000 0.000000 
#    y 0.000000 1.628500 0.000000 
#    z 0.000000 0.000000 1.583820 
# 
# From -- ./inp_files/21391.got.cif
#   From: 2010.05.17/outbox.cif.g08.bks.cpg/sg57_11_cif.got.tgz:21391.got - 2010.06.03 13:58:18.
