data_PCOD9435723
_publ_section_title
;
Structure prediction by ZEFSAII (Michael W. Deem and Ramdas Pophale) SiO2 
 PCOD9435723
Probable space group: P B C M
;
_chemical_formula_sum "Si O2"
_cell_formula_units_Z 48
_cell_length_a 20.045806
_cell_length_b 14.327496
_cell_length_c 8.735113
_cell_angle_alpha 90.000000
_cell_angle_beta 90.000000
_cell_angle_gamma 90.000000
_cell_volume 2508.778657
_symmetry_space_group_name_H-M "P B C M"
_symmetry_group_IT_number 57
_symmetry_cell_setting 'orthorhombic'
loop_
_space_group_symop_operation_xyz
x,y,z
-x,-y,1/2+z
x,1/2-y,-z
-x,1/2+y,1/2-z
-x,-y,-z
x,y,1/2-z
-x,1/2+y,z
x,1/2-y,1/2+z
loop_
_atom_site_type_symbol
_atom_site_label
_atom_site_fract_x
_atom_site_fract_y
_atom_site_fract_z
Si Si1 0.526078 0.852336 0.433616
Si Si2 0.872767 0.652575 0.933144
Si Si3 0.028790 0.850106 0.434086
Si Si4 0.848628 0.049484 0.433606
Si Si5 0.601074 0.460153 0.933358
Si Si6 0.722841 0.351368 0.067920
O O1 0.540443 0.750000 0.500000
O O2 0.519797 0.846583 0.250000
O O3 0.457437 0.893164 0.503062
O O4 0.580355 0.933056 0.469780
O O5 0.871104 0.658980 0.750000
O O6 0.835457 0.558102 0.978471
O O7 0.950905 0.640595 0.976832
O O8 0.848077 0.750000 0.000000
O O9 0.050670 0.750000 0.500000
O O10 0.034345 0.852923 0.250000
O O11 0.077469 0.924364 0.510462
O O12 0.845153 0.057577 0.250000
O O13 0.795492 0.117343 0.510340
O O14 0.604182 0.451158 0.750000
O O15 0.669624 0.425987 0.006202
O O16 0.721108 0.346967 0.250000
O O17 0.706126 0.250000 0.000000
#
# Coordination Sequence:
#
# PCOD9435723 Si02
#       6
#     8   8   8   8   8   8
#     4  10  20  35  59  89 120 152 187 229 273 319
#     4   9  20  36  56  79 106 139 178 225 275 327
#     4  10  19  33  53  80 109 140 177 221 274 328
#     4  11  22  37  55  79 109 142 181 226 273 324
#     4  10  21  38  59  85 117 152 189 229 273 322
#     4  12  25  41  60  82 110 146 184 225 273 327
#
# _framework density 19.132815000000001
#
# number of rings (size 3 to 8) (size 9 to 14) (size 15 to 20)
#    0.000    1.667    0.000    5.000    0.000    4.000 
#    0.000    0.833    0.000    0.000    0.000    0.000 
#    0.000    0.000    0.000    0.000    0.000    0.000 
#
# Total GULP energy -268174.333690 kJ/mol
# GULP energy per Si atom -5586.965285 kJ/mol
# Density = 1.908927 g / cm^3
# Si number density = 19.132815 Si / 1000 Ang^3
#
#
#
# Elastic Constant Matrix: (Units=GPa)
#
#
# Indices 1 2 3 4 5 6 
#
# 1 27.9546 9.2574 19.6769 0.0000 0.0000 0.0000
# 2 9.2574 123.6700 41.9973 0.0000 0.0000 0.0000
# 3 19.6769 41.9973 81.3454 0.0000 0.0000 0.0000
# 4 0.0000 0.0000 0.0000 32.5220 0.0000 0.0000
# 5 0.0000 0.0000 0.0000 0.0000 24.4595 0.0000
# 6 0.0000 0.0000 0.0000 0.0000 0.0000 23.7198
#
#
#
# Elastic Compliance Matrix: (Units=1/GPa)
#
#
# Indices 1 2 3 4 5 6 
#
# 1 0.043128 0.000381 -0.010629 0.000000 0.000000 0.000000
# 2 0.000381 0.009808 -0.005156 0.000000 0.000000 0.000000
# 3 -0.010629 -0.005156 0.017526 0.000000 0.000000 0.000000
# 4 0.000000 0.000000 0.000000 0.030748 0.000000 0.000000
# 5 0.000000 0.000000 0.000000 0.000000 0.040884 0.000000
# 6 0.000000 0.000000 0.000000 0.000000 0.000000 0.042159
#
#
# Mechanical properties :
#
#
# Convention : Reuss Voigt Hill
#
# Bulk Modulus (GPa) = 25.21781 41.64812 33.43297
# Shear Modulus (GPa) = 21.90291 26.94283 24.42287
#
# Velocity S-wave (km/s) = 3.38713 3.75667 3.57668
# Velocity P-wave (km/s) = 5.33909 6.37432 5.87953
#
# Compressibility (1/GPa) = 0.03965451
#
# Stress axis : x y z
#
# Youngs Moduli (GPa) = 23.18693 101.95246 57.05671
#
# Poissons Ratio (x) = -0.03887 0.60646
# Poissons Ratio (y) = -0.00884 0.29419
# Poissons Ratio (z) = 0.24646 0.52569
#
# Static dielectric constant tensor:
#      x y z
#    x 1.657110 0.000000 0.000000 
#    y 0.000000 1.718880 0.000000 
#    z 0.000000 0.000000 1.639780 
# 
# From -- ./inp_files/7872.got.cif
#   From: 2010.05.17/outbox.cif.g08.bks.cpg/sg57_4_cif.got.tgz:7872.got - 2010.06.03 13:58:18.
