data_PCOD9435259
_publ_section_title
;
Structure prediction by ZEFSAII (Michael W. Deem and Ramdas Pophale) SiO2 
 PCOD9435259
Probable space group: P B C M
;
_chemical_formula_sum "Si O2"
_cell_formula_units_Z 64
_cell_length_a 19.439726
_cell_length_b 19.415311
_cell_length_c 8.775808
_cell_angle_alpha 90.000000
_cell_angle_beta 90.000000
_cell_angle_gamma 90.000000
_cell_volume 3312.238523
_symmetry_space_group_name_H-M "P B C M"
_symmetry_group_IT_number 57
_symmetry_cell_setting 'orthorhombic'
loop_
_space_group_symop_operation_xyz
x,y,z
-x,-y,1/2+z
x,1/2-y,-z
-x,1/2+y,1/2-z
-x,-y,-z
x,y,1/2-z
-x,1/2+y,z
x,1/2-y,1/2+z
loop_
_atom_site_type_symbol
_atom_site_label
_atom_site_fract_x
_atom_site_fract_y
_atom_site_fract_z
Si Si1 0.287829 0.603807 0.566676
Si Si2 0.055362 0.319201 0.076005
Si Si3 0.970917 0.070644 0.071649
Si Si4 0.285278 0.046747 0.929027
Si Si5 0.219387 0.318819 0.077794
Si Si6 0.854941 0.173183 0.565672
Si Si7 0.559489 0.097171 0.923881
Si Si8 0.423695 0.069339 0.420968
O O1 0.290800 0.603222 0.750000
O O2 0.275368 0.525889 0.511058
O O3 0.223229 0.650786 0.521338
O O4 0.366013 0.622385 0.516226
O O5 0.030139 0.329605 0.250000
O O6 0.137226 0.314156 0.083877
O O7 0.027753 0.250000 0.000000
O O8 0.033808 0.378409 0.962077
O O9 0.956300 0.060708 0.250000
O O10 0.906993 0.113303 0.995762
O O11 0.000000 0.000000 0.000000
O O12 0.273091 0.035353 0.750000
O O13 0.237635 0.107610 0.992150
O O14 0.361921 0.074929 0.960138
O O15 0.246262 0.320342 0.250000
O O16 0.246177 0.250000 0.000000
O O17 0.868731 0.250000 0.500000
O O18 0.859378 0.175088 0.750000
O O19 0.549218 0.121655 0.750000
O O20 0.564197 0.013492 0.915976
O O21 0.492560 0.108058 0.026690
O O22 0.403086 0.090005 0.250000
#
# Coordination Sequence:
#
# PCOD9435259 Si02
#       8
#     8   8   8   8   8   8   8   8
#     4   9  20  36  56  83 112 145 187 232 282 336
#     4  10  20  38  60  84 113 148 189 232 279 337
#     4  12  26  43  63  90 119 152 190 237 288 339
#     4  10  19  31  50  79 112 146 187 235 287 338
#     4   9  20  35  53  78 107 143 183 225 273 331
#     4  11  24  44  66  91 121 158 197 237 289 351
#     4   8  14  27  46  71 104 139 180 231 279 330
#     4   9  16  26  43  71 105 144 185 228 280 337
#
# _framework density 19.322279999999999
#
# number of rings (size 3 to 8) (size 9 to 14) (size 15 to 20)
#    0.000    2.250    0.000    3.750    1.750    5.500 
#    0.000    0.000    0.000    0.750    0.000    1.750 
#    0.000    0.000    0.000    0.000    0.000    0.000 
#
# Total GULP energy -356445.498798 kJ/mol
# GULP energy per Si atom -5569.460919 kJ/mol
# Density = 1.927830 g / cm^3
# Si number density = 19.322280 Si / 1000 Ang^3
#
#
#
# Elastic Constant Matrix: (Units=GPa)
#
#
# Indices 1 2 3 4 5 6 
#
# 1 73.6502 34.8746 22.0435 0.0000 0.0000 0.0000
# 2 34.8746 87.6818 17.3199 0.0000 0.0000 0.0000
# 3 22.0435 17.3199 45.2229 0.0000 0.0000 0.0000
# 4 0.0000 0.0000 0.0000 25.1309 0.0000 0.0000
# 5 0.0000 0.0000 0.0000 0.0000 17.7172 0.0000
# 6 0.0000 0.0000 0.0000 0.0000 0.0000 -14.5363
#
#
#
# Elastic Compliance Matrix: (Units=1/GPa)
#
#
# Indices 1 2 3 4 5 6 
#
# 1 0.018421 -0.006008 -0.006678 0.000000 0.000000 0.000000
# 2 -0.006008 0.014298 -0.002547 0.000000 0.000000 0.000000
# 3 -0.006678 -0.002547 0.026344 0.000000 0.000000 0.000000
# 4 0.000000 0.000000 0.000000 0.039792 0.000000 0.000000
# 5 0.000000 0.000000 0.000000 0.000000 0.056442 0.000000
# 6 0.000000 0.000000 0.000000 0.000000 0.000000 -0.068793
#
#
# Mechanical properties :
#
#
# Convention : Reuss Voigt Hill
#
# Bulk Modulus (GPa) = 34.97057 39.44788 37.20922
# Shear Modulus (GPa) = 39.52499 14.48348 27.00423
#
# Velocity S-wave (km/s) = 4.52770 2.74080 3.74246
# Velocity P-wave (km/s) = 6.74324 5.52051 6.16228
#
# Compressibility (1/GPa) = 0.02859548
#
# Stress axis : x y z
#
# Youngs Moduli (GPa) = 54.28498 69.94196 37.95975
#
# Poissons Ratio (x) = 0.42019 0.25351
# Poissons Ratio (y) = 0.32613 0.09670
# Poissons Ratio (z) = 0.36254 0.17817
#
# Static dielectric constant tensor:
#      x y z
#    x 1.727170 0.000000 0.000000 
#    y 0.000000 1.592950 0.000000 
#    z 0.000000 0.000000 1.682140 
# 
# From -- ./inp_files/8494.got.cif
#   From: 2010.05.17/outbox.cif.g08.bks.cpg/sg57_5_cif.got.tgz:8494.got - 2010.06.03 13:58:18.
