data_PCOD9435894
_publ_section_title
;
Structure prediction by ZEFSAII (Michael W. Deem and Ramdas Pophale) SiO2 
 PCOD9435894
Probable space group: P B C M
;
_chemical_formula_sum "Si O2"
_cell_formula_units_Z 56
_cell_length_a 23.244346
_cell_length_b 14.668558
_cell_length_c 8.527663
_cell_angle_alpha 90.000000
_cell_angle_beta 90.000000
_cell_angle_gamma 90.000000
_cell_volume 2907.600824
_symmetry_space_group_name_H-M "P B C M"
_symmetry_group_IT_number 57
_symmetry_cell_setting 'orthorhombic'
loop_
_space_group_symop_operation_xyz
x,y,z
-x,-y,1/2+z
x,1/2-y,-z
-x,1/2+y,1/2-z
-x,-y,-z
x,y,1/2-z
-x,1/2+y,z
x,1/2-y,1/2+z
loop_
_atom_site_type_symbol
_atom_site_label
_atom_site_fract_x
_atom_site_fract_y
_atom_site_fract_z
Si Si1 0.851114 0.848961 0.437501
Si Si2 0.532307 0.646040 0.061907
Si Si3 0.803284 0.026503 0.937918
Si Si4 0.302009 0.646357 0.438304
Si Si5 0.416813 0.537001 0.060744
Si Si6 0.979215 0.597304 0.939656
Si Si7 0.900587 0.340784 0.437767
O O1 0.835824 0.750000 0.500000
O O2 0.852377 0.849195 0.250000
O O3 0.916371 0.872394 0.495809
O O4 0.806927 0.925080 0.496320
O O5 0.533975 0.650477 0.250000
O O6 0.470605 0.601787 0.012909
O O7 0.539888 0.750000 0.000000
O O8 0.575712 0.565617 0.005617
O O9 0.801286 0.024363 0.750000
O O10 0.863444 0.073267 0.989311
O O11 0.752417 0.089630 0.999980
O O12 0.302998 0.750000 0.500000
O O13 0.300205 0.649687 0.250000
O O14 0.358849 0.589445 0.486170
O O15 0.418132 0.530042 0.250000
O O16 0.977666 0.597098 0.750000
O O17 0.033852 0.656043 0.994191
O O18 0.000000 0.500000 0.000000
O O19 0.871310 0.250000 0.500000
O O20 0.900825 0.339434 0.250000
#
# Coordination Sequence:
#
# PCOD9435894 Si02
#       7
#     8   8   8   8   8   8   8
#     4  11  23  39  61  85 111 147 188 234 289 350
#     4  10  19  33  57  88 123 161 199 241 290 342
#     4  11  23  40  60  82 113 148 190 239 285 337
#     4  11  23  40  62  88 119 154 195 239 288 343
#     4   9  20  37  57  85 121 160 200 243 288 341
#     4  10  20  35  55  81 110 143 180 224 280 340
#     4  10  21  35  53  79 109 141 177 220 274 332
#
# _framework density 19.259865000000001
#
# number of rings (size 3 to 8) (size 9 to 14) (size 15 to 20)
#    0.000    1.714    1.429    3.000    0.000    5.143 
#    0.000    0.714    0.000    3.429    0.000    0.000 
#    0.000    0.000    0.000    0.000    0.000    0.000 
#
# Total GULP energy -312475.319543 kJ/mol
# GULP energy per Si atom -5579.916420 kJ/mol
# Density = 1.921603 g / cm^3
# Si number density = 19.259865 Si / 1000 Ang^3
#
#
#
# Elastic Constant Matrix: (Units=GPa)
#
#
# Indices 1 2 3 4 5 6 
#
# 1 97.0551 69.8942 30.9081 0.0000 0.0000 0.0000
# 2 69.8942 208.6768 40.2641 0.0000 0.0000 0.0000
# 3 30.9081 40.2641 31.8844 0.0000 0.0000 0.0000
# 4 0.0000 0.0000 0.0000 36.8972 0.0000 0.0000
# 5 0.0000 0.0000 0.0000 0.0000 22.5948 0.0000
# 6 0.0000 0.0000 0.0000 0.0000 0.0000 44.5212
#
#
#
# Elastic Compliance Matrix: (Units=1/GPa)
#
#
# Indices 1 2 3 4 5 6 
#
# 1 0.016378 -0.003203 -0.011832 0.000000 0.000000 0.000000
# 2 -0.003203 0.006962 -0.005687 0.000000 0.000000 0.000000
# 3 -0.011832 -0.005687 0.050015 0.000000 0.000000 0.000000
# 4 0.000000 0.000000 0.000000 0.027102 0.000000 0.000000
# 5 0.000000 0.000000 0.000000 0.000000 0.044258 0.000000
# 6 0.000000 0.000000 0.000000 0.000000 0.000000 0.022461
#
#
# Mechanical properties :
#
#
# Convention : Reuss Voigt Hill
#
# Bulk Modulus (GPa) = 31.33703 68.86100 50.09902
# Shear Modulus (GPa) = 22.80423 33.90595 28.35509
#
# Velocity S-wave (km/s) = 3.44470 4.20032 3.84114
# Velocity P-wave (km/s) = 5.66809 7.70421 6.76321
#
# Compressibility (1/GPa) = 0.03191113
#
# Stress axis : x y z
#
# Youngs Moduli (GPa) = 61.05837 143.63361 19.99395
#
# Poissons Ratio (x) = 0.46000 0.23657
# Poissons Ratio (y) = 0.19555 0.11371
# Poissons Ratio (z) = 0.72244 0.81690
#
# Static dielectric constant tensor:
#      x y z
#    x 1.692320 0.000000 0.000000 
#    y 0.000000 1.703980 0.000000 
#    z 0.000000 0.000000 1.653460 
# 
# From -- ./inp_files/8113.got.cif
#   From: 2010.05.17/outbox.cif.g08.bks.cpg/sg57_5_cif.got.tgz:8113.got - 2010.06.03 13:58:18.
