data_PCOD9435282
_publ_section_title
;
Structure prediction by ZEFSAII (Michael W. Deem and Ramdas Pophale) SiO2 
 PCOD9435282
Probable space group: P B C M
;
_chemical_formula_sum "Si O2"
_cell_formula_units_Z 64
_cell_length_a 12.760158
_cell_length_b 30.540940
_cell_length_c 8.097024
_cell_angle_alpha 90.000000
_cell_angle_beta 90.000000
_cell_angle_gamma 90.000000
_cell_volume 3155.468712
_symmetry_space_group_name_H-M "P B C M"
_symmetry_group_IT_number 57
_symmetry_cell_setting 'orthorhombic'
loop_
_space_group_symop_operation_xyz
x,y,z
-x,-y,1/2+z
x,1/2-y,-z
-x,1/2+y,1/2-z
-x,-y,-z
x,y,1/2-z
-x,1/2+y,z
x,1/2-y,1/2+z
loop_
_atom_site_type_symbol
_atom_site_label
_atom_site_fract_x
_atom_site_fract_y
_atom_site_fract_z
Si Si1 0.164541 0.318454 0.554731
Si Si2 0.930766 0.202896 0.447741
Si Si3 0.657742 0.063903 0.056471
Si Si4 0.899190 0.586022 0.950007
Si Si5 0.450033 0.391232 0.054227
Si Si6 0.293637 0.467013 0.451816
Si Si7 0.131665 0.892073 0.054379
Si Si8 0.391119 0.297275 0.059267
O O1 0.176411 0.310412 0.750000
O O2 0.154412 0.370193 0.520322
O O3 0.265591 0.300023 0.463869
O O4 0.052825 0.299602 0.496984
O O5 0.887364 0.250000 0.500000
O O6 0.929275 0.198986 0.250000
O O7 0.876336 0.159945 0.521223
O O8 0.631194 0.061901 0.250000
O O9 0.668312 0.014334 0.990513
O O10 0.566518 0.091046 0.969847
O O11 0.769476 0.086936 0.033920
O O12 0.898195 0.589634 0.750000
O O13 0.825555 0.545502 0.997791
O O14 0.020435 0.587187 0.002490
O O15 0.426936 0.388359 0.250000
O O16 0.369681 0.428054 0.989531
O O17 0.433736 0.342587 0.981577
O O18 0.296685 0.468107 0.250000
O O19 0.141900 0.899431 0.250000
O O20 0.418271 0.298655 0.250000
O O21 0.428209 0.250000 0.000000
#
# Coordination Sequence:
#
# PCOD9435282 Si02
#       8
#     8   8   8   8   8   8   8   8
#     4  10  19  31  51  83 120 152 185 228 278 337
#     4  10  20  34  54  82 114 149 191 236 284 336
#     4  11  23  38  59  84 114 150 193 244 291 341
#     4   9  17  34  58  83 115 154 189 227 284 342
#     4  10  21  40  62  82 113 152 192 236 286 344
#     4   9  18  36  61  88 115 148 187 235 295 349
#     4  10  21  37  58  82 114 154 195 236 282 341
#     4  11  22  36  57  83 115 152 187 231 283 341
#
# _framework density 20.282247000000002
#
# number of rings (size 3 to 8) (size 9 to 14) (size 15 to 20)
#    0.000    2.000    1.250    2.625    0.000    4.500 
#    0.000    2.500    0.000    1.500    0.000    0.000 
#    0.000    0.000    0.000    0.000    0.000    0.000 
#
# Total GULP energy -357325.446919 kJ/mol
# GULP energy per Si atom -5583.210108 kJ/mol
# Density = 2.023608 g / cm^3
# Si number density = 20.282247 Si / 1000 Ang^3
#
#
#
# Elastic Constant Matrix: (Units=GPa)
#
#
# Indices 1 2 3 4 5 6 
#
# 1 72.8630 51.5484 -10.9391 0.0000 0.0000 0.0000
# 2 51.5484 142.7312 1.1816 0.0000 0.0000 0.0000
# 3 -10.9391 1.1816 9.3365 0.0000 0.0000 0.0000
# 4 0.0000 0.0000 0.0000 17.3298 0.0000 0.0000
# 5 0.0000 0.0000 0.0000 0.0000 14.0728 0.0000
# 6 0.0000 0.0000 0.0000 0.0000 0.0000 14.3347
#
#
#
# Elastic Compliance Matrix: (Units=1/GPa)
#
#
# Indices 1 2 3 4 5 6 
#
# 1 0.024755 -0.009190 0.030168 0.000000 0.000000 0.000000
# 2 -0.009190 0.010425 -0.012087 0.000000 0.000000 0.000000
# 3 0.030168 -0.012087 0.143982 0.000000 0.000000 0.000000
# 4 0.000000 0.000000 0.000000 0.057704 0.000000 0.000000
# 5 0.000000 0.000000 0.000000 0.000000 0.071059 0.000000
# 6 0.000000 0.000000 0.000000 0.000000 0.000000 0.069761
#
#
# Mechanical properties :
#
#
# Convention : Reuss Voigt Hill
#
# Bulk Modulus (GPa) = 5.07760 34.27916 19.67838
# Shear Modulus (GPa) = 11.74938 21.35679 16.55308
#
# Velocity S-wave (km/s) = 2.40946 3.24848 2.85991
# Velocity P-wave (km/s) = 3.20150 5.56848 4.54189
#
# Compressibility (1/GPa) = 0.19694352
#
# Stress axis : x y z
#
# Youngs Moduli (GPa) = 40.39518 95.91965 6.94530
#
# Poissons Ratio (x) = 0.88153 -0.20952
# Poissons Ratio (y) = 0.37125 0.08395
# Poissons Ratio (z) = -1.21863 1.15940
#
# Static dielectric constant tensor:
#      x y z
#    x 1.697370 0.000000 0.000000 
#    y 0.000000 1.747340 0.000000 
#    z 0.000000 0.000000 1.716440 
# 
# From -- ./inp_files/3902.got.cif
#   From: 2010.05.17/outbox.cif.g08.bks.cpg/sg57_2_cif.got.tgz:3902.got - 2010.06.03 13:58:18.
