data_PCOD9435747
_publ_section_title
;
Structure prediction by ZEFSAII (Michael W. Deem and Ramdas Pophale) SiO2 
 PCOD9435747
Probable space group: P B C M
;
_chemical_formula_sum "Si O2"
_cell_formula_units_Z 64
_cell_length_a 12.562183
_cell_length_b 11.750607
_cell_length_c 20.809369
_cell_angle_alpha 90.000000
_cell_angle_beta 90.000000
_cell_angle_gamma 90.000000
_cell_volume 3071.739119
_symmetry_space_group_name_H-M "P B C M"
_symmetry_group_IT_number 57
_symmetry_cell_setting 'orthorhombic'
loop_
_space_group_symop_operation_xyz
x,y,z
-x,-y,1/2+z
x,1/2-y,-z
-x,1/2+y,1/2-z
-x,-y,-z
x,y,1/2-z
-x,1/2+y,z
x,1/2-y,1/2+z
loop_
_atom_site_type_symbol
_atom_site_label
_atom_site_fract_x
_atom_site_fract_y
_atom_site_fract_z
Si Si1 0.268120 0.500379 0.120187
Si Si2 0.912876 0.355143 0.672857
Si Si3 0.370289 0.382736 0.490751
Si Si4 0.848367 0.615864 0.173056
Si Si5 0.456823 0.875032 0.675052
Si Si6 0.764934 0.137981 0.825961
Si Si7 0.569546 0.057081 0.900191
Si Si8 0.345053 0.233410 0.825492
O O1 0.153507 0.543733 0.140339
O O2 0.280871 0.450267 0.049341
O O3 0.351556 0.602824 0.133419
O O4 0.310927 0.395631 0.163126
O O5 0.912708 0.374839 0.750000
O O6 0.847993 0.238950 0.661663
O O7 0.034387 0.351614 0.649513
O O8 0.347481 0.250000 0.500000
O O9 0.388612 0.454316 0.554739
O O10 0.476534 0.392150 0.445619
O O11 0.850981 0.636503 0.250000
O O12 0.822084 0.483556 0.164459
O O13 0.750796 0.690443 0.146674
O O14 0.428405 0.863449 0.750000
O O15 0.537268 0.774694 0.654280
O O16 0.523272 0.990938 0.662040
O O17 0.732997 0.145016 0.750000
O O18 0.663747 0.135156 0.873351
O O19 0.349018 0.256345 0.750000
#
# Coordination Sequence:
#
# PCOD9435747 Si02
#       8
#     8   8   8   8   8   8   8   8
#     4  11  23  37  57  86 122 159 201 251 305 358
#     4  10  22  37  57  92 130 160 198 248 304 365
#     4  10  23  39  57  85 116 159 209 252 302 351
#     4   9  19  35  57  87 122 160 201 240 297 371
#     4  10  19  33  53  86 119 147 186 236 303 371
#     4  10  20  36  60  91 121 159 199 247 310 368
#     4  10  20  36  58  81 115 153 199 248 292 362
#     4  10  19  33  56  84 117 159 196 238 304 373
#
# _framework density 20.835104000000001
#
# number of rings (size 3 to 8) (size 9 to 14) (size 15 to 20)
#    0.000    2.000    1.250    2.250    1.750    5.000 
#    0.000    2.500    0.000    1.500    3.250    0.000 
#    0.000    0.000    0.000    0.000    0.000    0.000 
#
# Total GULP energy -357357.491605 kJ/mol
# GULP energy per Si atom -5583.710806 kJ/mol
# Density = 2.078768 g / cm^3
# Si number density = 20.835104 Si / 1000 Ang^3
#
#
#
# Elastic Constant Matrix: (Units=GPa)
#
#
# Indices 1 2 3 4 5 6 
#
# 1 118.3321 51.6814 23.1733 0.0000 0.0000 0.0000
# 2 51.6814 108.0400 29.4967 0.0000 0.0000 0.0000
# 3 23.1733 29.4967 53.6441 0.0000 0.0000 0.0000
# 4 0.0000 0.0000 0.0000 27.7985 0.0000 0.0000
# 5 0.0000 0.0000 0.0000 0.0000 18.3354 0.0000
# 6 0.0000 0.0000 0.0000 0.0000 0.0000 20.5849
#
#
#
# Elastic Compliance Matrix: (Units=1/GPa)
#
#
# Indices 1 2 3 4 5 6 
#
# 1 0.010892 -0.004619 -0.002165 0.000000 0.000000 0.000000
# 2 -0.004619 0.012850 -0.005070 0.000000 0.000000 0.000000
# 3 -0.002165 -0.005070 0.022365 0.000000 0.000000 0.000000
# 4 0.000000 0.000000 0.000000 0.035973 0.000000 0.000000
# 5 0.000000 0.000000 0.000000 0.000000 0.054539 0.000000
# 6 0.000000 0.000000 0.000000 0.000000 0.000000 0.048579
#
#
# Mechanical properties :
#
#
# Convention : Reuss Voigt Hill
#
# Bulk Modulus (GPa) = 44.64834 54.30212 49.47523
# Shear Modulus (GPa) = 23.10819 25.05473 24.08146
#
# Velocity S-wave (km/s) = 3.33393 3.47151 3.40341
# Velocity P-wave (km/s) = 6.02462 6.49522 6.26434
#
# Compressibility (1/GPa) = 0.02239725
#
# Stress axis : x y z
#
# Youngs Moduli (GPa) = 91.80821 77.82305 44.71345
#
# Poissons Ratio (x) = 0.35948 0.09682
# Poissons Ratio (y) = 0.42408 0.22670
# Poissons Ratio (z) = 0.19880 0.39457
#
# Static dielectric constant tensor:
#      x y z
#    x 1.765650 0.000000 0.000000 
#    y 0.000000 1.772050 0.000000 
#    z 0.000000 0.000000 1.768010 
# 
# From -- ./inp_files/27282.got.cif
#   From: 2010.05.17/outbox.cif.g08.bks.cpg/sg57_14_cif.got.tgz:27282.got - 2010.06.03 13:58:18.
