data_PCOD9435691
_publ_section_title
;
Structure prediction by ZEFSAII (Michael W. Deem and Ramdas Pophale) SiO2 
 PCOD9435691
Probable space group: P B C M
;
_chemical_formula_sum "Si O2"
_cell_formula_units_Z 64
_cell_length_a 11.147602
_cell_length_b 34.648807
_cell_length_c 8.477106
_cell_angle_alpha 90.000000
_cell_angle_beta 90.000000
_cell_angle_gamma 90.000000
_cell_volume 3274.291604
_symmetry_space_group_name_H-M "P B C M"
_symmetry_group_IT_number 57
_symmetry_cell_setting 'orthorhombic'
loop_
_space_group_symop_operation_xyz
x,y,z
-x,-y,1/2+z
x,1/2-y,-z
-x,1/2+y,1/2-z
-x,-y,-z
x,y,1/2-z
-x,1/2+y,z
x,1/2-y,1/2+z
loop_
_atom_site_type_symbol
_atom_site_label
_atom_site_fract_x
_atom_site_fract_y
_atom_site_fract_z
Si Si1 0.428694 0.053836 0.433134
Si Si2 0.687467 0.056730 0.936723
Si Si3 0.692691 0.633362 0.436294
Si Si4 0.724040 0.291996 0.938559
Si Si5 0.075284 0.409372 0.439262
Si Si6 0.446830 0.291991 0.559296
Si Si7 0.830046 0.370093 0.440764
Si Si8 0.195646 0.485615 0.064799
O O1 0.407501 0.043182 0.250000
O O2 0.563574 0.044872 0.481846
O O3 0.406457 0.099648 0.450163
O O4 0.326261 0.034043 0.537410
O O5 0.668530 0.056943 0.750000
O O6 0.727926 0.099255 0.988900
O O7 0.792040 0.026184 0.976867
O O8 0.719717 0.637304 0.250000
O O9 0.811143 0.617270 0.518951
O O10 0.638022 0.673357 0.496331
O O11 0.724988 0.291400 0.750000
O O12 0.585297 0.297864 0.992106
O O13 0.762993 0.250000 0.000000
O O14 0.802378 0.327657 0.997757
O O15 0.067479 0.412657 0.250000
O O16 0.103820 0.452956 0.497686
O O17 0.955070 0.388760 0.496696
O O18 0.408370 0.250000 0.500000
O O19 0.446137 0.292405 0.750000
O O20 0.832309 0.368983 0.250000
O O21 0.175773 0.492177 0.250000
#
# Coordination Sequence:
#
# PCOD9435691 Si02
#       8
#     8   8   8   8   8   8   8   8
#     4  10  19  33  53  76 104 136 173 218 267 320
#     4  11  22  34  51  77 108 140 175 218 266 315
#     4   9  18  33  53  76 102 133 170 213 259 309
#     4  10  20  36  59  85 112 141 172 210 259 313
#     4   9  20  38  56  74 100 137 179 221 262 306
#     4   9  18  32  51  79 111 136 163 203 254 311
#     4  10  22  39  56  77 107 141 180 223 263 307
#     4  10  20  35  54  76 104 138 176 218 267 319
#
# _framework density 19.546212000000001
#
# number of rings (size 3 to 8) (size 9 to 14) (size 15 to 20)
#    0.000    2.250    0.000    2.625    0.000    5.000 
#    0.000    0.625    0.000    1.500    0.000    0.000 
#    0.000    0.000    0.000    0.000    0.000    0.000 
#
# Total GULP energy -357303.503148 kJ/mol
# GULP energy per Si atom -5582.867237 kJ/mol
# Density = 1.950172 g / cm^3
# Si number density = 19.546212 Si / 1000 Ang^3
#
#
#
# Elastic Constant Matrix: (Units=GPa)
#
#
# Indices 1 2 3 4 5 6 
#
# 1 35.4503 4.5618 -6.5768 0.0000 0.0000 0.0000
# 2 4.5618 88.4629 -3.4588 0.0000 0.0000 0.0000
# 3 -6.5768 -3.4588 11.4686 0.0000 0.0000 0.0000
# 4 0.0000 0.0000 0.0000 30.3012 0.0000 0.0000
# 5 0.0000 0.0000 0.0000 0.0000 18.3316 0.0000
# 6 0.0000 0.0000 0.0000 0.0000 0.0000 24.5819
#
#
#
# Elastic Compliance Matrix: (Units=1/GPa)
#
#
# Indices 1 2 3 4 5 6 
#
# 1 0.031643 -0.000933 0.017864 0.000000 0.000000 0.000000
# 2 -0.000933 0.011467 0.002923 0.000000 0.000000 0.000000
# 3 0.017864 0.002923 0.098320 0.000000 0.000000 0.000000
# 4 0.000000 0.000000 0.000000 0.033002 0.000000 0.000000
# 5 0.000000 0.000000 0.000000 0.000000 0.054551 0.000000
# 6 0.000000 0.000000 0.000000 0.000000 0.000000 0.040680
#
#
# Mechanical properties :
#
#
# Convention : Reuss Voigt Hill
#
# Bulk Modulus (GPa) = 5.52066 13.82604 9.67335
# Shear Modulus (GPa) = 17.22156 24.03332 20.62744
#
# Velocity S-wave (km/s) = 2.97150 3.51032 3.25209
# Velocity P-wave (km/s) = 3.82147 4.84960 4.36591
#
# Compressibility (1/GPa) = 0.18113763
#
# Stress axis : x y z
#
# Youngs Moduli (GPa) = 31.60272 87.20993 10.17085
#
# Poissons Ratio (x) = 0.08139 -0.18170
# Poissons Ratio (y) = 0.02949 -0.02973
# Poissons Ratio (z) = -0.56456 -0.25491
#
# Static dielectric constant tensor:
#      x y z
#    x 1.683610 0.000000 0.000000 
#    y 0.000000 1.691810 0.000000 
#    z 0.000000 0.000000 1.670690 
# 
# From -- ./inp_files/3793.got.cif
#   From: 2010.05.17/outbox.cif.g08.bks.cpg/sg57_2_cif.got.tgz:3793.got - 2010.06.03 13:58:18.
