data_PCOD9435362
_publ_section_title
;
Structure prediction by ZEFSAII (Michael W. Deem and Ramdas Pophale) SiO2 
 PCOD9435362
Probable space group: P B C M
;
_chemical_formula_sum "Si O2"
_cell_formula_units_Z 64
_cell_length_a 5.505346
_cell_length_b 27.637499
_cell_length_c 23.917950
_cell_angle_alpha 90.000000
_cell_angle_beta 90.000000
_cell_angle_gamma 90.000000
_cell_volume 3639.211634
_symmetry_space_group_name_H-M "P B C M"
_symmetry_group_IT_number 57
_symmetry_cell_setting 'orthorhombic'
loop_
_space_group_symop_operation_xyz
x,y,z
-x,-y,1/2+z
x,1/2-y,-z
-x,1/2+y,1/2-z
-x,-y,-z
x,y,1/2-z
-x,1/2+y,z
x,1/2-y,1/2+z
loop_
_atom_site_type_symbol
_atom_site_label
_atom_site_fract_x
_atom_site_fract_y
_atom_site_fract_z
Si Si1 0.400657 0.731402 0.935114
Si Si2 0.155661 0.442180 0.989283
Si Si3 0.192095 0.026196 0.313308
Si Si4 0.853619 0.370884 0.575187
Si Si5 0.527552 0.374997 0.467141
Si Si6 0.689511 0.412143 0.813610
Si Si7 0.771382 0.472828 0.074605
Si Si8 0.898477 0.769885 0.935488
O O1 0.455299 0.674472 0.933967
O O2 0.136208 0.743253 0.910867
O O3 0.635585 0.758118 0.910475
O O4 0.383910 0.750000 0.000000
O O5 0.333474 0.479348 0.957348
O O6 0.979341 0.421751 0.941250
O O7 0.265236 0.393732 0.015641
O O8 0.025712 0.467534 0.041549
O O9 0.213159 0.007092 0.250000
O O10 0.431283 0.060290 0.321852
O O11 0.931871 0.053779 0.316293
O O12 0.202897 0.985948 0.361219
O O13 0.662437 0.364331 0.525404
O O14 0.731186 0.375238 0.635539
O O15 0.037767 0.326172 0.570390
O O16 0.640656 0.422345 0.437665
O O17 0.684856 0.392358 0.750000
O O18 0.882023 0.750000 0.000000
#
# Coordination Sequence:
#
# PCOD9435362 Si02
#       8
#     8   8   8   8   8   8   8   8
#     4  10  19  33  48  70 107 132 177 212 258 314
#     4  10  20  32  47  77 114 143 176 212 270 335
#     4  10  21  39  57  75 107 148 188 228 264 316
#     4  11  20  32  55  78 108 150 177 226 282 332
#     4  11  21  31  51  76 112 149 178 223 271 332
#     4  10  22  37  56  80 107 142 187 228 269 324
#     4  10  21  32  49  79 109 145 181 218 269 324
#     4  10  19  32  49  74 103 136 177 214 258 322
#
# _framework density 17.586227999999998
#
# number of rings (size 3 to 8) (size 9 to 14) (size 15 to 20)
#    0.000    1.750    3.750    2.625    3.500    0.000 
#    0.000    0.000    0.000    0.000    0.000    1.750 
#    0.000    0.000    0.000    0.000    0.000    0.000 
#
# Total GULP energy -356361.415765 kJ/mol
# GULP energy per Si atom -5568.147121 kJ/mol
# Density = 1.754620 g / cm^3
# Si number density = 17.586228 Si / 1000 Ang^3
#
#
#
# Elastic Constant Matrix: (Units=GPa)
#
#
# Indices 1 2 3 4 5 6 
#
# 1 66.7747 -4.7770 -0.0738 0.0000 0.0000 0.0000
# 2 -4.7770 70.9044 21.1589 0.0000 0.0000 0.0000
# 3 -0.0738 21.1589 66.3386 0.0000 0.0000 0.0000
# 4 0.0000 0.0000 0.0000 9.2904 0.0000 0.0000
# 5 0.0000 0.0000 0.0000 0.0000 16.2611 0.0000
# 6 0.0000 0.0000 0.0000 0.0000 0.0000 24.8826
#
#
#
# Elastic Compliance Matrix: (Units=1/GPa)
#
#
# Indices 1 2 3 4 5 6 
#
# 1 0.015055 0.001115 -0.000339 0.000000 0.000000 0.000000
# 2 0.001115 0.015670 -0.004997 0.000000 0.000000 0.000000
# 3 -0.000339 -0.004997 0.016667 0.000000 0.000000 0.000000
# 4 0.000000 0.000000 0.000000 0.107637 0.000000 0.000000
# 5 0.000000 0.000000 0.000000 0.000000 0.061496 0.000000
# 6 0.000000 0.000000 0.000000 0.000000 0.000000 0.040189
#
#
# Mechanical properties :
#
#
# Convention : Reuss Voigt Hill
#
# Bulk Modulus (GPa) = 25.67267 26.29267 25.98267
# Shear Modulus (GPa) = 17.97660 22.60081 20.28870
#
# Velocity S-wave (km/s) = 3.20065 3.58878 3.40026
# Velocity P-wave (km/s) = 5.31872 5.67059 5.49747
#
# Compressibility (1/GPa) = 0.03895192
#
# Stress axis : x y z
#
# Youngs Moduli (GPa) = 66.42245 63.81736 59.99701
#
# Poissons Ratio (x) = -0.07119 0.02034
# Poissons Ratio (y) = -0.07409 0.29978
# Poissons Ratio (z) = 0.02252 0.31887
#
# Static dielectric constant tensor:
#      x y z
#    x 1.693380 0.000000 0.000000 
#    y 0.000000 1.418150 0.000000 
#    z 0.000000 0.000000 1.898890 
# 
# From -- ./inp_files/26416.got.cif
#   From: 2010.05.17/outbox.cif.g08.bks.cpg/sg57_14_cif.got.tgz:26416.got - 2010.06.03 13:58:18.
