data_PCOD9435742
_publ_section_title
;
Structure prediction by ZEFSAII (Michael W. Deem and Ramdas Pophale) SiO2 
 PCOD9435742
Probable space group: P B C M
;
_chemical_formula_sum "Si O2"
_cell_formula_units_Z 64
_cell_length_a 23.199997
_cell_length_b 18.111197
_cell_length_c 8.553982
_cell_angle_alpha 90.000000
_cell_angle_beta 90.000000
_cell_angle_gamma 90.000000
_cell_volume 3594.209728
_symmetry_space_group_name_H-M "P B C M"
_symmetry_group_IT_number 57
_symmetry_cell_setting 'orthorhombic'
loop_
_space_group_symop_operation_xyz
x,y,z
-x,-y,1/2+z
x,1/2-y,-z
-x,1/2+y,1/2-z
-x,-y,-z
x,y,1/2-z
-x,1/2+y,z
x,1/2-y,1/2+z
loop_
_atom_site_type_symbol
_atom_site_label
_atom_site_fract_x
_atom_site_fract_y
_atom_site_fract_z
Si Si1 0.705554 0.328177 0.937823
Si Si2 0.039217 0.933318 0.938051
Si Si3 0.453286 0.328017 0.562857
Si Si4 0.259773 0.515353 0.936241
Si Si5 0.578686 0.125370 0.439414
Si Si6 0.381890 0.035186 0.937459
Si Si7 0.860892 0.533893 0.938181
Si Si8 0.939806 0.667989 0.438083
O O1 0.706829 0.329361 0.750000
O O2 0.638509 0.337448 0.991346
O O3 0.727603 0.250000 0.000000
O O4 0.737981 0.400569 0.999868
O O5 0.038837 0.933318 0.750000
O O6 0.004219 0.860332 0.987399
O O7 0.102797 0.959968 0.986173
O O8 0.000000 0.000000 0.000000
O O9 0.432086 0.250000 0.500000
O O10 0.454359 0.327446 0.750000
O O11 0.518989 0.340692 0.503460
O O12 0.413546 0.394244 0.505339
O O13 0.261444 0.516694 0.750000
O O14 0.317286 0.476173 0.000697
O O15 0.202802 0.474314 0.995188
O O16 0.578419 0.129399 0.250000
O O17 0.583627 0.039300 0.482779
O O18 0.380417 0.038770 0.750000
O O19 0.859340 0.537218 0.750000
O O20 0.895082 0.606119 0.999309
O O21 0.928511 0.750000 0.500000
O O22 0.936844 0.668076 0.250000
#
# Coordination Sequence:
#
# PCOD9435742 Si02
#       8
#     8   8   8   8   8   8   8   8
#     4  10  19  34  54  79 108 139 174 218 267 318
#     4   8  16  30  51  76 104 135 169 206 251 301
#     4  11  21  34  51  76 106 137 171 213 264 321
#     4  11  22  37  56  79 105 141 183 223 264 315
#     4   8  17  32  53  78 104 132 168 211 262 321
#     4  10  20  37  56  76 102 136 175 220 267 317
#     4  10  19  35  57  80 106 142 182 223 264 310
#     4  10  19  33  53  82 114 144 177 218 262 309
#
# _framework density 17.806419000000002
#
# number of rings (size 3 to 8) (size 9 to 14) (size 15 to 20)
#    0.000    2.250    0.000    4.500    0.000    1.000 
#    0.000    7.500    0.000    1.500    0.000    0.000 
#    0.000    0.000    0.000    0.000    0.000    0.000 
#
# Total GULP energy -356901.244366 kJ/mol
# GULP energy per Si atom -5576.581943 kJ/mol
# Density = 1.776589 g / cm^3
# Si number density = 17.806419 Si / 1000 Ang^3
#
#
#
# Elastic Constant Matrix: (Units=GPa)
#
#
# Indices 1 2 3 4 5 6 
#
# 1 63.0092 39.7700 18.0571 0.0000 0.0000 0.0000
# 2 39.7700 117.2820 30.8269 0.0000 0.0000 0.0000
# 3 18.0571 30.8269 66.0907 0.0000 0.0000 0.0000
# 4 0.0000 0.0000 0.0000 25.5229 0.0000 0.0000
# 5 0.0000 0.0000 0.0000 0.0000 21.6166 0.0000
# 6 0.0000 0.0000 0.0000 0.0000 0.0000 21.5842
#
#
#
# Elastic Compliance Matrix: (Units=1/GPa)
#
#
# Indices 1 2 3 4 5 6 
#
# 1 0.020607 -0.006278 -0.002702 0.000000 0.000000 0.000000
# 2 -0.006278 0.011630 -0.003710 0.000000 0.000000 0.000000
# 3 -0.002702 -0.003710 0.017599 0.000000 0.000000 0.000000
# 4 0.000000 0.000000 0.000000 0.039180 0.000000 0.000000
# 5 0.000000 0.000000 0.000000 0.000000 0.046261 0.000000
# 6 0.000000 0.000000 0.000000 0.000000 0.000000 0.046330
#
#
# Mechanical properties :
#
#
# Convention : Reuss Voigt Hill
#
# Bulk Modulus (GPa) = 40.88623 47.07663 43.98143
# Shear Modulus (GPa) = 23.24072 24.25995 23.75033
#
# Velocity S-wave (km/s) = 3.61666 3.69511 3.65609
# Velocity P-wave (km/s) = 6.36016 6.68585 6.52504
#
# Compressibility (1/GPa) = 0.02445811
#
# Stress axis : x y z
#
# Youngs Moduli (GPa) = 48.52625 85.98280 56.82050
#
# Poissons Ratio (x) = 0.53977 0.15354
# Poissons Ratio (y) = 0.30463 0.21078
# Poissons Ratio (z) = 0.13113 0.31896
#
# Static dielectric constant tensor:
#      x y z
#    x 1.610050 0.000000 0.000000 
#    y 0.000000 1.593790 0.000000 
#    z 0.000000 0.000000 1.594840 
# 
# From -- ./inp_files/8490.got.cif
#   From: 2010.05.17/outbox.cif.g08.bks.cpg/sg57_5_cif.got.tgz:8490.got - 2010.06.03 13:58:18.
