data_PCOD9435838
_publ_section_title
;
Structure prediction by ZEFSAII (Michael W. Deem and Ramdas Pophale) SiO2 
 PCOD9435838
Probable space group: P B C M
;
_chemical_formula_sum "Si O2"
_cell_formula_units_Z 40
_cell_length_a 9.246623
_cell_length_b 15.381365
_cell_length_c 11.179445
_cell_angle_alpha 90.000000
_cell_angle_beta 90.000000
_cell_angle_gamma 90.000000
_cell_volume 1590.004205
_symmetry_space_group_name_H-M "P B C M"
_symmetry_group_IT_number 57
_symmetry_cell_setting 'orthorhombic'
loop_
_space_group_symop_operation_xyz
x,y,z
-x,-y,1/2+z
x,1/2-y,-z
-x,1/2+y,1/2-z
-x,-y,-z
x,y,1/2-z
-x,1/2+y,z
x,1/2-y,1/2+z
loop_
_atom_site_type_symbol
_atom_site_label
_atom_site_fract_x
_atom_site_fract_y
_atom_site_fract_z
Si Si1 0.270089 0.502116 0.750000
Si Si2 0.997595 0.366669 0.250000
Si Si3 0.338700 0.920579 0.750000
Si Si4 0.378191 0.190042 0.250000
Si Si5 0.560625 0.750000 0.000000
Si Si6 0.031231 0.829616 0.750000
Si Si7 0.339208 0.590876 0.509434
Si Si8 0.994796 0.104256 0.000012
O O1 0.113555 0.550828 0.750000
O O2 0.292658 0.400059 0.750000
O O3 0.343726 0.534421 0.628351
O O4 0.926737 0.271371 0.250000
O O5 0.075012 0.370663 0.377741
O O6 0.452048 0.840409 0.750000
O O7 0.175124 0.887304 0.750000
O O8 0.354699 0.960216 0.617115
O O9 0.355765 0.239071 0.374842
O O10 0.457030 0.666109 0.986606
O O11 0.956867 0.854174 0.624158
O O12 0.175253 0.629716 0.511439
O O13 0.000000 0.000000 0.000000
#
# Coordination Sequence:
#
# PCOD9435838 Si02
#       8
#     4   4   4   4   4   4   8   8
#     4  10  21  32  51  82 116 146 183 233 303 323
#     4  10  21  33  57  81 112 156 178 236 286 336
#     4   8  18  29  50  76 110 140 180 225 271 319
#     4  10  21  35  51  83 112 145 191 241 276 342
#     4  10  20  34  58  82 112 146 200 232 278 330
#     4  10  19  33  55  82 116 145 192 229 286 332
#     4   9  19  32  54  78 113 149 179 233 283 331
#     4  10  20  32  52  86 116 148 183 237 285 336
#
# _framework density 25.157164999999999
#
# number of rings (size 3 to 8) (size 9 to 14) (size 15 to 20)
#    0.000    2.400    0.000    1.800   16.800    3.200 
#    0.000    1.000    0.000    0.000   41.600    0.000 
#    0.000    0.000    0.000    0.000    0.000    0.000 
#
# Total GULP energy -223395.674901 kJ/mol
# GULP energy per Si atom -5584.891873 kJ/mol
# Density = 2.509991 g / cm^3
# Si number density = 25.157165 Si / 1000 Ang^3
#
#
#
# Elastic Constant Matrix: (Units=GPa)
#
#
# Indices 1 2 3 4 5 6 
#
# 1 66.0794 34.1518 37.9369 0.0000 0.0000 0.0000
# 2 34.1518 99.8812 77.5307 0.0000 0.0000 0.0000
# 3 37.9369 77.5307 337.2491 0.0000 0.0000 0.0000
# 4 0.0000 0.0000 0.0000 6.3140 0.0000 0.0000
# 5 0.0000 0.0000 0.0000 0.0000 -1.7372 0.0000
# 6 0.0000 0.0000 0.0000 0.0000 0.0000 34.4470
#
#
#
# Elastic Compliance Matrix: (Units=1/GPa)
#
#
# Indices 1 2 3 4 5 6 
#
# 1 0.018542 -0.005746 -0.000765 0.000000 0.000000 0.000000
# 2 -0.005746 0.013967 -0.002565 0.000000 0.000000 0.000000
# 3 -0.000765 -0.002565 0.003641 0.000000 0.000000 0.000000
# 4 0.000000 0.000000 0.000000 0.158378 0.000000 0.000000
# 5 0.000000 0.000000 0.000000 0.000000 -0.575623 0.000000
# 6 0.000000 0.000000 0.000000 0.000000 0.000000 0.029030
#
#
# Mechanical properties :
#
#
# Convention : Reuss Voigt Hill
#
# Bulk Modulus (GPa) = 55.55873 89.16094 72.35983
# Shear Modulus (GPa) = -15.24794 31.37743 8.06474
#
# Velocity S-wave (km/s) = -2.46460 3.53548 1.79240
# Velocity P-wave (km/s) = 3.74615 7.22390 5.75406
#
# Compressibility (1/GPa) = 0.01799897
#
# Stress axis : x y z
#
# Youngs Moduli (GPa) = 53.93076 71.59511 274.66712
#
# Poissons Ratio (x) = 0.41142 0.21005
# Poissons Ratio (y) = 0.30991 0.70441
# Poissons Ratio (z) = 0.04124 0.18361
#
# Static dielectric constant tensor:
#      x y z
#    x 1.986380 0.000000 0.000000 
#    y 0.000000 1.940230 0.000000 
#    z 0.000000 0.000000 2.067700 
# 
# From -- ./inp_files/12793.got.cif
#   From: 2010.05.17/outbox.cif.g08.bks.cpg/sg57_7_cif.got.tgz:12793.got - 2010.06.03 13:58:18.
