data_PCOD9435423
_publ_section_title
;
Structure prediction by ZEFSAII (Michael W. Deem and Ramdas Pophale) SiO2 
 PCOD9435423
Probable space group: P B C M
;
_chemical_formula_sum "Si O2"
_cell_formula_units_Z 40
_cell_length_a 11.697969
_cell_length_b 21.593833
_cell_length_c 9.323296
_cell_angle_alpha 90.000000
_cell_angle_beta 90.000000
_cell_angle_gamma 90.000000
_cell_volume 2355.101760
_symmetry_space_group_name_H-M "P B C M"
_symmetry_group_IT_number 57
_symmetry_cell_setting 'orthorhombic'
loop_
_space_group_symop_operation_xyz
x,y,z
-x,-y,1/2+z
x,1/2-y,-z
-x,1/2+y,1/2-z
-x,-y,-z
x,y,1/2-z
-x,1/2+y,z
x,1/2-y,1/2+z
loop_
_atom_site_type_symbol
_atom_site_label
_atom_site_fract_x
_atom_site_fract_y
_atom_site_fract_z
Si Si1 0.074455 0.552958 0.077067
Si Si2 0.549763 0.590522 0.914366
Si Si3 0.341771 0.546759 0.414638
Si Si4 0.297008 0.186921 0.080174
Si Si5 0.973895 0.686311 0.079476
O O1 0.059594 0.547211 0.250000
O O2 0.208861 0.545351 0.044635
O O3 0.035720 0.622591 0.035582
O O4 0.000000 0.500000 0.000000
O O5 0.547634 0.612290 0.750000
O O6 0.606887 0.522475 0.915726
O O7 0.423262 0.585158 0.980412
O O8 0.627938 0.633126 0.012807
O O9 0.349993 0.569925 0.250000
O O10 0.314464 0.191894 0.250000
O O11 0.161745 0.176433 0.054661
O O12 0.328030 0.250000 0.000000
O O13 0.991346 0.694737 0.250000
O O14 0.007628 0.750000 0.000000
#
# Coordination Sequence:
#
# PCOD9435423 Si02
#       5
#     8   8   8   8   8
#     4  10  20  34  53  78 105 134 171 213 258 307
#     4  10  19  32  51  74  99 129 167 207 250 298
#     4   9  19  34  51  72 101 135 166 203 252 303
#     4  10  19  32  51  74 100 129 163 204 248 295
#     4   9  19  34  52  75 103 135 169 206 251 303
#
# _framework density 16.984404999999999
#
# number of rings (size 3 to 8) (size 9 to 14) (size 15 to 20)
#    0.000    2.400    0.000    2.400    0.000    3.200 
#    0.000    1.000    0.000    2.400    0.000    0.000 
#    0.000    0.000    0.000    0.000    0.000    0.000 
#
# Total GULP energy -223066.095243 kJ/mol
# GULP energy per Si atom -5576.652381 kJ/mol
# Density = 1.694575 g / cm^3
# Si number density = 16.984405 Si / 1000 Ang^3
#
#
#
# Elastic Constant Matrix: (Units=GPa)
#
#
# Indices 1 2 3 4 5 6 
#
# 1 97.9674 51.1596 56.0750 0.0000 0.0000 0.0000
# 2 51.1596 75.8160 38.4402 0.0000 0.0000 0.0000
# 3 56.0750 38.4402 68.2422 0.0000 0.0000 0.0000
# 4 0.0000 0.0000 0.0000 33.5956 0.0000 0.0000
# 5 0.0000 0.0000 0.0000 0.0000 25.6922 0.0000
# 6 0.0000 0.0000 0.0000 0.0000 0.0000 24.5263
#
#
#
# Elastic Compliance Matrix: (Units=1/GPa)
#
#
# Indices 1 2 3 4 5 6 
#
# 1 0.022313 -0.008063 -0.013793 0.000000 0.000000 0.000000
# 2 -0.008063 0.021377 -0.005416 0.000000 0.000000 0.000000
# 3 -0.013793 -0.005416 0.029038 0.000000 0.000000 0.000000
# 4 0.000000 0.000000 0.000000 0.029766 0.000000 0.000000
# 5 0.000000 0.000000 0.000000 0.000000 0.038922 0.000000
# 6 0.000000 0.000000 0.000000 0.000000 0.000000 0.040773
#
#
# Mechanical properties :
#
#
# Convention : Reuss Voigt Hill
#
# Bulk Modulus (GPa) = 54.99287 59.26393 57.12840
# Shear Modulus (GPa) = 20.59370 23.18620 21.88995
#
# Velocity S-wave (km/s) = 3.48588 3.69880 3.59392
# Velocity P-wave (km/s) = 6.97500 7.29454 7.13656
#
# Compressibility (1/GPa) = 0.01818417
#
# Stress axis : x y z
#
# Youngs Moduli (GPa) = 44.81703 46.77999 34.43789
#
# Poissons Ratio (x) = 0.37720 0.47499
# Poissons Ratio (y) = 0.36137 0.18650
# Poissons Ratio (z) = 0.61815 0.25334
#
# Static dielectric constant tensor:
#      x y z
#    x 1.554050 0.000000 0.000000 
#    y 0.000000 1.564680 0.000000 
#    z 0.000000 0.000000 1.574500 
# 
# From -- ./inp_files/2622.got.cif
#   From: 2010.05.17/outbox.cif.g08.bks.cpg/sg57_2_cif.got.tgz:2622.got - 2010.06.03 13:58:18.
