data_PCOD9435516
_publ_section_title
;
Structure prediction by ZEFSAII (Michael W. Deem and Ramdas Pophale) SiO2 
 PCOD9435516
Probable space group: P B C M
;
_chemical_formula_sum "Si O2"
_cell_formula_units_Z 56
_cell_length_a 9.042239
_cell_length_b 22.077113
_cell_length_c 12.080083
_cell_angle_alpha 90.000000
_cell_angle_beta 90.000000
_cell_angle_gamma 90.000000
_cell_volume 2411.505078
_symmetry_space_group_name_H-M "P B C M"
_symmetry_group_IT_number 57
_symmetry_cell_setting 'orthorhombic'
loop_
_space_group_symop_operation_xyz
x,y,z
-x,-y,1/2+z
x,1/2-y,-z
-x,1/2+y,1/2-z
-x,-y,-z
x,y,1/2-z
-x,1/2+y,z
x,1/2-y,1/2+z
loop_
_atom_site_type_symbol
_atom_site_label
_atom_site_fract_x
_atom_site_fract_y
_atom_site_fract_z
Si Si1 0.093061 0.610873 0.588073
Si Si2 0.712700 0.009716 0.950271
Si Si3 0.346593 0.181587 0.030401
Si Si4 0.766934 0.909715 0.369658
Si Si5 0.239936 0.763211 0.374905
Si Si6 0.016312 0.164132 0.125673
Si Si7 0.531176 0.079840 0.128757
O O1 0.163178 0.546306 0.613765
O O2 0.196174 0.666272 0.622661
O O3 0.930256 0.617687 0.636800
O O4 0.061992 0.617511 0.456763
O O5 0.628848 0.060345 0.024065
O O6 0.773277 0.962684 0.040557
O O7 0.600214 0.970242 0.877821
O O8 0.181699 0.177868 0.083244
O O9 0.460353 0.145698 0.107953
O O10 0.377383 0.250000 0.000000
O O11 0.339339 0.141395 0.918958
O O12 0.717053 0.931387 0.250000
O O13 0.304893 0.750000 0.500000
O O14 0.306692 0.750795 0.250000
O O15 0.088217 0.723432 0.376575
O O16 0.024721 0.141051 0.250000
O O17 0.602508 0.078237 0.250000
#
# Coordination Sequence:
#
# PCOD9435516 Si02
#       7
#     8   8   8   8   8   8   8
#     4  10  19  32  52  81 112 144 187 235 286 345
#     4  10  22  39  56  79 113 148 188 235 278 330
#     4  10  20  35  56  84 112 140 183 238 283 330
#     4  10  20  34  55  83 114 146 178 221 285 349
#     4   9  17  30  49  77 115 150 180 221 280 346
#     4   9  17  30  51  81 115 149 184 230 292 352
#     4  10  22  40  60  79 105 149 195 233 279 331
#
# _framework density 23.222011999999999
#
# number of rings (size 3 to 8) (size 9 to 14) (size 15 to 20)
#    0.000    2.286    0.000    3.857    0.000    4.571 
#    0.000    2.143    0.000    0.000    0.000    0.000 
#    0.000    0.000    0.000    0.000    0.000    0.000 
#
# Total GULP energy -312722.977252 kJ/mol
# GULP energy per Si atom -5584.338880 kJ/mol
# Density = 2.316916 g / cm^3
# Si number density = 23.222012 Si / 1000 Ang^3
#
#
#
# Elastic Constant Matrix: (Units=GPa)
#
#
# Indices 1 2 3 4 5 6 
#
# 1 28.9519 17.3987 15.2881 0.0000 0.0000 0.0000
# 2 17.3987 103.0020 11.2980 0.0000 0.0000 0.0000
# 3 15.2881 11.2980 151.1197 0.0000 0.0000 0.0000
# 4 0.0000 0.0000 0.0000 4.4777 0.0000 0.0000
# 5 0.0000 0.0000 0.0000 0.0000 -4.2221 0.0000
# 6 0.0000 0.0000 0.0000 0.0000 0.0000 32.7831
#
#
#
# Elastic Compliance Matrix: (Units=1/GPa)
#
#
# Indices 1 2 3 4 5 6 
#
# 1 0.040292 -0.006412 -0.003597 0.000000 0.000000 0.000000
# 2 -0.006412 0.010809 -0.000159 0.000000 0.000000 0.000000
# 3 -0.003597 -0.000159 0.006993 0.000000 0.000000 0.000000
# 4 0.000000 0.000000 0.000000 0.223331 0.000000 0.000000
# 5 0.000000 0.000000 0.000000 0.000000 -0.236850 0.000000
# 6 0.000000 0.000000 0.000000 0.000000 0.000000 0.030504
#
#
# Mechanical properties :
#
#
# Convention : Reuss Voigt Hill
#
# Bulk Modulus (GPa) = 26.48386 41.22700 33.85543
# Shear Modulus (GPa) = 46.29572 22.54698 34.42135
#
# Velocity S-wave (km/s) = 4.46983 3.11936 3.85421
# Velocity P-wave (km/s) = 6.16998 5.54669 5.86662
#
# Compressibility (1/GPa) = 0.03775884
#
# Stress axis : x y z
#
# Youngs Moduli (GPa) = 24.81854 92.51502 142.99860
#
# Poissons Ratio (x) = 0.59316 0.51435
# Poissons Ratio (y) = 0.15912 0.02281
# Poissons Ratio (z) = 0.08927 0.01475
#
# Static dielectric constant tensor:
#      x y z
#    x 1.886280 0.000000 0.000000 
#    y 0.000000 1.841130 0.000000 
#    z 0.000000 0.000000 1.941380 
# 
# From -- ./inp_files/13081.got.cif
#   From: 2010.05.17/outbox.cif.g08.bks.cpg/sg57_7_cif.got.tgz:13081.got - 2010.06.03 13:58:18.
