data_PCOD9435661
_publ_section_title
;
Structure prediction by ZEFSAII (Michael W. Deem and Ramdas Pophale) SiO2 
 PCOD9435661
Probable space group: P B C M
;
_chemical_formula_sum "Si O2"
_cell_formula_units_Z 40
_cell_length_a 15.130291
_cell_length_b 7.373564
_cell_length_c 15.787778
_cell_angle_alpha 90.000000
_cell_angle_beta 90.000000
_cell_angle_gamma 90.000000
_cell_volume 1761.350333
_symmetry_space_group_name_H-M "P B C M"
_symmetry_group_IT_number 57
_symmetry_cell_setting 'orthorhombic'
loop_
_space_group_symop_operation_xyz
x,y,z
-x,-y,1/2+z
x,1/2-y,-z
-x,1/2+y,1/2-z
-x,-y,-z
x,y,1/2-z
-x,1/2+y,z
x,1/2-y,1/2+z
loop_
_atom_site_type_symbol
_atom_site_label
_atom_site_fract_x
_atom_site_fract_y
_atom_site_fract_z
Si Si1 0.103940 0.533684 0.005132
Si Si2 0.213625 0.499444 0.846448
Si Si3 0.410849 0.663403 0.090190
Si Si4 0.589407 0.954178 0.844311
Si Si5 0.233480 0.941963 0.847263
O O1 0.158936 0.481959 0.089455
O O2 0.115760 0.750000 0.000000
O O3 0.147611 0.450996 0.921104
O O4 0.000000 0.500000 0.000000
O O5 0.188130 0.451937 0.750000
O O6 0.309344 0.412589 0.865772
O O7 0.223169 0.720481 0.847602
O O8 0.511001 0.594483 0.092235
O O9 0.411225 0.828015 0.156145
O O10 0.333176 0.527848 0.117703
O O11 0.386904 0.750000 0.000000
O O12 0.570459 0.884393 0.750000
O O13 0.225304 0.002229 0.750000
#
# Coordination Sequence:
#
# PCOD9435661 Si02
#       5
#     8   8   8   8   8
#     4  10  20  35  54  75  98 127 168 216 262 310
#     4   8  16  32  53  73 100 138 174 204 250 318
#     4  11  20  32  52  79 108 140 180 220 262 315
#     4  10  19  33  52  76 105 140 177 216 261 315
#     4   9  17  32  53  75 100 135 173 208 251 314
#
# _framework density 22.709848000000001
#
# number of rings (size 3 to 8) (size 9 to 14) (size 15 to 20)
#    0.000    2.400    0.000    6.600    0.000    0.800 
#    0.000    3.000    0.000    2.400    0.000    0.000 
#    0.000    0.000    0.000    0.000    0.000    0.000 
#
# Total GULP energy -223317.958145 kJ/mol
# GULP energy per Si atom -5582.948954 kJ/mol
# Density = 2.265816 g / cm^3
# Si number density = 22.709848 Si / 1000 Ang^3
#
#
#
# Elastic Constant Matrix: (Units=GPa)
#
#
# Indices 1 2 3 4 5 6 
#
# 1 189.3051 5.5707 132.5452 0.0000 0.0000 0.0000
# 2 5.5707 46.8977 9.3143 0.0000 0.0000 0.0000
# 3 132.5452 9.3143 198.9457 0.0000 0.0000 0.0000
# 4 0.0000 0.0000 0.0000 -1.4730 0.0000 0.0000
# 5 0.0000 0.0000 0.0000 0.0000 29.2632 0.0000
# 6 0.0000 0.0000 0.0000 0.0000 0.0000 27.2378
#
#
#
# Elastic Compliance Matrix: (Units=1/GPa)
#
#
# Indices 1 2 3 4 5 6 
#
# 1 0.009902 0.000135 -0.006603 0.000000 0.000000 0.000000
# 2 0.000135 0.021525 -0.001098 0.000000 0.000000 0.000000
# 3 -0.006603 -0.001098 0.009477 0.000000 0.000000 0.000000
# 4 0.000000 0.000000 0.000000 -0.678867 0.000000 0.000000
# 5 0.000000 0.000000 0.000000 0.000000 0.034173 0.000000
# 6 0.000000 0.000000 0.000000 0.000000 0.000000 0.036714
#
#
# Mechanical properties :
#
#
# Convention : Reuss Voigt Hill
#
# Bulk Modulus (GPa) = 38.80137 81.11210 59.95674
# Shear Modulus (GPa) = -9.20212 30.18681 10.49234
#
# Velocity S-wave (km/s) = -2.01515 3.64983 2.15179
# Velocity P-wave (km/s) = 3.42175 7.31819 5.71245
#
# Compressibility (1/GPa) = 0.02577228
#
# Stress axis : x y z
#
# Youngs Moduli (GPa) = 100.98972 46.45764 105.51471
#
# Poissons Ratio (x) = -0.00629 0.69676
# Poissons Ratio (y) = -0.01366 0.11584
# Poissons Ratio (z) = 0.66688 0.05101
#
# Static dielectric constant tensor:
#      x y z
#    x 1.854990 0.000000 0.000000 
#    y 0.000000 1.916520 0.000000 
#    z 0.000000 0.000000 1.829010 
# 
# From -- ./inp_files/17382.got.cif
#   From: 2010.05.17/outbox.cif.g08.bks.cpg/sg57_9_cif.got.tgz:17382.got - 2010.06.03 13:58:18.
