data_PCOD9435317
_publ_section_title
;
Structure prediction by ZEFSAII (Michael W. Deem and Ramdas Pophale) SiO2 
 PCOD9435317
Probable space group: P B C M
;
_chemical_formula_sum "Si O2"
_cell_formula_units_Z 64
_cell_length_a 20.736944
_cell_length_b 23.369956
_cell_length_c 8.885322
_cell_angle_alpha 90.000000
_cell_angle_beta 90.000000
_cell_angle_gamma 90.000000
_cell_volume 4306.017799
_symmetry_space_group_name_H-M "P B C M"
_symmetry_group_IT_number 57
_symmetry_cell_setting 'orthorhombic'
loop_
_space_group_symop_operation_xyz
x,y,z
-x,-y,1/2+z
x,1/2-y,-z
-x,1/2+y,1/2-z
-x,-y,-z
x,y,1/2-z
-x,1/2+y,z
x,1/2-y,1/2+z
loop_
_atom_site_type_symbol
_atom_site_label
_atom_site_fract_x
_atom_site_fract_y
_atom_site_fract_z
Si Si1 0.710846 0.513073 0.572437
Si Si2 0.414206 0.449517 0.577776
Si Si3 0.460362 0.917393 0.076421
Si Si4 0.105618 0.603051 0.570478
Si Si5 0.320160 0.610325 0.568373
Si Si6 0.156747 0.026899 0.428219
Si Si7 0.981445 0.561484 0.069306
Si Si8 0.789703 0.187175 0.430324
O O1 0.708925 0.503058 0.750000
O O2 0.649990 0.551205 0.521857
O O3 0.703078 0.452123 0.487492
O O4 0.779226 0.538341 0.521828
O O5 0.398673 0.436056 0.750000
O O6 0.474697 0.413138 0.518875
O O7 0.438331 0.515802 0.572752
O O8 0.474196 0.903353 0.250000
O O9 0.395860 0.884350 0.027152
O O10 0.105222 0.612096 0.750000
O O11 0.134485 0.539064 0.544055
O O12 0.151572 0.648007 0.489078
O O13 0.033204 0.603696 0.504519
O O14 0.314888 0.612108 0.750000
O O15 0.274970 0.657097 0.492734
O O16 0.170575 0.031300 0.250000
O O17 0.094795 0.066525 0.462869
O O18 0.989249 0.560103 0.250000
O O19 0.000000 0.500000 0.000000
O O20 0.795343 0.250000 0.500000
O O21 0.789006 0.189071 0.250000
#
# Coordination Sequence:
#
# PCOD9435317 Si02
#       8
#     8   8   8   8   8   8   8   8
#     4  11  19  25  39  60  84 114 147 178 211 254
#     4   9  16  25  37  54  79 108 138 174 209 245
#     4   8  15  26  40  56  76 103 136 173 209 249
#     4  10  19  32  48  63  84 110 140 181 222 263
#     4  10  19  32  46  60  81 108 140 179 221 259
#     4   9  17  28  42  60  86 115 143 177 216 257
#     4   9  17  28  43  62  84 110 142 177 215 260
#     4  12  24  36  50  66  85 111 146 186 226 267
#
# _framework density 14.862920000000001
#
# number of rings (size 3 to 8) (size 9 to 14) (size 15 to 20)
#    0.000    2.250    1.250    5.250    0.000    6.000 
#    0.000    0.000    0.000    0.000    0.000    0.000 
#    0.000    0.000    0.000    1.125    0.000   17.250 
#
# Total GULP energy -356628.074053 kJ/mol
# GULP energy per Si atom -5572.313657 kJ/mol
# Density = 1.482909 g / cm^3
# Si number density = 14.862920 Si / 1000 Ang^3
#
#
#
# Elastic Constant Matrix: (Units=GPa)
#
#
# Indices 1 2 3 4 5 6 
#
# 1 124.1890 36.6606 67.3588 0.0000 0.0000 0.0000
# 2 36.6606 37.9861 25.7184 0.0000 0.0000 0.0000
# 3 67.3588 25.7184 91.9364 0.0000 0.0000 0.0000
# 4 0.0000 0.0000 0.0000 14.5498 0.0000 0.0000
# 5 0.0000 0.0000 0.0000 0.0000 30.3301 0.0000
# 6 0.0000 0.0000 0.0000 0.0000 0.0000 9.1519
#
#
#
# Elastic Compliance Matrix: (Units=1/GPa)
#
#
# Indices 1 2 3 4 5 6 
#
# 1 0.015497 -0.008968 -0.008846 0.000000 0.000000 0.000000
# 2 -0.008968 0.037666 -0.003966 0.000000 0.000000 0.000000
# 3 -0.008846 -0.003966 0.018468 0.000000 0.000000 0.000000
# 4 0.000000 0.000000 0.000000 0.068729 0.000000 0.000000
# 5 0.000000 0.000000 0.000000 0.000000 0.032971 0.000000
# 6 0.000000 0.000000 0.000000 0.000000 0.000000 0.109267
#
#
# Mechanical properties :
#
#
# Convention : Reuss Voigt Hill
#
# Bulk Modulus (GPa) = 35.62383 57.06521 46.34452
# Shear Modulus (GPa) = 14.90252 19.09794 17.00023
#
# Velocity S-wave (km/s) = 3.16992 3.58849 3.38568
# Velocity P-wave (km/s) = 6.11704 7.45972 6.82149
#
# Compressibility (1/GPa) = 0.02807110
#
# Stress axis : x y z
#
# Youngs Moduli (GPa) = 64.52721 26.54949 54.14866
#
# Poissons Ratio (x) = 0.23808 0.47899
# Poissons Ratio (y) = 0.57865 0.21477
# Poissons Ratio (z) = 0.57080 0.10530
#
# Static dielectric constant tensor:
#      x y z
#    x 1.532550 0.000000 0.000000 
#    y 0.000000 1.475410 0.000000 
#    z 0.000000 0.000000 1.499840 
# 
# From -- ./inp_files/7356.got.cif
#   From: 2010.05.17/outbox.cif.g08.bks.cpg/sg57_4_cif.got.tgz:7356.got - 2010.06.03 13:58:18.
