data_PCOD9435963
_publ_section_title
;
Structure prediction by ZEFSAII (Michael W. Deem and Ramdas Pophale) SiO2 
 PCOD9435963
Probable space group: P B C M
;
_chemical_formula_sum "Si O2"
_cell_formula_units_Z 40
_cell_length_a 9.401207
_cell_length_b 18.705594
_cell_length_c 11.530340
_cell_angle_alpha 90.000000
_cell_angle_beta 90.000000
_cell_angle_gamma 90.000000
_cell_volume 2027.669800
_symmetry_space_group_name_H-M "P B C M"
_symmetry_group_IT_number 57
_symmetry_cell_setting 'orthorhombic'
loop_
_space_group_symop_operation_xyz
x,y,z
-x,-y,1/2+z
x,1/2-y,-z
-x,1/2+y,1/2-z
-x,-y,-z
x,y,1/2-z
-x,1/2+y,z
x,1/2-y,1/2+z
loop_
_atom_site_type_symbol
_atom_site_label
_atom_site_fract_x
_atom_site_fract_y
_atom_site_fract_z
Si Si1 0.683900 0.702619 0.884796
Si Si2 0.093585 0.073851 0.877148
Si Si3 0.887039 0.264278 0.624833
Si Si4 0.363827 0.853444 0.378471
Si Si5 0.829148 0.080006 0.448133
O O1 0.695499 0.732273 0.750000
O O2 0.790251 0.635455 0.890527
O O3 0.521208 0.675863 0.896412
O O4 0.710218 0.750000 0.000000
O O5 0.026992 0.080260 0.750000
O O6 0.165783 0.996053 0.886907
O O7 0.968160 0.080395 0.969384
O O8 0.961644 0.250000 0.500000
O O9 0.958860 0.249277 0.750000
O O10 0.749481 0.212345 0.618741
O O11 0.843239 0.347193 0.624340
O O12 0.356446 0.885394 0.250000
O O13 0.309865 0.908836 0.473573
#
# Coordination Sequence:
#
# PCOD9435963 Si02
#       5
#     8   8   8   8   8
#     4  10  21  39  58  80 112 146 181 225 278 328
#     4  10  22  37  53  77 112 147 178 224 278 323
#     4   9  17  30  52  80 104 132 175 223 265 310
#     4   9  18  34  57  82 109 141 180 227 271 316
#     4  10  19  34  55  78 106 143 187 223 264 323
#
# _framework density 19.727079
#
# number of rings (size 3 to 8) (size 9 to 14) (size 15 to 20)
#    0.000    2.400    0.000    3.000    0.000    4.000 
#    0.000   11.000    0.000    0.000    0.000    0.000 
#    0.000    0.000    0.000    0.000    0.000    0.000 
#
# Total GULP energy -222965.287658 kJ/mol
# GULP energy per Si atom -5574.132191 kJ/mol
# Density = 1.968218 g / cm^3
# Si number density = 19.727079 Si / 1000 Ang^3
#
#
#
# Elastic Constant Matrix: (Units=GPa)
#
#
# Indices 1 2 3 4 5 6 
#
# 1 74.7951 6.2430 27.1495 0.0000 0.0000 0.0000
# 2 6.2430 76.9312 41.1169 0.0000 0.0000 0.0000
# 3 27.1495 41.1169 161.3459 0.0000 0.0000 0.0000
# 4 0.0000 0.0000 0.0000 10.2181 0.0000 0.0000
# 5 0.0000 0.0000 0.0000 0.0000 -28.6018 0.0000
# 6 0.0000 0.0000 0.0000 0.0000 0.0000 18.0339
#
#
#
# Elastic Compliance Matrix: (Units=1/GPa)
#
#
# Indices 1 2 3 4 5 6 
#
# 1 0.014241 0.000145 -0.002433 0.000000 0.000000 0.000000
# 2 0.000145 0.015050 -0.003860 0.000000 0.000000 0.000000
# 3 -0.002433 -0.003860 0.007591 0.000000 0.000000 0.000000
# 4 0.000000 0.000000 0.000000 0.097865 0.000000 0.000000
# 5 0.000000 0.000000 0.000000 0.000000 -0.034963 0.000000
# 6 0.000000 0.000000 0.000000 0.000000 0.000000 0.055451
#
#
# Mechanical properties :
#
#
# Convention : Reuss Voigt Hill
#
# Bulk Modulus (GPa) = 40.67430 51.34343 46.00887
# Shear Modulus (GPa) = 28.45337 15.83424 22.14381
#
# Velocity S-wave (km/s) = 3.80195 2.83621 3.35402
# Velocity P-wave (km/s) = 6.31952 6.06703 6.19456
#
# Compressibility (1/GPa) = 0.02458555
#
# Stress axis : x y z
#
# Youngs Moduli (GPa) = 70.21981 66.44656 131.73729
#
# Poissons Ratio (x) = -0.00962 0.32054
# Poissons Ratio (y) = -0.01017 0.50845
# Poissons Ratio (z) = 0.17086 0.25646
#
# Static dielectric constant tensor:
#      x y z
#    x 1.656560 0.000000 0.000000 
#    y 0.000000 1.689370 0.000000 
#    z 0.000000 0.000000 1.792700 
# 
# From -- ./inp_files/11573.got.cif
#   From: 2010.05.17/outbox.cif.g08.bks.cpg/sg57_6_cif.got.tgz:11573.got - 2010.06.03 13:58:18.
