data_PCOD9435703
_publ_section_title
;
Structure prediction by ZEFSAII (Michael W. Deem and Ramdas Pophale) SiO2 
 PCOD9435703
Probable space group: P B C M
;
_chemical_formula_sum "Si O2"
_cell_formula_units_Z 48
_cell_length_a 18.618857
_cell_length_b 15.260829
_cell_length_c 8.545943
_cell_angle_alpha 90.000000
_cell_angle_beta 90.000000
_cell_angle_gamma 90.000000
_cell_volume 2428.237346
_symmetry_space_group_name_H-M "P B C M"
_symmetry_group_IT_number 57
_symmetry_cell_setting 'orthorhombic'
loop_
_space_group_symop_operation_xyz
x,y,z
-x,-y,1/2+z
x,1/2-y,-z
-x,1/2+y,1/2-z
-x,-y,-z
x,y,1/2-z
-x,1/2+y,z
x,1/2-y,1/2+z
loop_
_atom_site_type_symbol
_atom_site_label
_atom_site_fract_x
_atom_site_fract_y
_atom_site_fract_z
Si Si1 0.026027 0.593646 0.938302
Si Si2 0.326983 0.522768 0.437094
Si Si3 0.450551 0.654144 0.438721
Si Si4 0.383883 0.345461 0.937315
Si Si5 0.825379 0.030712 0.937827
Si Si6 0.876011 0.658582 0.937937
O O1 0.026035 0.594911 0.750000
O O2 0.109254 0.595248 0.988510
O O3 0.960522 0.655247 0.988761
O O4 0.000000 0.500000 0.000000
O O5 0.326954 0.522381 0.250000
O O6 0.394334 0.581133 0.492894
O O7 0.336892 0.424196 0.497599
O O8 0.251447 0.558596 0.497859
O O9 0.429950 0.750000 0.500000
O O10 0.450011 0.655331 0.250000
O O11 0.533027 0.638004 0.488353
O O12 0.381146 0.345035 0.750000
O O13 0.363057 0.250000 0.000000
O O14 0.823859 0.027819 0.750000
O O15 0.842054 0.931750 0.998229
O O16 0.871472 0.656914 0.750000
O O17 0.844471 0.750000 0.000000
#
# Coordination Sequence:
#
# PCOD9435703 Si02
#       6
#     8   8   8   8   8   8
#     4   8  16  31  51  71  94 124 162 202 243 291
#     4  11  22  36  54  81 113 146 181 222 271 326
#     4   9  20  37  58  81 107 139 181 228 274 321
#     4  10  20  36  57  82 109 142 181 225 272 323
#     4  10  20  35  53  75 103 138 174 212 259 314
#     4  10  19  33  53  78 104 133 169 213 260 311
#
# _framework density 19.767427000000001
#
# number of rings (size 3 to 8) (size 9 to 14) (size 15 to 20)
#    0.000    2.333    0.000    2.500    0.000    4.000 
#    0.000    4.167    0.000    4.000    0.000    0.000 
#    0.000    0.000    0.000    0.000    0.000    0.000 
#
# Total GULP energy -267714.762842 kJ/mol
# GULP energy per Si atom -5577.390893 kJ/mol
# Density = 1.972244 g / cm^3
# Si number density = 19.767427 Si / 1000 Ang^3
#
#
#
# Elastic Constant Matrix: (Units=GPa)
#
#
# Indices 1 2 3 4 5 6 
#
# 1 61.8973 0.4406 8.5291 0.0000 0.0000 0.0000
# 2 0.4406 26.0314 -1.4777 0.0000 0.0000 0.0000
# 3 8.5291 -1.4777 28.6208 0.0000 0.0000 0.0000
# 4 0.0000 0.0000 0.0000 19.7698 0.0000 0.0000
# 5 0.0000 0.0000 0.0000 0.0000 28.3655 0.0000
# 6 0.0000 0.0000 0.0000 0.0000 0.0000 12.7363
#
#
#
# Elastic Compliance Matrix: (Units=1/GPa)
#
#
# Indices 1 2 3 4 5 6 
#
# 1 0.016856 -0.000572 -0.005053 0.000000 0.000000 0.000000
# 2 -0.000572 0.038548 0.002161 0.000000 0.000000 0.000000
# 3 -0.005053 0.002161 0.036557 0.000000 0.000000 0.000000
# 4 0.000000 0.000000 0.000000 0.050582 0.000000 0.000000
# 5 0.000000 0.000000 0.000000 0.000000 0.035254 0.000000
# 6 0.000000 0.000000 0.000000 0.000000 0.000000 0.078516
#
#
# Mechanical properties :
#
#
# Convention : Reuss Voigt Hill
#
# Bulk Modulus (GPa) = 11.76026 14.61486 13.18756
# Shear Modulus (GPa) = 17.14764 19.44481 18.29623
#
# Velocity S-wave (km/s) = 2.94848 3.13977 3.04563
# Velocity P-wave (km/s) = 4.18970 4.53361 4.36505
#
# Compressibility (1/GPa) = 0.08503211
#
# Stress axis : x y z
#
# Youngs Moduli (GPa) = 59.32572 25.94200 27.35462
#
# Poissons Ratio (x) = 0.01484 0.13822
# Poissons Ratio (y) = 0.03394 -0.05910
# Poissons Ratio (z) = 0.29976 -0.05605
#
# Static dielectric constant tensor:
#      x y z
#    x 1.748510 0.000000 0.000000 
#    y 0.000000 1.666520 0.000000 
#    z 0.000000 0.000000 1.681360 
# 
# From -- ./inp_files/6481.got.cif
#   From: 2010.05.17/outbox.cif.g08.bks.cpg/sg57_4_cif.got.tgz:6481.got - 2010.06.03 13:58:18.
