data_PCOD9435595
_publ_section_title
;
Structure prediction by ZEFSAII (Michael W. Deem and Ramdas Pophale) SiO2 
 PCOD9435595
Probable space group: P B C M
;
_chemical_formula_sum "Si O2"
_cell_formula_units_Z 56
_cell_length_a 22.176019
_cell_length_b 15.393450
_cell_length_c 8.642551
_cell_angle_alpha 90.000000
_cell_angle_beta 90.000000
_cell_angle_gamma 90.000000
_cell_volume 2950.268222
_symmetry_space_group_name_H-M "P B C M"
_symmetry_group_IT_number 57
_symmetry_cell_setting 'orthorhombic'
loop_
_space_group_symop_operation_xyz
x,y,z
-x,-y,1/2+z
x,1/2-y,-z
-x,1/2+y,1/2-z
-x,-y,-z
x,y,1/2-z
-x,1/2+y,z
x,1/2-y,1/2+z
loop_
_atom_site_type_symbol
_atom_site_label
_atom_site_fract_x
_atom_site_fract_y
_atom_site_fract_z
Si Si1 0.695627 0.659452 0.064254
Si Si2 0.433733 0.406789 0.562402
Si Si3 0.565897 0.102512 0.434536
Si Si4 0.001775 0.349580 0.064046
Si Si5 0.088983 0.991989 0.564736
Si Si6 0.776650 0.002595 0.562467
Si Si7 0.308649 0.660792 0.934103
O O1 0.694761 0.660809 0.250000
O O2 0.626635 0.642293 0.012893
O O3 0.739817 0.582826 0.015467
O O4 0.717358 0.750000 0.000000
O O5 0.432597 0.416155 0.750000
O O6 0.498582 0.366280 0.520013
O O7 0.431217 0.502358 0.488706
O O8 0.571023 0.108133 0.250000
O O9 0.623010 0.148359 0.508958
O O10 0.000391 0.343227 0.250000
O O11 0.056576 0.416160 0.019554
O O12 0.004470 0.250000 0.000000
O O13 0.945025 0.408006 0.007002
O O14 0.084540 0.985352 0.750000
O O15 0.157684 0.993204 0.510213
O O16 0.782028 0.003348 0.750000
O O17 0.733952 0.082311 0.515470
O O18 0.309580 0.662320 0.750000
O O19 0.284095 0.750000 0.000000
#
# Coordination Sequence:
#
# PCOD9435595 Si02
#       7
#     8   8   8   8   8   8   8
#     4  10  21  38  57  80 111 150 193 239 291 347
#     4   9  18  35  55  78 111 147 187 237 297 356
#     4  10  19  32  56  84 108 143 189 239 297 357
#     4  10  21  39  64  94 127 161 196 236 283 333
#     4  10  22  39  62  92 124 158 197 240 285 338
#     4  10  22  41  61  80 116 161 195 238 292 343
#     4  11  23  40  59  81 112 150 194 243 297 354
#
# _framework density 18.981324000000001
#
# number of rings (size 3 to 8) (size 9 to 14) (size 15 to 20)
#    0.000    2.000    1.429    1.714    0.000    6.286 
#    0.000    5.714    0.000    0.000    0.000    0.000 
#    0.000    0.000    0.000    0.000    0.000    0.000 
#
# Total GULP energy -312506.839021 kJ/mol
# GULP energy per Si atom -5580.479268 kJ/mol
# Density = 1.893812 g / cm^3
# Si number density = 18.981324 Si / 1000 Ang^3
#
#
#
# Elastic Constant Matrix: (Units=GPa)
#
#
# Indices 1 2 3 4 5 6 
#
# 1 142.8197 78.1812 36.5306 0.0000 0.0000 0.0000
# 2 78.1812 167.2262 39.3421 0.0000 0.0000 0.0000
# 3 36.5306 39.3421 28.9828 0.0000 0.0000 0.0000
# 4 0.0000 0.0000 0.0000 31.3824 0.0000 0.0000
# 5 0.0000 0.0000 0.0000 0.0000 16.6138 0.0000
# 6 0.0000 0.0000 0.0000 0.0000 0.0000 -66.9417
#
#
#
# Elastic Compliance Matrix: (Units=1/GPa)
#
#
# Indices 1 2 3 4 5 6 
#
# 1 0.011162 -0.002804 -0.010262 0.000000 0.000000 0.000000
# 2 -0.002804 0.009490 -0.009348 0.000000 0.000000 0.000000
# 3 -0.010262 -0.009348 0.060127 0.000000 0.000000 0.000000
# 4 0.000000 0.000000 0.000000 0.031865 0.000000 0.000000
# 5 0.000000 0.000000 0.000000 0.000000 0.060191 0.000000
# 6 0.000000 0.000000 0.000000 0.000000 0.000000 -0.014938
#
#
# Mechanical properties :
#
#
# Convention : Reuss Voigt Hill
#
# Bulk Modulus (GPa) = 27.81593 71.90406 49.85999
# Shear Modulus (GPa) = 23.28743 8.54255 15.91499
#
# Velocity S-wave (km/s) = 3.50646 2.12374 2.89875
# Velocity P-wave (km/s) = 5.57493 6.63155 6.12606
#
# Compressibility (1/GPa) = 0.03595063
#
# Stress axis : x y z
#
# Youngs Moduli (GPa) = 89.59260 105.37384 16.63143
#
# Poissons Ratio (x) = 0.29546 0.17068
# Poissons Ratio (y) = 0.25121 0.15547
# Poissons Ratio (z) = 0.91942 0.98502
#
# Static dielectric constant tensor:
#      x y z
#    x 1.653320 0.000000 0.000000 
#    y 0.000000 1.658560 0.000000 
#    z 0.000000 0.000000 1.639600 
# 
# From -- ./inp_files/8062.got.cif
#   From: 2010.05.17/outbox.cif.g08.bks.cpg/sg57_5_cif.got.tgz:8062.got - 2010.06.03 13:58:18.
