data_PCOD9435530
_publ_section_title
;
Structure prediction by ZEFSAII (Michael W. Deem and Ramdas Pophale) SiO2 
 PCOD9435530
Probable space group: P B C M
;
_chemical_formula_sum "Si O2"
_cell_formula_units_Z 40
_cell_length_a 13.528437
_cell_length_b 19.477549
_cell_length_c 8.570191
_cell_angle_alpha 90.000000
_cell_angle_beta 90.000000
_cell_angle_gamma 90.000000
_cell_volume 2258.252138
_symmetry_space_group_name_H-M "P B C M"
_symmetry_group_IT_number 57
_symmetry_cell_setting 'orthorhombic'
loop_
_space_group_symop_operation_xyz
x,y,z
-x,-y,1/2+z
x,1/2-y,-z
-x,1/2+y,1/2-z
-x,-y,-z
x,y,1/2-z
-x,1/2+y,z
x,1/2-y,1/2+z
loop_
_atom_site_type_symbol
_atom_site_label
_atom_site_fract_x
_atom_site_fract_y
_atom_site_fract_z
Si Si1 0.216972 0.919639 0.937379
Si Si2 0.784697 0.575193 0.439137
Si Si3 0.000636 0.577752 0.062239
Si Si4 0.607454 0.326862 0.064378
Si Si5 0.394561 0.326964 0.937338
O O1 0.223698 0.916180 0.750000
O O2 0.107158 0.893054 0.987314
O O3 0.304204 0.875627 0.010849
O O4 0.224350 0.999018 0.990346
O O5 0.782601 0.569081 0.250000
O O6 0.694330 0.623397 0.487241
O O7 0.892796 0.605774 0.484242
O O8 0.002523 0.576547 0.250000
O O9 0.000000 0.500000 0.000000
O O10 0.601976 0.324111 0.250000
O O11 0.623544 0.250000 0.000000
O O12 0.501373 0.350836 0.998618
O O13 0.397338 0.324872 0.750000
O O14 0.379055 0.250000 0.000000
#
# Coordination Sequence:
#
# PCOD9435530 Si02
#       5
#     8   8   8   8   8
#     4  10  19  32  53  79 105 133 168 208 249 296
#     4   9  18  33  53  77 104 134 168 207 250 296
#     4   8  15  29  49  73 102 133 164 201 246 294
#     4  11  22  37  55  73  99 133 169 209 253 302
#     4  10  20  35  54  74 100 133 168 207 252 302
#
# _framework density 17.712814000000002
#
# number of rings (size 3 to 8) (size 9 to 14) (size 15 to 20)
#    0.000    2.400    0.000    4.200    0.000    3.200 
#    0.000    1.000    0.000    2.400    0.000    0.000 
#    0.000    0.000    0.000    0.000    0.000    0.000 
#
# Total GULP energy -222925.322618 kJ/mol
# GULP energy per Si atom -5573.133065 kJ/mol
# Density = 1.767250 g / cm^3
# Si number density = 17.712814 Si / 1000 Ang^3
#
#
#
# Elastic Constant Matrix: (Units=GPa)
#
#
# Indices 1 2 3 4 5 6 
#
# 1 221.4063 82.4071 49.8537 0.0000 0.0000 0.0000
# 2 82.4071 48.5140 22.8138 0.0000 0.0000 0.0000
# 3 49.8537 22.8138 56.2642 0.0000 0.0000 0.0000
# 4 0.0000 0.0000 0.0000 26.9702 0.0000 0.0000
# 5 0.0000 0.0000 0.0000 0.0000 -9.1445 0.0000
# 6 0.0000 0.0000 0.0000 0.0000 0.0000 48.3699
#
#
#
# Elastic Compliance Matrix: (Units=1/GPa)
#
#
# Indices 1 2 3 4 5 6 
#
# 1 0.012703 -0.020121 -0.003097 0.000000 0.000000 0.000000
# 2 -0.020121 0.057341 -0.005421 0.000000 0.000000 0.000000
# 3 -0.003097 -0.005421 0.022716 0.000000 0.000000 0.000000
# 4 0.000000 0.000000 0.000000 0.037078 0.000000 0.000000
# 5 0.000000 0.000000 0.000000 0.000000 -0.109356 0.000000
# 6 0.000000 0.000000 0.000000 0.000000 0.000000 0.020674
#
#
# Mechanical properties :
#
#
# Convention : Reuss Voigt Hill
#
# Bulk Modulus (GPa) = 28.18505 70.70375 49.44440
# Shear Modulus (GPa) = 45.34660 24.64646 34.99653
#
# Velocity S-wave (km/s) = 5.06523 3.73426 4.44979
# Velocity P-wave (km/s) = 7.08206 7.65482 7.37400
#
# Compressibility (1/GPa) = 0.03547980
#
# Stress axis : x y z
#
# Youngs Moduli (GPa) = 78.72109 17.43962 44.02244
#
# Poissons Ratio (x) = 0.35091 0.13634
# Poissons Ratio (y) = 1.58398 0.23867
# Poissons Ratio (z) = 0.24380 0.09455
#
# Static dielectric constant tensor:
#      x y z
#    x 1.652750 0.000000 0.000000 
#    y 0.000000 1.562190 0.000000 
#    z 0.000000 0.000000 1.592970 
# 
# From -- ./inp_files/2668.got.cif
#   From: 2010.05.17/outbox.cif.g08.bks.cpg/sg57_2_cif.got.tgz:2668.got - 2010.06.03 13:58:18.
