data_PCOD9435201
_publ_section_title
;
Structure prediction by ZEFSAII (Michael W. Deem and Ramdas Pophale) SiO2 
 PCOD9435201
Probable space group: P B C M
;
_chemical_formula_sum "Si O2"
_cell_formula_units_Z 64
_cell_length_a 24.252688
_cell_length_b 17.410554
_cell_length_c 7.707784
_cell_angle_alpha 90.000000
_cell_angle_beta 90.000000
_cell_angle_gamma 90.000000
_cell_volume 3254.632868
_symmetry_space_group_name_H-M "P B C M"
_symmetry_group_IT_number 57
_symmetry_cell_setting 'orthorhombic'
loop_
_space_group_symop_operation_xyz
x,y,z
-x,-y,1/2+z
x,1/2-y,-z
-x,1/2+y,1/2-z
-x,-y,-z
x,y,1/2-z
-x,1/2+y,z
x,1/2-y,1/2+z
loop_
_atom_site_type_symbol
_atom_site_label
_atom_site_fract_x
_atom_site_fract_y
_atom_site_fract_z
Si Si1 0.461520 0.426877 0.043789
Si Si2 0.240441 0.012262 0.036749
Si Si3 0.928146 0.575388 0.548192
Si Si4 0.637756 0.023765 0.545812
Si Si5 0.437773 0.836775 0.458717
Si Si6 0.034647 0.837639 0.459227
Si Si7 0.176901 0.163736 0.456663
Si Si8 0.135231 0.574311 0.551347
O O1 0.455061 0.420588 0.250000
O O2 0.499894 0.357037 0.979440
O O3 0.500000 0.500000 0.000000
O O4 0.402140 0.449844 0.971376
O O5 0.240134 0.011322 0.250000
O O6 0.219222 0.097052 0.985825
O O7 0.301502 0.991998 0.974704
O O8 0.193709 0.952019 0.975544
O O9 0.934282 0.553765 0.750000
O O10 0.882522 0.642623 0.535884
O O11 0.901850 0.503100 0.451318
O O12 0.985998 0.606397 0.478107
O O13 0.644849 0.038609 0.750000
O O14 0.604616 0.097984 0.474173
O O15 0.422170 0.750000 0.500000
O O16 0.439105 0.844976 0.250000
O O17 0.021832 0.750000 0.500000
O O18 0.035605 0.845885 0.250000
O O19 0.094701 0.862486 0.528151
O O20 0.193879 0.250000 0.500000
O O21 0.171058 0.157169 0.250000
O O22 0.146383 0.597048 0.750000
#
# Coordination Sequence:
#
# PCOD9435201 Si02
#       8
#     8   8   8   8   8   8   8   8
#     4   9  17  30  48  72  97 124 155 190 232 279
#     4   8  16  32  53  70  91 127 166 197 235 285
#     4  10  19  31  49  73  96 122 157 200 249 303
#     4   9  17  32  52  73  95 127 166 199 234 283
#     4   9  18  30  47  71  99 126 156 192 233 275
#     4  10  21  33  47  69  97 127 160 199 249 300
#     4  10  19  32  50  72  97 127 160 200 248 297
#     4   9  18  34  52  70  93 126 164 201 242 294
#
# _framework density 19.664276000000001
#
# number of rings (size 3 to 8) (size 9 to 14) (size 15 to 20)
#    0.000    2.750    0.000    3.375    0.000    5.000 
#    0.000    4.375    0.000    3.000    0.000    0.000 
#    0.000    0.000    0.000    0.000    0.000    0.000 
#
# Total GULP energy -356670.742743 kJ/mol
# GULP energy per Si atom -5572.980355 kJ/mol
# Density = 1.961952 g / cm^3
# Si number density = 19.664276 Si / 1000 Ang^3
#
#
#
# Elastic Constant Matrix: (Units=GPa)
#
#
# Indices 1 2 3 4 5 6 
#
# 1 147.4373 28.2002 0.8245 0.0000 0.0000 0.0000
# 2 28.2002 39.6190 -3.4512 0.0000 0.0000 0.0000
# 3 0.8245 -3.4512 33.9612 0.0000 0.0000 0.0000
# 4 0.0000 0.0000 0.0000 17.5675 0.0000 0.0000
# 5 0.0000 0.0000 0.0000 0.0000 13.0230 0.0000
# 6 0.0000 0.0000 0.0000 0.0000 0.0000 16.5975
#
#
#
# Elastic Compliance Matrix: (Units=1/GPa)
#
#
# Indices 1 2 3 4 5 6 
#
# 1 0.007871 -0.005669 -0.000767 0.000000 0.000000 0.000000
# 2 -0.005669 0.029549 0.003140 0.000000 0.000000 0.000000
# 3 -0.000767 0.003140 0.029783 0.000000 0.000000 0.000000
# 4 0.000000 0.000000 0.000000 0.056923 0.000000 0.000000
# 5 0.000000 0.000000 0.000000 0.000000 0.076787 0.000000
# 6 0.000000 0.000000 0.000000 0.000000 0.000000 0.060250
#
#
# Mechanical properties :
#
#
# Convention : Reuss Voigt Hill
#
# Bulk Modulus (GPa) = 16.49856 30.24052 23.36954
# Shear Modulus (GPa) = 17.36347 22.46719 19.91533
#
# Velocity S-wave (km/s) = 2.97475 3.38381 3.18585
# Velocity P-wave (km/s) = 4.49524 5.53884 5.04410
#
# Compressibility (1/GPa) = 0.06061134
#
# Stress axis : x y z
#
# Youngs Moduli (GPa) = 127.04501 33.84164 33.57608
#
# Poissons Ratio (x) = 0.19186 0.02576
# Poissons Ratio (y) = 0.72028 -0.10545
# Poissons Ratio (z) = 0.09747 -0.10628
#
# Static dielectric constant tensor:
#      x y z
#    x 1.714860 0.000000 0.000000 
#    y 0.000000 1.696070 0.000000 
#    z 0.000000 0.000000 1.736400 
# 
# From -- ./inp_files/9534.got.cif
#   From: 2010.05.17/outbox.cif.g08.bks.cpg/sg57_5_cif.got.tgz:9534.got - 2010.06.03 13:58:18.
