data_PCOD9435816
_publ_section_title
;
Structure prediction by ZEFSAII (Michael W. Deem and Ramdas Pophale) SiO2 
 PCOD9435816
Probable space group: P B C M
;
_chemical_formula_sum "Si O2"
_cell_formula_units_Z 48
_cell_length_a 13.695119
_cell_length_b 19.624044
_cell_length_c 8.647069
_cell_angle_alpha 90.000000
_cell_angle_beta 90.000000
_cell_angle_gamma 90.000000
_cell_volume 2323.931077
_symmetry_space_group_name_H-M "P B C M"
_symmetry_group_IT_number 57
_symmetry_cell_setting 'orthorhombic'
loop_
_space_group_symop_operation_xyz
x,y,z
-x,-y,1/2+z
x,1/2-y,-z
-x,1/2+y,1/2-z
-x,-y,-z
x,y,1/2-z
-x,1/2+y,z
x,1/2-y,1/2+z
loop_
_atom_site_type_symbol
_atom_site_label
_atom_site_fract_x
_atom_site_fract_y
_atom_site_fract_z
Si Si1 0.104146 0.586404 0.934682
Si Si2 0.720103 0.325861 0.936560
Si Si3 0.913946 0.826609 0.436579
Si Si4 0.803730 0.541482 0.565291
Si Si5 0.405652 0.461183 0.935403
Si Si6 0.503491 0.676354 0.065017
O O1 0.099138 0.579172 0.750000
O O2 0.014304 0.634856 0.983606
O O3 0.202152 0.625082 0.986221
O O4 0.114525 0.511729 0.008540
O O5 0.728926 0.327962 0.750000
O O6 0.607918 0.342453 0.979874
O O7 0.738290 0.250000 0.000000
O O8 0.905863 0.750000 0.500000
O O9 0.913613 0.822113 0.250000
O O10 0.830926 0.881364 0.483721
O O11 0.801169 0.539413 0.750000
O O12 0.699065 0.518444 0.500831
O O13 0.405212 0.466861 0.750000
O O14 0.423701 0.382710 0.982918
O O15 0.500000 0.500000 0.000000
O O16 0.503912 0.680317 0.250000
O O17 0.527308 0.750000 0.000000
#
# Coordination Sequence:
#
# PCOD9435816 Si02
#       6
#     8   8   8   8   8   8
#     4  11  22  38  61  90 119 155 201 250 305 363
#     4  10  19  33  54  84 120 158 198 247 303 361
#     4  10  24  43  64  90 122 159 202 248 300 358
#     4  11  24  42  62  88 121 159 200 248 302 359
#     4  11  23  40  62  90 121 158 202 249 300 359
#     4   9  20  36  55  80 113 151 194 240 293 352
#
# _framework density 20.654655999999999
#
# number of rings (size 3 to 8) (size 9 to 14) (size 15 to 20)
#    0.000    1.667    0.000    4.000    0.000    8.000 
#    0.000    3.333    0.000    0.000    0.000    0.000 
#    0.000    0.000    0.000    0.000    0.000    0.000 
#
# Total GULP energy -268248.216082 kJ/mol
# GULP energy per Si atom -5588.504502 kJ/mol
# Density = 2.060765 g / cm^3
# Si number density = 20.654656 Si / 1000 Ang^3
#
#
#
# Elastic Constant Matrix: (Units=GPa)
#
#
# Indices 1 2 3 4 5 6 
#
# 1 96.5092 57.1973 27.3567 0.0000 0.0000 0.0000
# 2 57.1973 110.1945 24.4622 0.0000 0.0000 0.0000
# 3 27.3567 24.4622 45.4270 0.0000 0.0000 0.0000
# 4 0.0000 0.0000 0.0000 36.0142 0.0000 0.0000
# 5 0.0000 0.0000 0.0000 0.0000 19.7447 0.0000
# 6 0.0000 0.0000 0.0000 0.0000 0.0000 22.1599
#
#
#
# Elastic Compliance Matrix: (Units=1/GPa)
#
#
# Indices 1 2 3 4 5 6 
#
# 1 0.016274 -0.007123 -0.005965 0.000000 0.000000 0.000000
# 2 -0.007123 0.013425 -0.002940 0.000000 0.000000 0.000000
# 3 -0.005965 -0.002940 0.027188 0.000000 0.000000 0.000000
# 4 0.000000 0.000000 0.000000 0.027767 0.000000 0.000000
# 5 0.000000 0.000000 0.000000 0.000000 0.050647 0.000000
# 6 0.000000 0.000000 0.000000 0.000000 0.000000 0.045126
#
#
# Mechanical properties :
#
#
# Convention : Reuss Voigt Hill
#
# Bulk Modulus (GPa) = 40.26990 52.24034 46.25512
# Shear Modulus (GPa) = 22.64914 25.12473 23.88694
#
# Velocity S-wave (km/s) = 3.31503 3.49150 3.40441
# Velocity P-wave (km/s) = 5.84737 6.44991 6.15601
#
# Compressibility (1/GPa) = 0.02483244
#
# Stress axis : x y z
#
# Youngs Moduli (GPa) = 61.44755 74.48961 36.78056
#
# Poissons Ratio (x) = 0.53059 0.21938
# Poissons Ratio (y) = 0.43769 0.10812
# Poissons Ratio (z) = 0.36652 0.21896
#
# Static dielectric constant tensor:
#      x y z
#    x 1.733330 0.000000 0.000000 
#    y 0.000000 0.786800 0.000000 
#    z 0.000000 0.000000 1.684440 
# 
# From -- ./inp_files/4631.got.cif
#   From: 2010.05.17/outbox.cif.g08.bks.cpg/sg57_3_cif.got.tgz:4631.got - 2010.06.03 13:58:18.
