data_PCOD9435041
_publ_section_title
;
Structure prediction by ZEFSAII (Michael W. Deem and Ramdas Pophale) SiO2 
 PCOD9435041
Probable space group: P B C M
;
_chemical_formula_sum "Si O2"
_cell_formula_units_Z 64
_cell_length_a 15.821265
_cell_length_b 25.069203
_cell_length_c 8.458680
_cell_angle_alpha 90.000000
_cell_angle_beta 90.000000
_cell_angle_gamma 90.000000
_cell_volume 3354.936677
_symmetry_space_group_name_H-M "P B C M"
_symmetry_group_IT_number 57
_symmetry_cell_setting 'orthorhombic'
loop_
_space_group_symop_operation_xyz
x,y,z
-x,-y,1/2+z
x,1/2-y,-z
-x,1/2+y,1/2-z
-x,-y,-z
x,y,1/2-z
-x,1/2+y,z
x,1/2-y,1/2+z
loop_
_atom_site_type_symbol
_atom_site_label
_atom_site_fract_x
_atom_site_fract_y
_atom_site_fract_z
Si Si1 0.420899 0.808053 0.563166
Si Si2 0.223669 0.379953 0.939393
Si Si3 0.120106 0.809899 0.059756
Si Si4 0.725389 0.116038 0.942000
Si Si5 0.250033 0.003773 0.068553
Si Si6 0.594955 0.845592 0.070637
Si Si7 0.930812 0.689537 0.940017
Si Si8 0.578030 0.530584 0.569359
O O1 0.392309 0.750000 0.500000
O O2 0.412587 0.808630 0.750000
O O3 0.361524 0.855724 0.496524
O O4 0.519872 0.815231 0.518184
O O5 0.230937 0.383073 0.750000
O O6 0.211560 0.441268 0.001604
O O7 0.310193 0.352089 0.001583
O O8 0.143031 0.346021 0.988799
O O9 0.121521 0.809280 0.250000
O O10 0.197073 0.846526 0.006764
O O11 0.025766 0.828217 0.012198
O O12 0.131593 0.750000 0.000000
O O13 0.721366 0.113549 0.750000
O O14 0.748609 0.056142 0.999590
O O15 0.220675 0.999476 0.250000
O O16 0.347740 0.019465 0.053316
O O17 0.601191 0.824909 0.250000
O O18 0.562959 0.906600 0.074806
O O19 0.925192 0.688677 0.750000
O O20 0.921196 0.750000 0.000000
O O21 0.500000 0.500000 0.500000
O O22 0.599585 0.513863 0.750000
#
# Coordination Sequence:
#
# PCOD9435041 Si02
#       8
#     8   8   8   8   8   8   8   8
#     4  12  25  39  55  79 110 145 184 229 277 330
#     4  10  20  36  57  83 113 147 184 225 271 324
#     4   9  19  35  57  82 109 140 180 227 276 327
#     4  10  20  37  58  81 110 147 186 227 274 324
#     4   9  19  34  53  76 107 144 182 221 266 320
#     4  10  21  37  54  75 104 140 178 219 265 315
#     4  10  20  36  58  84 110 140 178 224 274 328
#     4  10  19  30  48  72 100 133 173 218 262 306
#
# _framework density 19.076366
#
# number of rings (size 3 to 8) (size 9 to 14) (size 15 to 20)
#    0.000    2.000    0.000    3.750    0.000    8.000 
#    0.000    3.125    0.000    0.000    0.000    0.000 
#    0.000    0.000    0.000    0.000    0.000    0.000 
#
# Total GULP energy -356689.826709 kJ/mol
# GULP energy per Si atom -5573.278542 kJ/mol
# Density = 1.903295 g / cm^3
# Si number density = 19.076366 Si / 1000 Ang^3
#
#
#
# Elastic Constant Matrix: (Units=GPa)
#
#
# Indices 1 2 3 4 5 6 
#
# 1 91.5144 57.4821 18.2219 0.0000 0.0000 0.0000
# 2 57.4821 82.0604 12.9331 0.0000 0.0000 0.0000
# 3 18.2219 12.9331 52.2918 0.0000 0.0000 0.0000
# 4 0.0000 0.0000 0.0000 17.2085 0.0000 0.0000
# 5 0.0000 0.0000 0.0000 0.0000 17.2987 0.0000
# 6 0.0000 0.0000 0.0000 0.0000 0.0000 29.9789
#
#
#
# Elastic Compliance Matrix: (Units=1/GPa)
#
#
# Indices 1 2 3 4 5 6 
#
# 1 0.020170 -0.013549 -0.003677 0.000000 0.000000 0.000000
# 2 -0.013549 0.021782 -0.000666 0.000000 0.000000 0.000000
# 3 -0.003677 -0.000666 0.020570 0.000000 0.000000 0.000000
# 4 0.000000 0.000000 0.000000 0.058111 0.000000 0.000000
# 5 0.000000 0.000000 0.000000 0.000000 0.057808 0.000000
# 6 0.000000 0.000000 0.000000 0.000000 0.000000 0.033357
#
#
# Mechanical properties :
#
#
# Convention : Reuss Voigt Hill
#
# Bulk Modulus (GPa) = 37.40185 44.79344 41.09764
# Shear Modulus (GPa) = 19.49360 22.04586 20.76973
#
# Velocity S-wave (km/s) = 3.20014 3.40319 3.30323
# Velocity P-wave (km/s) = 5.77092 6.24295 6.01157
#
# Compressibility (1/GPa) = 0.02673665
#
# Stress axis : x y z
#
# Youngs Moduli (GPa) = 49.57851 45.90927 48.61538
#
# Poissons Ratio (x) = 0.62203 0.17878
# Poissons Ratio (y) = 0.67175 0.03237
# Poissons Ratio (z) = 0.18232 0.03057
#
# Static dielectric constant tensor:
#      x y z
#    x 1.651120 0.000000 0.000000 
#    y 0.000000 1.719360 0.000000 
#    z 0.000000 0.000000 1.679160 
# 
# From -- ./inp_files/5666.got.cif
#   From: 2010.05.17/outbox.cif.g08.bks.cpg/sg57_3_cif.got.tgz:5666.got - 2010.06.03 13:58:18.
