data_PCOD9435744
_publ_section_title
;
Structure prediction by ZEFSAII (Michael W. Deem and Ramdas Pophale) SiO2 
 PCOD9435744
Probable space group: P B C M
;
_chemical_formula_sum "Si O2"
_cell_formula_units_Z 64
_cell_length_a 25.828961
_cell_length_b 14.589272
_cell_length_c 8.767397
_cell_angle_alpha 90.000000
_cell_angle_beta 90.000000
_cell_angle_gamma 90.000000
_cell_volume 3303.780841
_symmetry_space_group_name_H-M "P B C M"
_symmetry_group_IT_number 57
_symmetry_cell_setting 'orthorhombic'
loop_
_space_group_symop_operation_xyz
x,y,z
-x,-y,1/2+z
x,1/2-y,-z
-x,1/2+y,1/2-z
-x,-y,-z
x,y,1/2-z
-x,1/2+y,z
x,1/2-y,1/2+z
loop_
_atom_site_type_symbol
_atom_site_label
_atom_site_fract_x
_atom_site_fract_y
_atom_site_fract_z
Si Si1 0.459220 0.621935 0.421678
Si Si2 0.563442 0.903668 0.077073
Si Si3 0.351705 0.843363 0.429723
Si Si4 0.771808 0.648046 0.934067
Si Si5 0.671180 0.950312 0.566335
Si Si6 0.123977 0.453862 0.434814
Si Si7 0.908676 0.342265 0.932600
Si Si8 0.986559 0.599562 0.933876
O O1 0.452893 0.657981 0.250000
O O2 0.451903 0.511614 0.414101
O O3 0.515859 0.641254 0.487432
O O4 0.412540 0.653541 0.528171
O O5 0.567813 0.868896 0.250000
O O6 0.618355 0.902981 0.992484
O O7 0.329481 0.750000 0.500000
O O8 0.345283 0.839360 0.250000
O O9 0.330103 0.942118 0.483132
O O10 0.770500 0.650926 0.750000
O O11 0.822389 0.590460 0.984018
O O12 0.775108 0.750000 0.000000
O O13 0.720455 0.599562 0.996466
O O14 0.672049 0.947495 0.750000
O O15 0.123863 0.457019 0.250000
O O16 0.115388 0.559798 0.484412
O O17 0.073995 0.391436 0.476336
O O18 0.907250 0.339334 0.750000
O O19 0.883793 0.250000 0.000000
O O20 0.968239 0.343152 0.988745
O O21 0.991263 0.603545 0.750000
O O22 0.000000 0.500000 0.000000
#
# Coordination Sequence:
#
# PCOD9435744 Si02
#       8
#     8   8   8   8   8   8   8   8
#     4   9  16  27  46  74 108 143 179 217 260 314
#     4   9  16  28  49  76 105 141 180 218 266 320
#     4  10  20  34  54  80 113 148 184 223 267 325
#     4  11  23  42  64  84 106 137 179 231 286 337
#     4  10  21  38  58  82 110 143 184 231 279 330
#     4   8  18  36  57  80 111 148 187 230 278 331
#     4  10  19  33  53  82 118 156 193 229 274 331
#     4   9  16  30  51  78 112 150 189 228 269 318
#
# _framework density 19.371745000000001
#
# number of rings (size 3 to 8) (size 9 to 14) (size 15 to 20)
#    0.000    2.500    0.000    3.375    0.000    5.000 
#    0.000   10.000    0.000    3.000    0.000    0.000 
#    0.000    0.000    0.000    0.000    0.000    0.000 
#
# Total GULP energy -356846.900943 kJ/mol
# GULP energy per Si atom -5575.732827 kJ/mol
# Density = 1.932765 g / cm^3
# Si number density = 19.371745 Si / 1000 Ang^3
#
#
#
# Elastic Constant Matrix: (Units=GPa)
#
#
# Indices 1 2 3 4 5 6 
#
# 1 138.5320 57.5248 33.1717 0.0000 0.0000 0.0000
# 2 57.5248 110.7055 20.6974 0.0000 0.0000 0.0000
# 3 33.1717 20.6974 59.3826 0.0000 0.0000 0.0000
# 4 0.0000 0.0000 0.0000 25.9745 0.0000 0.0000
# 5 0.0000 0.0000 0.0000 0.0000 20.8812 0.0000
# 6 0.0000 0.0000 0.0000 0.0000 0.0000 1.7728
#
#
#
# Elastic Compliance Matrix: (Units=1/GPa)
#
#
# Indices 1 2 3 4 5 6 
#
# 1 0.010041 -0.004460 -0.004055 0.000000 0.000000 0.000000
# 2 -0.004460 0.011643 -0.001567 0.000000 0.000000 0.000000
# 3 -0.004055 -0.001567 0.019651 0.000000 0.000000 0.000000
# 4 0.000000 0.000000 0.000000 0.038499 0.000000 0.000000
# 5 0.000000 0.000000 0.000000 0.000000 0.047890 0.000000
# 6 0.000000 0.000000 0.000000 0.000000 0.000000 0.564091
#
#
# Mechanical properties :
#
#
# Convention : Reuss Voigt Hill
#
# Bulk Modulus (GPa) = 47.23015 59.04530 53.13773
# Shear Modulus (GPa) = 6.95375 22.87411 14.91393
#
# Velocity S-wave (km/s) = 1.89669 3.44000 2.77768
# Velocity P-wave (km/s) = 5.40652 6.80620 6.14634
#
# Compressibility (1/GPa) = 0.02117291
#
# Stress axis : x y z
#
# Youngs Moduli (GPa) = 99.58870 85.88687 50.88760
#
# Poissons Ratio (x) = 0.38302 0.20634
# Poissons Ratio (y) = 0.44412 0.07974
# Poissons Ratio (z) = 0.40381 0.13458
#
# Static dielectric constant tensor:
#      x y z
#    x 1.659440 0.000000 0.000000 
#    y 0.000000 1.721700 0.000000 
#    z 0.000000 0.000000 1.674080 
# 
# From -- ./inp_files/9307.got.cif
#   From: 2010.05.17/outbox.cif.g08.bks.cpg/sg57_5_cif.got.tgz:9307.got - 2010.06.03 13:58:18.
