data_PCOD9435446
_publ_section_title
;
Structure prediction by ZEFSAII (Michael W. Deem and Ramdas Pophale) SiO2 
 PCOD9435446
Probable space group: P B C M
;
_chemical_formula_sum "Si O2"
_cell_formula_units_Z 64
_cell_length_a 12.486875
_cell_length_b 32.430927
_cell_length_c 8.197575
_cell_angle_alpha 90.000000
_cell_angle_beta 90.000000
_cell_angle_gamma 90.000000
_cell_volume 3319.697609
_symmetry_space_group_name_H-M "P B C M"
_symmetry_group_IT_number 57
_symmetry_cell_setting 'orthorhombic'
loop_
_space_group_symop_operation_xyz
x,y,z
-x,-y,1/2+z
x,1/2-y,-z
-x,1/2+y,1/2-z
-x,-y,-z
x,y,1/2-z
-x,1/2+y,z
x,1/2-y,1/2+z
loop_
_atom_site_type_symbol
_atom_site_label
_atom_site_fract_x
_atom_site_fract_y
_atom_site_fract_z
Si Si1 0.750952 0.204739 0.946838
Si Si2 0.009758 0.547882 0.052730
Si Si3 0.869319 0.624989 0.055608
Si Si4 0.599507 0.367512 0.446531
Si Si5 0.365678 0.389049 0.052695
Si Si6 0.750043 0.441704 0.946956
Si Si7 0.385652 0.017461 0.946577
Si Si8 0.995776 0.295917 0.445144
O O1 0.753027 0.202715 0.750000
O O2 0.669505 0.170483 0.009185
O O3 0.873039 0.198363 0.005288
O O4 0.716861 0.250000 0.000000
O O5 0.006933 0.547641 0.250000
O O6 0.127544 0.563974 0.999882
O O7 0.922474 0.581678 0.993804
O O8 0.000000 0.500000 0.000000
O O9 0.873059 0.622910 0.250000
O O10 0.746710 0.629327 0.001237
O O11 0.935121 0.665274 0.002082
O O12 0.595547 0.365136 0.250000
O O13 0.476953 0.368862 0.504906
O O14 0.665578 0.408424 0.490284
O O15 0.367396 0.389053 0.250000
O O16 0.369111 0.436376 0.993629
O O17 0.748531 0.440200 0.750000
O O18 0.707134 0.486400 0.000557
O O19 0.384685 0.018474 0.750000
O O20 0.500000 0.000000 0.000000
O O21 0.031397 0.250000 0.500000
O O22 0.994813 0.295856 0.250000
#
# Coordination Sequence:
#
# PCOD9435446 Si02
#       8
#     8   8   8   8   8   8   8   8
#     4   9  19  35  57  85 112 138 171 214 268 328
#     4  10  22  38  55  79 112 149 189 234 283 338
#     4  11  23  38  57  83 114 150 193 239 286 339
#     4  10  20  35  55  80 107 139 181 221 266 325
#     4  10  21  37  55  76 109 152 190 229 276 328
#     4  10  20  33  52  78 107 138 177 226 277 325
#     4  10  19  32  51  75 104 142 183 224 270 321
#     4  10  20  37  62  89 116 146 182 229 283 341
#
# _framework density 19.278865
#
# number of rings (size 3 to 8) (size 9 to 14) (size 15 to 20)
#    0.000    2.000    1.250    2.250    0.000    4.500 
#    0.000    0.625    0.000    1.500    0.000    0.000 
#    0.000    0.000    0.000    0.000    0.000    0.000 
#
# Total GULP energy -357247.173524 kJ/mol
# GULP energy per Si atom -5581.987086 kJ/mol
# Density = 1.923499 g / cm^3
# Si number density = 19.278865 Si / 1000 Ang^3
#
#
#
# Elastic Constant Matrix: (Units=GPa)
#
#
# Indices 1 2 3 4 5 6 
#
# 1 132.5808 75.0880 14.8131 0.0000 0.0000 0.0000
# 2 75.0880 135.0140 11.4341 0.0000 0.0000 0.0000
# 3 14.8131 11.4341 8.9219 0.0000 0.0000 0.0000
# 4 0.0000 0.0000 0.0000 27.0107 0.0000 0.0000
# 5 0.0000 0.0000 0.0000 0.0000 18.7747 0.0000
# 6 0.0000 0.0000 0.0000 0.0000 0.0000 36.6184
#
#
#
# Elastic Compliance Matrix: (Units=1/GPa)
#
#
# Indices 1 2 3 4 5 6 
#
# 1 0.012220 -0.005696 -0.012989 0.000000 0.000000 0.000000
# 2 -0.005696 0.010963 -0.004593 0.000000 0.000000 0.000000
# 3 -0.012989 -0.004593 0.139535 0.000000 0.000000 0.000000
# 4 0.000000 0.000000 0.000000 0.037022 0.000000 0.000000
# 5 0.000000 0.000000 0.000000 0.000000 0.053263 0.000000
# 6 0.000000 0.000000 0.000000 0.000000 0.000000 0.027309
#
#
# Mechanical properties :
#
#
# Convention : Reuss Voigt Hill
#
# Bulk Modulus (GPa) = 8.60865 53.24302 30.92583
# Shear Modulus (GPa) = 13.67654 28.15952 20.91803
#
# Velocity S-wave (km/s) = 2.66636 3.82598 3.29754
# Velocity P-wave (km/s) = 3.73555 6.86984 5.52942
#
# Compressibility (1/GPa) = 0.11616227
#
# Stress axis : x y z
#
# Youngs Moduli (GPa) = 81.83459 91.21185 7.16666
#
# Poissons Ratio (x) = 0.51955 0.09309
# Poissons Ratio (y) = 0.46613 0.03292
# Poissons Ratio (z) = 1.06292 0.41897
#
# Static dielectric constant tensor:
#      x y z
#    x 1.682630 0.000000 0.000000 
#    y 0.000000 1.665870 0.000000 
#    z 0.000000 0.000000 1.670270 
# 
# From -- ./inp_files/3850.got.cif
#   From: 2010.05.17/outbox.cif.g08.bks.cpg/sg57_2_cif.got.tgz:3850.got - 2010.06.03 13:58:18.
