data_PCOD9435947
_publ_section_title
;
Structure prediction by ZEFSAII (Michael W. Deem and Ramdas Pophale) SiO2 
 PCOD9435947
Probable space group: P B C M
;
_chemical_formula_sum "Si O2"
_cell_formula_units_Z 64
_cell_length_a 15.351933
_cell_length_b 22.426078
_cell_length_c 8.905037
_cell_angle_alpha 90.000000
_cell_angle_beta 90.000000
_cell_angle_gamma 90.000000
_cell_volume 3065.858614
_symmetry_space_group_name_H-M "P B C M"
_symmetry_group_IT_number 57
_symmetry_cell_setting 'orthorhombic'
loop_
_space_group_symop_operation_xyz
x,y,z
-x,-y,1/2+z
x,1/2-y,-z
-x,1/2+y,1/2-z
-x,-y,-z
x,y,1/2-z
-x,1/2+y,z
x,1/2-y,1/2+z
loop_
_atom_site_type_symbol
_atom_site_label
_atom_site_fract_x
_atom_site_fract_y
_atom_site_fract_z
Si Si1 0.460215 0.812807 0.568812
Si Si2 0.241518 0.186353 0.423775
Si Si3 0.282656 0.853622 0.071862
Si Si4 0.906865 0.004926 0.417624
Si Si5 0.599374 0.905471 0.924351
Si Si6 0.070746 0.184569 0.927789
Si Si7 0.273499 0.503685 0.929272
Si Si8 0.895554 0.353456 0.581649
O O1 0.491841 0.750000 0.500000
O O2 0.466162 0.809822 0.750000
O O3 0.362038 0.823441 0.514577
O O4 0.516600 0.869818 0.512673
O O5 0.261159 0.250000 0.500000
O O6 0.217754 0.303371 0.750000
O O7 0.323847 0.143479 0.428085
O O8 0.159501 0.157049 0.507936
O O9 0.287411 0.842086 0.250000
O O10 0.287348 0.925602 0.048833
O O11 0.190475 0.832632 0.004579
O O12 0.913619 0.978465 0.250000
O O13 0.819407 0.984070 0.501920
O O14 0.889792 0.075459 0.404255
O O15 0.000000 0.000000 0.500000
O O16 0.577698 0.919025 0.750000
O O17 0.644789 0.964846 0.989085
O O18 0.072098 0.186277 0.750000
O O19 0.072286 0.250000 0.000000
O O20 0.982527 0.156833 0.988199
O O21 0.267680 0.493169 0.750000
O O22 0.902080 0.327522 0.750000
#
# Coordination Sequence:
#
# PCOD9435947 Si02
#       8
#     8   8   8   8   8   8   8   8
#     4  11  23  41  64  90 119 153 197 244 298 358
#     4  10  19  34  54  78 112 152 195 239 292 349
#     4  10  21  39  62  88 119 152 193 244 296 354
#     4  10  21  35  54  82 116 154 196 240 286 338
#     4   9  20  37  60  87 117 154 194 242 295 352
#     4  11  22  36  54  80 113 149 193 239 290 349
#     4   9  19  38  60  85 118 157 198 240 295 353
#     4  10  21  38  58  81 112 151 191 237 289 342
#
# _framework density 20.875066
#
# number of rings (size 3 to 8) (size 9 to 14) (size 15 to 20)
#    0.000    2.000    0.000    4.125    1.750    3.000 
#    0.000    6.250    0.000    0.000    0.000    0.000 
#    0.000    0.000    0.000    0.000    0.000    0.000 
#
# Total GULP energy -357276.187563 kJ/mol
# GULP energy per Si atom -5582.440431 kJ/mol
# Density = 2.082755 g / cm^3
# Si number density = 20.875066 Si / 1000 Ang^3
#
#
#
# Elastic Constant Matrix: (Units=GPa)
#
#
# Indices 1 2 3 4 5 6 
#
# 1 64.8381 -13.3927 13.8521 0.0000 0.0000 0.0000
# 2 -13.3927 28.7822 11.8907 0.0000 0.0000 0.0000
# 3 13.8521 11.8907 103.5451 0.0000 0.0000 0.0000
# 4 0.0000 0.0000 0.0000 21.5664 0.0000 0.0000
# 5 0.0000 0.0000 0.0000 0.0000 11.6557 0.0000
# 6 0.0000 0.0000 0.0000 0.0000 0.0000 23.4456
#
#
#
# Elastic Compliance Matrix: (Units=1/GPa)
#
#
# Indices 1 2 3 4 5 6 
#
# 1 0.018249 0.009973 -0.003587 0.000000 0.000000 0.000000
# 2 0.009973 0.041925 -0.006149 0.000000 0.000000 0.000000
# 3 -0.003587 -0.006149 0.010844 0.000000 0.000000 0.000000
# 4 0.000000 0.000000 0.000000 0.046368 0.000000 0.000000
# 5 0.000000 0.000000 0.000000 0.000000 0.085795 0.000000
# 6 0.000000 0.000000 0.000000 0.000000 0.000000 0.042652
#
#
# Mechanical properties :
#
#
# Convention : Reuss Voigt Hill
#
# Bulk Modulus (GPa) = 13.98727 24.65174 19.31950
# Shear Modulus (GPa) = 18.57439 23.65456 21.11447
#
# Velocity S-wave (km/s) = 2.98617 3.36988 3.18381
# Velocity P-wave (km/s) = 4.31331 5.19387 4.77393
#
# Compressibility (1/GPa) = 0.07149361
#
# Stress axis : x y z
#
# Youngs Moduli (GPa) = 54.79642 23.85233 92.22078
#
# Poissons Ratio (x) = -0.23789 0.33077
# Poissons Ratio (y) = -0.54651 0.56704
# Poissons Ratio (z) = 0.19654 0.14666
#
# Static dielectric constant tensor:
#      x y z
#    x 1.759550 0.000000 0.000000 
#    y 0.000000 1.822580 0.000000 
#    z 0.000000 0.000000 1.619450 
# 
# From -- ./inp_files/5758.got.cif
#   From: 2010.05.17/outbox.cif.g08.bks.cpg/sg57_3_cif.got.tgz:5758.got - 2010.06.03 13:58:18.
