data_PCOD9435005
_publ_section_title
;
Structure prediction by ZEFSAII (Michael W. Deem and Ramdas Pophale) SiO2 
 PCOD9435005
Probable space group: P B C M
;
_chemical_formula_sum "Si O2"
_cell_formula_units_Z 48
_cell_length_a 15.842337
_cell_length_b 22.006128
_cell_length_c 8.627121
_cell_angle_alpha 90.000000
_cell_angle_beta 90.000000
_cell_angle_gamma 90.000000
_cell_volume 3007.660218
_symmetry_space_group_name_H-M "P B C M"
_symmetry_group_IT_number 57
_symmetry_cell_setting 'orthorhombic'
loop_
_space_group_symop_operation_xyz
x,y,z
-x,-y,1/2+z
x,1/2-y,-z
-x,1/2+y,1/2-z
-x,-y,-z
x,y,1/2-z
-x,1/2+y,z
x,1/2-y,1/2+z
loop_
_atom_site_type_symbol
_atom_site_label
_atom_site_fract_x
_atom_site_fract_y
_atom_site_fract_z
Si Si1 0.618780 0.959345 0.562830
Si Si2 0.806111 0.543760 0.436439
Si Si3 0.158195 0.596190 0.938147
Si Si4 0.021522 0.432945 0.064456
Si Si5 0.440403 0.911211 0.935324
Si Si6 0.309175 0.682257 0.564190
O O1 0.618328 0.966724 0.750000
O O2 0.711815 0.936835 0.517862
O O3 0.539286 0.917252 0.521040
O O4 0.601396 0.025501 0.490719
O O5 0.812630 0.545381 0.250000
O O6 0.816217 0.472617 0.484386
O O7 0.885053 0.580746 0.503612
O O8 0.160855 0.596694 0.750000
O O9 0.226664 0.644710 0.992677
O O10 0.060414 0.606314 0.983791
O O11 0.023369 0.435165 0.250000
O O12 0.000000 0.500000 0.000000
O O13 0.434471 0.906899 0.750000
O O14 0.390377 0.856043 0.010997
O O15 0.309876 0.750000 0.500000
O O16 0.307017 0.683889 0.750000
#
# Coordination Sequence:
#
# PCOD9435005 Si02
#       6
#     8   8   8   8   8   8
#     4   9  17  30  47  66  96 129 154 187 238 288
#     4   9  15  27  44  65  91 124 150 177 226 276
#     4   8  15  28  44  59  87 123 150 179 228 274
#     4   9  16  26  40  62  88 119 149 180 220 269
#     4  10  19  30  46  70  93 121 160 197 235 283
#     4  11  21  35  50  66  91 125 160 197 236 280
#
# _framework density 15.959249
#
# number of rings (size 3 to 8) (size 9 to 14) (size 15 to 20)
#    0.000    2.667    1.667    2.500    0.000    1.333 
#    0.000    2.500    0.000    0.000    0.000    1.167 
#    0.000    5.333    0.000    0.000    0.000    0.000 
#
# Total GULP energy -267271.136963 kJ/mol
# GULP energy per Si atom -5568.148687 kJ/mol
# Density = 1.592293 g / cm^3
# Si number density = 15.959249 Si / 1000 Ang^3
#
#
#
# Elastic Constant Matrix: (Units=GPa)
#
#
# Indices 1 2 3 4 5 6 
#
# 1 179.2385 52.0728 37.5555 0.0000 0.0000 0.0000
# 2 52.0728 65.5297 18.1806 0.0000 0.0000 0.0000
# 3 37.5555 18.1806 25.4383 0.0000 0.0000 0.0000
# 4 0.0000 0.0000 0.0000 16.9629 0.0000 0.0000
# 5 0.0000 0.0000 0.0000 0.0000 25.1197 0.0000
# 6 0.0000 0.0000 0.0000 0.0000 0.0000 12.7947
#
#
#
# Elastic Compliance Matrix: (Units=1/GPa)
#
#
# Indices 1 2 3 4 5 6 
#
# 1 0.008955 -0.004301 -0.010146 0.000000 0.000000 0.000000
# 2 -0.004301 0.021100 -0.008731 0.000000 0.000000 0.000000
# 3 -0.010146 -0.008731 0.060530 0.000000 0.000000 0.000000
# 4 0.000000 0.000000 0.000000 0.058952 0.000000 0.000000
# 5 0.000000 0.000000 0.000000 0.000000 0.039809 0.000000
# 6 0.000000 0.000000 0.000000 0.000000 0.000000 0.078157
#
#
# Mechanical properties :
#
#
# Convention : Reuss Voigt Hill
#
# Bulk Modulus (GPa) = 22.60958 53.98048 38.29503
# Shear Modulus (GPa) = 15.21598 21.80196 18.50897
#
# Velocity S-wave (km/s) = 3.09111 3.70009 3.40923
# Velocity P-wave (km/s) = 5.19016 7.22161 6.28846
#
# Compressibility (1/GPa) = 0.04422905
#
# Stress axis : x y z
#
# Youngs Moduli (GPa) = 111.67529 47.39320 16.52078
#
# Poissons Ratio (x) = 0.20382 0.16762
# Poissons Ratio (y) = 0.48028 0.14424
# Poissons Ratio (z) = 1.13308 0.41378
#
# Static dielectric constant tensor:
#      x y z
#    x 1.598680 0.000000 0.000000 
#    y 0.000000 1.486550 0.000000 
#    z 0.000000 0.000000 1.540350 
# 
# From -- ./inp_files/4827.got.cif
#   From: 2010.05.17/outbox.cif.g08.bks.cpg/sg57_3_cif.got.tgz:4827.got - 2010.06.03 13:58:18.
