data_PCOD9435467
_publ_section_title
;
Structure prediction by ZEFSAII (Michael W. Deem and Ramdas Pophale) SiO2 
 PCOD9435467
Probable space group: P B C M
;
_chemical_formula_sum "Si O2"
_cell_formula_units_Z 56
_cell_length_a 21.720977
_cell_length_b 15.932518
_cell_length_c 8.342659
_cell_angle_alpha 90.000000
_cell_angle_beta 90.000000
_cell_angle_gamma 90.000000
_cell_volume 2887.142807
_symmetry_space_group_name_H-M "P B C M"
_symmetry_group_IT_number 57
_symmetry_cell_setting 'orthorhombic'
loop_
_space_group_symop_operation_xyz
x,y,z
-x,-y,1/2+z
x,1/2-y,-z
-x,1/2+y,1/2-z
-x,-y,-z
x,y,1/2-z
-x,1/2+y,z
x,1/2-y,1/2+z
loop_
_atom_site_type_symbol
_atom_site_label
_atom_site_fract_x
_atom_site_fract_y
_atom_site_fract_z
Si Si1 0.471862 0.588464 0.558002
Si Si2 0.991566 0.595518 0.556263
Si Si3 0.877703 0.159779 0.943266
Si Si4 0.790233 0.008137 0.943943
Si Si5 0.408152 0.161996 0.440062
Si Si6 0.349135 0.513354 0.554269
Si Si7 0.142408 0.157203 0.558109
O O1 0.500000 0.500000 0.500000
O O2 0.473889 0.593154 0.750000
O O3 0.520165 0.654297 0.489319
O O4 0.400500 0.582113 0.506231
O O5 0.990842 0.595963 0.750000
O O6 0.926941 0.634100 0.499735
O O7 0.000000 0.500000 0.500000
O O8 0.051975 0.645690 0.501189
O O9 0.877469 0.158631 0.750000
O O10 0.836550 0.081320 0.999065
O O11 0.854768 0.250000 0.000000
O O12 0.790763 0.008116 0.750000
O O13 0.720595 0.026365 0.998293
O O14 0.813532 0.917331 0.999470
O O15 0.382248 0.250000 0.500000
O O16 0.404748 0.160256 0.250000
O O17 0.372985 0.078663 0.500140
O O18 0.349476 0.512450 0.750000
O O19 0.159537 0.250000 0.500000
O O20 0.141972 0.156977 0.750000
#
# Coordination Sequence:
#
# PCOD9435467 Si02
#       7
#     8   8   8   8   8   8   8
#     4   9  16  30  51  75 101 130 167 208 255 305
#     4  10  20  35  56  83 108 138 178 226 280 329
#     4  10  21  36  57  81 106 140 180 223 275 326
#     4  10  20  38  59  79 109 147 187 228 275 326
#     4  10  19  32  51  78 107 136 174 217 267 316
#     4   8  17  33  54  76 102 139 177 216 262 317
#     4  11  23  37  55  81 113 146 184 228 276 331
#
# _framework density 19.396338
#
# number of rings (size 3 to 8) (size 9 to 14) (size 15 to 20)
#    0.000    2.286    1.429    2.571    0.000    2.286 
#    0.000    6.429    0.000    1.714    0.000    0.000 
#    0.000    0.000    0.000    0.000    0.000    0.000 
#
# Total GULP energy -312348.220846 kJ/mol
# GULP energy per Si atom -5577.646801 kJ/mol
# Density = 1.935219 g / cm^3
# Si number density = 19.396338 Si / 1000 Ang^3
#
#
#
# Elastic Constant Matrix: (Units=GPa)
#
#
# Indices 1 2 3 4 5 6 
#
# 1 91.9547 -0.6140 2.9343 0.0000 0.0000 0.0000
# 2 -0.6140 70.6871 -2.3373 0.0000 0.0000 0.0000
# 3 2.9343 -2.3373 14.6482 0.0000 0.0000 0.0000
# 4 0.0000 0.0000 0.0000 30.8982 0.0000 0.0000
# 5 0.0000 0.0000 0.0000 0.0000 14.4965 0.0000
# 6 0.0000 0.0000 0.0000 0.0000 0.0000 11.2902
#
#
#
# Elastic Compliance Matrix: (Units=1/GPa)
#
#
# Indices 1 2 3 4 5 6 
#
# 1 0.010945 0.000023 -0.002189 0.000000 0.000000 0.000000
# 2 0.000023 0.014222 0.002265 0.000000 0.000000 0.000000
# 3 -0.002189 0.002265 0.069068 0.000000 0.000000 0.000000
# 4 0.000000 0.000000 0.000000 0.032364 0.000000 0.000000
# 5 0.000000 0.000000 0.000000 0.000000 0.068982 0.000000
# 6 0.000000 0.000000 0.000000 0.000000 0.000000 0.088572
#
#
# Mechanical properties :
#
#
# Convention : Reuss Voigt Hill
#
# Bulk Modulus (GPa) = 10.58966 19.69509 15.14238
# Shear Modulus (GPa) = 15.85121 23.15745 19.50433
#
# Velocity S-wave (km/s) = 2.86182 3.45905 3.17451
# Velocity P-wave (km/s) = 4.04864 5.11169 4.61090
#
# Compressibility (1/GPa) = 0.09443177
#
# Stress axis : x y z
#
# Youngs Moduli (GPa) = 91.36664 70.31391 14.47856
#
# Poissons Ratio (x) = -0.00160 0.03169
# Poissons Ratio (y) = -0.00207 -0.03279
# Poissons Ratio (z) = 0.19999 -0.15924
#
# Static dielectric constant tensor:
#      x y z
#    x 1.707700 0.000000 0.000000 
#    y 0.000000 1.666310 0.000000 
#    z 0.000000 0.000000 1.669420 
# 
# From -- ./inp_files/8086.got.cif
#   From: 2010.05.17/outbox.cif.g08.bks.cpg/sg57_5_cif.got.tgz:8086.got - 2010.06.03 13:58:18.
