data_PCOD9435227
_publ_section_title
;
Structure prediction by ZEFSAII (Michael W. Deem and Ramdas Pophale) SiO2 
 PCOD9435227
Probable space group: P B C M
;
_chemical_formula_sum "Si O2"
_cell_formula_units_Z 64
_cell_length_a 19.589192
_cell_length_b 23.693219
_cell_length_c 8.774643
_cell_angle_alpha 90.000000
_cell_angle_beta 90.000000
_cell_angle_gamma 90.000000
_cell_volume 4072.583971
_symmetry_space_group_name_H-M "P B C M"
_symmetry_group_IT_number 57
_symmetry_cell_setting 'orthorhombic'
loop_
_space_group_symop_operation_xyz
x,y,z
-x,-y,1/2+z
x,1/2-y,-z
-x,1/2+y,1/2-z
-x,-y,-z
x,y,1/2-z
-x,1/2+y,z
x,1/2-y,1/2+z
loop_
_atom_site_type_symbol
_atom_site_label
_atom_site_fract_x
_atom_site_fract_y
_atom_site_fract_z
Si Si1 0.101446 0.474233 0.432877
Si Si2 0.614620 0.311467 0.066678
Si Si3 0.519032 0.085669 0.566998
Si Si4 0.395007 0.474718 0.931859
Si Si5 0.247736 0.634937 0.433573
Si Si6 0.747719 0.002255 0.066617
Si Si7 0.978481 0.090446 0.431117
Si Si8 0.890556 0.311984 0.068201
O O1 0.097051 0.466255 0.250000
O O2 0.180409 0.474616 0.479692
O O3 0.053028 0.429382 0.514954
O O4 0.070548 0.536582 0.464730
O O5 0.620070 0.309490 0.250000
O O6 0.555435 0.356064 0.025547
O O7 0.600851 0.250000 0.000000
O O8 0.685489 0.334550 0.998484
O O9 0.512048 0.083354 0.750000
O O10 0.446133 0.072992 0.493043
O O11 0.569585 0.034289 0.521064
O O12 0.392726 0.473173 0.750000
O O13 0.319186 0.473964 0.997521
O O14 0.246004 0.639078 0.250000
O O15 0.250469 0.568650 0.475730
O O16 0.180145 0.663382 0.501087
O O17 0.743818 0.999946 0.250000
O O18 0.976648 0.099941 0.250000
O O19 0.949246 0.144583 0.516679
O O20 0.886249 0.309127 0.250000
O O21 0.901938 0.250000 0.000000
#
# Coordination Sequence:
#
# PCOD9435227 Si02
#       8
#     8   8   8   8   8   8   8   8
#     4   9  18  33  51  74 102 134 169 205 252 304
#     4  11  22  36  51  72 100 135 175 212 249 298
#     4   9  19  34  49  69  98 131 167 207 252 299
#     4  10  19  31  50  74  99 127 167 209 252 302
#     4  11  21  35  51  72 102 138 176 212 247 293
#     4  10  19  32  51  74 104 137 168 204 250 302
#     4  10  19  34  52  75 102 131 170 212 254 299
#     4  12  24  37  53  72 100 138 177 216 254 298
#
# _framework density 15.714838
#
# number of rings (size 3 to 8) (size 9 to 14) (size 15 to 20)
#    0.000    1.750    2.500    3.000    0.000    3.000 
#    0.000    0.000    0.000    0.000    0.000    0.875 
#    0.000    4.000    0.000    0.000    0.000    0.000 
#
# Total GULP energy -357355.850929 kJ/mol
# GULP energy per Si atom -5583.685171 kJ/mol
# Density = 1.567907 g / cm^3
# Si number density = 15.714838 Si / 1000 Ang^3
#
#
#
# Elastic Constant Matrix: (Units=GPa)
#
#
# Indices 1 2 3 4 5 6 
#
# 1 143.8965 68.3013 46.5613 0.0000 0.0000 0.0000
# 2 68.3013 94.6699 43.5736 0.0000 0.0000 0.0000
# 3 46.5613 43.5736 56.6160 0.0000 0.0000 0.0000
# 4 0.0000 0.0000 0.0000 21.6508 0.0000 0.0000
# 5 0.0000 0.0000 0.0000 0.0000 24.3312 0.0000
# 6 0.0000 0.0000 0.0000 0.0000 0.0000 16.3522
#
#
#
# Elastic Compliance Matrix: (Units=1/GPa)
#
#
# Indices 1 2 3 4 5 6 
#
# 1 0.011317 -0.006010 -0.004682 0.000000 0.000000 0.000000
# 2 -0.006010 0.019549 -0.010103 0.000000 0.000000 0.000000
# 3 -0.004682 -0.010103 0.029289 0.000000 0.000000 0.000000
# 4 0.000000 0.000000 0.000000 0.046188 0.000000 0.000000
# 5 0.000000 0.000000 0.000000 0.000000 0.041100 0.000000
# 6 0.000000 0.000000 0.000000 0.000000 0.000000 0.061154
#
#
# Mechanical properties :
#
#
# Convention : Reuss Voigt Hill
#
# Bulk Modulus (GPa) = 53.86343 68.00609 60.93476
# Shear Modulus (GPa) = 19.50278 21.58325 20.54302
#
# Velocity S-wave (km/s) = 3.52666 3.71000 3.61950
# Velocity P-wave (km/s) = 7.13674 7.85628 7.50514
#
# Compressibility (1/GPa) = 0.01856547
#
# Stress axis : x y z
#
# Youngs Moduli (GPa) = 88.36268 51.15315 34.14294
#
# Poissons Ratio (x) = 0.30743 0.15984
# Poissons Ratio (y) = 0.53106 0.34495
# Poissons Ratio (z) = 0.41368 0.51680
#
# Static dielectric constant tensor:
#      x y z
#    x 1.512240 0.000000 0.000000 
#    y 0.000000 1.505210 0.000000 
#    z 0.000000 0.000000 1.523560 
# 
# From -- ./inp_files/7273.got.cif
#   From: 2010.05.17/outbox.cif.g08.bks.cpg/sg57_4_cif.got.tgz:7273.got - 2010.06.03 13:58:18.
