data_PCOD9435643
_publ_section_title
;
Structure prediction by ZEFSAII (Michael W. Deem and Ramdas Pophale) SiO2 
 PCOD9435643
Probable space group: P B C M
;
_chemical_formula_sum "Si O2"
_cell_formula_units_Z 56
_cell_length_a 22.514514
_cell_length_b 14.837552
_cell_length_c 8.001114
_cell_angle_alpha 90.000000
_cell_angle_beta 90.000000
_cell_angle_gamma 90.000000
_cell_volume 2672.854321
_symmetry_space_group_name_H-M "P B C M"
_symmetry_group_IT_number 57
_symmetry_cell_setting 'orthorhombic'
loop_
_space_group_symop_operation_xyz
x,y,z
-x,-y,1/2+z
x,1/2-y,-z
-x,1/2+y,1/2-z
-x,-y,-z
x,y,1/2-z
-x,1/2+y,z
x,1/2-y,1/2+z
loop_
_atom_site_type_symbol
_atom_site_label
_atom_site_fract_x
_atom_site_fract_y
_atom_site_fract_z
Si Si1 0.282600 0.973781 0.955454
Si Si2 0.607816 0.354573 0.552020
Si Si3 0.908630 0.853107 0.950116
Si Si4 0.848606 0.471090 0.551823
Si Si5 0.957621 0.353481 0.548310
Si Si6 0.349642 0.353540 0.048669
Si Si7 0.519693 0.644503 0.949045
O O1 0.281855 0.971754 0.750000
O O2 0.335617 0.908973 0.014543
O O3 0.216809 0.948619 0.014561
O O4 0.300694 0.075006 0.006722
O O5 0.610154 0.250000 0.500000
O O6 0.611720 0.357313 0.750000
O O7 0.542886 0.394720 0.509007
O O8 0.907263 0.859773 0.750000
O O9 0.975731 0.877101 0.010829
O O10 0.897233 0.750000 0.000000
O O11 0.863011 0.924209 0.024353
O O12 0.847323 0.453139 0.750000
O O13 0.904367 0.415102 0.481631
O O14 0.946933 0.250000 0.500000
O O15 0.958979 0.360021 0.750000
O O16 0.351373 0.356140 0.250000
O O17 0.415374 0.385092 0.988537
O O18 0.339698 0.250000 0.000000
O O19 0.519451 0.637617 0.750000
O O20 0.517659 0.750000 0.000000
#
# Coordination Sequence:
#
# PCOD9435643 Si02
#       7
#     8   8   8   8   8   8   8
#     4   9  20  36  52  72 102 139 172 202 248 305
#     4  10  19  33  52  73 100 133 167 207 254 301
#     4  10  20  35  55  81 108 135 170 212 258 305
#     4  10  20  36  55  76 105 140 175 212 255 303
#     4   9  19  34  55  81 107 136 171 212 258 305
#     4   9  18  34  53  73  98 129 165 207 254 302
#     4   9  16  28  49  74  97 123 161 208 256 302
#
# _framework density 20.951385999999999
#
# number of rings (size 3 to 8) (size 9 to 14) (size 15 to 20)
#    0.000    2.571    0.000    2.571    0.000    3.429 
#    0.000    5.000    0.000    0.000    0.000    0.000 
#    0.000    0.000    0.000    0.000    0.000    0.000 
#
# Total GULP energy -312443.754622 kJ/mol
# GULP energy per Si atom -5579.352761 kJ/mol
# Density = 2.090370 g / cm^3
# Si number density = 20.951386 Si / 1000 Ang^3
#
#
#
# Elastic Constant Matrix: (Units=GPa)
#
#
# Indices 1 2 3 4 5 6 
#
# 1 57.9200 1.7327 1.2261 0.0000 0.0000 0.0000
# 2 1.7327 26.8548 -11.1136 0.0000 0.0000 0.0000
# 3 1.2261 -11.1136 15.5740 0.0000 0.0000 0.0000
# 4 0.0000 0.0000 0.0000 16.5797 0.0000 0.0000
# 5 0.0000 0.0000 0.0000 0.0000 8.0347 0.0000
# 6 0.0000 0.0000 0.0000 0.0000 0.0000 16.3286
#
#
#
# Elastic Compliance Matrix: (Units=1/GPa)
#
#
# Indices 1 2 3 4 5 6 
#
# 1 0.017402 -0.002398 -0.003081 0.000000 0.000000 0.000000
# 2 -0.002398 0.053173 0.038133 0.000000 0.000000 0.000000
# 3 -0.003081 0.038133 0.091664 0.000000 0.000000 0.000000
# 4 0.000000 0.000000 0.000000 0.060315 0.000000 0.000000
# 5 0.000000 0.000000 0.000000 0.000000 0.124461 0.000000
# 6 0.000000 0.000000 0.000000 0.000000 0.000000 0.061242
#
#
# Mechanical properties :
#
#
# Convention : Reuss Voigt Hill
#
# Bulk Modulus (GPa) = 4.39469 9.33766 6.86617
# Shear Modulus (GPa) = 11.93895 15.42218 13.68056
#
# Velocity S-wave (km/s) = 2.38972 2.71605 2.55809
# Velocity P-wave (km/s) = 3.11713 3.78185 3.46546
#
# Compressibility (1/GPa) = 0.22754759
#
# Stress axis : x y z
#
# Youngs Moduli (GPa) = 57.46414 18.80648 10.90942
#
# Poissons Ratio (x) = 0.04510 0.03361
# Poissons Ratio (y) = 0.13779 -0.41601
# Poissons Ratio (z) = 0.17705 -0.71715
#
# Static dielectric constant tensor:
#      x y z
#    x 1.793730 0.000000 0.000000 
#    y 0.000000 1.749560 0.000000 
#    z 0.000000 0.000000 1.744280 
# 
# From -- ./inp_files/8153.got.cif
#   From: 2010.05.17/outbox.cif.g08.bks.cpg/sg57_5_cif.got.tgz:8153.got - 2010.06.03 13:58:18.
