data_PCOD9435651
_publ_section_title
;
Structure prediction by ZEFSAII (Michael W. Deem and Ramdas Pophale) SiO2 
 PCOD9435651
Probable space group: P B C M
;
_chemical_formula_sum "Si O2"
_cell_formula_units_Z 40
_cell_length_a 26.798857
_cell_length_b 9.885657
_cell_length_c 8.698059
_cell_angle_alpha 90.000000
_cell_angle_beta 90.000000
_cell_angle_gamma 90.000000
_cell_volume 2304.327264
_symmetry_space_group_name_H-M "P B C M"
_symmetry_group_IT_number 57
_symmetry_cell_setting 'orthorhombic'
loop_
_space_group_symop_operation_xyz
x,y,z
-x,-y,1/2+z
x,1/2-y,-z
-x,1/2+y,1/2-z
-x,-y,-z
x,y,1/2-z
-x,1/2+y,z
x,1/2-y,1/2+z
loop_
_atom_site_type_symbol
_atom_site_label
_atom_site_fract_x
_atom_site_fract_y
_atom_site_fract_z
Si Si1 0.957491 0.402924 0.435197
Si Si2 0.344999 0.400175 0.065758
Si Si3 0.152242 0.901584 0.065249
Si Si4 0.261571 0.902450 0.065056
Si Si5 0.540979 0.600446 0.933945
O O1 0.962356 0.250000 0.500000
O O2 0.960418 0.397618 0.250000
O O3 0.901985 0.457866 0.480275
O O4 0.000000 0.500000 0.500000
O O5 0.341356 0.396311 0.250000
O O6 0.402064 0.439431 0.024452
O O7 0.336343 0.250000 0.000000
O O8 0.305106 0.504093 0.999241
O O9 0.152238 0.896103 0.250000
O O10 0.206323 0.959169 0.019618
O O11 0.152406 0.750000 0.000000
O O12 0.264262 0.897203 0.250000
O O13 0.265768 0.750000 0.000000
O O14 0.537632 0.604093 0.750000
O O15 0.532713 0.750000 0.000000
O O16 0.500000 0.500000 0.000000
#
# Coordination Sequence:
#
# PCOD9435651 Si02
#       5
#     8   8   8   8   8
#     4  10  19  33  52  75 102 133 169 210 255 304
#     4  10  21  37  55  77 105 138 171 208 255 305
#     4   8  16  30  49  72  99 130 166 207 252 299
#     4  10  19  33  54  79 104 133 170 212 253 299
#     4  10  21  37  57  79 105 136 172 211 254 301
#
# _framework density 17.358646
#
# number of rings (size 3 to 8) (size 9 to 14) (size 15 to 20)
#    0.000    2.400    0.000    2.400    0.000    4.800 
#    0.000    1.000    0.000    0.000    0.000    0.000 
#    0.000    0.000    0.000    0.000    0.000    0.000 
#
# Total GULP energy -222920.866794 kJ/mol
# GULP energy per Si atom -5573.021670 kJ/mol
# Density = 1.731914 g / cm^3
# Si number density = 17.358646 Si / 1000 Ang^3
#
#
#
# Elastic Constant Matrix: (Units=GPa)
#
#
# Indices 1 2 3 4 5 6 
#
# 1 215.2133 104.4987 65.5819 0.0000 0.0000 0.0000
# 2 104.4987 74.4008 37.0945 0.0000 0.0000 0.0000
# 3 65.5819 37.0945 55.1446 0.0000 0.0000 0.0000
# 4 0.0000 0.0000 0.0000 32.4421 0.0000 0.0000
# 5 0.0000 0.0000 0.0000 0.0000 27.6684 0.0000
# 6 0.0000 0.0000 0.0000 0.0000 0.0000 36.8905
#
#
#
# Elastic Compliance Matrix: (Units=1/GPa)
#
#
# Indices 1 2 3 4 5 6 
#
# 1 0.015752 -0.019236 -0.005794 0.000000 0.000000 0.000000
# 2 -0.019236 0.043713 -0.006528 0.000000 0.000000 0.000000
# 3 -0.005794 -0.006528 0.029416 0.000000 0.000000 0.000000
# 4 0.000000 0.000000 0.000000 0.030824 0.000000 0.000000
# 5 0.000000 0.000000 0.000000 0.000000 0.036142 0.000000
# 6 0.000000 0.000000 0.000000 0.000000 0.000000 0.027107
#
#
# Mechanical properties :
#
#
# Convention : Reuss Voigt Hill
#
# Bulk Modulus (GPa) = 38.81187 84.34543 61.57865
# Shear Modulus (GPa) = 19.63395 28.57243 24.10319
#
# Velocity S-wave (km/s) = 3.36680 4.06150 3.73036
# Velocity P-wave (km/s) = 6.12545 8.40772 7.35564
#
# Compressibility (1/GPa) = 0.02576532
#
# Stress axis : x y z
#
# Youngs Moduli (GPa) = 63.48216 22.87642 33.99462
#
# Poissons Ratio (x) = 0.44005 0.19698
# Poissons Ratio (y) = 1.22114 0.22192
# Poissons Ratio (z) = 0.36784 0.14934
#
# Static dielectric constant tensor:
#      x y z
#    x 1.633940 0.000000 0.000000 
#    y 0.000000 1.534650 0.000000 
#    z 0.000000 0.000000 1.581250 
# 
# From -- ./inp_files/7805.got.cif
#   From: 2010.05.17/outbox.cif.g08.bks.cpg/sg57_4_cif.got.tgz:7805.got - 2010.06.03 13:58:18.
