data_PCOD9435994
_publ_section_title
;
Structure prediction by ZEFSAII (Michael W. Deem and Ramdas Pophale) SiO2 
 PCOD9435994
Probable space group: P B C M
;
_chemical_formula_sum "Si O2"
_cell_formula_units_Z 56
_cell_length_a 31.454768
_cell_length_b 5.084818
_cell_length_c 14.939182
_cell_angle_alpha 90.000000
_cell_angle_beta 90.000000
_cell_angle_gamma 90.000000
_cell_volume 2389.399219
_symmetry_space_group_name_H-M "P B C M"
_symmetry_group_IT_number 57
_symmetry_cell_setting 'orthorhombic'
loop_
_space_group_symop_operation_xyz
x,y,z
-x,-y,1/2+z
x,1/2-y,-z
-x,1/2+y,1/2-z
-x,-y,-z
x,y,1/2-z
-x,1/2+y,z
x,1/2-y,1/2+z
loop_
_atom_site_type_symbol
_atom_site_label
_atom_site_fract_x
_atom_site_fract_y
_atom_site_fract_z
Si Si1 0.525572 0.320642 0.357944
Si Si2 0.614576 0.494630 0.439229
Si Si3 0.109067 0.572170 0.641815
Si Si4 0.157612 0.072046 0.859771
Si Si5 0.980428 0.806918 0.604430
Si Si6 0.701348 0.850568 0.898957
Si Si7 0.246920 0.855073 0.851452
O O1 0.527233 0.324195 0.250000
O O2 0.509431 0.035118 0.386738
O O3 0.571423 0.399629 0.393739
O O4 0.605571 0.750000 0.500000
O O5 0.653393 0.568405 0.373328
O O6 0.630038 0.250000 0.500000
O O7 0.108520 0.576155 0.750000
O O8 0.121420 0.864019 0.611772
O O9 0.064600 0.448627 0.612697
O O10 0.145330 0.365108 0.612375
O O11 0.158884 0.075670 0.750000
O O12 0.202923 0.963892 0.891180
O O13 0.988733 0.750000 0.500000
O O14 0.985949 0.516088 0.644058
O O15 0.721613 0.604029 0.848925
O O16 0.731324 0.104847 0.896080
O O17 0.697800 0.750000 0.000000
O O18 0.237528 0.766243 0.750000
#
# Coordination Sequence:
#
# PCOD9435994 Si02
#       7
#     8   8   8   8   8   8   8
#     4  10  22  39  59  87 121 152 189 245 301 345
#     4  11  23  40  61  85 116 158 200 239 290 354
#     4  10  19  34  56  79 105 138 177 225 276 325
#     4   9  19  35  55  81 111 140 177 231 283 327
#     4  10  21  36  52  73 105 141 174 216 269 323
#     4  11  23  41  59  86 125 157 192 248 304 342
#     4  11  22  39  64  89 115 156 204 240 288 362
#
# _framework density 23.436855000000001
#
# number of rings (size 3 to 8) (size 9 to 14) (size 15 to 20)
#    0.000    1.714    0.000    5.143    0.000    5.714 
#    0.000    5.714    0.000    0.000    0.000    0.000 
#    0.000    0.000    0.000    0.000    0.000    0.000 
#
# Total GULP energy -313236.735030 kJ/mol
# GULP energy per Si atom -5593.513126 kJ/mol
# Density = 2.338351 g / cm^3
# Si number density = 23.436855 Si / 1000 Ang^3
#
#
#
# Elastic Constant Matrix: (Units=GPa)
#
#
# Indices 1 2 3 4 5 6 
#
# 1 81.7763 -3.4522 -2.0082 0.0000 0.0000 0.0000
# 2 -3.4522 107.9525 8.3493 0.0000 0.0000 0.0000
# 3 -2.0082 8.3493 33.2428 0.0000 0.0000 0.0000
# 4 0.0000 0.0000 0.0000 23.2425 0.0000 0.0000
# 5 0.0000 0.0000 0.0000 0.0000 25.4072 0.0000
# 6 0.0000 0.0000 0.0000 0.0000 0.0000 41.2726
#
#
#
# Elastic Compliance Matrix: (Units=1/GPa)
#
#
# Indices 1 2 3 4 5 6 
#
# 1 0.012259 0.000341 0.000655 0.000000 0.000000 0.000000
# 2 0.000341 0.009456 -0.002354 0.000000 0.000000 0.000000
# 3 0.000655 -0.002354 0.030713 0.000000 0.000000 0.000000
# 4 0.000000 0.000000 0.000000 0.043025 0.000000 0.000000
# 5 0.000000 0.000000 0.000000 0.000000 0.039359 0.000000
# 6 0.000000 0.000000 0.000000 0.000000 0.000000 0.024229
#
#
# Mechanical properties :
#
#
# Convention : Reuss Voigt Hill
#
# Bulk Modulus (GPa) = 20.11611 25.41661 22.76636
# Shear Modulus (GPa) = 28.03828 32.65663 30.34746
#
# Velocity S-wave (km/s) = 3.46256 3.73686 3.60232
# Velocity P-wave (km/s) = 4.95858 5.43020 5.19974
#
# Compressibility (1/GPa) = 0.04971139
#
# Stress axis : x y z
#
# Youngs Moduli (GPa) = 81.57290 105.74909 32.55996
#
# Poissons Ratio (x) = -0.03610 -0.02132
# Poissons Ratio (y) = -0.02785 0.07666
# Poissons Ratio (z) = -0.05342 0.24898
#
# Static dielectric constant tensor:
#      x y z
#    x 1.896360 0.000000 0.000000 
#    y 0.000000 1.865350 0.000000 
#    z 0.000000 0.000000 1.920920 
# 
# From -- ./inp_files/19651.got.cif
#   From: 2010.05.17/outbox.cif.g08.bks.cpg/sg57_10_cif.got.tgz:19651.got - 2010.06.03 13:58:18.
