data_PCOD9435483
_publ_section_title
;
Structure prediction by ZEFSAII (Michael W. Deem and Ramdas Pophale) SiO2 
 PCOD9435483
Probable space group: P B C M
;
_chemical_formula_sum "Si O2"
_cell_formula_units_Z 64
_cell_length_a 11.214047
_cell_length_b 35.089629
_cell_length_c 8.795267
_cell_angle_alpha 90.000000
_cell_angle_beta 90.000000
_cell_angle_gamma 90.000000
_cell_volume 3460.908969
_symmetry_space_group_name_H-M "P B C M"
_symmetry_group_IT_number 57
_symmetry_cell_setting 'orthorhombic'
loop_
_space_group_symop_operation_xyz
x,y,z
-x,-y,1/2+z
x,1/2-y,-z
-x,1/2+y,1/2-z
-x,-y,-z
x,y,1/2-z
-x,1/2+y,z
x,1/2-y,1/2+z
loop_
_atom_site_type_symbol
_atom_site_label
_atom_site_fract_x
_atom_site_fract_y
_atom_site_fract_z
Si Si1 0.157969 0.870029 0.435387
Si Si2 0.331477 0.135969 0.068350
Si Si3 0.199919 0.476451 0.932678
Si Si4 0.269245 0.790784 0.066941
Si Si5 0.548856 0.790637 0.431788
Si Si6 0.710663 0.054746 0.567041
Si Si7 0.542034 0.940572 0.930450
Si Si8 0.902308 0.596931 0.932202
O O1 0.162207 0.869408 0.250000
O O2 0.196700 0.827954 0.486329
O O3 0.246639 0.903768 0.486382
O O4 0.025879 0.883411 0.479059
O O5 0.320533 0.138221 0.250000
O O6 0.430209 0.103603 0.033489
O O7 0.372911 0.175542 0.998939
O O8 0.208201 0.120439 0.000266
O O9 0.184603 0.473793 0.750000
O O10 0.200822 0.520565 0.980708
O O11 0.334859 0.462029 0.968098
O O12 0.112076 0.446539 0.010769
O O13 0.261071 0.788613 0.250000
O O14 0.409052 0.796529 0.027720
O O15 0.231062 0.750000 0.000000
O O16 0.584820 0.750000 0.500000
O O17 0.557874 0.790047 0.250000
O O18 0.711983 0.054664 0.750000
O O19 0.576530 0.046681 0.514393
O O20 0.523946 0.944695 0.750000
O O21 0.895696 0.597073 0.750000
#
# Coordination Sequence:
#
# PCOD9435483 Si02
#       8
#     8   8   8   8   8   8   8   8
#     4   9  19  35  53  75 102 133 173 218 256 297
#     4  10  20  35  53  74 103 135 170 214 261 306
#     4   9  19  34  50  72 104 136 167 211 263 308
#     4   9  18  34  55  79 108 136 165 204 251 303
#     4  10  19  32  54  83 111 138 167 202 252 312
#     4  10  19  32  52  75 101 135 171 209 258 313
#     4   9  18  31  47  72 104 132 163 211 263 308
#     4  10  20  35  54  72  96 135 179 217 256 305
#
# _framework density 18.492251
#
# number of rings (size 3 to 8) (size 9 to 14) (size 15 to 20)
#    0.000    2.500    0.000    3.000    0.000    5.000 
#    0.000    3.750    0.000    1.500    0.000    0.000 
#    0.000    0.000    0.000    0.000    0.000    0.000 
#
# Total GULP energy -357077.565836 kJ/mol
# GULP energy per Si atom -5579.336966 kJ/mol
# Density = 1.845016 g / cm^3
# Si number density = 18.492251 Si / 1000 Ang^3
#
#
#
# Elastic Constant Matrix: (Units=GPa)
#
#
# Indices 1 2 3 4 5 6 
#
# 1 34.3650 16.7245 6.9688 0.0000 0.0000 0.0000
# 2 16.7245 116.8414 18.8653 0.0000 0.0000 0.0000
# 3 6.9688 18.8653 16.9262 0.0000 0.0000 0.0000
# 4 0.0000 0.0000 0.0000 28.3685 0.0000 0.0000
# 5 0.0000 0.0000 0.0000 0.0000 15.0066 0.0000
# 6 0.0000 0.0000 0.0000 0.0000 0.0000 19.7198
#
#
#
# Elastic Compliance Matrix: (Units=1/GPa)
#
#
# Indices 1 2 3 4 5 6 
#
# 1 0.032617 -0.003049 -0.010030 0.000000 0.000000 0.000000
# 2 -0.003049 0.010722 -0.010695 0.000000 0.000000 0.000000
# 3 -0.010030 -0.010695 0.075129 0.000000 0.000000 0.000000
# 4 0.000000 0.000000 0.000000 0.035250 0.000000 0.000000
# 5 0.000000 0.000000 0.000000 0.000000 0.066637 0.000000
# 6 0.000000 0.000000 0.000000 0.000000 0.000000 0.050711
#
#
# Mechanical properties :
#
#
# Convention : Reuss Voigt Hill
#
# Bulk Modulus (GPa) = 14.10041 28.13885 21.11963
# Shear Modulus (GPa) = 14.60897 20.99060 17.79978
#
# Velocity S-wave (km/s) = 2.81375 3.37278 3.10587
# Velocity P-wave (km/s) = 4.26589 5.51517 4.93026
#
# Compressibility (1/GPa) = 0.07091995
#
# Stress axis : x y z
#
# Youngs Moduli (GPa) = 30.65846 93.26744 13.31035
#
# Poissons Ratio (x) = 0.28440 0.13351
# Poissons Ratio (y) = 0.09349 0.14235
# Poissons Ratio (z) = 0.30752 0.99747
#
# Static dielectric constant tensor:
#      x y z
#    x 1.621570 0.000000 0.000000 
#    y 0.000000 1.652090 0.000000 
#    z 0.000000 0.000000 1.620530 
# 
# From -- ./inp_files/3905.got.cif
#   From: 2010.05.17/outbox.cif.g08.bks.cpg/sg57_2_cif.got.tgz:3905.got - 2010.06.03 13:58:18.
