data_PCOD9435941
_publ_section_title
;
Structure prediction by ZEFSAII (Michael W. Deem and Ramdas Pophale) SiO2 
 PCOD9435941
Probable space group: P B C M
;
_chemical_formula_sum "Si O2"
_cell_formula_units_Z 64
_cell_length_a 23.411982
_cell_length_b 16.552866
_cell_length_c 8.438216
_cell_angle_alpha 90.000000
_cell_angle_beta 90.000000
_cell_angle_gamma 90.000000
_cell_volume 3270.107420
_symmetry_space_group_name_H-M "P B C M"
_symmetry_group_IT_number 57
_symmetry_cell_setting 'orthorhombic'
loop_
_space_group_symop_operation_xyz
x,y,z
-x,-y,1/2+z
x,1/2-y,-z
-x,1/2+y,1/2-z
-x,-y,-z
x,y,1/2-z
-x,1/2+y,z
x,1/2-y,1/2+z
loop_
_atom_site_type_symbol
_atom_site_label
_atom_site_fract_x
_atom_site_fract_y
_atom_site_fract_z
Si Si1 0.950487 0.337568 0.939683
Si Si2 0.600802 0.634764 0.430186
Si Si3 0.372721 0.554623 0.932278
Si Si4 0.720133 0.665752 0.566833
Si Si5 0.525677 0.336566 0.059263
Si Si6 0.916067 0.662385 0.440883
Si Si7 0.126280 0.514781 0.557922
Si Si8 0.747302 0.491073 0.059803
O O1 0.948512 0.337373 0.750000
O O2 0.017112 0.343118 0.989216
O O3 0.928800 0.250000 0.000000
O O4 0.916712 0.415924 0.000695
O O5 0.608437 0.665420 0.250000
O O6 0.609830 0.538768 0.426587
O O7 0.651529 0.666254 0.540469
O O8 0.537434 0.651172 0.489795
O O9 0.367483 0.584190 0.750000
O O10 0.426488 0.601378 0.002297
O O11 0.309123 0.554176 0.005359
O O12 0.742950 0.750000 0.500000
O O13 0.733835 0.657886 0.750000
O O14 0.741394 0.586307 0.476677
O O15 0.521297 0.341202 0.250000
O O16 0.545605 0.250000 0.000000
O O17 0.894148 0.750000 0.500000
O O18 0.912875 0.664096 0.250000
O O19 0.887757 0.577590 0.494110
O O20 0.124813 0.514079 0.750000
O O21 0.190620 0.536146 0.504499
O O22 0.745074 0.482816 0.250000
#
# Coordination Sequence:
#
# PCOD9435941 Si02
#       8
#     8   8   8   8   8   8   8   8
#     4  10  20  35  56  81 112 146 186 230 275 325
#     4  10  19  34  54  76  99 126 162 205 254 309
#     4   8  17  34  54  71  94 129 166 202 247 298
#     4  11  21  34  52  75 104 138 173 212 257 310
#     4  11  21  33  49  73 100 126 158 200 250 305
#     4   9  19  34  53  82 116 151 184 221 269 325
#     4  10  20  35  57  83 113 146 183 227 278 326
#     4   9  19  37  56  75 101 136 176 219 262 310
#
# _framework density 19.571221999999999
#
# number of rings (size 3 to 8) (size 9 to 14) (size 15 to 20)
#    0.000    2.250    0.000    4.125    0.000    2.000 
#    0.000    7.500    0.000    1.500    0.000    0.000 
#    0.000    0.000    0.000    0.000    0.000    0.000 
#
# Total GULP energy -356924.541602 kJ/mol
# GULP energy per Si atom -5576.945963 kJ/mol
# Density = 1.952668 g / cm^3
# Si number density = 19.571222 Si / 1000 Ang^3
#
#
#
# Elastic Constant Matrix: (Units=GPa)
#
#
# Indices 1 2 3 4 5 6 
#
# 1 58.8841 21.4729 0.8254 0.0000 0.0000 0.0000
# 2 21.4729 62.3200 5.1389 0.0000 0.0000 0.0000
# 3 0.8254 5.1389 13.5555 0.0000 0.0000 0.0000
# 4 0.0000 0.0000 0.0000 27.9538 0.0000 0.0000
# 5 0.0000 0.0000 0.0000 0.0000 11.0023 0.0000
# 6 0.0000 0.0000 0.0000 0.0000 0.0000 -2.8368
#
#
#
# Elastic Compliance Matrix: (Units=1/GPa)
#
#
# Indices 1 2 3 4 5 6 
#
# 1 0.019449 -0.006817 0.001400 0.000000 0.000000 0.000000
# 2 -0.006817 0.018953 -0.006770 0.000000 0.000000 0.000000
# 3 0.001400 -0.006770 0.076252 0.000000 0.000000 0.000000
# 4 0.000000 0.000000 0.000000 0.035773 0.000000 0.000000
# 5 0.000000 0.000000 0.000000 0.000000 0.090890 0.000000
# 6 0.000000 0.000000 0.000000 0.000000 0.000000 -0.352510
#
#
# Mechanical properties :
#
#
# Convention : Reuss Voigt Hill
#
# Bulk Modulus (GPa) = 11.07662 21.07044 16.07353
# Shear Modulus (GPa) = -88.14376 14.37868 -36.88254
#
# Velocity S-wave (km/s) = -6.71827 2.71345 -4.34583
# Velocity P-wave (km/s) = 7.38298 4.53943 4.11715
#
# Compressibility (1/GPa) = 0.09028029
#
# Stress axis : x y z
#
# Youngs Moduli (GPa) = 51.41737 52.76148 13.11443
#
# Poissons Ratio (x) = 0.35966 -0.01836
# Poissons Ratio (y) = 0.35049 0.08879
# Poissons Ratio (z) = -0.07198 0.35720
#
# Static dielectric constant tensor:
#      x y z
#    x 1.721680 0.000000 0.000000 
#    y 0.000000 1.688390 0.000000 
#    z 0.000000 0.000000 1.686530 
# 
# From -- ./inp_files/9493.got.cif
#   From: 2010.05.17/outbox.cif.g08.bks.cpg/sg57_5_cif.got.tgz:9493.got - 2010.06.03 13:58:18.
