data_PCOD9435627
_publ_section_title
;
Structure prediction by ZEFSAII (Michael W. Deem and Ramdas Pophale) SiO2 
 PCOD9435627
Probable space group: P B C M
;
_chemical_formula_sum "Si O2"
_cell_formula_units_Z 44
_cell_length_a 16.147673
_cell_length_b 5.488956
_cell_length_c 20.307280
_cell_angle_alpha 90.000000
_cell_angle_beta 90.000000
_cell_angle_gamma 90.000000
_cell_volume 1799.912747
_symmetry_space_group_name_H-M "P B C M"
_symmetry_group_IT_number 57
_symmetry_cell_setting 'orthorhombic'
loop_
_space_group_symop_operation_xyz
x,y,z
-x,-y,1/2+z
x,1/2-y,-z
-x,1/2+y,1/2-z
-x,-y,-z
x,y,1/2-z
-x,1/2+y,z
x,1/2-y,1/2+z
loop_
_atom_site_type_symbol
_atom_site_label
_atom_site_fract_x
_atom_site_fract_y
_atom_site_fract_z
Si Si1 0.859982 0.755991 0.750000
Si Si2 0.135995 0.742799 0.250000
Si Si3 0.213468 0.281816 0.607302
Si Si4 0.450054 0.750000 0.000000
Si Si5 0.552256 0.216511 0.149774
Si Si6 0.968816 0.947291 0.925484
Si Si7 0.727779 0.220906 0.134584
O O1 0.910088 0.509972 0.750000
O O2 0.802974 0.758781 0.814471
O O3 0.909582 0.003481 0.750000
O O4 0.195549 0.740429 0.314083
O O5 0.124660 0.347935 0.576378
O O6 0.269413 0.518875 0.597139
O O7 0.252782 0.019960 0.590549
O O8 0.416487 0.732282 0.073563
O O9 0.500000 0.500000 0.000000
O O10 0.501453 0.469184 0.162503
O O11 0.644320 0.196977 0.177888
O O12 0.979053 0.219884 0.895580
O O13 0.000000 0.000000 0.000000
#
# Coordination Sequence:
#
# PCOD9435627 Si02
#       7
#     4   4   8   4   8   8   8
#     4   8  16  30  52  76 102 136 178 224 260 300
#     4   8  16  30  48  72 106 140 172 220 274 302
#     4  10  19  35  56  79 105 141 185 221 259 315
#     4   8  16  30  46  60  86 124 160 200 256 312
#     4  10  19  33  51  74 104 138 173 222 280 318
#     4  10  21  38  57  77 109 148 170 204 271 328
#     4  10  19  33  54  79 105 140 185 225 258 317
#
# _framework density 24.445627999999999
#
# number of rings (size 3 to 8) (size 9 to 14) (size 15 to 20)
#    0.000    2.545    0.000    2.182    0.000    0.000 
#    0.000    7.273    0.000    0.000    0.000    0.000 
#    0.000    0.000    0.000    0.000    0.000    0.000 
#
# Total GULP energy -244953.656791 kJ/mol
# GULP energy per Si atom -5567.128563 kJ/mol
# Density = 2.438999 g / cm^3
# Si number density = 24.445628 Si / 1000 Ang^3
#
#
#
# Elastic Constant Matrix: (Units=GPa)
#
#
# Indices 1 2 3 4 5 6 
#
# 1 119.2601 33.0135 -6.0854 0.0000 0.0000 0.0000
# 2 33.0135 265.0415 -7.0176 0.0000 0.0000 0.0000
# 3 -6.0854 -7.0176 65.5868 0.0000 0.0000 0.0000
# 4 0.0000 0.0000 0.0000 -0.3650 0.0000 0.0000
# 5 0.0000 0.0000 0.0000 0.0000 12.7947 0.0000
# 6 0.0000 0.0000 0.0000 0.0000 0.0000 134.6540
#
#
#
# Elastic Compliance Matrix: (Units=1/GPa)
#
#
# Indices 1 2 3 4 5 6 
#
# 1 0.008716 -0.001067 0.000695 0.000000 0.000000 0.000000
# 2 -0.001067 0.003914 0.000320 0.000000 0.000000 0.000000
# 3 0.000695 0.000320 0.015346 0.000000 0.000000 0.000000
# 4 0.000000 0.000000 0.000000 -2.739361 0.000000 0.000000
# 5 0.000000 0.000000 0.000000 0.000000 0.078157 0.000000
# 6 0.000000 0.000000 0.000000 0.000000 0.000000 0.007426
#
#
# Mechanical properties :
#
#
# Convention : Reuss Voigt Hill
#
# Bulk Modulus (GPa) = 35.88085 54.41217 45.14651
# Shear Modulus (GPa) = -1.91102 58.08193 28.08546
#
# Velocity S-wave (km/s) = -0.88512 4.87967 3.39321
# Velocity P-wave (km/s) = 3.69663 7.35221 5.81894
#
# Compressibility (1/GPa) = 0.02787002
#
# Stress axis : x y z
#
# Youngs Moduli (GPa) = 114.73269 255.46705 65.16518
#
# Poissons Ratio (x) = 0.27265 -0.04526
# Poissons Ratio (y) = 0.12245 -0.02084
# Poissons Ratio (z) = -0.07968 -0.08170
#
# Static dielectric constant tensor:
#      x y z
#    x 1.981430 0.000000 0.000000 
#    y 0.000000 2.107250 0.000000 
#    z 0.000000 0.000000 1.619560 
# 
# From -- ./inp_files/28741.got.cif
#   From: 2010.05.17/outbox.cif.g08.bks.cpg/sg57_15_cif.got.tgz:28741.got - 2010.06.03 13:58:18.
