data_PCOD9435044
_publ_section_title
;
Structure prediction by ZEFSAII (Michael W. Deem and Ramdas Pophale) SiO2 
 PCOD9435044
Probable space group: P B C M
;
_chemical_formula_sum "Si O2"
_cell_formula_units_Z 48
_cell_length_a 13.819125
_cell_length_b 24.481650
_cell_length_c 8.952036
_cell_angle_alpha 90.000000
_cell_angle_beta 90.000000
_cell_angle_gamma 90.000000
_cell_volume 3028.607894
_symmetry_space_group_name_H-M "P B C M"
_symmetry_group_IT_number 57
_symmetry_cell_setting 'orthorhombic'
loop_
_space_group_symop_operation_xyz
x,y,z
-x,-y,1/2+z
x,1/2-y,-z
-x,1/2+y,1/2-z
-x,-y,-z
x,y,1/2-z
-x,1/2+y,z
x,1/2-y,1/2+z
loop_
_atom_site_type_symbol
_atom_site_label
_atom_site_fract_x
_atom_site_fract_y
_atom_site_fract_z
Si Si1 0.050866 0.420022 0.929626
Si Si2 0.854311 0.692790 0.071237
Si Si3 0.451827 0.416526 0.071987
Si Si4 0.850384 0.475189 0.572026
Si Si5 0.648786 0.480351 0.072347
Si Si6 0.373363 0.307992 0.571068
O O1 0.065082 0.425048 0.750000
O O2 0.084543 0.359912 0.976139
O O3 0.938915 0.433977 0.961227
O O4 0.114429 0.466277 0.009588
O O5 0.861340 0.697433 0.250000
O O6 0.740840 0.683822 0.034766
O O7 0.885073 0.750000 0.000000
O O8 0.437576 0.413427 0.250000
O O9 0.560153 0.438949 0.043180
O O10 0.380790 0.462260 0.003156
O O11 0.431144 0.358605 0.997088
O O12 0.838122 0.477986 0.750000
O O13 0.749809 0.460611 0.494633
O O14 0.656765 0.488197 0.250000
O O15 0.402176 0.250000 0.500000
O O16 0.383225 0.306362 0.750000
#
# Coordination Sequence:
#
# PCOD9435044 Si02
#       6
#     8   8   8   8   8   8
#     4   9  18  32  48  69  98 127 156 193 237 280
#     4   9  18  31  47  68  94 123 153 187 229 276
#     4  10  20  33  50  72  96 124 161 200 239 286
#     4  10  19  30  48  72  96 125 160 195 233 282
#     4  10  20  33  49  70  98 128 157 195 242 289
#     4  10  19  31  49  72  99 129 158 193 238 285
#
# _framework density 15.848865
#
# number of rings (size 3 to 8) (size 9 to 14) (size 15 to 20)
#    0.000    2.333    0.000    3.000    0.000    5.333 
#    0.000    0.000    0.000    1.000    0.000    4.667 
#    0.000    0.000    0.000    0.000    0.000    0.000 
#
# Total GULP energy -267819.059058 kJ/mol
# GULP energy per Si atom -5579.563730 kJ/mol
# Density = 1.581279 g / cm^3
# Si number density = 15.848865 Si / 1000 Ang^3
#
#
#
# Elastic Constant Matrix: (Units=GPa)
#
#
# Indices 1 2 3 4 5 6 
#
# 1 77.7410 53.2113 46.3302 0.0000 0.0000 0.0000
# 2 53.2113 143.4605 55.0038 0.0000 0.0000 0.0000
# 3 46.3302 55.0038 54.3202 0.0000 0.0000 0.0000
# 4 0.0000 0.0000 0.0000 29.8967 0.0000 0.0000
# 5 0.0000 0.0000 0.0000 0.0000 26.9031 0.0000
# 6 0.0000 0.0000 0.0000 0.0000 0.0000 17.8043
#
#
#
# Elastic Compliance Matrix: (Units=1/GPa)
#
#
# Indices 1 2 3 4 5 6 
#
# 1 0.026474 -0.001900 -0.020656 0.000000 0.000000 0.000000
# 2 -0.001900 0.011530 -0.010055 0.000000 0.000000 0.000000
# 3 -0.020656 -0.010055 0.046209 0.000000 0.000000 0.000000
# 4 0.000000 0.000000 0.000000 0.033448 0.000000 0.000000
# 5 0.000000 0.000000 0.000000 0.000000 0.037170 0.000000
# 6 0.000000 0.000000 0.000000 0.000000 0.000000 0.056166
#
#
# Mechanical properties :
#
#
# Convention : Reuss Voigt Hill
#
# Bulk Modulus (GPa) = 52.65656 64.95694 58.80675
# Shear Modulus (GPa) = 17.69599 22.98592 20.34096
#
# Velocity S-wave (km/s) = 3.34510 3.81244 3.58639
# Velocity P-wave (km/s) = 6.94377 7.77520 7.37122
#
# Compressibility (1/GPa) = 0.01899099
#
# Stress axis : x y z
#
# Youngs Moduli (GPa) = 37.77359 86.72675 21.64092
#
# Poissons Ratio (x) = 0.16476 0.44701
# Poissons Ratio (y) = 0.07176 0.21761
# Poissons Ratio (z) = 0.78025 0.87206
#
# Static dielectric constant tensor:
#      x y z
#    x 1.526180 0.000000 0.000000 
#    y 0.000000 1.504120 0.000000 
#    z 0.000000 0.000000 1.527100 
# 
# From -- ./inp_files/3094.got.cif
#   From: 2010.05.17/outbox.cif.g08.bks.cpg/sg57_2_cif.got.tgz:3094.got - 2010.06.03 13:58:18.
