data_PCOD9435949
_publ_section_title
;
Structure prediction by ZEFSAII (Michael W. Deem and Ramdas Pophale) SiO2 
 PCOD9435949
Probable space group: P B C M
;
_chemical_formula_sum "Si O2"
_cell_formula_units_Z 48
_cell_length_a 15.202630
_cell_length_b 8.757270
_cell_length_c 14.893894
_cell_angle_alpha 90.000000
_cell_angle_beta 90.000000
_cell_angle_gamma 90.000000
_cell_volume 1982.876767
_symmetry_space_group_name_H-M "P B C M"
_symmetry_group_IT_number 57
_symmetry_cell_setting 'orthorhombic'
loop_
_space_group_symop_operation_xyz
x,y,z
-x,-y,1/2+z
x,1/2-y,-z
-x,1/2+y,1/2-z
-x,-y,-z
x,y,1/2-z
-x,1/2+y,z
x,1/2-y,1/2+z
loop_
_atom_site_type_symbol
_atom_site_label
_atom_site_fract_x
_atom_site_fract_y
_atom_site_fract_z
Si Si1 0.382863 0.891829 0.350338
Si Si2 0.711913 0.640634 0.858352
Si Si3 0.226789 0.691609 0.360098
Si Si4 0.881755 0.815532 0.640113
Si Si5 0.946444 0.146469 0.859616
Si Si6 0.531363 0.701610 0.096066
O O1 0.363092 0.951794 0.250000
O O2 0.292726 0.826279 0.389769
O O3 0.449413 0.748645 0.343258
O O4 0.433648 0.030226 0.397178
O O5 0.713395 0.637298 0.750000
O O6 0.739258 0.472700 0.890327
O O7 0.785552 0.761878 0.888527
O O8 0.615726 0.692665 0.886046
O O9 0.230477 0.692427 0.250000
O O10 0.127014 0.729176 0.385264
O O11 0.880663 0.818211 0.750000
O O12 0.956345 0.694622 0.612109
O O13 0.912788 0.981851 0.610077
O O14 0.948249 0.142529 0.750000
O O15 0.496506 0.750000 0.000000
#
# Coordination Sequence:
#
# PCOD9435949 Si02
#       6
#     8   8   8   8   8   8
#     4  11  22  39  61  84 110 147 190 234 282 342
#     4  10  19  34  54  79 109 147 190 232 278 337
#     4   9  18  31  52  80 110 141 182 232 283 335
#     4   9  16  25  44  73 110 148 184 228 281 335
#     4   9  15  25  41  72 111 143 176 226 286 337
#     4  12  25  40  58  84 115 148 185 234 288 340
#
# _framework density 24.207253000000001
#
# number of rings (size 3 to 8) (size 9 to 14) (size 15 to 20)
#    0.000    2.000    0.000    5.000    0.000    8.000 
#    0.000    0.000    0.000    0.000    0.000   11.667 
#    0.000    0.000    0.000    0.000    0.000    0.000 
#
# Total GULP energy -268579.984840 kJ/mol
# GULP energy per Si atom -5595.416351 kJ/mol
# Density = 2.415216 g / cm^3
# Si number density = 24.207253 Si / 1000 Ang^3
#
#
#
# Elastic Constant Matrix: (Units=GPa)
#
#
# Indices 1 2 3 4 5 6 
#
# 1 69.0305 -29.5199 1.3691 0.0000 0.0000 0.0000
# 2 -29.5199 60.7517 5.4880 0.0000 0.0000 0.0000
# 3 1.3691 5.4880 41.0474 0.0000 0.0000 0.0000
# 4 0.0000 0.0000 0.0000 12.6711 0.0000 0.0000
# 5 0.0000 0.0000 0.0000 0.0000 65.9570 0.0000
# 6 0.0000 0.0000 0.0000 0.0000 0.0000 52.2480
#
#
#
# Elastic Compliance Matrix: (Units=1/GPa)
#
#
# Indices 1 2 3 4 5 6 
#
# 1 0.018421 0.009117 -0.001833 0.000000 0.000000 0.000000
# 2 0.009117 0.021174 -0.003135 0.000000 0.000000 0.000000
# 3 -0.001833 -0.003135 0.024842 0.000000 0.000000 0.000000
# 4 0.000000 0.000000 0.000000 0.078920 0.000000 0.000000
# 5 0.000000 0.000000 0.000000 0.000000 0.015161 0.000000
# 6 0.000000 0.000000 0.000000 0.000000 0.000000 0.019139
#
#
# Mechanical properties :
#
#
# Convention : Reuss Voigt Hill
#
# Bulk Modulus (GPa) = 13.74872 13.94492 13.84682
# Shear Modulus (GPa) = 25.82567 39.07471 32.45019
#
# Velocity S-wave (km/s) = 3.26982 4.02204 3.66528
# Velocity P-wave (km/s) = 4.46627 5.22897 4.86260
#
# Compressibility (1/GPa) = 0.07273405
#
# Stress axis : x y z
#
# Youngs Moduli (GPa) = 54.28483 47.22871 40.25376
#
# Poissons Ratio (x) = -0.43057 0.07380
# Poissons Ratio (y) = -0.49490 0.12620
# Poissons Ratio (z) = 0.09952 0.14806
#
# Static dielectric constant tensor:
#      x y z
#    x 1.852890 0.000000 0.000000 
#    y 0.000000 1.905150 0.000000 
#    z 0.000000 0.000000 2.008120 
# 
# From -- ./inp_files/22390.got.cif
#   From: 2010.05.17/outbox.cif.g08.bks.cpg/sg57_12_cif.got.tgz:22390.got - 2010.06.03 13:58:18.
