data_PCOD9435161
_publ_section_title
;
Structure prediction by ZEFSAII (Michael W. Deem and Ramdas Pophale) SiO2 
 PCOD9435161
Probable space group: P B C M
;
_chemical_formula_sum "Si O2"
_cell_formula_units_Z 64
_cell_length_a 16.372332
_cell_length_b 25.235071
_cell_length_c 8.747656
_cell_angle_alpha 90.000000
_cell_angle_beta 90.000000
_cell_angle_gamma 90.000000
_cell_volume 3614.154964
_symmetry_space_group_name_H-M "P B C M"
_symmetry_group_IT_number 57
_symmetry_cell_setting 'orthorhombic'
loop_
_space_group_symop_operation_xyz
x,y,z
-x,-y,1/2+z
x,1/2-y,-z
-x,1/2+y,1/2-z
-x,-y,-z
x,y,1/2-z
-x,1/2+y,z
x,1/2-y,1/2+z
loop_
_atom_site_type_symbol
_atom_site_label
_atom_site_fract_x
_atom_site_fract_y
_atom_site_fract_z
Si Si1 0.455348 0.418808 0.065168
Si Si2 0.371492 0.190642 0.565140
Si Si3 0.955639 0.450074 0.430516
Si Si4 0.846493 0.194884 0.433871
Si Si5 0.979813 0.844510 0.570704
Si Si6 0.618865 0.470059 0.933104
Si Si7 0.223485 0.913563 0.070344
Si Si8 0.814282 0.691882 0.567932
O O1 0.460896 0.418136 0.250000
O O2 0.426524 0.359836 0.017085
O O3 0.394449 0.467750 0.023885
O O4 0.541701 0.437079 0.996827
O O5 0.388973 0.250000 0.500000
O O6 0.375863 0.194664 0.750000
O O7 0.277693 0.175622 0.522715
O O8 0.974228 0.442418 0.250000
O O9 0.857805 0.449379 0.445091
O O10 0.000000 0.500000 0.500000
O O11 0.987908 0.402297 0.532663
O O12 0.813630 0.250000 0.500000
O O13 0.844129 0.194697 0.250000
O O14 0.799024 0.143219 0.495416
O O15 0.942289 0.190184 0.483239
O O16 0.968713 0.834810 0.750000
O O17 0.892944 0.838831 0.490675
O O18 0.618743 0.467450 0.750000
O O19 0.700539 0.443503 0.996511
O O20 0.238598 0.904928 0.250000
O O21 0.825124 0.750000 0.500000
O O22 0.816439 0.693244 0.750000
#
# Coordination Sequence:
#
# PCOD9435161 Si02
#       8
#     8   8   8   8   8   8   8   8
#     4   9  19  37  58  80 108 140 174 215 266 322
#     4   9  19  35  54  78 109 144 178 216 266 320
#     4  10  21  36  53  74 103 139 177 217 263 314
#     4  10  20  34  53  76 104 139 179 223 270 320
#     4  10  20  33  50  73 101 136 178 221 264 311
#     4  10  20  35  58  85 109 136 175 221 267 318
#     4  10  21  37  56  79 108 141 177 220 269 320
#     4  10  19  31  48  72 102 136 174 214 257 306
#
# _framework density 17.70815
#
# number of rings (size 3 to 8) (size 9 to 14) (size 15 to 20)
#    0.000    2.250    0.000    2.625    0.000    6.500 
#    0.000    1.875    0.000    1.500    0.000    0.000 
#    0.000    0.000    0.000    0.000    0.000    0.000 
#
# Total GULP energy -356677.805292 kJ/mol
# GULP energy per Si atom -5573.090708 kJ/mol
# Density = 1.766785 g / cm^3
# Si number density = 17.708150 Si / 1000 Ang^3
#
#
#
# Elastic Constant Matrix: (Units=GPa)
#
#
# Indices 1 2 3 4 5 6 
#
# 1 80.4896 64.4972 27.3991 0.0000 0.0000 0.0000
# 2 64.4972 118.3482 26.6324 0.0000 0.0000 0.0000
# 3 27.3991 26.6324 31.1625 0.0000 0.0000 0.0000
# 4 0.0000 0.0000 0.0000 30.3561 0.0000 0.0000
# 5 0.0000 0.0000 0.0000 0.0000 31.8310 0.0000
# 6 0.0000 0.0000 0.0000 0.0000 0.0000 16.2974
#
#
#
# Elastic Compliance Matrix: (Units=1/GPa)
#
#
# Indices 1 2 3 4 5 6 
#
# 1 0.025811 -0.011093 -0.013213 0.000000 0.000000 0.000000
# 2 -0.011093 0.015229 -0.003262 0.000000 0.000000 0.000000
# 3 -0.013213 -0.003262 0.046495 0.000000 0.000000 0.000000
# 4 0.000000 0.000000 0.000000 0.032942 0.000000 0.000000
# 5 0.000000 0.000000 0.000000 0.000000 0.031416 0.000000
# 6 0.000000 0.000000 0.000000 0.000000 0.000000 0.061359
#
#
# Mechanical properties :
#
#
# Convention : Reuss Voigt Hill
#
# Bulk Modulus (GPa) = 30.86550 51.89530 41.38040
# Shear Modulus (GPa) = 17.90906 23.12834 20.51870
#
# Velocity S-wave (km/s) = 3.18362 3.61790 3.40768
# Velocity P-wave (km/s) = 5.56613 6.84264 6.23713
#
# Compressibility (1/GPa) = 0.03239864
#
# Stress axis : x y z
#
# Youngs Moduli (GPa) = 38.74376 65.66402 21.50756
#
# Poissons Ratio (x) = 0.72840 0.28419
# Poissons Ratio (y) = 0.42978 0.07016
# Poissons Ratio (z) = 0.51193 0.21420
#
# Static dielectric constant tensor:
#      x y z
#    x 1.620290 0.000000 0.000000 
#    y 0.000000 1.622850 0.000000 
#    z 0.000000 0.000000 1.601600 
# 
# From -- ./inp_files/5625.got.cif
#   From: 2010.05.17/outbox.cif.g08.bks.cpg/sg57_3_cif.got.tgz:5625.got - 2010.06.03 13:58:18.
