data_PCOD9435340
_publ_section_title
;
Structure prediction by ZEFSAII (Michael W. Deem and Ramdas Pophale) SiO2 
 PCOD9435340
Probable space group: P B C M
;
_chemical_formula_sum "Si O2"
_cell_formula_units_Z 64
_cell_length_a 14.880271
_cell_length_b 31.065481
_cell_length_c 8.822502
_cell_angle_alpha 90.000000
_cell_angle_beta 90.000000
_cell_angle_gamma 90.000000
_cell_volume 4078.314266
_symmetry_space_group_name_H-M "P B C M"
_symmetry_group_IT_number 57
_symmetry_cell_setting 'orthorhombic'
loop_
_space_group_symop_operation_xyz
x,y,z
-x,-y,1/2+z
x,1/2-y,-z
-x,1/2+y,1/2-z
-x,-y,-z
x,y,1/2-z
-x,1/2+y,z
x,1/2-y,1/2+z
loop_
_atom_site_type_symbol
_atom_site_label
_atom_site_fract_x
_atom_site_fract_y
_atom_site_fract_z
Si Si1 0.354212 0.296116 0.432734
Si Si2 0.569353 0.885016 0.070621
Si Si3 0.260376 0.972764 0.425490
Si Si4 0.057619 0.960432 0.067497
Si Si5 0.449712 0.958205 0.929543
Si Si6 0.258487 0.424052 0.923545
Si Si7 0.145388 0.204123 0.568270
Si Si8 0.920357 0.612819 0.932324
O O1 0.379315 0.250000 0.500000
O O2 0.355245 0.294214 0.250000
O O3 0.418311 0.335437 0.479052
O O4 0.249693 0.304825 0.478013
O O5 0.551864 0.886337 0.250000
O O6 0.498457 0.914967 0.986023
O O7 0.666131 0.905653 0.034051
O O8 0.269324 0.958334 0.250000
O O9 0.161243 0.960426 0.483693
O O10 0.346307 0.957593 0.518723
O O11 0.263010 0.024537 0.425623
O O12 0.058964 0.966255 0.250000
O O13 0.007976 0.915451 0.033395
O O14 0.000000 0.000000 0.000000
O O15 0.457294 0.961844 0.750000
O O16 0.500000 0.000000 0.000000
O O17 0.274701 0.409672 0.750000
O O18 0.162002 0.409247 0.981392
O O19 0.118906 0.250000 0.500000
O O20 0.144874 0.207809 0.750000
O O21 0.084255 0.163251 0.526363
O O22 0.905259 0.610128 0.750000
#
# Coordination Sequence:
#
# PCOD9435340 Si02
#       8
#     8   8   8   8   8   8   8   8
#     4   9  18  31  48  71  99 131 162 199 244 293
#     4  11  21  35  52  72 100 134 169 205 246 295
#     4  10  21  36  49  70 101 132 169 210 246 289
#     4  10  20  33  51  72  98 131 166 204 243 288
#     4  12  24  36  52  74  98 132 170 208 251 295
#     4  11  20  29  47  72 101 133 168 207 243 287
#     4   9  17  30  45  68  97 128 164 199 241 293
#     4  10  19  32  49  70  99 134 169 202 243 292
#
# _framework density 15.692759000000001
#
# number of rings (size 3 to 8) (size 9 to 14) (size 15 to 20)
#    0.000    1.750    3.750    1.875    0.000    2.500 
#    0.000    0.000    0.000    0.000    0.000    0.875 
#    0.000    2.000    0.000    0.000    0.000    0.000 
#
# Total GULP energy -356999.385919 kJ/mol
# GULP energy per Si atom -5578.115405 kJ/mol
# Density = 1.565704 g / cm^3
# Si number density = 15.692759 Si / 1000 Ang^3
#
#
#
# Elastic Constant Matrix: (Units=GPa)
#
#
# Indices 1 2 3 4 5 6 
#
# 1 102.3011 57.8483 33.5805 0.0000 0.0000 0.0000
# 2 57.8483 123.9614 37.4743 0.0000 0.0000 0.0000
# 3 33.5805 37.4743 44.0681 0.0000 0.0000 0.0000
# 4 0.0000 0.0000 0.0000 21.1418 0.0000 0.0000
# 5 0.0000 0.0000 0.0000 0.0000 16.5970 0.0000
# 6 0.0000 0.0000 0.0000 0.0000 0.0000 21.1372
#
#
#
# Elastic Compliance Matrix: (Units=1/GPa)
#
#
# Indices 1 2 3 4 5 6 
#
# 1 0.014838 -0.004719 -0.007293 0.000000 0.000000 0.000000
# 2 -0.004719 0.012360 -0.006914 0.000000 0.000000 0.000000
# 3 -0.007293 -0.006914 0.034129 0.000000 0.000000 0.000000
# 4 0.000000 0.000000 0.000000 0.047300 0.000000 0.000000
# 5 0.000000 0.000000 0.000000 0.000000 0.060252 0.000000
# 6 0.000000 0.000000 0.000000 0.000000 0.000000 0.047310
#
#
# Mechanical properties :
#
#
# Convention : Reuss Voigt Hill
#
# Bulk Modulus (GPa) = 42.60193 58.68187 50.64190
# Shear Modulus (GPa) = 19.09376 21.20371 20.14873
#
# Velocity S-wave (km/s) = 3.49194 3.67982 3.58711
# Velocity P-wave (km/s) = 6.59277 7.45186 7.03544
#
# Compressibility (1/GPa) = 0.02347311
#
# Stress axis : x y z
#
# Youngs Moduli (GPa) = 67.39531 80.90912 29.30049
#
# Poissons Ratio (x) = 0.38185 0.21370
# Poissons Ratio (y) = 0.31807 0.20258
# Poissons Ratio (z) = 0.49154 0.55940
#
# Static dielectric constant tensor:
#      x y z
#    x 1.514010 0.000000 0.000000 
#    y 0.000000 1.527760 0.000000 
#    z 0.000000 0.000000 1.538090 
# 
# From -- ./inp_files/5949.got.cif
#   From: 2010.05.17/outbox.cif.g08.bks.cpg/sg57_3_cif.got.tgz:5949.got - 2010.06.03 13:58:18.
