data_PCOD9435714
_publ_section_title
;
Structure prediction by ZEFSAII (Michael W. Deem and Ramdas Pophale) SiO2 
 PCOD9435714
Probable space group: P B C M
;
_chemical_formula_sum "Si O2"
_cell_formula_units_Z 64
_cell_length_a 21.111066
_cell_length_b 20.066060
_cell_length_c 8.163378
_cell_angle_alpha 90.000000
_cell_angle_beta 90.000000
_cell_angle_gamma 90.000000
_cell_volume 3458.136857
_symmetry_space_group_name_H-M "P B C M"
_symmetry_group_IT_number 57
_symmetry_cell_setting 'orthorhombic'
loop_
_space_group_symop_operation_xyz
x,y,z
-x,-y,1/2+z
x,1/2-y,-z
-x,1/2+y,1/2-z
-x,-y,-z
x,y,1/2-z
-x,1/2+y,z
x,1/2-y,1/2+z
loop_
_atom_site_type_symbol
_atom_site_label
_atom_site_fract_x
_atom_site_fract_y
_atom_site_fract_z
Si Si1 0.010017 0.322801 0.947052
Si Si2 0.187789 0.537604 0.053616
Si Si3 0.863612 0.323355 0.947769
Si Si4 0.362229 0.323615 0.554458
Si Si5 0.062856 0.039225 0.446670
Si Si6 0.687065 0.537242 0.552151
Si Si7 0.562239 0.039987 0.052106
Si Si8 0.508120 0.176845 0.052696
O O1 0.008213 0.324813 0.750000
O O2 0.936932 0.331117 0.004813
O O3 0.052373 0.384584 0.003048
O O4 0.032239 0.250000 0.000000
O O5 0.194469 0.542272 0.250000
O O6 0.176422 0.613209 0.992624
O O7 0.249488 0.498904 0.990578
O O8 0.124692 0.495906 0.016773
O O9 0.864490 0.325047 0.750000
O O10 0.841507 0.250000 0.000000
O O11 0.341121 0.250000 0.500000
O O12 0.363750 0.324928 0.750000
O O13 0.320930 0.385670 0.495263
O O14 0.435231 0.332585 0.493638
O O15 0.066861 0.038145 0.250000
O O16 0.000000 0.000000 0.500000
O O17 0.687356 0.534452 0.750000
O O18 0.625131 0.497012 0.492080
O O19 0.564907 0.040479 0.250000
O O20 0.551574 0.115928 0.995548
O O21 0.500000 0.000000 0.000000
O O22 0.506355 0.175062 0.250000
O O23 0.529367 0.250000 0.000000
#
# Coordination Sequence:
#
# PCOD9435714 Si02
#       8
#     8   8   8   8   8   8   8   8
#     4   9  18  32  51  78 107 135 172 216 264 312
#     4  10  21  38  55  78 111 146 181 221 269 323
#     4   9  17  32  52  75 105 137 174 217 260 311
#     4  10  19  33  54  79 108 139 179 226 271 325
#     4  11  21  35  56  82 109 139 178 223 269 320
#     4  10  21  36  56  79 109 147 183 221 273 327
#     4  10  19  33  53  79 106 137 178 221 268 320
#     4   9  18  31  49  76 107 138 174 221 272 320
#
# _framework density 18.507075
#
# number of rings (size 3 to 8) (size 9 to 14) (size 15 to 20)
#    0.000    2.250    2.500    0.750    0.000    3.000 
#    0.000    1.250    0.000    1.500    0.000    0.000 
#    0.000    0.000    0.000    0.000    0.000    0.000 
#
# Total GULP energy -357019.829415 kJ/mol
# GULP energy per Si atom -5578.434835 kJ/mol
# Density = 1.846495 g / cm^3
# Si number density = 18.507075 Si / 1000 Ang^3
#
#
#
# Elastic Constant Matrix: (Units=GPa)
#
#
# Indices 1 2 3 4 5 6 
#
# 1 108.6185 83.1742 4.2266 0.0000 0.0000 0.0000
# 2 83.1742 202.1077 9.3504 0.0000 0.0000 0.0000
# 3 4.2266 9.3504 5.8914 0.0000 0.0000 0.0000
# 4 0.0000 0.0000 0.0000 28.0298 0.0000 0.0000
# 5 0.0000 0.0000 0.0000 0.0000 14.9237 0.0000
# 6 0.0000 0.0000 0.0000 0.0000 0.0000 27.4309
#
#
#
# Elastic Compliance Matrix: (Units=1/GPa)
#
#
# Indices 1 2 3 4 5 6 
#
# 1 0.013448 -0.005491 -0.000933 0.000000 0.000000 0.000000
# 2 -0.005491 0.007582 -0.008094 0.000000 0.000000 0.000000
# 3 -0.000933 -0.008094 0.183255 0.000000 0.000000 0.000000
# 4 0.000000 0.000000 0.000000 0.035676 0.000000 0.000000
# 5 0.000000 0.000000 0.000000 0.000000 0.067007 0.000000
# 6 0.000000 0.000000 0.000000 0.000000 0.000000 0.036455
#
#
# Mechanical properties :
#
#
# Convention : Reuss Voigt Hill
#
# Bulk Modulus (GPa) = 5.70618 56.67998 31.19308
# Shear Modulus (GPa) = 11.60428 28.73464 20.16946
#
# Velocity S-wave (km/s) = 2.50675 3.94462 3.30483
# Velocity P-wave (km/s) = 3.38649 7.17212 5.60837
#
# Compressibility (1/GPa) = 0.17524857
#
# Stress axis : x y z
#
# Youngs Moduli (GPa) = 74.36321 131.89038 5.45688
#
# Poissons Ratio (x) = 0.72420 0.00509
# Poissons Ratio (y) = 0.40833 0.04417
# Poissons Ratio (z) = 0.06935 1.06757
#
# Static dielectric constant tensor:
#      x y z
#    x 1.604970 0.000000 0.000000 
#    y 0.000000 1.651150 0.000000 
#    z 0.000000 0.000000 1.652610 
# 
# From -- ./inp_files/7269.got.cif
#   From: 2010.05.17/outbox.cif.g08.bks.cpg/sg57_4_cif.got.tgz:7269.got - 2010.06.03 13:58:18.
