data_PCOD9435234
_publ_section_title
;
Structure prediction by ZEFSAII (Michael W. Deem and Ramdas Pophale) SiO2 
 PCOD9435234
Probable space group: P B C M
;
_chemical_formula_sum "Si O2"
_cell_formula_units_Z 56
_cell_length_a 21.880414
_cell_length_b 13.607076
_cell_length_c 7.473686
_cell_angle_alpha 90.000000
_cell_angle_beta 90.000000
_cell_angle_gamma 90.000000
_cell_volume 2225.128995
_symmetry_space_group_name_H-M "P B C M"
_symmetry_group_IT_number 57
_symmetry_cell_setting 'orthorhombic'
loop_
_space_group_symop_operation_xyz
x,y,z
-x,-y,1/2+z
x,1/2-y,-z
-x,1/2+y,1/2-z
-x,-y,-z
x,y,1/2-z
-x,1/2+y,z
x,1/2-y,1/2+z
loop_
_atom_site_type_symbol
_atom_site_label
_atom_site_fract_x
_atom_site_fract_y
_atom_site_fract_z
Si Si1 0.030598 0.632305 0.036007
Si Si2 0.100627 0.134030 0.037880
Si Si3 0.486660 0.113648 0.963749
Si Si4 0.381474 0.644935 0.536487
Si Si5 0.835342 0.135659 0.035163
Si Si6 0.644279 0.918415 0.457259
Si Si7 0.769593 0.955921 0.458982
O O1 0.030434 0.619390 0.250000
O O2 0.965009 0.594379 0.965877
O O3 0.097441 0.602328 0.965995
O O4 0.030159 0.750000 0.000000
O O5 0.101021 0.118996 0.250000
O O6 0.099946 0.250000 0.000000
O O7 0.164456 0.094415 0.967037
O O8 0.485368 0.132201 0.750000
O O9 0.549275 0.157111 0.039399
O O10 0.417936 0.127846 0.036711
O O11 0.500000 0.000000 0.000000
O O12 0.349188 0.750000 0.500000
O O13 0.383373 0.632616 0.750000
O O14 0.359596 0.538693 0.465546
O O15 0.837267 0.124427 0.250000
O O16 0.783040 0.064154 0.963720
O O17 0.826215 0.250000 0.000000
O O18 0.642686 0.887736 0.250000
O O19 0.711424 0.898760 0.536759
O O20 0.754549 0.967392 0.250000
#
# Coordination Sequence:
#
# PCOD9435234 Si02
#       7
#     8   8   8   8   8   8   8
#     4   8  15  29  49  72  97 127 166 213 264 310
#     4  10  20  35  55  76  99 130 171 220 268 313
#     4   8  15  29  49  69  90 119 155 194 234 277
#     4  10  19  31  50  76 101 126 160 202 247 294
#     4   9  18  33  51  73 103 137 173 214 259 308
#     4   9  18  34  52  70  98 134 167 201 244 294
#     4  10  21  35  52  76 107 142 175 209 255 309
#
# _framework density 25.167079999999999
#
# number of rings (size 3 to 8) (size 9 to 14) (size 15 to 20)
#    0.000    2.857    0.000    0.857    0.000    3.429 
#    0.000    2.143    0.000    1.714    0.000    0.000 
#    0.000    0.000    0.000    0.000    0.000    0.000 
#
# Total GULP energy -312272.938348 kJ/mol
# GULP energy per Si atom -5576.302470 kJ/mol
# Density = 2.510980 g / cm^3
# Si number density = 25.167080 Si / 1000 Ang^3
#
#
#
# Elastic Constant Matrix: (Units=GPa)
#
#
# Indices 1 2 3 4 5 6 
#
# 1 148.5709 -14.7156 10.8913 0.0000 0.0000 0.0000
# 2 -14.7156 43.1573 -10.9291 0.0000 0.0000 0.0000
# 3 10.8913 -10.9291 103.8031 0.0000 0.0000 0.0000
# 4 0.0000 0.0000 0.0000 17.2645 0.0000 0.0000
# 5 0.0000 0.0000 0.0000 0.0000 0.7196 0.0000
# 6 0.0000 0.0000 0.0000 0.0000 0.0000 8.8989
#
#
#
# Elastic Compliance Matrix: (Units=1/GPa)
#
#
# Indices 1 2 3 4 5 6 
#
# 1 0.006991 0.002258 -0.000496 0.000000 0.000000 0.000000
# 2 0.002258 0.024535 0.002346 0.000000 0.000000 0.000000
# 3 -0.000496 0.002346 0.009933 0.000000 0.000000 0.000000
# 4 0.000000 0.000000 0.000000 0.057922 0.000000 0.000000
# 5 0.000000 0.000000 0.000000 0.000000 1.389577 0.000000
# 6 0.000000 0.000000 0.000000 0.000000 0.000000 0.112373
#
#
# Mechanical properties :
#
#
# Convention : Reuss Voigt Hill
#
# Bulk Modulus (GPa) = 20.13041 29.55827 24.84434
# Shear Modulus (GPa) = 3.10622 26.06225 14.58423
#
# Velocity S-wave (km/s) = 1.11217 3.22152 2.40988
# Velocity P-wave (km/s) = 3.10891 5.06042 4.19959
#
# Compressibility (1/GPa) = 0.04967609
#
# Stress axis : x y z
#
# Youngs Moduli (GPa) = 143.04511 40.75779 100.67783
#
# Poissons Ratio (x) = -0.09204 0.04991
# Poissons Ratio (y) = -0.32302 -0.23622
# Poissons Ratio (z) = 0.07091 -0.09563
#
# Static dielectric constant tensor:
#      x y z
#    x 2.087200 0.000000 0.000000 
#    y 0.000000 2.041880 0.000000 
#    z 0.000000 0.000000 1.829360 
# 
# From -- ./inp_files/8192.got.cif
#   From: 2010.05.17/outbox.cif.g08.bks.cpg/sg57_5_cif.got.tgz:8192.got - 2010.06.03 13:58:18.
