data_PCOD9435378
_publ_section_title
;
Structure prediction by ZEFSAII (Michael W. Deem and Ramdas Pophale) SiO2 
 PCOD9435378
Probable space group: P B C M
;
_chemical_formula_sum "Si O2"
_cell_formula_units_Z 48
_cell_length_a 32.456914
_cell_length_b 9.544986
_cell_length_c 8.516724
_cell_angle_alpha 90.000000
_cell_angle_beta 90.000000
_cell_angle_gamma 90.000000
_cell_volume 2638.487821
_symmetry_space_group_name_H-M "P B C M"
_symmetry_group_IT_number 57
_symmetry_cell_setting 'orthorhombic'
loop_
_space_group_symop_operation_xyz
x,y,z
-x,-y,1/2+z
x,1/2-y,-z
-x,1/2+y,1/2-z
-x,-y,-z
x,y,1/2-z
-x,1/2+y,z
x,1/2-y,1/2+z
loop_
_atom_site_type_symbol
_atom_site_label
_atom_site_fract_x
_atom_site_fract_y
_atom_site_fract_z
Si Si1 0.962575 0.592077 0.437226
Si Si2 0.126243 0.408140 0.061332
Si Si3 0.282415 0.409435 0.059893
Si Si4 0.204571 0.592164 0.439781
Si Si5 0.372503 0.409409 0.439242
Si Si6 0.462322 0.409116 0.438475
O O1 0.967278 0.750000 0.500000
O O2 0.962494 0.593100 0.250000
O O3 0.917955 0.541854 0.497895
O O4 0.000000 0.500000 0.500000
O O5 0.124649 0.403647 0.250000
O O6 0.163664 0.507650 0.011305
O O7 0.132914 0.250000 0.000000
O O8 0.281548 0.404597 0.250000
O O9 0.244980 0.506764 0.006358
O O10 0.327770 0.466047 0.010373
O O11 0.277726 0.250000 0.000000
O O12 0.204499 0.750000 0.500000
O O13 0.205070 0.594204 0.250000
O O14 0.372549 0.250000 0.500000
O O15 0.372513 0.409253 0.250000
O O16 0.417081 0.467885 0.489169
O O17 0.465568 0.250000 0.500000
O O18 0.500000 0.500000 0.500000
O O19 0.463446 0.406572 0.250000
#
# Coordination Sequence:
#
# PCOD9435378 Si02
#       6
#     8   8   8   8   8   8
#     4  11  22  38  59  84 112 144 179 219 263 310
#     4  10  20  36  56  80 106 137 177 218 256 303
#     4   9  17  32  53  77 100 128 166 209 252 301
#     4  10  22  36  52  75 106 138 170 208 254 304
#     4   8  15  28  48  71  97 126 163 207 251 297
#     4  10  19  32  50  73 100 133 169 211 257 307
#
# _framework density 18.192238
#
# number of rings (size 3 to 8) (size 9 to 14) (size 15 to 20)
#    0.000    2.333    0.000    4.000    0.000    3.333 
#    0.000    2.500    0.000    2.000    0.000    0.000 
#    0.000    0.000    0.000    0.000    0.000    0.000 
#
# Total GULP energy -267638.783645 kJ/mol
# GULP energy per Si atom -5575.807993 kJ/mol
# Density = 1.815083 g / cm^3
# Si number density = 18.192238 Si / 1000 Ang^3
#
#
#
# Elastic Constant Matrix: (Units=GPa)
#
#
# Indices 1 2 3 4 5 6 
#
# 1 242.4670 99.8364 47.3053 0.0000 0.0000 0.0000
# 2 99.8364 76.8753 21.3185 0.0000 0.0000 0.0000
# 3 47.3053 21.3185 51.7195 0.0000 0.0000 0.0000
# 4 0.0000 0.0000 0.0000 29.5873 0.0000 0.0000
# 5 0.0000 0.0000 0.0000 0.0000 23.1057 0.0000
# 6 0.0000 0.0000 0.0000 0.0000 0.0000 33.6035
#
#
#
# Elastic Compliance Matrix: (Units=1/GPa)
#
#
# Indices 1 2 3 4 5 6 
#
# 1 0.009578 -0.011301 -0.004102 0.000000 0.000000 0.000000
# 2 -0.011301 0.028021 -0.001214 0.000000 0.000000 0.000000
# 3 -0.004102 -0.001214 0.023587 0.000000 0.000000 0.000000
# 4 0.000000 0.000000 0.000000 0.033798 0.000000 0.000000
# 5 0.000000 0.000000 0.000000 0.000000 0.043279 0.000000
# 6 0.000000 0.000000 0.000000 0.000000 0.000000 0.029759
#
#
# Mechanical properties :
#
#
# Convention : Reuss Voigt Hill
#
# Bulk Modulus (GPa) = 35.77490 78.66471 57.21981
# Shear Modulus (GPa) = 23.74468 30.76606 27.25537
#
# Velocity S-wave (km/s) = 3.61669 4.11684 3.87484
# Velocity P-wave (km/s) = 6.09493 8.11988 7.17916
#
# Compressibility (1/GPa) = 0.02795256
#
# Stress axis : x y z
#
# Youngs Moduli (GPa) = 104.40849 35.68769 42.39551
#
# Poissons Ratio (x) = 0.40330 0.17391
# Poissons Ratio (y) = 1.17991 0.05146
# Poissons Ratio (z) = 0.42830 0.04331
#
# Static dielectric constant tensor:
#      x y z
#    x 1.673550 0.000000 0.000000 
#    y 0.000000 1.574770 0.000000 
#    z 0.000000 0.000000 1.626360 
# 
# From -- ./inp_files/9892.got.cif
#   From: 2010.05.17/outbox.cif.g08.bks.cpg/sg57_5_cif.got.tgz:9892.got - 2010.06.03 13:58:18.
