data_PCOD9435875
_publ_section_title
;
Structure prediction by ZEFSAII (Michael W. Deem and Ramdas Pophale) SiO2 
 PCOD9435875
Probable space group: P B C M
;
_chemical_formula_sum "Si O2"
_cell_formula_units_Z 48
_cell_length_a 17.650795
_cell_length_b 15.672760
_cell_length_c 8.929740
_cell_angle_alpha 90.000000
_cell_angle_beta 90.000000
_cell_angle_gamma 90.000000
_cell_volume 2470.293572
_symmetry_space_group_name_H-M "P B C M"
_symmetry_group_IT_number 57
_symmetry_cell_setting 'orthorhombic'
loop_
_space_group_symop_operation_xyz
x,y,z
-x,-y,1/2+z
x,1/2-y,-z
-x,1/2+y,1/2-z
-x,-y,-z
x,y,1/2-z
-x,1/2+y,z
x,1/2-y,1/2+z
loop_
_atom_site_type_symbol
_atom_site_label
_atom_site_fract_x
_atom_site_fract_y
_atom_site_fract_z
Si Si1 0.341251 0.104158 0.573272
Si Si2 0.495955 0.094914 0.430090
Si Si3 0.816231 0.161481 0.571612
Si Si4 0.336735 0.897546 0.925891
Si Si5 0.082868 0.999713 0.069573
Si Si6 0.814988 0.662022 0.070569
O O1 0.340769 0.122721 0.750000
O O2 0.420284 0.134054 0.500168
O O3 0.268620 0.143550 0.493263
O O4 0.336061 0.000789 0.555528
O O5 0.489615 0.089310 0.250000
O O6 0.578482 0.133707 0.465363
O O7 0.500000 0.000000 0.500000
O O8 0.841402 0.250000 0.500000
O O9 0.818991 0.167100 0.750000
O O10 0.730503 0.141967 0.520790
O O11 0.869022 0.083028 0.522143
O O12 0.323571 0.879982 0.750000
O O13 0.077029 0.998158 0.250000
O O14 0.130680 0.083625 0.028191
O O15 0.000000 0.000000 0.000000
O O16 0.811731 0.667722 0.250000
O O17 0.843000 0.750000 0.000000
#
# Coordination Sequence:
#
# PCOD9435875 Si02
#       6
#     8   8   8   8   8   8
#     4  10  19  33  56  86 119 161 206 250 306 359
#     4   9  17  29  49  81 118 158 207 255 302 355
#     4  11  23  40  62  91 123 159 201 246 299 356
#     4   9  18  33  55  84 118 159 204 248 299 353
#     4  10  24  44  67  93 122 157 196 242 301 363
#     4  11  23  41  63  92 125 160 203 249 301 361
#
# _framework density 19.430889000000001
#
# number of rings (size 3 to 8) (size 9 to 14) (size 15 to 20)
#    0.000    2.000    1.667    3.000    0.000    6.667 
#    0.000    4.167    0.000    4.000    0.000    0.000 
#    0.000    0.000    0.000    0.000    0.000    0.000 
#
# Total GULP energy -268127.616440 kJ/mol
# GULP energy per Si atom -5585.992009 kJ/mol
# Density = 1.938666 g / cm^3
# Si number density = 19.430889 Si / 1000 Ang^3
#
#
#
# Elastic Constant Matrix: (Units=GPa)
#
#
# Indices 1 2 3 4 5 6 
#
# 1 161.2192 79.0737 56.8773 0.0000 0.0000 0.0000
# 2 79.0737 122.6743 54.9903 0.0000 0.0000 0.0000
# 3 56.8773 54.9903 64.2820 0.0000 0.0000 0.0000
# 4 0.0000 0.0000 0.0000 27.6656 0.0000 0.0000
# 5 0.0000 0.0000 0.0000 0.0000 40.0884 0.0000
# 6 0.0000 0.0000 0.0000 0.0000 0.0000 -7.9121
#
#
#
# Elastic Compliance Matrix: (Units=1/GPa)
#
#
# Indices 1 2 3 4 5 6 
#
# 1 0.010136 -0.004076 -0.005481 0.000000 0.000000 0.000000
# 2 -0.004076 0.014861 -0.009106 0.000000 0.000000 0.000000
# 3 -0.005481 -0.009106 0.028196 0.000000 0.000000 0.000000
# 4 0.000000 0.000000 0.000000 0.036146 0.000000 0.000000
# 5 0.000000 0.000000 0.000000 0.000000 0.024945 0.000000
# 6 0.000000 0.000000 0.000000 0.000000 0.000000 -0.126389
#
#
# Mechanical properties :
#
#
# Convention : Reuss Voigt Hill
#
# Bulk Modulus (GPa) = 63.02902 81.11758 72.07330
# Shear Modulus (GPa) = 163.87489 22.45066 93.16278
#
# Velocity S-wave (km/s) = 9.19350 3.40282 6.93180
# Velocity P-wave (km/s) = 12.04997 7.56811 10.06176
#
# Compressibility (1/GPa) = 0.01586571
#
# Stress axis : x y z
#
# Youngs Moduli (GPa) = 98.66028 67.28908 35.46578
#
# Poissons Ratio (x) = 0.27430 0.19439
# Poissons Ratio (y) = 0.40218 0.32296
# Poissons Ratio (z) = 0.54076 0.61275
#
# Static dielectric constant tensor:
#      x y z
#    x 1.666500 0.000000 0.000000 
#    y 0.000000 1.603630 0.000000 
#    z 0.000000 0.000000 1.645060 
# 
# From -- ./inp_files/6541.got.cif
#   From: 2010.05.17/outbox.cif.g08.bks.cpg/sg57_4_cif.got.tgz:6541.got - 2010.06.03 13:58:18.
