data_PCOD9435285
_publ_section_title
;
Structure prediction by ZEFSAII (Michael W. Deem and Ramdas Pophale) SiO2 
 PCOD9435285
Probable space group: P B C M
;
_chemical_formula_sum "Si O2"
_cell_formula_units_Z 64
_cell_length_a 17.890451
_cell_length_b 20.623411
_cell_length_c 7.615015
_cell_angle_alpha 90.000000
_cell_angle_beta 90.000000
_cell_angle_gamma 90.000000
_cell_volume 2809.652108
_symmetry_space_group_name_H-M "P B C M"
_symmetry_group_IT_number 57
_symmetry_cell_setting 'orthorhombic'
loop_
_space_group_symop_operation_xyz
x,y,z
-x,-y,1/2+z
x,1/2-y,-z
-x,1/2+y,1/2-z
-x,-y,-z
x,y,1/2-z
-x,1/2+y,z
x,1/2-y,1/2+z
loop_
_atom_site_type_symbol
_atom_site_label
_atom_site_fract_x
_atom_site_fract_y
_atom_site_fract_z
Si Si1 0.386053 0.323803 0.946149
Si Si2 0.065669 0.317046 0.959599
Si Si3 0.164030 0.011606 0.965256
Si Si4 0.580296 0.530846 0.038391
Si Si5 0.223109 0.351000 0.450608
Si Si6 0.807659 0.325640 0.460430
Si Si7 0.948962 0.415073 0.954537
Si Si8 0.696971 0.425152 0.450150
O O1 0.415260 0.328637 0.750000
O O2 0.409224 0.394430 0.028794
O O3 0.407296 0.250000 0.000000
O O4 0.295346 0.325383 0.950663
O O5 0.074020 0.322850 0.750000
O O6 0.019659 0.378047 0.033203
O O7 0.023695 0.250000 0.000000
O O8 0.146486 0.312023 0.047000
O O9 0.165683 0.009914 0.750000
O O10 0.191810 0.081406 0.023281
O O11 0.084891 0.982264 0.024971
O O12 0.226245 0.964962 0.043655
O O13 0.592681 0.534226 0.250000
O O14 0.638684 0.476435 0.968575
O O15 0.500000 0.500000 0.000000
O O16 0.248448 0.358863 0.250000
O O17 0.811635 0.250000 0.500000
O O18 0.809659 0.334565 0.250000
O O19 0.879370 0.364188 0.534949
O O20 0.728827 0.357511 0.525827
O O21 0.965198 0.425018 0.750000
O O22 0.671442 0.412704 0.250000
#
# Coordination Sequence:
#
# PCOD9435285 Si02
#       8
#     8   8   8   8   8   8   8   8
#     4  11  23  41  65  92 123 158 197 240 288 342
#     4  11  23  37  52  71 103 146 191 242 297 351
#     4   9  18  33  55  82 109 141 183 233 285 342
#     4  10  22  40  64  92 122 155 190 231 281 341
#     4  11  22  36  57  84 114 148 190 240 292 347
#     4  10  19  31  52  79 109 146 189 237 289 340
#     4   9  19  35  53  75 106 144 189 240 294 347
#     4   9  18  35  56  81 112 147 187 231 278 334
#
# _framework density 22.778621000000001
#
# number of rings (size 3 to 8) (size 9 to 14) (size 15 to 20)
#    0.000    2.000    1.250    2.250    0.000    5.000 
#    0.000    0.625    0.000    3.000    0.000    0.000 
#    0.000    0.000    0.000    0.000    0.000    0.000 
#
# Total GULP energy -356729.658537 kJ/mol
# GULP energy per Si atom -5573.900915 kJ/mol
# Density = 2.272678 g / cm^3
# Si number density = 22.778621 Si / 1000 Ang^3
#
#
#
# Elastic Constant Matrix: (Units=GPa)
#
#
# Indices 1 2 3 4 5 6 
#
# 1 81.5683 23.1846 -6.2008 0.0000 0.0000 0.0000
# 2 23.1846 134.7680 -0.6572 0.0000 0.0000 0.0000
# 3 -6.2008 -0.6572 67.8347 0.0000 0.0000 0.0000
# 4 0.0000 0.0000 0.0000 15.0076 0.0000 0.0000
# 5 0.0000 0.0000 0.0000 0.0000 -20.3435 0.0000
# 6 0.0000 0.0000 0.0000 0.0000 0.0000 15.4936
#
#
#
# Elastic Compliance Matrix: (Units=1/GPa)
#
#
# Indices 1 2 3 4 5 6 
#
# 1 0.012981 -0.002228 0.001165 0.000000 0.000000 0.000000
# 2 -0.002228 0.007803 -0.000128 0.000000 0.000000 0.000000
# 3 0.001165 -0.000128 0.014847 0.000000 0.000000 0.000000
# 4 0.000000 0.000000 0.000000 0.066633 0.000000 0.000000
# 5 0.000000 0.000000 0.000000 0.000000 -0.049156 0.000000
# 6 0.000000 0.000000 0.000000 0.000000 0.000000 0.064543
#
#
# Mechanical properties :
#
#
# Convention : Reuss Voigt Hill
#
# Bulk Modulus (GPa) = 30.07514 35.20270 32.63892
# Shear Modulus (GPa) = 38.13427 19.88782 29.01104
#
# Velocity S-wave (km/s) = 4.09605 2.95802 3.57264
# Velocity P-wave (km/s) = 5.96674 5.21098 5.60162
#
# Compressibility (1/GPa) = 0.03325005
#
# Stress axis : x y z
#
# Youngs Moduli (GPa) = 77.03339 128.15999 67.35376
#
# Poissons Ratio (x) = 0.28548 -0.07847
# Poissons Ratio (y) = 0.17160 0.00862
# Poissons Ratio (z) = -0.08975 0.01641
#
# Static dielectric constant tensor:
#      x y z
#    x 1.838740 0.000000 0.000000 
#    y 0.000000 1.999870 0.000000 
#    z 0.000000 0.000000 1.851610 
# 
# From -- ./inp_files/7261.got.cif
#   From: 2010.05.17/outbox.cif.g08.bks.cpg/sg57_4_cif.got.tgz:7261.got - 2010.06.03 13:58:18.
