data_PCOD9435138
_publ_section_title
;
Structure prediction by ZEFSAII (Michael W. Deem and Ramdas Pophale) SiO2 
 PCOD9435138
Probable space group: P B C M
;
_chemical_formula_sum "Si O2"
_cell_formula_units_Z 64
_cell_length_a 21.070236
_cell_length_b 20.214176
_cell_length_c 8.915208
_cell_angle_alpha 90.000000
_cell_angle_beta 90.000000
_cell_angle_gamma 90.000000
_cell_volume 3797.142737
_symmetry_space_group_name_H-M "P B C M"
_symmetry_group_IT_number 57
_symmetry_cell_setting 'orthorhombic'
loop_
_space_group_symop_operation_xyz
x,y,z
-x,-y,1/2+z
x,1/2-y,-z
-x,1/2+y,1/2-z
-x,-y,-z
x,y,1/2-z
-x,1/2+y,z
x,1/2-y,1/2+z
loop_
_atom_site_type_symbol
_atom_site_label
_atom_site_fract_x
_atom_site_fract_y
_atom_site_fract_z
Si Si1 0.693978 0.394152 0.422645
Si Si2 0.055873 0.821201 0.428458
Si Si3 0.579737 0.933323 0.072550
Si Si4 0.838028 0.540504 0.575184
Si Si5 0.822580 0.381333 0.576087
Si Si6 0.291994 0.445177 0.922825
Si Si7 0.969596 0.934198 0.571195
Si Si8 0.558585 0.077105 0.930587
O O1 0.705294 0.374574 0.250000
O O2 0.750372 0.368123 0.525815
O O3 0.698500 0.474693 0.428181
O O4 0.620849 0.379339 0.464131
O O5 0.044545 0.750000 0.500000
O O6 0.049062 0.820236 0.250000
O O7 0.126569 0.844541 0.473894
O O8 0.007555 0.873177 0.501637
O O9 0.591302 0.930600 0.250000
O O10 0.512616 0.897430 0.039115
O O11 0.643470 0.913607 0.986261
O O12 0.566888 0.009354 0.023164
O O13 0.848820 0.555258 0.750000
O O14 0.834475 0.460410 0.560272
O O15 0.770591 0.568040 0.519494
O O16 0.896148 0.566173 0.476577
O O17 0.832493 0.363830 0.750000
O O18 0.282056 0.427328 0.750000
O O19 0.976763 0.935702 0.750000
O O20 0.000000 0.000000 0.500000
O O21 0.561551 0.062275 0.750000
#
# Coordination Sequence:
#
# PCOD9435138 Si02
#       8
#     8   8   8   8   8   8   8   8
#     4   8  14  24  37  54  79 112 152 194 239 284
#     4  12  25  41  59  78 104 135 169 210 258 311
#     4   9  14  20  31  47  71 106 147 190 234 283
#     4  10  19  31  49  72  97 125 163 207 250 296
#     4  10  19  31  48  70  96 124 161 204 249 298
#     4   9  16  25  36  54  82 115 152 194 241 290
#     4  12  23  37  57  81 106 134 169 210 256 307
#     4   8  14  22  31  46  71 105 147 190 233 282
#
# _framework density 16.854779000000001
#
# number of rings (size 3 to 8) (size 9 to 14) (size 15 to 20)
#    0.000    2.250    1.250    4.500    0.000    4.500 
#    0.000    0.000    0.000    0.000    0.000    0.000 
#    0.000    0.000    0.000    1.125    0.000   16.500 
#
# Total GULP energy -356702.411631 kJ/mol
# GULP energy per Si atom -5573.475182 kJ/mol
# Density = 1.681642 g / cm^3
# Si number density = 16.854779 Si / 1000 Ang^3
#
#
#
# Elastic Constant Matrix: (Units=GPa)
#
#
# Indices 1 2 3 4 5 6 
#
# 1 123.6673 32.3500 55.5340 0.0000 0.0000 0.0000
# 2 32.3500 36.6611 34.8821 0.0000 0.0000 0.0000
# 3 55.5340 34.8821 121.9200 0.0000 0.0000 0.0000
# 4 0.0000 0.0000 0.0000 13.2449 0.0000 0.0000
# 5 0.0000 0.0000 0.0000 0.0000 33.4885 0.0000
# 6 0.0000 0.0000 0.0000 0.0000 0.0000 3.8501
#
#
#
# Elastic Compliance Matrix: (Units=1/GPa)
#
#
# Indices 1 2 3 4 5 6 
#
# 1 0.011336 -0.006994 -0.003162 0.000000 0.000000 0.000000
# 2 -0.006994 0.041795 -0.008772 0.000000 0.000000 0.000000
# 3 -0.003162 -0.008772 0.012152 0.000000 0.000000 0.000000
# 4 0.000000 0.000000 0.000000 0.075501 0.000000 0.000000
# 5 0.000000 0.000000 0.000000 0.000000 0.029861 0.000000
# 6 0.000000 0.000000 0.000000 0.000000 0.000000 0.259736
#
#
# Mechanical properties :
#
#
# Convention : Reuss Voigt Hill
#
# Bulk Modulus (GPa) = 36.46154 58.64230 47.55192
# Shear Modulus (GPa) = 10.47385 20.74885 15.61135
#
# Velocity S-wave (km/s) = 2.49553 3.51242 3.04670
# Velocity P-wave (km/s) = 5.47570 7.16364 6.37577
#
# Compressibility (1/GPa) = 0.02742616
#
# Stress axis : x y z
#
# Youngs Moduli (GPa) = 88.21572 23.92646 82.28876
#
# Poissons Ratio (x) = 0.16734 0.26023
# Poissons Ratio (y) = 0.61697 0.72184
# Poissons Ratio (z) = 0.27898 0.20988
#
# Static dielectric constant tensor:
#      x y z
#    x 1.616080 0.000000 0.000000 
#    y 0.000000 1.514990 0.000000 
#    z 0.000000 0.000000 1.563660 
# 
# From -- ./inp_files/8719.got.cif
#   From: 2010.05.17/outbox.cif.g08.bks.cpg/sg57_5_cif.got.tgz:8719.got - 2010.06.03 13:58:18.
