data_PCOD9435184
_publ_section_title
;
Structure prediction by ZEFSAII (Michael W. Deem and Ramdas Pophale) SiO2 
 PCOD9435184
Probable space group: P B C M
;
_chemical_formula_sum "Si O2"
_cell_formula_units_Z 48
_cell_length_a 13.967256
_cell_length_b 24.367425
_cell_length_c 8.752633
_cell_angle_alpha 90.000000
_cell_angle_beta 90.000000
_cell_angle_gamma 90.000000
_cell_volume 2978.924183
_symmetry_space_group_name_H-M "P B C M"
_symmetry_group_IT_number 57
_symmetry_cell_setting 'orthorhombic'
loop_
_space_group_symop_operation_xyz
x,y,z
-x,-y,1/2+z
x,1/2-y,-z
-x,1/2+y,1/2-z
-x,-y,-z
x,y,1/2-z
-x,1/2+y,z
x,1/2-y,1/2+z
loop_
_atom_site_type_symbol
_atom_site_label
_atom_site_fract_x
_atom_site_fract_y
_atom_site_fract_z
Si Si1 0.141427 0.527223 0.567855
Si Si2 0.348839 0.976459 0.932018
Si Si3 0.544739 0.580102 0.433352
Si Si4 0.646657 0.808087 0.933212
Si Si5 0.858861 0.691180 0.932414
Si Si6 0.961484 0.913360 0.932279
O O1 0.133565 0.533484 0.750000
O O2 0.249184 0.535986 0.513099
O O3 0.108149 0.464882 0.529858
O O4 0.065960 0.567402 0.487100
O O5 0.335345 0.975945 0.750000
O O6 0.435183 0.934721 0.971773
O O7 0.387925 0.035769 0.984657
O O8 0.555693 0.572652 0.250000
O O9 0.577825 0.641273 0.471395
O O10 0.655218 0.804202 0.750000
O O11 0.613206 0.750000 0.000000
O O12 0.751964 0.818695 0.002174
O O13 0.855119 0.694298 0.750000
O O14 0.890269 0.750000 0.000000
O O15 0.925029 0.641366 0.986693
O O16 0.959873 0.905753 0.750000
#
# Coordination Sequence:
#
# PCOD9435184 Si02
#       6
#     8   8   8   8   8   8
#     4  10  20  33  50  73 100 129 161 198 242 291
#     4  10  19  31  49  72  97 127 162 198 239 287
#     4   9  19  33  48  69  98 129 159 196 241 287
#     4  10  19  32  49  70  97 127 160 197 238 282
#     4  11  21  33  50  73 100 129 162 198 240 288
#     4  10  20  34  51  72  99 129 161 199 242 287
#
# _framework density 16.113199999999999
#
# number of rings (size 3 to 8) (size 9 to 14) (size 15 to 20)
#    0.000    2.000    0.000    5.500    0.000    8.000 
#    0.000    0.000    0.000    1.000    0.000    4.667 
#    0.000    0.000    0.000    0.000    0.000    0.000 
#
# Total GULP energy -267966.082497 kJ/mol
# GULP energy per Si atom -5582.626719 kJ/mol
# Density = 1.607653 g / cm^3
# Si number density = 16.113200 Si / 1000 Ang^3
#
#
#
# Elastic Constant Matrix: (Units=GPa)
#
#
# Indices 1 2 3 4 5 6 
#
# 1 89.7929 66.9087 40.2036 0.0000 0.0000 0.0000
# 2 66.9087 135.7653 57.2537 0.0000 0.0000 0.0000
# 3 40.2036 57.2537 71.8477 0.0000 0.0000 0.0000
# 4 0.0000 0.0000 0.0000 26.3095 0.0000 0.0000
# 5 0.0000 0.0000 0.0000 0.0000 28.5210 0.0000
# 6 0.0000 0.0000 0.0000 0.0000 0.0000 19.6488
#
#
#
# Elastic Compliance Matrix: (Units=1/GPa)
#
#
# Indices 1 2 3 4 5 6 
#
# 1 0.018585 -0.007190 -0.004670 0.000000 0.000000 0.000000
# 2 -0.007190 0.013875 -0.007034 0.000000 0.000000 0.000000
# 3 -0.004670 -0.007034 0.022137 0.000000 0.000000 0.000000
# 4 0.000000 0.000000 0.000000 0.038009 0.000000 0.000000
# 5 0.000000 0.000000 0.000000 0.000000 0.035062 0.000000
# 6 0.000000 0.000000 0.000000 0.000000 0.000000 0.050894
#
#
# Mechanical properties :
#
#
# Convention : Reuss Voigt Hill
#
# Bulk Modulus (GPa) = 59.48994 69.57089 64.53041
# Shear Modulus (GPa) = 22.52737 23.76518 23.14627
#
# Velocity S-wave (km/s) = 3.74313 3.84459 3.79420
# Velocity P-wave (km/s) = 7.46201 7.93586 7.70258
#
# Compressibility (1/GPa) = 0.01680957
#
# Stress axis : x y z
#
# Youngs Moduli (GPa) = 53.80615 72.07160 45.17405
#
# Poissons Ratio (x) = 0.51818 0.21098
# Poissons Ratio (y) = 0.38685 0.31774
# Poissons Ratio (z) = 0.25129 0.50692
#
# Static dielectric constant tensor:
#      x y z
#    x 1.518750 0.000000 0.000000 
#    y 0.000000 1.526610 0.000000 
#    z 0.000000 0.000000 1.538670 
# 
# From -- ./inp_files/3093.got.cif
#   From: 2010.05.17/outbox.cif.g08.bks.cpg/sg57_2_cif.got.tgz:3093.got - 2010.06.03 13:58:18.
