data_PCOD9435834
_publ_section_title
;
Structure prediction by ZEFSAII (Michael W. Deem and Ramdas Pophale) SiO2 
 PCOD9435834
Probable space group: P B C M
;
_chemical_formula_sum "Si O2"
_cell_formula_units_Z 40
_cell_length_a 12.242283
_cell_length_b 11.030455
_cell_length_c 13.345034
_cell_angle_alpha 90.000000
_cell_angle_beta 90.000000
_cell_angle_gamma 90.000000
_cell_volume 1802.086057
_symmetry_space_group_name_H-M "P B C M"
_symmetry_group_IT_number 57
_symmetry_cell_setting 'orthorhombic'
loop_
_space_group_symop_operation_xyz
x,y,z
-x,-y,1/2+z
x,1/2-y,-z
-x,1/2+y,1/2-z
-x,-y,-z
x,y,1/2-z
-x,1/2+y,z
x,1/2-y,1/2+z
loop_
_atom_site_type_symbol
_atom_site_label
_atom_site_fract_x
_atom_site_fract_y
_atom_site_fract_z
Si Si1 0.672922 0.324232 0.367971
Si Si2 0.076804 0.431429 0.872896
Si Si3 0.571394 0.712987 0.639395
Si Si4 0.686531 0.919736 0.955871
Si Si5 0.082285 0.786320 0.130766
O O1 0.681213 0.360329 0.250000
O O2 0.556477 0.261204 0.379724
O O3 0.664020 0.440954 0.437500
O O4 0.789212 0.263843 0.390729
O O5 0.095866 0.424704 0.750000
O O6 0.185131 0.402435 0.936907
O O7 0.051224 0.573703 0.894559
O O8 0.989013 0.328767 0.901828
O O9 0.581744 0.659309 0.750000
O O10 0.630007 0.841197 0.630510
O O11 0.632303 0.629721 0.557618
O O12 0.071100 0.784245 0.250000
#
# Coordination Sequence:
#
# PCOD9435834 Si02
#       5
#     8   8   8   8   8
#     4   9  17  32  54  81 114 151 188 233 291 350
#     4   9  16  30  54  85 118 152 191 239 295 355
#     4  10  20  33  53  80 109 146 194 238 281 343
#     4  10  19  33  55  80 111 148 188 234 293 351
#     4   8  15  28  51  83 118 152 189 236 291 350
#
# _framework density 22.196498999999999
#
# number of rings (size 3 to 8) (size 9 to 14) (size 15 to 20)
#    0.000    2.800    0.000    3.600    0.000    0.000 
#    0.000    2.000    0.000   31.200    0.000   16.800 
#    0.000    0.000    0.000    0.000    0.000    0.000 
#
# Total GULP energy -223125.719889 kJ/mol
# GULP energy per Si atom -5578.142997 kJ/mol
# Density = 2.214598 g / cm^3
# Si number density = 22.196499 Si / 1000 Ang^3
#
#
#
# Elastic Constant Matrix: (Units=GPa)
#
#
# Indices 1 2 3 4 5 6 
#
# 1 153.3383 92.2266 53.9951 0.0000 0.0000 0.0000
# 2 92.2266 65.2217 48.4592 0.0000 0.0000 0.0000
# 3 53.9951 48.4592 105.1172 0.0000 0.0000 0.0000
# 4 0.0000 0.0000 0.0000 18.6375 0.0000 0.0000
# 5 0.0000 0.0000 0.0000 0.0000 -33.4470 0.0000
# 6 0.0000 0.0000 0.0000 0.0000 0.0000 0.4118
#
#
#
# Elastic Compliance Matrix: (Units=1/GPa)
#
#
# Indices 1 2 3 4 5 6 
#
# 1 0.050324 -0.079020 0.010579 0.000000 0.000000 0.000000
# 2 -0.079020 0.147400 -0.027362 0.000000 0.000000 0.000000
# 3 0.010579 -0.027362 0.016693 0.000000 0.000000 0.000000
# 4 0.000000 0.000000 0.000000 0.053655 0.000000 0.000000
# 5 0.000000 0.000000 0.000000 0.000000 -0.029898 0.000000
# 6 0.000000 0.000000 0.000000 0.000000 0.000000 2.428176
#
#
# Mechanical properties :
#
#
# Convention : Reuss Voigt Hill
#
# Bulk Modulus (GPa) = 43.83902 79.22656 61.53279
# Shear Modulus (GPa) = 1.74486 5.72021 3.73254
#
# Velocity S-wave (km/s) = 0.88758 1.60707 1.29817
# Velocity P-wave (km/s) = 4.56549 6.26213 5.47987
#
# Compressibility (1/GPa) = 0.02281073
#
# Stress axis : x y z
#
# Youngs Moduli (GPa) = 19.87134 6.78425 59.90510
#
# Poissons Ratio (x) = 0.53609 -0.63373
# Poissons Ratio (y) = 1.57024 1.63912
# Poissons Ratio (z) = -0.21022 0.18563
#
# Static dielectric constant tensor:
#      x y z
#    x 1.822690 0.000000 0.000000 
#    y 0.000000 1.784700 0.000000 
#    z 0.000000 0.000000 1.954700 
# 
# From -- ./inp_files/17420.got.cif
#   From: 2010.05.17/outbox.cif.g08.bks.cpg/sg57_9_cif.got.tgz:17420.got - 2010.06.03 13:58:18.
