data_PCOD9435860
_publ_section_title
;
Structure prediction by ZEFSAII (Michael W. Deem and Ramdas Pophale) SiO2 
 PCOD9435860
Probable space group: P B C M
;
_chemical_formula_sum "Si O2"
_cell_formula_units_Z 48
_cell_length_a 7.436122
_cell_length_b 16.879691
_cell_length_c 16.807056
_cell_angle_alpha 90.000000
_cell_angle_beta 90.000000
_cell_angle_gamma 90.000000
_cell_volume 2109.612284
_symmetry_space_group_name_H-M "P B C M"
_symmetry_group_IT_number 57
_symmetry_cell_setting 'orthorhombic'
loop_
_space_group_symop_operation_xyz
x,y,z
-x,-y,1/2+z
x,1/2-y,-z
-x,1/2+y,1/2-z
-x,-y,-z
x,y,1/2-z
-x,1/2+y,z
x,1/2-y,1/2+z
loop_
_atom_site_type_symbol
_atom_site_label
_atom_site_fract_x
_atom_site_fract_y
_atom_site_fract_z
Si Si1 0.563963 0.961265 0.750000
Si Si2 0.459559 0.540171 0.914762
Si Si3 0.970960 0.475503 0.250000
Si Si4 0.948885 0.774345 0.417852
Si Si5 0.461378 0.278462 0.417021
Si Si6 0.029711 0.543484 0.917504
Si Si7 0.447909 0.227660 0.250000
Si Si8 0.966081 0.785790 0.250000
O O1 0.484640 0.993806 0.666130
O O2 0.768049 0.993237 0.750000
O O3 0.252274 0.226903 0.750000
O O4 0.543609 0.627097 0.915837
O O5 0.244471 0.551298 0.909194
O O6 0.500000 0.500000 0.000000
O O7 0.043355 0.498797 0.337200
O O8 0.983816 0.379049 0.250000
O O9 0.037692 0.750000 0.500000
O O10 0.742754 0.743925 0.417748
O O11 0.947650 0.869225 0.419784
O O12 0.029817 0.749831 0.333289
O O13 0.545481 0.250000 0.500000
O O14 0.540836 0.252504 0.332441
O O15 0.000000 0.500000 0.000000
O O16 0.428049 0.133416 0.250000
#
# Coordination Sequence:
#
# PCOD9435860 Si02
#       8
#     4   8   4   8   8   8   4   4
#     4  10  21  37  58  85 115 152 194 242 293 349
#     4  11  22  37  58  84 117 155 193 239 293 346
#     4   8  18  35  54  77 110 148 184 230 288 345
#     4   9  18  33  53  77 105 139 182 229 278 334
#     4  10  20  35  56  81 112 150 191 237 287 346
#     4  10  20  35  55  79 108 143 185 231 280 338
#     4  10  19  33  56  83 109 144 196 244 287 347
#     4   8  16  31  52  77 104 142 186 232 280 339
#
# _framework density 22.752994999999999
#
# number of rings (size 3 to 8) (size 9 to 14) (size 15 to 20)
#    0.000    2.333    0.000    2.500    0.000    7.333 
#    0.000    2.500    0.000    0.000    0.000    2.333 
#    0.000    0.000    0.000    0.000    0.000    0.000 
#
# Total GULP energy -267631.301290 kJ/mol
# GULP energy per Si atom -5575.652110 kJ/mol
# Density = 2.270121 g / cm^3
# Si number density = 22.752995 Si / 1000 Ang^3
#
#
#
# Elastic Constant Matrix: (Units=GPa)
#
#
# Indices 1 2 3 4 5 6 
#
# 1 81.1235 -3.0310 2.1018 0.0000 0.0000 0.0000
# 2 -3.0310 82.6007 60.8919 0.0000 0.0000 0.0000
# 3 2.1018 60.8919 302.7023 0.0000 0.0000 0.0000
# 4 0.0000 0.0000 0.0000 45.6510 0.0000 0.0000
# 5 0.0000 0.0000 0.0000 0.0000 -35.9609 0.0000
# 6 0.0000 0.0000 0.0000 0.0000 0.0000 17.1461
#
#
#
# Elastic Compliance Matrix: (Units=1/GPa)
#
#
# Indices 1 2 3 4 5 6 
#
# 1 0.012355 0.000607 -0.000208 0.000000 0.000000 0.000000
# 2 0.000607 0.014244 -0.002870 0.000000 0.000000 0.000000
# 3 -0.000208 -0.002870 0.003882 0.000000 0.000000 0.000000
# 4 0.000000 0.000000 0.000000 0.021905 0.000000 0.000000
# 5 0.000000 0.000000 0.000000 0.000000 -0.027808 0.000000
# 6 0.000000 0.000000 0.000000 0.000000 0.000000 0.058322
#
#
# Mechanical properties :
#
#
# Convention : Reuss Voigt Hill
#
# Bulk Modulus (GPa) = 39.15486 65.15024 52.15255
# Shear Modulus (GPa) = 51.89100 32.46481 42.17791
#
# Velocity S-wave (km/s) = 4.78077 3.78145 4.31017
# Velocity P-wave (km/s) = 6.90799 6.91098 6.90949
#
# Compressibility (1/GPa) = 0.02553962
#
# Stress axis : x y z
#
# Youngs Moduli (GPa) = 80.93940 70.20459 257.58173
#
# Poissons Ratio (x) = -0.04258 0.05353
# Poissons Ratio (y) = -0.04909 0.73915
# Poissons Ratio (z) = 0.01682 0.20146
#
# Static dielectric constant tensor:
#      x y z
#    x 1.839330 0.000000 0.000000 
#    y 0.000000 1.778480 0.000000 
#    z 0.000000 0.000000 1.909930 
# 
# From -- ./inp_files/16625.got.cif
#   From: 2010.05.17/outbox.cif.g08.bks.cpg/sg57_9_cif.got.tgz:16625.got - 2010.06.03 13:58:18.
