data_PCOD9435384
_publ_section_title
;
Structure prediction by ZEFSAII (Michael W. Deem and Ramdas Pophale) SiO2 
 PCOD9435384
Probable space group: P B C M
;
_chemical_formula_sum "Si O2"
_cell_formula_units_Z 56
_cell_length_a 19.511480
_cell_length_b 18.671221
_cell_length_c 8.999378
_cell_angle_alpha 90.000000
_cell_angle_beta 90.000000
_cell_angle_gamma 90.000000
_cell_volume 3278.501799
_symmetry_space_group_name_H-M "P B C M"
_symmetry_group_IT_number 57
_symmetry_cell_setting 'orthorhombic'
loop_
_space_group_symop_operation_xyz
x,y,z
-x,-y,1/2+z
x,1/2-y,-z
-x,1/2+y,1/2-z
-x,-y,-z
x,y,1/2-z
-x,1/2+y,z
x,1/2-y,1/2+z
loop_
_atom_site_type_symbol
_atom_site_label
_atom_site_fract_x
_atom_site_fract_y
_atom_site_fract_z
Si Si1 0.849221 0.065358 0.427965
Si Si2 0.755958 0.880003 0.078903
Si Si3 0.714997 0.023794 0.924768
Si Si4 0.389174 0.177626 0.576716
Si Si5 0.031343 0.671790 0.428167
Si Si6 0.430036 0.472497 0.929199
Si Si7 0.095500 0.093758 0.925621
O O1 0.843914 0.066055 0.250000
O O2 0.900459 0.128227 0.474284
O O3 0.773034 0.070156 0.494596
O O4 0.883304 0.987914 0.466716
O O5 0.753864 0.909273 0.250000
O O6 0.694143 0.824664 0.069945
O O7 0.834715 0.859856 0.054020
O O8 0.737666 0.942862 0.965304
O O9 0.718735 0.036472 0.750000
O O10 0.635034 0.023399 0.970389
O O11 0.413913 0.250000 0.500000
O O12 0.408445 0.174530 0.750000
O O13 0.414513 0.106448 0.493631
O O14 0.028855 0.750000 0.500000
O O15 0.030590 0.677580 0.250000
O O16 0.966424 0.625427 0.481700
O O17 0.433597 0.469956 0.750000
O O18 0.500000 0.500000 0.000000
O O19 0.078113 0.094323 0.750000
#
# Coordination Sequence:
#
# PCOD9435384 Si02
#       7
#     8   8   8   8   8   8   8
#     4   9  19  35  54  73  96 128 167 208 254 305
#     4   8  16  30  47  69  99 131 162 197 242 294
#     4   9  17  29  50  78 101 122 157 201 242 288
#     4  10  19  32  50  73 104 141 175 209 249 299
#     4  11  23  36  49  69  97 131 169 211 259 307
#     4  10  20  34  53  80 109 137 169 207 252 302
#     4   9  17  32  52  74  99 128 165 209 253 301
#
# _framework density 17.080973
#
# number of rings (size 3 to 8) (size 9 to 14) (size 15 to 20)
#    0.000    2.571    0.000    3.000    0.000    6.286 
#    0.000    1.429    0.000    0.857    0.000    2.000 
#    0.000    0.000    0.000    0.000    0.000    0.000 
#
# Total GULP energy -311940.436959 kJ/mol
# GULP energy per Si atom -5570.364946 kJ/mol
# Density = 1.704210 g / cm^3
# Si number density = 17.080973 Si / 1000 Ang^3
#
#
#
# Elastic Constant Matrix: (Units=GPa)
#
#
# Indices 1 2 3 4 5 6 
#
# 1 127.9899 32.0945 44.1079 0.0000 0.0000 0.0000
# 2 32.0945 36.9659 20.7635 0.0000 0.0000 0.0000
# 3 44.1079 20.7635 48.2974 0.0000 0.0000 0.0000
# 4 0.0000 0.0000 0.0000 19.9772 0.0000 0.0000
# 5 0.0000 0.0000 0.0000 0.0000 28.8923 0.0000
# 6 0.0000 0.0000 0.0000 0.0000 0.0000 10.8292
#
#
#
# Elastic Compliance Matrix: (Units=1/GPa)
#
#
# Indices 1 2 3 4 5 6 
#
# 1 0.012261 -0.005742 -0.008729 0.000000 0.000000 0.000000
# 2 -0.005742 0.038353 -0.011244 0.000000 0.000000 0.000000
# 3 -0.008729 -0.011244 0.033511 0.000000 0.000000 0.000000
# 4 0.000000 0.000000 0.000000 0.050057 0.000000 0.000000
# 5 0.000000 0.000000 0.000000 0.000000 0.034611 0.000000
# 6 0.000000 0.000000 0.000000 0.000000 0.000000 0.092343
#
#
# Mechanical properties :
#
#
# Convention : Reuss Voigt Hill
#
# Bulk Modulus (GPa) = 30.58630 45.24277 37.91454
# Shear Modulus (GPa) = 15.45757 19.69221 17.57489
#
# Velocity S-wave (km/s) = 3.01152 3.39908 3.21115
# Velocity P-wave (km/s) = 5.48068 6.47686 5.99948
#
# Compressibility (1/GPa) = 0.03269437
#
# Stress axis : x y z
#
# Youngs Moduli (GPa) = 81.55771 26.07328 29.84122
#
# Poissons Ratio (x) = 0.14973 0.26048
# Poissons Ratio (y) = 0.46834 0.33554
# Poissons Ratio (z) = 0.71191 0.29317
#
# Static dielectric constant tensor:
#      x y z
#    x 1.602520 0.000000 0.000000 
#    y 0.000000 1.570560 0.000000 
#    z 0.000000 0.000000 1.575040 
# 
# From -- ./inp_files/7084.got.cif
#   From: 2010.05.17/outbox.cif.g08.bks.cpg/sg57_4_cif.got.tgz:7084.got - 2010.06.03 13:58:18.
