data_PCOD9435693
_publ_section_title
;
Structure prediction by ZEFSAII (Michael W. Deem and Ramdas Pophale) SiO2 
 PCOD9435693
Probable space group: P B C M
;
_chemical_formula_sum "Si O2"
_cell_formula_units_Z 40
_cell_length_a 9.868407
_cell_length_b 26.145726
_cell_length_c 8.880364
_cell_angle_alpha 90.000000
_cell_angle_beta 90.000000
_cell_angle_gamma 90.000000
_cell_volume 2291.281908
_symmetry_space_group_name_H-M "P B C M"
_symmetry_group_IT_number 57
_symmetry_cell_setting 'orthorhombic'
loop_
_space_group_symop_operation_xyz
x,y,z
-x,-y,1/2+z
x,1/2-y,-z
-x,1/2+y,1/2-z
-x,-y,-z
x,y,1/2-z
-x,1/2+y,z
x,1/2-y,1/2+z
loop_
_atom_site_type_symbol
_atom_site_label
_atom_site_fract_x
_atom_site_fract_y
_atom_site_fract_z
Si Si1 0.277165 0.469875 0.070061
Si Si2 0.246848 0.917915 0.069046
Si Si3 0.479200 0.110267 0.069527
Si Si4 0.946565 0.615799 0.570386
Si Si5 0.744982 0.694205 0.429387
O O1 0.294892 0.474654 0.250000
O O2 0.145585 0.434347 0.040347
O O3 0.258646 0.524869 0.996057
O O4 0.403031 0.439122 0.999280
O O5 0.255554 0.919459 0.250000
O O6 0.101014 0.894763 0.026476
O O7 0.372390 0.886888 0.000803
O O8 0.485938 0.105321 0.250000
O O9 0.384779 0.158805 0.031284
O O10 0.941413 0.624666 0.750000
O O11 0.874820 0.662918 0.488599
O O12 0.736310 0.750000 0.500000
O O13 0.751113 0.698131 0.250000
#
# Coordination Sequence:
#
# PCOD9435693 Si02
#       5
#     8   8   8   8   8
#     4  10  19  33  53  76 106 145 181 215 254 304
#     4  11  21  33  51  78 111 143 173 213 259 305
#     4  10  21  36  53  77 106 139 178 216 256 308
#     4   9  20  36  54  78 107 139 177 215 257 307
#     4  10  21  38  61  81 100 130 171 217 264 314
#
# _framework density 17.457477000000001
#
# number of rings (size 3 to 8) (size 9 to 14) (size 15 to 20)
#    0.000    2.000    0.000    3.600    0.000    4.800 
#    0.000    1.000    0.000    2.400    0.000    0.000 
#    0.000    0.000    0.000    0.000    0.000    0.000 
#
# Total GULP energy -223439.947589 kJ/mol
# GULP energy per Si atom -5585.998690 kJ/mol
# Density = 1.741774 g / cm^3
# Si number density = 17.457477 Si / 1000 Ang^3
#
#
#
# Elastic Constant Matrix: (Units=GPa)
#
#
# Indices 1 2 3 4 5 6 
#
# 1 147.6337 57.1222 56.2975 0.0000 0.0000 0.0000
# 2 57.1222 121.9117 50.5467 0.0000 0.0000 0.0000
# 3 56.2975 50.5467 58.9922 0.0000 0.0000 0.0000
# 4 0.0000 0.0000 0.0000 18.1078 0.0000 0.0000
# 5 0.0000 0.0000 0.0000 0.0000 30.1344 0.0000
# 6 0.0000 0.0000 0.0000 0.0000 0.0000 5.5561
#
#
#
# Elastic Compliance Matrix: (Units=1/GPa)
#
#
# Indices 1 2 3 4 5 6 
#
# 1 0.010764 -0.001217 -0.009230 0.000000 0.000000 0.000000
# 2 -0.001217 0.012860 -0.009858 0.000000 0.000000 0.000000
# 3 -0.009230 -0.009858 0.034206 0.000000 0.000000 0.000000
# 4 0.000000 0.000000 0.000000 0.055225 0.000000 0.000000
# 5 0.000000 0.000000 0.000000 0.000000 0.033185 0.000000
# 6 0.000000 0.000000 0.000000 0.000000 0.000000 0.179982
#
#
# Mechanical properties :
#
#
# Convention : Reuss Voigt Hill
#
# Bulk Modulus (GPa) = 58.06691 72.94115 65.50403
# Shear Modulus (GPa) = 13.42030 21.73108 17.57569
#
# Velocity S-wave (km/s) = 2.77563 3.53200 3.17641
# Velocity P-wave (km/s) = 6.60350 7.64894 7.14537
#
# Compressibility (1/GPa) = 0.01722151
#
# Stress axis : x y z
#
# Youngs Moduli (GPa) = 92.90351 77.76095 29.23463
#
# Poissons Ratio (x) = 0.09461 0.26983
# Poissons Ratio (y) = 0.11303 0.28819
# Poissons Ratio (z) = 0.85747 0.76655
#
# Static dielectric constant tensor:
#      x y z
#    x 1.595390 0.000000 0.000000 
#    y 0.000000 1.559730 0.000000 
#    z 0.000000 0.000000 1.579300 
# 
# From -- ./inp_files/1475.got.cif
#   From: 2010.05.17/outbox.cif.g08.bks.cpg/sg57_1_cif.got.tgz:1475.got - 2010.06.03 13:58:18.
