data_PCOD9435322
_publ_section_title
;
Structure prediction by ZEFSAII (Michael W. Deem and Ramdas Pophale) SiO2 
 PCOD9435322
Probable space group: P B C M
;
_chemical_formula_sum "Si O2"
_cell_formula_units_Z 56
_cell_length_a 11.948986
_cell_length_b 19.868506
_cell_length_c 14.184375
_cell_angle_alpha 90.000000
_cell_angle_beta 90.000000
_cell_angle_gamma 90.000000
_cell_volume 3367.491193
_symmetry_space_group_name_H-M "P B C M"
_symmetry_group_IT_number 57
_symmetry_cell_setting 'orthorhombic'
loop_
_space_group_symop_operation_xyz
x,y,z
-x,-y,1/2+z
x,1/2-y,-z
-x,1/2+y,1/2-z
-x,-y,-z
x,y,1/2-z
-x,1/2+y,z
x,1/2-y,1/2+z
loop_
_atom_site_type_symbol
_atom_site_label
_atom_site_fract_x
_atom_site_fract_y
_atom_site_fract_z
Si Si1 0.103533 0.797775 0.136303
Si Si2 0.643913 0.174409 0.862914
Si Si3 0.604254 0.176726 0.142881
Si Si4 0.156516 0.975554 0.517861
Si Si5 0.992858 0.936556 0.362633
Si Si6 0.872944 0.347536 0.641652
Si Si7 0.585184 0.061394 0.998314
O O1 0.116801 0.790665 0.250000
O O2 0.226819 0.820799 0.101095
O O3 0.017045 0.857522 0.121934
O O4 0.075306 0.722345 0.104665
O O5 0.646155 0.171052 0.750000
O O6 0.587578 0.245931 0.888474
O O7 0.588477 0.108384 0.905675
O O8 0.564478 0.170216 0.250000
O O9 0.739405 0.167296 0.143561
O O10 0.559903 0.116826 0.078887
O O11 0.289141 0.967278 0.511285
O O12 0.115638 0.037688 0.581540
O O13 0.095874 0.974051 0.416263
O O14 0.109658 0.910694 0.575051
O O15 0.989357 0.949166 0.250000
O O16 0.907314 0.361566 0.750000
O O17 0.500000 0.000000 0.000000
#
# Coordination Sequence:
#
# PCOD9435322 Si02
#       7
#     8   8   8   8   8   8   8
#     4   8  14  26  47  72  95 119 153 200 248 289
#     4   9  16  30  50  72  97 127 161 206 257 300
#     4   8  16  30  48  70  99 129 162 205 254 295
#     4  10  20  31  47  71  99 133 164 192 253 302
#     4  10  19  32  48  68  97 130 162 201 243 297
#     4   8  14  26  45  72 100 121 151 200 250 295
#     4  11  21  31  47  76 107 134 166 204 248 303
#
# _framework density 16.629591000000001
#
# number of rings (size 3 to 8) (size 9 to 14) (size 15 to 20)
#    0.000    2.857    1.429    2.571    0.000    1.714 
#    0.000    0.000    0.000    0.000   14.857    0.000 
#    0.000    0.000    0.000    0.000    0.000    0.000 
#
# Total GULP energy -311898.411251 kJ/mol
# GULP energy per Si atom -5569.614487 kJ/mol
# Density = 1.659174 g / cm^3
# Si number density = 16.629591 Si / 1000 Ang^3
#
#
#
# Elastic Constant Matrix: (Units=GPa)
#
#
# Indices 1 2 3 4 5 6 
#
# 1 46.0893 46.1291 23.5600 0.0000 0.0000 0.0000
# 2 46.1291 125.4940 40.3645 0.0000 0.0000 0.0000
# 3 23.5600 40.3645 82.5074 0.0000 0.0000 0.0000
# 4 0.0000 0.0000 0.0000 26.4465 0.0000 0.0000
# 5 0.0000 0.0000 0.0000 0.0000 12.0859 0.0000
# 6 0.0000 0.0000 0.0000 0.0000 0.0000 29.0074
#
#
#
# Elastic Compliance Matrix: (Units=1/GPa)
#
#
# Indices 1 2 3 4 5 6 
#
# 1 0.035665 -0.011670 -0.004475 0.000000 0.000000 0.000000
# 2 -0.011670 0.013275 -0.003162 0.000000 0.000000 0.000000
# 3 -0.004475 -0.003162 0.014945 0.000000 0.000000 0.000000
# 4 0.000000 0.000000 0.000000 0.037812 0.000000 0.000000
# 5 0.000000 0.000000 0.000000 0.000000 0.082741 0.000000
# 6 0.000000 0.000000 0.000000 0.000000 0.000000 0.034474
#
#
# Mechanical properties :
#
#
# Convention : Reuss Voigt Hill
#
# Bulk Modulus (GPa) = 39.57158 52.68865 46.13011
# Shear Modulus (GPa) = 18.80049 23.11043 20.95546
#
# Velocity S-wave (km/s) = 3.36600 3.73194 3.55368
# Velocity P-wave (km/s) = 6.24133 7.09382 6.68118
#
# Compressibility (1/GPa) = 0.02527066
#
# Stress axis : x y z
#
# Youngs Moduli (GPa) = 28.03879 75.32712 66.91268
#
# Poissons Ratio (x) = 0.87910 0.29941
# Poissons Ratio (y) = 0.32723 0.21159
# Poissons Ratio (z) = 0.12546 0.23820
#
# Static dielectric constant tensor:
#      x y z
#    x 1.529870 0.000000 0.000000 
#    y 0.000000 1.590170 0.000000 
#    z 0.000000 0.000000 1.625900 
# 
# From -- ./inp_files/18618.got.cif
#   From: 2010.05.17/outbox.cif.g08.bks.cpg/sg57_10_cif.got.tgz:18618.got - 2010.06.03 13:58:18.
