data_PCOD9435278
_publ_section_title
;
Structure prediction by ZEFSAII (Michael W. Deem and Ramdas Pophale) SiO2 
 PCOD9435278
Probable space group: P B C M
;
_chemical_formula_sum "Si O2"
_cell_formula_units_Z 64
_cell_length_a 18.261610
_cell_length_b 23.292351
_cell_length_c 8.121267
_cell_angle_alpha 90.000000
_cell_angle_beta 90.000000
_cell_angle_gamma 90.000000
_cell_volume 3454.428265
_symmetry_space_group_name_H-M "P B C M"
_symmetry_group_IT_number 57
_symmetry_cell_setting 'orthorhombic'
loop_
_space_group_symop_operation_xyz
x,y,z
-x,-y,1/2+z
x,1/2-y,-z
-x,1/2+y,1/2-z
-x,-y,-z
x,y,1/2-z
-x,1/2+y,z
x,1/2-y,1/2+z
loop_
_atom_site_type_symbol
_atom_site_label
_atom_site_fract_x
_atom_site_fract_y
_atom_site_fract_z
Si Si1 0.509056 0.933840 0.551650
Si Si2 0.072405 0.186789 0.053510
Si Si3 0.753132 0.312190 0.948802
Si Si4 0.349656 0.583788 0.448807
Si Si5 0.919588 0.480190 0.551416
Si Si6 0.821949 0.915648 0.053630
Si Si7 0.911217 0.348951 0.548773
Si Si8 0.666944 0.951625 0.553861
O O1 0.508550 0.928919 0.750000
O O2 0.433506 0.904989 0.492744
O O3 0.591631 0.921303 0.493056
O O4 0.500000 0.000000 0.500000
O O5 0.069776 0.183857 0.250000
O O6 0.989324 0.175304 0.990793
O O7 0.095640 0.250000 0.000000
O O8 0.128248 0.138155 0.994819
O O9 0.754053 0.314690 0.750000
O O10 0.705795 0.366907 0.007678
O O11 0.837349 0.317993 0.007580
O O12 0.723743 0.250000 0.000000
O O13 0.349067 0.586115 0.250000
O O14 0.329225 0.517920 0.492395
O O15 0.916256 0.479872 0.750000
O O16 0.861739 0.526696 0.488818
O O17 0.905940 0.415380 0.496894
O O18 0.000000 0.500000 0.500000
O O19 0.820576 0.918839 0.250000
O O20 0.739023 0.916935 0.993331
O O21 0.912089 0.347200 0.750000
O O22 0.662382 0.955224 0.750000
#
# Coordination Sequence:
#
# PCOD9435278 Si02
#       8
#     8   8   8   8   8   8   8   8
#     4   8  15  28  48  75 103 133 164 199 247 306
#     4  11  22  37  55  72  97 132 175 220 260 302
#     4  10  20  34  51  72 101 138 176 214 253 300
#     4   9  17  32  53  75 105 140 171 207 260 315
#     4  10  19  33  52  75 102 131 165 207 254 307
#     4  11  22  35  53  77 106 138 173 209 258 313
#     4   9  18  33  52  73 101 133 166 207 254 301
#     4  10  19  31  51  80 109 134 169 214 262 312
#
# _framework density 18.526945999999999
#
# number of rings (size 3 to 8) (size 9 to 14) (size 15 to 20)
#    0.000    2.250    1.250    2.250    0.000    3.500 
#    0.000    1.250    0.000    0.750    0.000    1.750 
#    0.000    0.000    0.000    0.000    0.000    0.000 
#
# Total GULP energy -356867.378732 kJ/mol
# GULP energy per Si atom -5576.052793 kJ/mol
# Density = 1.848478 g / cm^3
# Si number density = 18.526946 Si / 1000 Ang^3
#
#
#
# Elastic Constant Matrix: (Units=GPa)
#
#
# Indices 1 2 3 4 5 6 
#
# 1 146.9472 40.1004 9.6873 0.0000 0.0000 0.0000
# 2 40.1004 81.6375 1.1039 0.0000 0.0000 0.0000
# 3 9.6873 1.1039 9.0747 0.0000 0.0000 0.0000
# 4 0.0000 0.0000 0.0000 18.9882 0.0000 0.0000
# 5 0.0000 0.0000 0.0000 0.0000 15.7514 0.0000
# 6 0.0000 0.0000 0.0000 0.0000 0.0000 14.3158
#
#
#
# Elastic Compliance Matrix: (Units=1/GPa)
#
#
# Indices 1 2 3 4 5 6 
#
# 1 0.008473 -0.004046 -0.008553 0.000000 0.000000 0.000000
# 2 -0.004046 0.014202 0.002592 0.000000 0.000000 0.000000
# 3 -0.008553 0.002592 0.119011 0.000000 0.000000 0.000000
# 4 0.000000 0.000000 0.000000 0.052664 0.000000 0.000000
# 5 0.000000 0.000000 0.000000 0.000000 0.063486 0.000000
# 6 0.000000 0.000000 0.000000 0.000000 0.000000 0.069853
#
#
# Mechanical properties :
#
#
# Convention : Reuss Voigt Hill
#
# Bulk Modulus (GPa) = 8.21886 37.71586 22.96736
# Shear Modulus (GPa) = 12.87791 22.26227 17.57009
#
# Velocity S-wave (km/s) = 2.63932 3.47019 3.08288
# Velocity P-wave (km/s) = 3.70591 6.03803 5.00957
#
# Compressibility (1/GPa) = 0.12167138
#
# Stress axis : x y z
#
# Youngs Moduli (GPa) = 118.01865 70.41351 8.40257
#
# Poissons Ratio (x) = 0.28492 0.07187
# Poissons Ratio (y) = 0.47755 -0.02178
# Poissons Ratio (z) = 1.00941 -0.18251
#
# Static dielectric constant tensor:
#      x y z
#    x 1.693840 0.000000 0.000000 
#    y 0.000000 1.654130 0.000000 
#    z 0.000000 0.000000 1.654810 
# 
# From -- ./inp_files/7230.got.cif
#   From: 2010.05.17/outbox.cif.g08.bks.cpg/sg57_4_cif.got.tgz:7230.got - 2010.06.03 13:58:18.
