data_PCOD9435323
_publ_section_title
;
Structure prediction by ZEFSAII (Michael W. Deem and Ramdas Pophale) SiO2 
 PCOD9435323
Probable space group: P B C M
;
_chemical_formula_sum "Si O2"
_cell_formula_units_Z 64
_cell_length_a 22.300056
_cell_length_b 19.507673
_cell_length_c 8.944222
_cell_angle_alpha 90.000000
_cell_angle_beta 90.000000
_cell_angle_gamma 90.000000
_cell_volume 3890.935135
_symmetry_space_group_name_H-M "P B C M"
_symmetry_group_IT_number 57
_symmetry_cell_setting 'orthorhombic'
loop_
_space_group_symop_operation_xyz
x,y,z
-x,-y,1/2+z
x,1/2-y,-z
-x,1/2+y,1/2-z
-x,-y,-z
x,y,1/2-z
-x,1/2+y,z
x,1/2-y,1/2+z
loop_
_atom_site_type_symbol
_atom_site_label
_atom_site_fract_x
_atom_site_fract_y
_atom_site_fract_z
Si Si1 0.019984 0.608053 0.421638
Si Si2 0.192772 0.965664 0.428564
Si Si3 0.379742 0.678452 0.071159
Si Si4 0.489405 0.318725 0.073704
Si Si5 0.669671 0.456194 0.071098
Si Si6 0.440735 0.033063 0.926393
Si Si7 0.869152 0.177322 0.571035
Si Si8 0.913391 0.540222 0.578661
O O1 0.016418 0.631043 0.250000
O O2 0.954903 0.594224 0.491783
O O3 0.064199 0.656820 0.514556
O O4 0.051484 0.532911 0.422982
O O5 0.183705 0.969159 0.250000
O O6 0.262354 0.978059 0.461173
O O7 0.172315 0.888150 0.473117
O O8 0.149521 0.020900 0.504367
O O9 0.379326 0.680804 0.250000
O O10 0.359170 0.750000 0.000000
O O11 0.447677 0.667921 0.010696
O O12 0.341314 0.616552 0.007193
O O13 0.502026 0.307852 0.250000
O O14 0.448521 0.385334 0.059086
O O15 0.463763 0.250000 0.000000
O O16 0.662510 0.449395 0.250000
O O17 0.618408 0.505521 0.006771
O O18 0.439163 0.015403 0.750000
O O19 0.500000 0.000000 0.000000
O O20 0.851233 0.250000 0.500000
O O21 0.868251 0.182895 0.750000
O O22 0.906452 0.561254 0.750000
#
# Coordination Sequence:
#
# PCOD9435323 Si02
#       8
#     8   8   8   8   8   8   8   8
#     4   9  16  27  45  69  95 124 158 197 242 286
#     4   9  20  35  49  67  96 134 171 210 251 300
#     4  11  21  33  50  70  97 131 169 210 257 309
#     4  10  20  34  53  76 101 127 161 203 255 314
#     4  11  22  36  52  73 102 136 178 220 263 316
#     4  11  22  35  54  78 104 134 168 214 268 321
#     4  10  19  32  48  69  99 134 173 210 247 290
#     4   9  16  27  46  70  94 121 156 200 244 287
#
# _framework density 16.448488000000001
#
# number of rings (size 3 to 8) (size 9 to 14) (size 15 to 20)
#    0.000    2.000    1.250    4.125    0.000    6.500 
#    0.000    1.250    0.000    0.000    0.000    0.875 
#    0.000    4.000    0.000    0.000    0.000    0.000 
#
# Total GULP energy -357057.219320 kJ/mol
# GULP energy per Si atom -5579.019052 kJ/mol
# Density = 1.641105 g / cm^3
# Si number density = 16.448488 Si / 1000 Ang^3
#
#
#
# Elastic Constant Matrix: (Units=GPa)
#
#
# Indices 1 2 3 4 5 6 
#
# 1 105.4640 31.6993 60.9655 0.0000 0.0000 0.0000
# 2 31.6993 33.8868 30.2214 0.0000 0.0000 0.0000
# 3 60.9655 30.2214 102.7261 0.0000 0.0000 0.0000
# 4 0.0000 0.0000 0.0000 27.3321 0.0000 0.0000
# 5 0.0000 0.0000 0.0000 0.0000 24.5100 0.0000
# 6 0.0000 0.0000 0.0000 0.0000 0.0000 15.5031
#
#
#
# Elastic Compliance Matrix: (Units=1/GPa)
#
#
# Indices 1 2 3 4 5 6 
#
# 1 0.016206 -0.008924 -0.006993 0.000000 0.000000 0.000000
# 2 -0.008924 0.044920 -0.007919 0.000000 0.000000 0.000000
# 3 -0.006993 -0.007919 0.016214 0.000000 0.000000 0.000000
# 4 0.000000 0.000000 0.000000 0.036587 0.000000 0.000000
# 5 0.000000 0.000000 0.000000 0.000000 0.040800 0.000000
# 6 0.000000 0.000000 0.000000 0.000000 0.000000 0.064503
#
#
# Mechanical properties :
#
#
# Convention : Reuss Voigt Hill
#
# Bulk Modulus (GPa) = 33.70450 54.20547 43.95499
# Shear Modulus (GPa) = 18.06404 21.41509 19.73956
#
# Velocity S-wave (km/s) = 3.31753 3.61217 3.46798
# Velocity P-wave (km/s) = 5.93381 7.10093 6.54345
#
# Compressibility (1/GPa) = 0.02966963
#
# Stress axis : x y z
#
# Youngs Moduli (GPa) = 61.70374 22.26157 61.67328
#
# Poissons Ratio (x) = 0.19866 0.43127
# Poissons Ratio (y) = 0.55064 0.48840
# Poissons Ratio (z) = 0.43148 0.17629
#
# Static dielectric constant tensor:
#      x y z
#    x 1.546340 0.000000 0.000000 
#    y 0.000000 1.556780 0.000000 
#    z 0.000000 0.000000 1.554310 
# 
# From -- ./inp_files/7177.got.cif
#   From: 2010.05.17/outbox.cif.g08.bks.cpg/sg57_4_cif.got.tgz:7177.got - 2010.06.03 13:58:18.
