data_PCOD9435022
_publ_section_title
;
Structure prediction by ZEFSAII (Michael W. Deem and Ramdas Pophale) SiO2 
 PCOD9435022
Probable space group: P B C M
;
_chemical_formula_sum "Si O2"
_cell_formula_units_Z 64
_cell_length_a 30.937086
_cell_length_b 14.132034
_cell_length_c 8.833284
_cell_angle_alpha 90.000000
_cell_angle_beta 90.000000
_cell_angle_gamma 90.000000
_cell_volume 3861.946667
_symmetry_space_group_name_H-M "P B C M"
_symmetry_group_IT_number 57
_symmetry_cell_setting 'orthorhombic'
loop_
_space_group_symop_operation_xyz
x,y,z
-x,-y,1/2+z
x,1/2-y,-z
-x,1/2+y,1/2-z
-x,-y,-z
x,y,1/2-z
-x,1/2+y,z
x,1/2-y,1/2+z
loop_
_atom_site_type_symbol
_atom_site_label
_atom_site_fract_x
_atom_site_fract_y
_atom_site_fract_z
Si Si1 0.895392 0.850385 0.575550
Si Si2 0.354353 0.149096 0.932350
Si Si3 0.433184 0.022631 0.567861
Si Si4 0.119581 0.855125 0.066600
Si Si5 0.952440 0.007381 0.430289
Si Si6 0.517172 0.146439 0.569456
Si Si7 0.813144 0.512535 0.423521
Si Si8 0.254270 0.351682 0.430551
O O1 0.888427 0.750000 0.500000
O O2 0.910263 0.842499 0.750000
O O3 0.928695 0.910546 0.476729
O O4 0.851216 0.909527 0.576869
O O5 0.356050 0.155414 0.750000
O O6 0.387638 0.067696 0.979420
O O7 0.304408 0.132994 0.976110
O O8 0.367939 0.250000 0.000000
O O9 0.433364 0.011196 0.750000
O O10 0.471378 0.096943 0.528794
O O11 0.446171 0.924139 0.492358
O O12 0.117486 0.854503 0.250000
O O13 0.162016 0.917615 0.023049
O O14 0.121567 0.750000 0.000000
O O15 0.077465 0.910315 0.003297
O O16 0.954140 0.019550 0.250000
O O17 0.000000 0.000000 0.500000
O O18 0.520095 0.250000 0.500000
O O19 0.519494 0.348094 0.250000
O O20 0.798997 0.497534 0.250000
O O21 0.774818 0.560620 0.516329
O O22 0.240383 0.250000 0.500000
O O23 0.251944 0.343198 0.250000
#
# Coordination Sequence:
#
# PCOD9435022 Si02
#       8
#     8   8   8   8   8   8   8   8
#     4  10  20  34  51  74 101 130 163 198 238 285
#     4   9  18  31  47  70  99 131 163 199 242 291
#     4   9  18  32  48  67  95 128 163 203 246 293
#     4  10  21  38  58  80 103 131 168 209 251 295
#     4  11  22  37  55  76 103 134 167 204 244 288
#     4  10  19  30  47  70  94 124 162 204 249 295
#     4   9  19  34  52  74 102 130 160 200 242 286
#     4  10  19  30  48  74 103 133 165 198 241 295
#
# _framework density 16.571953000000001
#
# number of rings (size 3 to 8) (size 9 to 14) (size 15 to 20)
#    0.000    2.250    0.000    4.125    0.000    6.000 
#    0.000    2.500    0.000    0.750    0.000    1.750 
#    0.000    0.000    0.000    0.000    0.000    0.000 
#
# Total GULP energy -356978.198388 kJ/mol
# GULP energy per Si atom -5577.784350 kJ/mol
# Density = 1.653423 g / cm^3
# Si number density = 16.571953 Si / 1000 Ang^3
#
#
#
# Elastic Constant Matrix: (Units=GPa)
#
#
# Indices 1 2 3 4 5 6 
#
# 1 70.2521 43.1430 32.4436 0.0000 0.0000 0.0000
# 2 43.1430 133.7853 42.5813 0.0000 0.0000 0.0000
# 3 32.4436 42.5813 63.2685 0.0000 0.0000 0.0000
# 4 0.0000 0.0000 0.0000 29.6738 0.0000 0.0000
# 5 0.0000 0.0000 0.0000 0.0000 22.7151 0.0000
# 6 0.0000 0.0000 0.0000 0.0000 0.0000 15.5534
#
#
#
# Elastic Compliance Matrix: (Units=1/GPa)
#
#
# Indices 1 2 3 4 5 6 
#
# 1 0.020285 -0.004112 -0.007635 0.000000 0.000000 0.000000
# 2 -0.004112 0.010346 -0.004854 0.000000 0.000000 0.000000
# 3 -0.007635 -0.004854 0.022988 0.000000 0.000000 0.000000
# 4 0.000000 0.000000 0.000000 0.033700 0.000000 0.000000
# 5 0.000000 0.000000 0.000000 0.000000 0.044023 0.000000
# 6 0.000000 0.000000 0.000000 0.000000 0.000000 0.064295
#
#
# Mechanical properties :
#
#
# Convention : Reuss Voigt Hill
#
# Bulk Modulus (GPa) = 48.97897 55.96019 52.46958
# Shear Modulus (GPa) = 21.21837 23.53100 22.37468
#
# Velocity S-wave (km/s) = 3.58212 3.77228 3.67843
# Velocity P-wave (km/s) = 6.83581 7.26738 7.05489
#
# Compressibility (1/GPa) = 0.02041693
#
# Stress axis : x y z
#
# Youngs Moduli (GPa) = 49.29650 96.65906 43.50093
#
# Poissons Ratio (x) = 0.39742 0.33213
# Poissons Ratio (y) = 0.20268 0.21118
# Poissons Ratio (z) = 0.37638 0.46923
#
# Static dielectric constant tensor:
#      x y z
#    x 1.561710 0.000000 0.000000 
#    y 0.000000 1.544260 0.000000 
#    z 0.000000 0.000000 1.561430 
# 
# From -- ./inp_files/10303.got.cif
#   From: 2010.05.17/outbox.cif.g08.bks.cpg/sg57_6_cif.got.tgz:10303.got - 2010.06.03 13:58:18.
