data_PCOD9435509
_publ_section_title
;
Structure prediction by ZEFSAII (Michael W. Deem and Ramdas Pophale) SiO2 
 PCOD9435509
Probable space group: P B C M
;
_chemical_formula_sum "Si O2"
_cell_formula_units_Z 56
_cell_length_a 5.643458
_cell_length_b 26.453022
_cell_length_c 15.820562
_cell_angle_alpha 90.000000
_cell_angle_beta 90.000000
_cell_angle_gamma 90.000000
_cell_volume 2361.796624
_symmetry_space_group_name_H-M "P B C M"
_symmetry_group_IT_number 57
_symmetry_cell_setting 'orthorhombic'
loop_
_space_group_symop_operation_xyz
x,y,z
-x,-y,1/2+z
x,1/2-y,-z
-x,1/2+y,1/2-z
-x,-y,-z
x,y,1/2-z
-x,1/2+y,z
x,1/2-y,1/2+z
loop_
_atom_site_type_symbol
_atom_site_label
_atom_site_fract_x
_atom_site_fract_y
_atom_site_fract_z
Si Si1 0.329321 0.309805 0.340102
Si Si2 0.936159 0.261964 0.417579
Si Si3 0.945869 0.557120 0.750000
Si Si4 0.002962 0.573582 0.936329
Si Si5 0.553953 0.505268 0.250000
Si Si6 0.599313 0.151887 0.512298
Si Si7 0.433449 0.802257 0.843800
Si Si8 0.311905 0.475064 0.564280
O O1 0.407159 0.329697 0.250000
O O2 0.054751 0.298495 0.350597
O O3 0.406565 0.345380 0.415207
O O4 0.431785 0.251889 0.347012
O O5 0.099686 0.250000 0.500000
O O6 0.743526 0.296533 0.465163
O O7 0.835541 0.214895 0.365985
O O8 0.934748 0.586569 0.839510
O O9 0.706635 0.521656 0.750000
O O10 0.211920 0.531625 0.750000
O O11 0.216219 0.607340 0.972548
O O12 0.104934 0.516668 0.924497
O O13 0.803263 0.569775 0.009005
O O14 0.581803 0.533519 0.158505
O O15 0.501669 0.159923 0.418547
O O16 0.457202 0.822862 0.750000
O O17 0.500000 0.500000 0.500000
#
# Coordination Sequence:
#
# PCOD9435509 Si02
#       8
#     8   8   4   8   4   8   8   8
#     4  10  19  32  52  79 108 144 188 229 276 337
#     4   9  17  32  53  76 103 145 184 227 276 332
#     4  10  20  38  62  90 120 157 188 246 301 362
#     4  10  22  37  57  85 117 151 191 242 299 361
#     4  10  20  38  66  92 116 149 204 242 295 358
#     4  10  21  35  51  81 114 142 181 234 285 338
#     4   9  18  34  55  73 106 148 189 230 277 335
#     4  10  20  39  62  83 111 153 195 237 295 357
#
# _framework density 23.710761000000002
#
# number of rings (size 3 to 8) (size 9 to 14) (size 15 to 20)
#    0.000    2.286    1.429    2.571    1.000    1.714 
#    1.286    0.000    0.000    0.000    0.000    0.000 
#    0.000    0.000    0.000    0.000    0.000    0.000 
#
# Total GULP energy -312155.350558 kJ/mol
# GULP energy per Si atom -5574.202689 kJ/mol
# Density = 2.365679 g / cm^3
# Si number density = 23.710761 Si / 1000 Ang^3
#
#
#
# Elastic Constant Matrix: (Units=GPa)
#
#
# Indices 1 2 3 4 5 6 
#
# 1 49.2356 4.7118 30.1152 0.0000 0.0000 0.0000
# 2 4.7118 59.0269 42.9156 0.0000 0.0000 0.0000
# 3 30.1152 42.9156 241.9497 0.0000 0.0000 0.0000
# 4 0.0000 0.0000 0.0000 30.9242 0.0000 0.0000
# 5 0.0000 0.0000 0.0000 0.0000 26.4787 0.0000
# 6 0.0000 0.0000 0.0000 0.0000 0.0000 41.7899
#
#
#
# Elastic Compliance Matrix: (Units=1/GPa)
#
#
# Indices 1 2 3 4 5 6 
#
# 1 0.021988 0.000269 -0.002785 0.000000 0.000000 0.000000
# 2 0.000269 0.019453 -0.003484 0.000000 0.000000 0.000000
# 3 -0.002785 -0.003484 0.005098 0.000000 0.000000 0.000000
# 4 0.000000 0.000000 0.000000 0.032337 0.000000 0.000000
# 5 0.000000 0.000000 0.000000 0.000000 0.037766 0.000000
# 6 0.000000 0.000000 0.000000 0.000000 0.000000 0.023929
#
#
# Mechanical properties :
#
#
# Convention : Reuss Voigt Hill
#
# Bulk Modulus (GPa) = 28.95184 56.18860 42.57022
# Shear Modulus (GPa) = 30.47240 38.00321 34.23780
#
# Velocity S-wave (km/s) = 3.58882 4.00782 3.80409
# Velocity P-wave (km/s) = 5.42308 6.72055 6.10637
#
# Compressibility (1/GPa) = 0.03454012
#
# Stress axis : x y z
#
# Youngs Moduli (GPa) = 45.47950 51.40603 196.16885
#
# Poissons Ratio (x) = -0.01385 0.54625
# Poissons Ratio (y) = -0.01225 0.68345
# Poissons Ratio (z) = 0.12664 0.17910
#
# Static dielectric constant tensor:
#      x y z
#    x 2.062470 0.000000 0.000000 
#    y 0.000000 1.940740 0.000000 
#    z 0.000000 0.000000 2.041520 
# 
# From -- ./inp_files/15299.got.cif
#   From: 2010.05.17/outbox.cif.g08.bks.cpg/sg57_8_cif.got.tgz:15299.got - 2010.06.03 13:58:18.
