data_PCOD9435705
_publ_section_title
;
Structure prediction by ZEFSAII (Michael W. Deem and Ramdas Pophale) SiO2 
 PCOD9435705
Probable space group: P B C M
;
_chemical_formula_sum "Si O2"
_cell_formula_units_Z 48
_cell_length_a 9.294796
_cell_length_b 16.710047
_cell_length_c 16.702823
_cell_angle_alpha 90.000000
_cell_angle_beta 90.000000
_cell_angle_gamma 90.000000
_cell_volume 2594.223641
_symmetry_space_group_name_H-M "P B C M"
_symmetry_group_IT_number 57
_symmetry_cell_setting 'orthorhombic'
loop_
_space_group_symop_operation_xyz
x,y,z
-x,-y,1/2+z
x,1/2-y,-z
-x,1/2+y,1/2-z
-x,-y,-z
x,y,1/2-z
-x,1/2+y,z
x,1/2-y,1/2+z
loop_
_atom_site_type_symbol
_atom_site_label
_atom_site_fract_x
_atom_site_fract_y
_atom_site_fract_z
Si Si1 0.214584 0.084496 0.098907
Si Si2 0.376996 0.930941 0.156080
Si Si3 0.941534 0.490711 0.842021
Si Si4 0.832790 0.758585 0.404572
Si Si5 0.312060 0.077355 0.914653
Si Si6 0.895466 0.162036 0.842262
O O1 0.225918 0.175254 0.129598
O O2 0.297292 0.016566 0.148260
O O3 0.273008 0.077837 0.008504
O O4 0.044525 0.063683 0.103730
O O5 0.408570 0.917113 0.250000
O O6 0.521321 0.931536 0.104897
O O7 0.262437 0.863318 0.127693
O O8 0.941765 0.462569 0.750000
O O9 0.782622 0.507244 0.874511
O O10 0.017582 0.577970 0.843721
O O11 0.820754 0.750000 0.500000
O O12 0.742633 0.836948 0.380433
O O13 0.999824 0.775654 0.384904
O O14 0.880659 0.186768 0.750000
#
# Coordination Sequence:
#
# PCOD9435705 Si02
#       6
#     8   8   8   8   8   8
#     4  10  19  33  53  78 105 135 174 222 262 301
#     4  10  20  35  53  76 104 138 176 215 259 314
#     4   9  17  31  51  75  99 131 173 214 251 299
#     4   9  19  34  52  76 102 132 172 214 259 308
#     4  10  19  34  54  76 105 141 176 210 259 320
#     4   8  16  31  51  71  96 131 169 203 249 308
#
# _framework density 18.502645000000001
#
# number of rings (size 3 to 8) (size 9 to 14) (size 15 to 20)
#    0.000    2.667    0.000    3.000    0.000    3.333 
#    0.000    4.167    0.000    2.000    0.000    0.000 
#    0.000    0.000    0.000    0.000    0.000    0.000 
#
# Total GULP energy -267370.273328 kJ/mol
# GULP energy per Si atom -5570.214028 kJ/mol
# Density = 1.846053 g / cm^3
# Si number density = 18.502645 Si / 1000 Ang^3
#
#
#
# Elastic Constant Matrix: (Units=GPa)
#
#
# Indices 1 2 3 4 5 6 
#
# 1 101.1133 18.8988 8.6283 0.0000 0.0000 0.0000
# 2 18.8988 62.3645 5.1371 0.0000 0.0000 0.0000
# 3 8.6283 5.1371 24.5193 0.0000 0.0000 0.0000
# 4 0.0000 0.0000 0.0000 -9.5320 0.0000 0.0000
# 5 0.0000 0.0000 0.0000 0.0000 4.8590 0.0000
# 6 0.0000 0.0000 0.0000 0.0000 0.0000 19.3794
#
#
#
# Elastic Compliance Matrix: (Units=1/GPa)
#
#
# Indices 1 2 3 4 5 6 
#
# 1 0.010717 -0.002989 -0.003145 0.000000 0.000000 0.000000
# 2 -0.002989 0.017150 -0.002541 0.000000 0.000000 0.000000
# 3 -0.003145 -0.002541 0.042423 0.000000 0.000000 0.000000
# 4 0.000000 0.000000 0.000000 -0.104910 0.000000 0.000000
# 5 0.000000 0.000000 0.000000 0.000000 0.205802 0.000000
# 6 0.000000 0.000000 0.000000 0.000000 0.000000 0.051601
#
#
# Mechanical properties :
#
#
# Convention : Reuss Voigt Hill
#
# Bulk Modulus (GPa) = 18.88938 28.14728 23.51833
# Shear Modulus (GPa) = 19.39643 13.29683 16.34663
#
# Velocity S-wave (km/s) = 3.24127 2.68366 2.97556
# Velocity P-wave (km/s) = 4.92330 4.98481 4.95415
#
# Compressibility (1/GPa) = 0.05293980
#
# Stress axis : x y z
#
# Youngs Moduli (GPa) = 93.31097 58.30992 23.57193
#
# Poissons Ratio (x) = 0.17426 0.07414
# Poissons Ratio (y) = 0.27886 0.05991
# Poissons Ratio (z) = 0.29347 0.14819
#
# Static dielectric constant tensor:
#      x y z
#    x 1.643000 0.000000 0.000000 
#    y 0.000000 1.667880 0.000000 
#    z 0.000000 0.000000 1.644640 
# 
# From -- ./inp_files/16317.got.cif
#   From: 2010.05.17/outbox.cif.g08.bks.cpg/sg57_9_cif.got.tgz:16317.got - 2010.06.03 13:58:18.
