data_PCOD9435591
_publ_section_title
;
Structure prediction by ZEFSAII (Michael W. Deem and Ramdas Pophale) SiO2 
 PCOD9435591
Probable space group: P B C M
;
_chemical_formula_sum "Si O2"
_cell_formula_units_Z 48
_cell_length_a 15.336978
_cell_length_b 8.783028
_cell_length_c 17.239040
_cell_angle_alpha 90.000000
_cell_angle_beta 90.000000
_cell_angle_gamma 90.000000
_cell_volume 2322.186731
_symmetry_space_group_name_H-M "P B C M"
_symmetry_group_IT_number 57
_symmetry_cell_setting 'orthorhombic'
loop_
_space_group_symop_operation_xyz
x,y,z
-x,-y,1/2+z
x,1/2-y,-z
-x,1/2+y,1/2-z
-x,-y,-z
x,y,1/2-z
-x,1/2+y,z
x,1/2-y,1/2+z
loop_
_atom_site_type_symbol
_atom_site_label
_atom_site_fract_x
_atom_site_fract_y
_atom_site_fract_z
Si Si1 0.554525 0.727925 0.842720
Si Si2 0.429640 0.535042 0.932232
Si Si3 0.300700 0.091232 0.545848
Si Si4 0.842603 0.360460 0.569662
Si Si5 0.079938 0.881592 0.338212
Si Si6 0.041134 0.169899 0.075000
O O1 0.552317 0.709041 0.750000
O O2 0.464303 0.680218 0.885687
O O3 0.571533 0.900243 0.869178
O O4 0.629920 0.628465 0.885581
O O5 0.500000 0.500000 0.000000
O O6 0.341839 0.523721 0.981735
O O7 0.287252 0.250000 0.500000
O O8 0.215878 0.007527 0.577746
O O9 0.814503 0.250000 0.500000
O O10 0.849487 0.250979 0.356259
O O11 0.944709 0.395281 0.552116
O O12 0.076553 0.926112 0.250000
O O13 0.989426 0.798927 0.363706
O O14 0.094257 0.032458 0.388769
O O15 0.079638 0.250000 0.000000
#
# Coordination Sequence:
#
# PCOD9435591 Si02
#       6
#     8   8   8   8   8   8
#     4  10  19  32  55  89 118 144 186 239 289 336
#     4   9  18  33  55  81 111 146 191 231 273 340
#     4   9  19  37  55  77 112 160 197 235 284 347
#     4   9  21  36  54  82 110 149 198 239 283 342
#     4  10  19  35  58  87 116 143 183 241 299 345
#     4   9  19  35  58  87 114 148 192 240 286 344
#
# _framework density 20.670172000000001
#
# number of rings (size 3 to 8) (size 9 to 14) (size 15 to 20)
#    1.000    1.667    0.000    3.000    0.000    3.333 
#    3.000    0.000    0.000    5.000    0.000    0.000 
#    0.000    0.000    0.000    0.000    0.000    0.000 
#
# Total GULP energy -267426.819660 kJ/mol
# GULP energy per Si atom -5571.392076 kJ/mol
# Density = 2.062313 g / cm^3
# Si number density = 20.670172 Si / 1000 Ang^3
#
#
#
# Elastic Constant Matrix: (Units=GPa)
#
#
# Indices 1 2 3 4 5 6 
#
# 1 50.6250 22.7438 13.2126 0.0000 0.0000 0.0000
# 2 22.7438 64.3304 33.6475 0.0000 0.0000 0.0000
# 3 13.2126 33.6475 131.9686 0.0000 0.0000 0.0000
# 4 0.0000 0.0000 0.0000 28.9260 0.0000 0.0000
# 5 0.0000 0.0000 0.0000 0.0000 7.5821 0.0000
# 6 0.0000 0.0000 0.0000 0.0000 0.0000 15.2865
#
#
#
# Elastic Compliance Matrix: (Units=1/GPa)
#
#
# Indices 1 2 3 4 5 6 
#
# 1 0.023491 -0.008164 -0.000270 0.000000 0.000000 0.000000
# 2 -0.008164 0.020774 -0.004479 0.000000 0.000000 0.000000
# 3 -0.000270 -0.004479 0.008747 0.000000 0.000000 0.000000
# 4 0.000000 0.000000 0.000000 0.034571 0.000000 0.000000
# 5 0.000000 0.000000 0.000000 0.000000 0.131889 0.000000
# 6 0.000000 0.000000 0.000000 0.000000 0.000000 0.065417
#
#
# Mechanical properties :
#
#
# Convention : Reuss Voigt Hill
#
# Bulk Modulus (GPa) = 36.78520 42.90352 39.84436
# Shear Modulus (GPa) = 15.63584 22.18027 18.90806
#
# Velocity S-wave (km/s) = 2.75334 3.27931 3.02777
# Velocity P-wave (km/s) = 5.28609 5.92788 5.61616
#
# Compressibility (1/GPa) = 0.02718485
#
# Stress axis : x y z
#
# Youngs Moduli (GPa) = 42.56888 48.13732 114.32882
#
# Poissons Ratio (x) = 0.39299 0.03092
# Poissons Ratio (y) = 0.34753 0.51211
# Poissons Ratio (z) = 0.01151 0.21562
#
# Static dielectric constant tensor:
#      x y z
#    x 1.791640 0.000000 0.000000 
#    y 0.000000 1.780260 0.000000 
#    z 0.000000 0.000000 1.723600 
# 
# From -- ./inp_files/22829.got.cif
#   From: 2010.05.17/outbox.cif.g08.bks.cpg/sg57_12_cif.got.tgz:22829.got - 2010.06.03 13:58:18.
