data_PCOD9435193
_publ_section_title
;
Structure prediction by ZEFSAII (Michael W. Deem and Ramdas Pophale) SiO2 
 PCOD9435193
Probable space group: P B C M
;
_chemical_formula_sum "Si O2"
_cell_formula_units_Z 64
_cell_length_a 27.335196
_cell_length_b 14.192640
_cell_length_c 8.966334
_cell_angle_alpha 90.000000
_cell_angle_beta 90.000000
_cell_angle_gamma 90.000000
_cell_volume 3478.566351
_symmetry_space_group_name_H-M "P B C M"
_symmetry_group_IT_number 57
_symmetry_cell_setting 'orthorhombic'
loop_
_space_group_symop_operation_xyz
x,y,z
-x,-y,1/2+z
x,1/2-y,-z
-x,1/2+y,1/2-z
-x,-y,-z
x,y,1/2-z
-x,1/2+y,z
x,1/2-y,1/2+z
loop_
_atom_site_type_symbol
_atom_site_label
_atom_site_fract_x
_atom_site_fract_y
_atom_site_fract_z
Si Si1 0.391592 0.049973 0.429600
Si Si2 0.479662 0.348851 0.071641
Si Si3 0.121761 0.155051 0.920634
Si Si4 0.051169 0.976761 0.922401
Si Si5 0.293266 0.149427 0.430011
Si Si6 0.405885 0.653848 0.572375
Si Si7 0.202426 0.471148 0.571010
Si Si8 0.864275 0.353766 0.069680
O O1 0.397472 0.054808 0.250000
O O2 0.442701 0.075890 0.504769
O O3 0.348138 0.119631 0.474499
O O4 0.378679 0.942167 0.468193
O O5 0.476085 0.346601 0.250000
O O6 0.536766 0.360514 0.031267
O O7 0.463987 0.250000 0.000000
O O8 0.135481 0.175093 0.750000
O O9 0.080755 0.074819 0.922208
O O10 0.105373 0.250000 0.000000
O O11 0.166936 0.109055 0.007103
O O12 0.044497 0.946651 0.750000
O O13 0.085675 0.901808 0.008239
O O14 0.000000 0.000000 0.000000
O O15 0.279708 0.250000 0.500000
O O16 0.291942 0.157737 0.250000
O O17 0.256373 0.064498 0.472438
O O18 0.388066 0.750000 0.500000
O O19 0.404175 0.664947 0.750000
O O20 0.200196 0.470413 0.750000
O O21 0.179375 0.572405 0.525646
O O22 0.866013 0.348002 0.250000
O O23 0.857947 0.250000 0.000000
#
# Coordination Sequence:
#
# PCOD9435193 Si02
#       8
#     8   8   8   8   8   8   8   8
#     4  10  20  34  51  73 103 135 168 209 258 310
#     4  10  19  31  49  73 100 131 169 210 254 306
#     4  10  20  33  52  77 103 133 169 210 253 299
#     4  10  21  36  53  77 110 145 181 219 260 307
#     4  10  21  36  54  77 105 135 166 205 257 315
#     4   9  19  34  51  71  97 132 171 212 255 301
#     4   9  19  36  56  77 102 134 171 211 256 306
#     4  10  20  36  58  81 107 141 181 224 269 314
#
# _framework density 18.398384
#
# number of rings (size 3 to 8) (size 9 to 14) (size 15 to 20)
#    0.000    2.250    0.000    2.625    0.000    6.500 
#    0.000    1.875    0.000    0.000    0.000    0.000 
#    0.000    0.000    0.000    0.000    0.000    0.000 
#
# Total GULP energy -356901.754953 kJ/mol
# GULP energy per Si atom -5576.589921 kJ/mol
# Density = 1.835651 g / cm^3
# Si number density = 18.398384 Si / 1000 Ang^3
#
#
#
# Elastic Constant Matrix: (Units=GPa)
#
#
# Indices 1 2 3 4 5 6 
#
# 1 39.0420 18.9516 14.9694 0.0000 0.0000 0.0000
# 2 18.9516 121.7967 34.6925 0.0000 0.0000 0.0000
# 3 14.9694 34.6925 28.0540 0.0000 0.0000 0.0000
# 4 0.0000 0.0000 0.0000 32.5954 0.0000 0.0000
# 5 0.0000 0.0000 0.0000 0.0000 15.6992 0.0000
# 6 0.0000 0.0000 0.0000 0.0000 0.0000 11.4557
#
#
#
# Elastic Compliance Matrix: (Units=1/GPa)
#
#
# Indices 1 2 3 4 5 6 
#
# 1 0.032204 -0.000180 -0.016962 0.000000 0.000000 0.000000
# 2 -0.000180 0.012676 -0.015580 0.000000 0.000000 0.000000
# 3 -0.016962 -0.015580 0.063963 0.000000 0.000000 0.000000
# 4 0.000000 0.000000 0.000000 0.030679 0.000000 0.000000
# 5 0.000000 0.000000 0.000000 0.000000 0.063698 0.000000
# 6 0.000000 0.000000 0.000000 0.000000 0.000000 0.087292
#
#
# Mechanical properties :
#
#
# Convention : Reuss Voigt Hill
#
# Bulk Modulus (GPa) = 23.04118 36.23550 29.63834
# Shear Modulus (GPa) = 13.49815 19.96869 16.73342
#
# Velocity S-wave (km/s) = 2.71155 3.29804 3.01907
# Velocity P-wave (km/s) = 4.72800 5.85153 5.31951
#
# Compressibility (1/GPa) = 0.04340056
#
# Stress axis : x y z
#
# Youngs Moduli (GPa) = 31.05203 78.88863 15.63412
#
# Poissons Ratio (x) = 0.01417 0.26518
# Poissons Ratio (y) = 0.00558 0.24358
# Poissons Ratio (z) = 0.52669 1.22907
#
# Static dielectric constant tensor:
#      x y z
#    x 1.634700 0.000000 0.000000 
#    y 0.000000 1.661830 0.000000 
#    z 0.000000 0.000000 1.622070 
# 
# From -- ./inp_files/10314.got.cif
#   From: 2010.05.17/outbox.cif.g08.bks.cpg/sg57_6_cif.got.tgz:10314.got - 2010.06.03 13:58:18.
