data_PCOD9435506
_publ_section_title
;
Structure prediction by ZEFSAII (Michael W. Deem and Ramdas Pophale) SiO2 
 PCOD9435506
Probable space group: P B C M
;
_chemical_formula_sum "Si O2"
_cell_formula_units_Z 56
_cell_length_a 22.953541
_cell_length_b 14.778479
_cell_length_c 8.521376
_cell_angle_alpha 90.000000
_cell_angle_beta 90.000000
_cell_angle_gamma 90.000000
_cell_volume 2890.607734
_symmetry_space_group_name_H-M "P B C M"
_symmetry_group_IT_number 57
_symmetry_cell_setting 'orthorhombic'
loop_
_space_group_symop_operation_xyz
x,y,z
-x,-y,1/2+z
x,1/2-y,-z
-x,1/2+y,1/2-z
-x,-y,-z
x,y,1/2-z
-x,1/2+y,z
x,1/2-y,1/2+z
loop_
_atom_site_type_symbol
_atom_site_label
_atom_site_fract_x
_atom_site_fract_y
_atom_site_fract_z
Si Si1 0.472561 0.653070 0.936893
Si Si2 0.369075 0.964501 0.937797
Si Si3 0.984699 0.400346 0.938482
Si Si4 0.104362 0.156390 0.936621
Si Si5 0.139425 0.954758 0.941095
Si Si6 0.744643 0.147884 0.060289
Si Si7 0.396260 0.152015 0.436610
O O1 0.478845 0.656481 0.750000
O O2 0.450213 0.750000 0.000000
O O3 0.427349 0.576549 0.986542
O O4 0.536159 0.640156 0.011873
O O5 0.374814 0.960625 0.750000
O O6 0.314309 0.903587 0.987282
O O7 0.362128 0.067848 0.990617
O O8 0.989302 0.394146 0.750000
O O9 0.916727 0.392941 0.983860
O O10 0.000000 0.500000 0.000000
O O11 0.036163 0.343972 0.015762
O O12 0.108791 0.156678 0.750000
O O13 0.130231 0.059406 0.993933
O O14 0.130884 0.250000 0.000000
O O15 0.139635 0.958228 0.750000
O O16 0.198975 0.908764 0.993966
O O17 0.745756 0.149580 0.250000
O O18 0.745841 0.250000 0.000000
O O19 0.377553 0.250000 0.500000
O O20 0.392788 0.150650 0.250000
#
# Coordination Sequence:
#
# PCOD9435506 Si02
#       7
#     8   8   8   8   8   8   8
#     4  11  21  35  56  84 117 149 184 225 272 325
#     4  11  22  37  57  81 111 147 184 225 273 323
#     4   9  16  29  50  75 106 139 176 218 266 318
#     4  10  19  32  52  78 110 143 180 222 271 327
#     4   8  17  35  55  76 105 143 180 221 270 322
#     4  10  22  40  60  80 106 140 181 226 272 321
#     4  11  22  38  59  84 114 145 181 223 270 326
#
# _framework density 19.373089
#
# number of rings (size 3 to 8) (size 9 to 14) (size 15 to 20)
#    0.000    2.000    0.000    6.429    0.000    2.857 
#    0.000    6.429    0.000    1.714    0.000    0.000 
#    0.000    0.000    0.000    0.000    0.000    0.000 
#
# Total GULP energy -312508.247771 kJ/mol
# GULP energy per Si atom -5580.504424 kJ/mol
# Density = 1.932900 g / cm^3
# Si number density = 19.373089 Si / 1000 Ang^3
#
#
#
# Elastic Constant Matrix: (Units=GPa)
#
#
# Indices 1 2 3 4 5 6 
#
# 1 48.1266 41.6348 1.9586 0.0000 0.0000 0.0000
# 2 41.6348 141.9984 0.8732 0.0000 0.0000 0.0000
# 3 1.9586 0.8732 39.0103 0.0000 0.0000 0.0000
# 4 0.0000 0.0000 0.0000 33.6585 0.0000 0.0000
# 5 0.0000 0.0000 0.0000 0.0000 15.1730 0.0000
# 6 0.0000 0.0000 0.0000 0.0000 0.0000 26.9616
#
#
#
# Elastic Compliance Matrix: (Units=1/GPa)
#
#
# Indices 1 2 3 4 5 6 
#
# 1 0.027898 -0.008172 -0.001218 0.000000 0.000000 0.000000
# 2 -0.008172 0.009437 0.000199 0.000000 0.000000 0.000000
# 3 -0.001218 0.000199 0.025691 0.000000 0.000000 0.000000
# 4 0.000000 0.000000 0.000000 0.029710 0.000000 0.000000
# 5 0.000000 0.000000 0.000000 0.000000 0.065907 0.000000
# 6 0.000000 0.000000 0.000000 0.000000 0.000000 0.037090
#
#
# Mechanical properties :
#
#
# Convention : Reuss Voigt Hill
#
# Bulk Modulus (GPa) = 22.39935 35.34095 28.87015
# Shear Modulus (GPa) = 21.83438 27.46984 24.65211
#
# Velocity S-wave (km/s) = 3.36079 3.76964 3.57107
# Velocity P-wave (km/s) = 5.16208 6.10154 5.65137
#
# Compressibility (1/GPa) = 0.04464415
#
# Stress axis : x y z
#
# Youngs Moduli (GPa) = 35.84470 105.96239 38.92419
#
# Poissons Ratio (x) = 0.86597 0.04740
# Poissons Ratio (y) = 0.29294 -0.00775
# Poissons Ratio (z) = 0.04365 -0.02109
#
# Static dielectric constant tensor:
#      x y z
#    x 1.678550 0.000000 0.000000 
#    y 0.000000 1.712390 0.000000 
#    z 0.000000 0.000000 1.654330 
# 
# From -- ./inp_files/8004.got.cif
#   From: 2010.05.17/outbox.cif.g08.bks.cpg/sg57_5_cif.got.tgz:8004.got - 2010.06.03 13:58:18.
