data_PCOD9435406
_publ_section_title
;
Structure prediction by ZEFSAII (Michael W. Deem and Ramdas Pophale) SiO2 
 PCOD9435406
Probable space group: P B C M
;
_chemical_formula_sum "Si O2"
_cell_formula_units_Z 48
_cell_length_a 9.925776
_cell_length_b 31.456058
_cell_length_c 8.750856
_cell_angle_alpha 90.000000
_cell_angle_beta 90.000000
_cell_angle_gamma 90.000000
_cell_volume 2732.242889
_symmetry_space_group_name_H-M "P B C M"
_symmetry_group_IT_number 57
_symmetry_cell_setting 'orthorhombic'
loop_
_space_group_symop_operation_xyz
x,y,z
-x,-y,1/2+z
x,1/2-y,-z
-x,1/2+y,1/2-z
-x,-y,-z
x,y,1/2-z
-x,1/2+y,z
x,1/2-y,1/2+z
loop_
_atom_site_type_symbol
_atom_site_label
_atom_site_fract_x
_atom_site_fract_y
_atom_site_fract_z
Si Si1 0.810141 0.296873 0.433422
Si Si2 0.356252 0.485764 0.934737
Si Si3 0.423375 0.859333 0.432778
Si Si4 0.003632 0.131819 0.066766
Si Si5 0.303453 0.110832 0.065972
Si Si6 0.204946 0.568693 0.933688
O O1 0.822261 0.250000 0.500000
O O2 0.815888 0.295953 0.250000
O O3 0.668494 0.319224 0.478370
O O4 0.925881 0.328336 0.494211
O O5 0.364599 0.486287 0.750000
O O6 0.320696 0.438184 0.985260
O O7 0.245246 0.521046 0.978365
O O8 0.500000 0.500000 0.000000
O O9 0.438952 0.858680 0.250000
O O10 0.568416 0.863135 0.507824
O O11 0.332789 0.900863 0.470785
O O12 0.997952 0.134995 0.250000
O O13 0.158714 0.128568 0.017052
O O14 0.922685 0.089763 0.014425
O O15 0.305023 0.110725 0.250000
O O16 0.185873 0.570834 0.750000
#
# Coordination Sequence:
#
# PCOD9435406 Si02
#       6
#     8   8   8   8   8   8
#     4  10  21  39  62  86 107 133 172 216 264 324
#     4  10  19  32  50  75 107 143 187 233 271 311
#     4   9  18  33  54  79 106 136 173 215 263 317
#     4  10  21  36  53  78 111 146 181 219 268 322
#     4  10  21  34  51  78 111 144 181 224 268 315
#     4   9  18  33  51  74 105 143 186 229 267 310
#
# _framework density 17.567983999999999
#
# number of rings (size 3 to 8) (size 9 to 14) (size 15 to 20)
#    0.000    2.333    1.667    2.000    0.000    6.000 
#    0.000    0.833    0.000    2.000    0.000    0.000 
#    0.000    0.000    0.000    0.000    0.000    0.000 
#
# Total GULP energy -267817.070366 kJ/mol
# GULP energy per Si atom -5579.522299 kJ/mol
# Density = 1.752800 g / cm^3
# Si number density = 17.567984 Si / 1000 Ang^3
#
#
#
# Elastic Constant Matrix: (Units=GPa)
#
#
# Indices 1 2 3 4 5 6 
#
# 1 161.1703 70.0540 38.7534 0.0000 0.0000 0.0000
# 2 70.0540 119.3936 31.7203 0.0000 0.0000 0.0000
# 3 38.7534 31.7203 27.2583 0.0000 0.0000 0.0000
# 4 0.0000 0.0000 0.0000 18.1717 0.0000 0.0000
# 5 0.0000 0.0000 0.0000 0.0000 29.7935 0.0000
# 6 0.0000 0.0000 0.0000 0.0000 0.0000 15.3647
#
#
#
# Elastic Compliance Matrix: (Units=1/GPa)
#
#
# Indices 1 2 3 4 5 6 
#
# 1 0.010150 -0.003071 -0.010856 0.000000 0.000000 0.000000
# 2 -0.003071 0.013053 -0.010824 0.000000 0.000000 0.000000
# 3 -0.010856 -0.010824 0.064716 0.000000 0.000000 0.000000
# 4 0.000000 0.000000 0.000000 0.055031 0.000000 0.000000
# 5 0.000000 0.000000 0.000000 0.000000 0.033564 0.000000
# 6 0.000000 0.000000 0.000000 0.000000 0.000000 0.065084
#
#
# Mechanical properties :
#
#
# Convention : Reuss Voigt Hill
#
# Bulk Modulus (GPa) = 26.03022 65.43084 45.73053
# Shear Modulus (GPa) = 16.45242 23.81895 20.13569
#
# Velocity S-wave (km/s) = 3.06355 3.68614 3.38917
# Velocity P-wave (km/s) = 5.23095 7.44594 6.43447
#
# Compressibility (1/GPa) = 0.03841688
#
# Stress axis : x y z
#
# Youngs Moduli (GPa) = 98.52270 76.60913 15.45209
#
# Poissons Ratio (x) = 0.23528 0.16775
# Poissons Ratio (y) = 0.30258 0.16725
# Poissons Ratio (z) = 1.06960 0.82919
#
# Static dielectric constant tensor:
#      x y z
#    x 1.582390 0.000000 0.000000 
#    y 0.000000 1.589520 0.000000 
#    z 0.000000 0.000000 1.590560 
# 
# From -- ./inp_files/2007.got.cif
#   From: 2010.05.17/outbox.cif.g08.bks.cpg/sg57_2_cif.got.tgz:2007.got - 2010.06.03 13:58:18.
