data_PCOD9435471
_publ_section_title
;
Structure prediction by ZEFSAII (Michael W. Deem and Ramdas Pophale) SiO2 
 PCOD9435471
Probable space group: P B C M
;
_chemical_formula_sum "Si O2"
_cell_formula_units_Z 48
_cell_length_a 14.705494
_cell_length_b 19.651985
_cell_length_c 9.349262
_cell_angle_alpha 90.000000
_cell_angle_beta 90.000000
_cell_angle_gamma 90.000000
_cell_volume 2701.863303
_symmetry_space_group_name_H-M "P B C M"
_symmetry_group_IT_number 57
_symmetry_cell_setting 'orthorhombic'
loop_
_space_group_symop_operation_xyz
x,y,z
-x,-y,1/2+z
x,1/2-y,-z
-x,1/2+y,1/2-z
-x,-y,-z
x,y,1/2-z
-x,1/2+y,z
x,1/2-y,1/2+z
loop_
_atom_site_type_symbol
_atom_site_label
_atom_site_fract_x
_atom_site_fract_y
_atom_site_fract_z
Si Si1 0.435394 0.551260 0.083253
Si Si2 0.024092 0.321365 0.085912
Si Si3 0.778900 0.468982 0.906089
Si Si4 0.388178 0.680922 0.910132
Si Si5 0.817242 0.330578 0.469474
Si Si6 0.922825 0.954958 0.921464
O O1 0.460662 0.557966 0.250000
O O2 0.329697 0.528036 0.079986
O O3 0.500000 0.500000 0.000000
O O4 0.436719 0.622635 0.000407
O O5 0.057519 0.316062 0.250000
O O6 0.916720 0.341252 0.095580
O O7 0.030859 0.250000 0.000000
O O8 0.070760 0.380424 0.992667
O O9 0.805974 0.496741 0.750000
O O10 0.809125 0.389462 0.911495
O O11 0.829405 0.508544 0.031915
O O12 0.424450 0.688754 0.750000
O O13 0.281166 0.660936 0.897385
O O14 0.392512 0.750000 0.000000
O O15 0.818235 0.250000 0.500000
O O16 0.934926 0.953244 0.750000
O O17 0.000000 0.000000 0.000000
#
# Coordination Sequence:
#
# PCOD9435471 Si02
#       6
#     8   8   8   8   8   8
#     4  10  21  37  58  84 112 144 181 226 277 331
#     4  11  22  36  54  77 108 146 189 231 276 324
#     4  10  21  37  57  80 110 147 187 229 276 327
#     4  10  19  32  51  78 111 146 181 220 269 329
#     4   9  19  30  49  76 112 146 184 218 272 321
#     4  12  24  37  55  79 110 147 189 229 273 322
#
# _framework density 17.765516999999999
#
# number of rings (size 3 to 8) (size 9 to 14) (size 15 to 20)
#    0.000    1.667    1.667    3.500    0.000   10.000 
#    0.000    0.000    0.000    1.000    0.000    0.000 
#    0.000    0.000    0.000    0.000    0.000    0.000 
#
# Total GULP energy -267373.080484 kJ/mol
# GULP energy per Si atom -5570.272510 kJ/mol
# Density = 1.772508 g / cm^3
# Si number density = 17.765517 Si / 1000 Ang^3
#
#
#
# Elastic Constant Matrix: (Units=GPa)
#
#
# Indices 1 2 3 4 5 6 
#
# 1 38.6708 34.5773 37.9619 0.0000 0.0000 0.0000
# 2 34.5773 116.3310 76.5435 0.0000 0.0000 0.0000
# 3 37.9619 76.5435 195.8414 0.0000 0.0000 0.0000
# 4 0.0000 0.0000 0.0000 25.8175 0.0000 0.0000
# 5 0.0000 0.0000 0.0000 0.0000 10.5026 0.0000
# 6 0.0000 0.0000 0.0000 0.0000 0.0000 14.5576
#
#
#
# Elastic Compliance Matrix: (Units=1/GPa)
#
#
# Indices 1 2 3 4 5 6 
#
# 1 0.037309 -0.008523 -0.003901 0.000000 0.000000 0.000000
# 2 -0.008523 0.013519 -0.003632 0.000000 0.000000 0.000000
# 3 -0.003901 -0.003632 0.007282 0.000000 0.000000 0.000000
# 4 0.000000 0.000000 0.000000 0.038733 0.000000 0.000000
# 5 0.000000 0.000000 0.000000 0.000000 0.095215 0.000000
# 6 0.000000 0.000000 0.000000 0.000000 0.000000 0.068692
#
#
# Mechanical properties :
#
#
# Convention : Reuss Voigt Hill
#
# Bulk Modulus (GPa) = 38.46278 72.11206 55.28742
# Shear Modulus (GPa) = 16.58218 23.62623 20.10420
#
# Velocity S-wave (km/s) = 3.05846 3.65073 3.36764
# Velocity P-wave (km/s) = 5.84547 7.64523 6.80511
#
# Compressibility (1/GPa) = 0.02599916
#
# Stress axis : x y z
#
# Youngs Moduli (GPa) = 26.80291 73.96977 137.32857
#
# Poissons Ratio (x) = 0.63043 0.53572
# Poissons Ratio (y) = 0.22843 0.49875
# Poissons Ratio (z) = 0.10456 0.26864
#
# Static dielectric constant tensor:
#      x y z
#    x 1.598900 0.000000 0.000000 
#    y 0.000000 1.577540 0.000000 
#    z 0.000000 0.000000 1.663670 
# 
# From -- ./inp_files/6673.got.cif
#   From: 2010.05.17/outbox.cif.g08.bks.cpg/sg57_4_cif.got.tgz:6673.got - 2010.06.03 13:58:18.
