data_PCOD9435854
_publ_section_title
;
Structure prediction by ZEFSAII (Michael W. Deem and Ramdas Pophale) SiO2 
 PCOD9435854
Probable space group: P B C M
;
_chemical_formula_sum "Si O2"
_cell_formula_units_Z 64
_cell_length_a 6.979116
_cell_length_b 16.965557
_cell_length_c 28.918997
_cell_angle_alpha 90.000000
_cell_angle_beta 90.000000
_cell_angle_gamma 90.000000
_cell_volume 3424.141992
_symmetry_space_group_name_H-M "P B C M"
_symmetry_group_IT_number 57
_symmetry_cell_setting 'orthorhombic'
loop_
_space_group_symop_operation_xyz
x,y,z
-x,-y,1/2+z
x,1/2-y,-z
-x,1/2+y,1/2-z
-x,-y,-z
x,y,1/2-z
-x,1/2+y,z
x,1/2-y,1/2+z
loop_
_atom_site_type_symbol
_atom_site_label
_atom_site_fract_x
_atom_site_fract_y
_atom_site_fract_z
Si Si1 0.396126 0.622526 0.020767
Si Si2 0.563103 0.033228 0.884626
Si Si3 0.871372 0.365893 0.061164
Si Si4 0.544644 0.352378 0.880110
Si Si5 0.120901 0.747533 0.145262
Si Si6 0.279460 0.267753 0.696088
Si Si7 0.729179 0.945546 0.459067
Si Si8 0.583614 0.361636 0.302087
O O1 0.446373 0.673833 0.065925
O O2 0.283690 0.540458 0.034036
O O3 0.262569 0.660076 0.981506
O O4 0.594824 0.592972 0.998175
O O5 0.746017 0.067187 0.912025
O O6 0.381048 0.070879 0.910879
O O7 0.575420 0.061290 0.832561
O O8 0.529139 0.940939 0.885290
O O9 0.914384 0.295458 0.097399
O O10 0.063532 0.407284 0.043014
O O11 0.761055 0.332944 0.863803
O O12 0.407220 0.313716 0.841914
O O13 0.266250 0.802977 0.173815
O O14 0.932196 0.734858 0.175236
O O15 0.285796 0.296360 0.750000
O O16 0.378940 0.181964 0.697195
O O17 0.641998 0.376384 0.250000
#
# Coordination Sequence:
#
# PCOD9435854 Si02
#       8
#     8   8   8   8   8   8   8   8
#     4   9  19  33  51  79 110 142 179 219 271 328
#     4   9  19  34  54  81 106 136 180 226 273 326
#     4  10  19  33  56  80 106 144 189 228 266 321
#     4  10  22  37  53  78 114 144 173 220 276 329
#     4  10  21  36  54  77 107 144 182 221 270 328
#     4  10  21  38  58  78 104 144 185 220 271 333
#     4   9  17  32  54  78 107 142 179 223 270 320
#     4   9  18  35  58  79 101 131 174 228 274 318
#
# _framework density 18.690814
#
# number of rings (size 3 to 8) (size 9 to 14) (size 15 to 20)
#    0.000    2.500    0.000    2.250    0.000    5.500 
#    0.000    0.000    0.000    3.000    0.000    0.000 
#    0.000    0.000    0.000    0.000    0.000    0.000 
#
# Total GULP energy -356502.701038 kJ/mol
# GULP energy per Si atom -5570.354704 kJ/mol
# Density = 1.864827 g / cm^3
# Si number density = 18.690814 Si / 1000 Ang^3
#
#
#
# Elastic Constant Matrix: (Units=GPa)
#
#
# Indices 1 2 3 4 5 6 
#
# 1 93.6563 20.5961 22.7955 0.0000 0.0000 0.0000
# 2 20.5961 33.5971 16.8884 0.0000 0.0000 0.0000
# 3 22.7955 16.8884 123.8916 0.0000 0.0000 0.0000
# 4 0.0000 0.0000 0.0000 22.9570 0.0000 0.0000
# 5 0.0000 0.0000 0.0000 0.0000 24.1737 0.0000
# 6 0.0000 0.0000 0.0000 0.0000 0.0000 9.3330
#
#
#
# Elastic Compliance Matrix: (Units=1/GPa)
#
#
# Indices 1 2 3 4 5 6 
#
# 1 0.012549 -0.007013 -0.001353 0.000000 0.000000 0.000000
# 2 -0.007013 0.035873 -0.003600 0.000000 0.000000 0.000000
# 3 -0.001353 -0.003600 0.008811 0.000000 0.000000 0.000000
# 4 0.000000 0.000000 0.000000 0.043560 0.000000 0.000000
# 5 0.000000 0.000000 0.000000 0.000000 0.041367 0.000000
# 6 0.000000 0.000000 0.000000 0.000000 0.000000 0.107147
#
#
# Mechanical properties :
#
#
# Convention : Reuss Voigt Hill
#
# Bulk Modulus (GPa) = 30.02814 41.30057 35.66435
# Shear Modulus (GPa) = 17.58468 24.01706 20.80087
#
# Velocity S-wave (km/s) = 3.07061 3.58853 3.33962
# Velocity P-wave (km/s) = 5.35463 6.27015 5.83039
#
# Compressibility (1/GPa) = 0.03330210
#
# Stress axis : x y z
#
# Youngs Moduli (GPa) = 79.68873 27.87613 113.49164
#
# Poissons Ratio (x) = 0.19549 0.15355
# Poissons Ratio (y) = 0.55884 0.40854
# Poissons Ratio (z) = 0.10782 0.10035
#
# Static dielectric constant tensor:
#      x y z
#    x 1.627290 0.000000 0.000000 
#    y 0.000000 1.653710 0.000000 
#    z 0.000000 0.000000 1.682430 
# 
# From -- ./inp_files/29274.got.cif
#   From: 2010.05.17/outbox.cif.g08.bks.cpg/sg57_15_cif.got.tgz:29274.got - 2010.06.03 13:58:18.
