data_PCOD9435320
_publ_section_title
;
Structure prediction by ZEFSAII (Michael W. Deem and Ramdas Pophale) SiO2 
 PCOD9435320
Probable space group: P B C M
;
_chemical_formula_sum "Si O2"
_cell_formula_units_Z 56
_cell_length_a 14.512447
_cell_length_b 24.989136
_cell_length_c 7.506772
_cell_angle_alpha 90.000000
_cell_angle_beta 90.000000
_cell_angle_gamma 90.000000
_cell_volume 2722.357228
_symmetry_space_group_name_H-M "P B C M"
_symmetry_group_IT_number 57
_symmetry_cell_setting 'orthorhombic'
loop_
_space_group_symop_operation_xyz
x,y,z
-x,-y,1/2+z
x,1/2-y,-z
-x,1/2+y,1/2-z
-x,-y,-z
x,y,1/2-z
-x,1/2+y,z
x,1/2-y,1/2+z
loop_
_atom_site_type_symbol
_atom_site_label
_atom_site_fract_x
_atom_site_fract_y
_atom_site_fract_z
Si Si1 0.669863 0.625998 0.532005
Si Si2 0.782957 0.524685 0.964329
Si Si3 0.495251 0.688956 0.536636
Si Si4 0.849278 0.811554 0.462154
Si Si5 0.714029 0.310755 0.463893
Si Si6 0.962542 0.912409 0.032435
Si Si7 0.831232 0.409724 0.460449
O O1 0.667929 0.626038 0.750000
O O2 0.706085 0.567487 0.476397
O O3 0.571205 0.647168 0.469850
O O4 0.749801 0.667466 0.473995
O O5 0.783848 0.526707 0.750000
O O6 0.883157 0.546416 0.027024
O O7 0.772123 0.463459 0.017634
O O8 0.525392 0.750000 0.500000
O O9 0.491036 0.683042 0.750000
O O10 0.390941 0.683045 0.467388
O O11 0.866810 0.750000 0.500000
O O12 0.846564 0.817325 0.250000
O O13 0.926080 0.853755 0.522895
O O14 0.744717 0.250000 0.500000
O O15 0.709790 0.316305 0.250000
O O16 0.780769 0.357178 0.533248
O O17 0.962943 0.915216 0.250000
O O18 0.066120 0.920591 0.966961
O O19 0.843290 0.400408 0.250000
#
# Coordination Sequence:
#
# PCOD9435320 Si02
#       7
#     8   8   8   8   8   8   8
#     4   8  15  28  46  65  89 118 145 175 219 266
#     4   9  17  31  49  68  87 114 151 184 213 260
#     4   9  16  29  48  68  89 117 149 181 216 259
#     4   9  16  27  42  63  89 116 144 178 219 264
#     4   9  19  33  49  68  91 117 148 182 218 259
#     4   8  16  30  46  62  87 120 150 179 218 263
#     4  10  19  32  48  66  89 118 146 181 225 259
#
# _framework density 20.570409000000001
#
# number of rings (size 3 to 8) (size 9 to 14) (size 15 to 20)
#    0.000    3.143    0.000    2.571    0.000    1.143 
#    0.000    5.000    0.000    0.000    0.000    0.000 
#    0.000    0.000    0.000    0.000    0.000    0.000 
#
# Total GULP energy -312286.464404 kJ/mol
# GULP energy per Si atom -5576.544007 kJ/mol
# Density = 2.052359 g / cm^3
# Si number density = 20.570409 Si / 1000 Ang^3
#
#
#
# Elastic Constant Matrix: (Units=GPa)
#
#
# Indices 1 2 3 4 5 6 
#
# 1 68.4031 57.8000 6.4677 0.0000 0.0000 0.0000
# 2 57.8000 147.7874 -6.9872 0.0000 0.0000 0.0000
# 3 6.4677 -6.9872 51.4748 0.0000 0.0000 0.0000
# 4 0.0000 0.0000 0.0000 21.6074 0.0000 0.0000
# 5 0.0000 0.0000 0.0000 0.0000 12.4520 0.0000
# 6 0.0000 0.0000 0.0000 0.0000 0.0000 20.4356
#
#
#
# Elastic Compliance Matrix: (Units=1/GPa)
#
#
# Indices 1 2 3 4 5 6 
#
# 1 0.022654 -0.009053 -0.004075 0.000000 0.000000 0.000000
# 2 -0.009053 0.010428 0.002553 0.000000 0.000000 0.000000
# 3 -0.004075 0.002553 0.020286 0.000000 0.000000 0.000000
# 4 0.000000 0.000000 0.000000 0.046280 0.000000 0.000000
# 5 0.000000 0.000000 0.000000 0.000000 0.080308 0.000000
# 6 0.000000 0.000000 0.000000 0.000000 0.000000 0.048934
#
#
# Mechanical properties :
#
#
# Convention : Reuss Voigt Hill
#
# Bulk Modulus (GPa) = 31.03934 42.46959 36.75446
# Shear Modulus (GPa) = 19.17330 24.92465 22.04897
#
# Velocity S-wave (km/s) = 3.05631 3.48469 3.27751
# Velocity P-wave (km/s) = 5.25136 6.07302 5.67707
#
# Compressibility (1/GPa) = 0.03221718
#
# Stress axis : x y z
#
# Youngs Moduli (GPa) = 44.14236 95.89843 49.29620
#
# Poissons Ratio (x) = 0.86814 0.20089
# Poissons Ratio (y) = 0.39961 -0.12585
# Poissons Ratio (z) = 0.17989 -0.24482
#
# Static dielectric constant tensor:
#      x y z
#    x 1.740920 0.000000 0.000000 
#    y 0.000000 1.724800 0.000000 
#    z 0.000000 0.000000 1.774430 
# 
# From -- ./inp_files/13073.got.cif
#   From: 2010.05.17/outbox.cif.g08.bks.cpg/sg57_7_cif.got.tgz:13073.got - 2010.06.03 13:58:18.
