data_PCOD9435010
_publ_section_title
;
Structure prediction by ZEFSAII (Michael W. Deem and Ramdas Pophale) SiO2 
 PCOD9435010
Probable space group: P B C M
;
_chemical_formula_sum "Si O2"
_cell_formula_units_Z 64
_cell_length_a 16.121866
_cell_length_b 29.364271
_cell_length_c 8.613364
_cell_angle_alpha 90.000000
_cell_angle_beta 90.000000
_cell_angle_gamma 90.000000
_cell_volume 4077.625452
_symmetry_space_group_name_H-M "P B C M"
_symmetry_group_IT_number 57
_symmetry_cell_setting 'orthorhombic'
loop_
_space_group_symop_operation_xyz
x,y,z
-x,-y,1/2+z
x,1/2-y,-z
-x,1/2+y,1/2-z
-x,-y,-z
x,y,1/2-z
-x,1/2+y,z
x,1/2-y,1/2+z
loop_
_atom_site_type_symbol
_atom_site_label
_atom_site_fract_x
_atom_site_fract_y
_atom_site_fract_z
Si Si1 0.314466 0.953208 0.938157
Si Si2 0.496193 0.551313 0.436830
Si Si3 0.007187 0.449046 0.936510
Si Si4 0.836718 0.606400 0.563599
Si Si5 0.157342 0.606804 0.437406
Si Si6 0.089146 0.298570 0.436758
Si Si7 0.677829 0.556352 0.436483
Si Si8 0.896179 0.201065 0.935803
O O1 0.311756 0.956951 0.750000
O O2 0.404410 0.932156 0.983226
O O3 0.237513 0.922125 0.987653
O O4 0.309327 0.004352 0.005170
O O5 0.500000 0.500000 0.500000
O O6 0.496976 0.550433 0.250000
O O7 0.584686 0.572050 0.485253
O O8 0.009855 0.450039 0.750000
O O9 0.926375 0.419881 0.984764
O O10 0.000000 0.500000 0.000000
O O11 0.089638 0.425374 0.000473
O O12 0.838208 0.604794 0.750000
O O13 0.857872 0.657923 0.512810
O O14 0.749563 0.587776 0.503901
O O15 0.158108 0.609009 0.250000
O O16 0.153490 0.657699 0.502648
O O17 0.118019 0.250000 0.500000
O O18 0.089675 0.297013 0.250000
O O19 0.992876 0.304899 0.486260
O O20 0.682418 0.556328 0.250000
O O21 0.894138 0.201883 0.750000
O O22 0.868217 0.250000 0.000000
#
# Coordination Sequence:
#
# PCOD9435010 Si02
#       8
#     8   8   8   8   8   8   8   8
#     4   9  17  31  49  69  96 130 160 195 237 282
#     4   8  15  28  46  67  93 122 157 196 238 281
#     4  11  22  33  46  66  96 132 164 195 228 272
#     4  11  21  34  48  67  94 127 163 196 235 282
#     4  10  20  32  47  69  94 124 160 193 233 280
#     4   9  19  33  50  69  89 117 153 195 239 281
#     4  10  19  30  46  71  97 126 162 200 238 280
#     4  10  19  33  51  70  92 120 154 196 239 280
#
# _framework density 15.695409
#
# number of rings (size 3 to 8) (size 9 to 14) (size 15 to 20)
#    0.000    2.250    1.250    2.250    0.000    4.000 
#    0.000    0.000    0.000    0.000    0.000    0.875 
#    0.000    2.000    0.000    0.000    0.000    0.000 
#
# Total GULP energy -356791.317654 kJ/mol
# GULP energy per Si atom -5574.864338 kJ/mol
# Density = 1.565969 g / cm^3
# Si number density = 15.695409 Si / 1000 Ang^3
#
#
#
# Elastic Constant Matrix: (Units=GPa)
#
#
# Indices 1 2 3 4 5 6 
#
# 1 90.2684 29.6081 15.8529 0.0000 0.0000 0.0000
# 2 29.6081 89.2850 15.7172 0.0000 0.0000 0.0000
# 3 15.8529 15.7172 19.5368 0.0000 0.0000 0.0000
# 4 0.0000 0.0000 0.0000 26.1473 0.0000 0.0000
# 5 0.0000 0.0000 0.0000 0.0000 11.1340 0.0000
# 6 0.0000 0.0000 0.0000 0.0000 0.0000 8.4649
#
#
#
# Elastic Compliance Matrix: (Units=1/GPa)
#
#
# Indices 1 2 3 4 5 6 
#
# 1 0.013569 -0.002984 -0.008610 0.000000 0.000000 0.000000
# 2 -0.002984 0.013704 -0.008604 0.000000 0.000000 0.000000
# 3 -0.008610 -0.008604 0.065093 0.000000 0.000000 0.000000
# 4 0.000000 0.000000 0.000000 0.038245 0.000000 0.000000
# 5 0.000000 0.000000 0.000000 0.000000 0.089815 0.000000
# 6 0.000000 0.000000 0.000000 0.000000 0.000000 0.118135
#
#
# Mechanical properties :
#
#
# Convention : Reuss Voigt Hill
#
# Bulk Modulus (GPa) = 19.24123 35.71630 27.47876
# Shear Modulus (GPa) = 12.61736 18.34337 15.48036
#
# Velocity S-wave (km/s) = 2.83837 3.42235 3.14395
# Velocity P-wave (km/s) = 4.79870 6.19854 5.54299
#
# Compressibility (1/GPa) = 0.05197174
#
# Stress axis : x y z
#
# Youngs Moduli (GPa) = 73.69810 72.97054 15.36256
#
# Poissons Ratio (x) = 0.21774 0.13227
# Poissons Ratio (y) = 0.21992 0.13217
# Poissons Ratio (z) = 0.63452 0.62781
#
# Static dielectric constant tensor:
#      x y z
#    x 1.547110 0.000000 0.000000 
#    y 0.000000 1.494120 0.000000 
#    z 0.000000 0.000000 1.528890 
# 
# From -- ./inp_files/6024.got.cif
#   From: 2010.05.17/outbox.cif.g08.bks.cpg/sg57_4_cif.got.tgz:6024.got - 2010.06.03 13:58:18.
