data_PCOD9435531
_publ_section_title
;
Structure prediction by ZEFSAII (Michael W. Deem and Ramdas Pophale) SiO2 
 PCOD9435531
Probable space group: P B C M
;
_chemical_formula_sum "Si O2"
_cell_formula_units_Z 48
_cell_length_a 21.785644
_cell_length_b 14.166836
_cell_length_c 7.889621
_cell_angle_alpha 90.000000
_cell_angle_beta 90.000000
_cell_angle_gamma 90.000000
_cell_volume 2435.002492
_symmetry_space_group_name_H-M "P B C M"
_symmetry_group_IT_number 57
_symmetry_cell_setting 'orthorhombic'
loop_
_space_group_symop_operation_xyz
x,y,z
-x,-y,1/2+z
x,1/2-y,-z
-x,1/2+y,1/2-z
-x,-y,-z
x,y,1/2-z
-x,1/2+y,z
x,1/2-y,1/2+z
loop_
_atom_site_type_symbol
_atom_site_label
_atom_site_fract_x
_atom_site_fract_y
_atom_site_fract_z
Si Si1 0.102526 0.641422 0.952244
Si Si2 0.404364 0.457765 0.452567
Si Si3 0.471552 0.643037 0.452492
Si Si4 0.280812 0.359947 0.455150
Si Si5 0.843297 0.956804 0.451158
Si Si6 0.965947 0.640542 0.954305
O O1 0.101903 0.634692 0.750000
O O2 0.034008 0.613660 0.018386
O O3 0.113019 0.750000 0.000000
O O4 0.152111 0.568395 0.020860
O O5 0.397616 0.466446 0.250000
O O6 0.425848 0.560695 0.517827
O O7 0.460695 0.386583 0.485629
O O8 0.340896 0.415303 0.519635
O O9 0.456113 0.750000 0.500000
O O10 0.472433 0.636988 0.250000
O O11 0.283437 0.250000 0.500000
O O12 0.280968 0.366468 0.250000
O O13 0.217748 0.407289 0.518976
O O14 0.844025 0.938498 0.250000
O O15 0.906928 0.914458 0.522704
O O16 0.967410 0.631031 0.750000
O O17 0.957932 0.750000 0.000000
#
# Coordination Sequence:
#
# PCOD9435531 Si02
#       6
#     8   8   8   8   8   8
#     4  10  20  34  52  73  97 128 167 210 256 303
#     4   9  19  35  53  76 106 139 173 208 249 296
#     4  10  19  32  53  79 106 135 170 212 254 296
#     4  10  21  36  54  76 104 136 168 204 247 297
#     4  10  20  34  51  73 102 133 166 206 250 297
#     4   9  18  31  49  74 101 129 163 206 254 301
#
# _framework density 19.712505
#
# number of rings (size 3 to 8) (size 9 to 14) (size 15 to 20)
#    0.000    2.333    0.000    2.500    0.000    4.667 
#    0.000    0.833    0.000    2.000    0.000    0.000 
#    0.000    0.000    0.000    0.000    0.000    0.000 
#
# Total GULP energy -267873.123279 kJ/mol
# GULP energy per Si atom -5580.690068 kJ/mol
# Density = 1.966764 g / cm^3
# Si number density = 19.712505 Si / 1000 Ang^3
#
#
#
# Elastic Constant Matrix: (Units=GPa)
#
#
# Indices 1 2 3 4 5 6 
#
# 1 120.2752 96.3539 3.4872 0.0000 0.0000 0.0000
# 2 96.3539 139.0875 -9.4460 0.0000 0.0000 0.0000
# 3 3.4872 -9.4460 14.8684 0.0000 0.0000 0.0000
# 4 0.0000 0.0000 0.0000 29.9323 0.0000 0.0000
# 5 0.0000 0.0000 0.0000 0.0000 12.5222 0.0000
# 6 0.0000 0.0000 0.0000 0.0000 0.0000 29.1002
#
#
#
# Elastic Compliance Matrix: (Units=1/GPa)
#
#
# Indices 1 2 3 4 5 6 
#
# 1 0.021527 -0.015944 -0.015178 0.000000 0.000000 0.000000
# 2 -0.015944 0.019323 0.016015 0.000000 0.000000 0.000000
# 3 -0.015178 0.016015 0.080991 0.000000 0.000000 0.000000
# 4 0.000000 0.000000 0.000000 0.033409 0.000000 0.000000
# 5 0.000000 0.000000 0.000000 0.000000 0.079858 0.000000
# 6 0.000000 0.000000 0.000000 0.000000 0.000000 0.034364
#
#
# Mechanical properties :
#
#
# Convention : Reuss Voigt Hill
#
# Bulk Modulus (GPa) = 10.91380 50.55792 30.73586
# Shear Modulus (GPa) = 15.14105 26.56668 20.85386
#
# Velocity S-wave (km/s) = 2.77446 3.67510 3.25607
# Velocity P-wave (km/s) = 3.97643 6.61149 5.45544
#
# Compressibility (1/GPa) = 0.09162709
#
# Stress axis : x y z
#
# Youngs Moduli (GPa) = 46.45270 51.75256 12.34705
#
# Poissons Ratio (x) = 0.82514 0.18741
# Poissons Ratio (y) = 0.74064 -0.19774
# Poissons Ratio (z) = 0.70507 -0.82883
#
# Static dielectric constant tensor:
#      x y z
#    x 1.703900 0.000000 0.000000 
#    y 0.000000 1.691760 0.000000 
#    z 0.000000 0.000000 1.703460 
# 
# From -- ./inp_files/6502.got.cif
#   From: 2010.05.17/outbox.cif.g08.bks.cpg/sg57_4_cif.got.tgz:6502.got - 2010.06.03 13:58:18.
