data_PCOD9435679
_publ_section_title
;
Structure prediction by ZEFSAII (Michael W. Deem and Ramdas Pophale) SiO2 
 PCOD9435679
Probable space group: P B C M
;
_chemical_formula_sum "Si O2"
_cell_formula_units_Z 40
_cell_length_a 11.687543
_cell_length_b 13.526063
_cell_length_c 11.032571
_cell_angle_alpha 90.000000
_cell_angle_beta 90.000000
_cell_angle_gamma 90.000000
_cell_volume 1744.099906
_symmetry_space_group_name_H-M "P B C M"
_symmetry_group_IT_number 57
_symmetry_cell_setting 'orthorhombic'
loop_
_space_group_symop_operation_xyz
x,y,z
-x,-y,1/2+z
x,1/2-y,-z
-x,1/2+y,1/2-z
-x,-y,-z
x,y,1/2-z
-x,1/2+y,z
x,1/2-y,1/2+z
loop_
_atom_site_type_symbol
_atom_site_label
_atom_site_fract_x
_atom_site_fract_y
_atom_site_fract_z
Si Si1 0.293240 0.344394 0.120087
Si Si2 0.038065 0.368274 0.116675
Si Si3 0.357418 0.676241 0.113532
Si Si4 0.896926 0.099459 0.384011
Si Si5 0.391794 0.124014 0.380807
O O1 0.310083 0.395690 0.250000
O O2 0.160226 0.313954 0.112593
O O3 0.365894 0.242781 0.123360
O O4 0.327182 0.406446 0.002352
O O5 0.984085 0.352269 0.250000
O O6 0.076527 0.483250 0.112820
O O7 0.960499 0.354336 0.999343
O O8 0.362004 0.722815 0.250000
O O9 0.237344 0.620339 0.106885
O O10 0.472733 0.611564 0.106266
O O11 0.362132 0.750000 0.000000
O O12 0.936174 0.134451 0.250000
O O13 0.353423 0.083252 0.250000
#
# Coordination Sequence:
#
# PCOD9435679 Si02
#       5
#     8   8   8   8   8
#     4   9  16  29  50  72  94 128 165 201 243 288
#     4   9  18  34  54  74 100 131 167 207 247 295
#     4  10  19  33  53  74 100 132 166 205 248 295
#     4   9  19  35  53  74 100 132 166 206 252 294
#     4   9  17  30  49  70  98 131 162 199 244 291
#
# _framework density 22.934466
#
# number of rings (size 3 to 8) (size 9 to 14) (size 15 to 20)
#    0.000    2.800    2.000    0.000    0.000    1.600 
#    3.600    1.000    0.000    0.000    0.000    0.000 
#    0.000    0.000    0.000    0.000    0.000    0.000 
#
# Total GULP energy -223164.124063 kJ/mol
# GULP energy per Si atom -5579.103102 kJ/mol
# Density = 2.288227 g / cm^3
# Si number density = 22.934466 Si / 1000 Ang^3
#
#
#
# Elastic Constant Matrix: (Units=GPa)
#
#
# Indices 1 2 3 4 5 6 
#
# 1 101.3333 -4.1939 72.9335 0.0000 0.0000 0.0000
# 2 -4.1939 47.3393 5.0766 0.0000 0.0000 0.0000
# 3 72.9335 5.0766 274.9919 0.0000 0.0000 0.0000
# 4 0.0000 0.0000 0.0000 -14.7797 0.0000 0.0000
# 5 0.0000 0.0000 0.0000 0.0000 49.2342 0.0000
# 6 0.0000 0.0000 0.0000 0.0000 0.0000 21.3395
#
#
#
# Elastic Compliance Matrix: (Units=1/GPa)
#
#
# Indices 1 2 3 4 5 6 
#
# 1 0.012294 0.001442 -0.003287 0.000000 0.000000 0.000000
# 2 0.001442 0.021335 -0.000776 0.000000 0.000000 0.000000
# 3 -0.003287 -0.000776 0.004523 0.000000 0.000000 0.000000
# 4 0.000000 0.000000 0.000000 -0.067660 0.000000 0.000000
# 5 0.000000 0.000000 0.000000 0.000000 0.020311 0.000000
# 6 0.000000 0.000000 0.000000 0.000000 0.000000 0.046861
#
#
# Mechanical properties :
#
#
# Convention : Reuss Voigt Hill
#
# Bulk Modulus (GPa) = 30.38762 63.47746 46.93254
# Shear Modulus (GPa) = 92.80404 34.48200 63.64302
#
# Velocity S-wave (km/s) = 6.36810 3.88171 5.27354
# Velocity P-wave (km/s) = 8.20663 6.91578 7.58870
#
# Compressibility (1/GPa) = 0.03290814
#
# Stress axis : x y z
#
# Youngs Moduli (GPa) = 81.34011 46.87123 221.10937
#
# Poissons Ratio (x) = -0.06757 0.72684
# Poissons Ratio (y) = -0.11727 0.17163
# Poissons Ratio (z) = 0.26739 0.03638
#
# Static dielectric constant tensor:
#      x y z
#    x 1.820180 0.000000 0.000000 
#    y 0.000000 1.854840 0.000000 
#    z 0.000000 0.000000 1.945220 
# 
# From -- ./inp_files/11757.got.cif
#   From: 2010.05.17/outbox.cif.g08.bks.cpg/sg57_6_cif.got.tgz:11757.got - 2010.06.03 13:58:18.
