data_PCOD9435480
_publ_section_title
;
Structure prediction by ZEFSAII (Michael W. Deem and Ramdas Pophale) SiO2 
 PCOD9435480
Probable space group: P B C M
;
_chemical_formula_sum "Si O2"
_cell_formula_units_Z 48
_cell_length_a 9.096973
_cell_length_b 15.923331
_cell_length_c 18.514785
_cell_angle_alpha 90.000000
_cell_angle_beta 90.000000
_cell_angle_gamma 90.000000
_cell_volume 2681.942743
_symmetry_space_group_name_H-M "P B C M"
_symmetry_group_IT_number 57
_symmetry_cell_setting 'orthorhombic'
loop_
_space_group_symop_operation_xyz
x,y,z
-x,-y,1/2+z
x,1/2-y,-z
-x,1/2+y,1/2-z
-x,-y,-z
x,y,1/2-z
-x,1/2+y,z
x,1/2-y,1/2+z
loop_
_atom_site_type_symbol
_atom_site_label
_atom_site_fract_x
_atom_site_fract_y
_atom_site_fract_z
Si Si1 0.927228 0.659374 0.533753
Si Si2 0.127725 0.248717 0.169820
Si Si3 0.415382 0.662152 0.041313
Si Si4 0.775751 0.238766 0.332437
Si Si5 0.232185 0.590422 0.587240
Si Si6 0.725709 0.902083 0.904475
O O1 0.975681 0.750000 0.500000
O O2 0.839852 0.685469 0.606066
O O3 0.827711 0.614418 0.474871
O O4 0.068015 0.606238 0.556817
O O5 0.156269 0.281164 0.250000
O O6 0.217184 0.164516 0.153999
O O7 0.952841 0.229437 0.163946
O O8 0.303919 0.683439 0.106748
O O9 0.561042 0.620970 0.072981
O O10 0.450117 0.750000 0.000000
O O11 0.338826 0.604865 0.980941
O O12 0.729672 0.221523 0.250000
O O13 0.743456 0.335110 0.355210
O O14 0.254682 0.498086 0.617775
#
# Coordination Sequence:
#
# PCOD9435480 Si02
#       6
#     8   8   8   8   8   8
#     4   9  17  32  51  72  97 130 167 198 238 292
#     4   9  18  33  51  71  96 128 166 202 240 292
#     4  10  19  33  51  71  97 132 168 198 239 294
#     4   9  19  36  54  69  93 133 172 199 234 295
#     4  10  19  32  52  75 100 130 163 202 244 290
#     4  11  20  30  50  80 105 123 156 211 255 283
#
# _framework density 17.897473999999999
#
# number of rings (size 3 to 8) (size 9 to 14) (size 15 to 20)
#    0.000    2.333    0.000    6.000    0.000    1.333 
#    0.000    0.000    0.000    1.000    0.000    0.000 
#    0.000    0.000    0.000    0.000    0.000    0.000 
#
# Total GULP energy -267770.528914 kJ/mol
# GULP energy per Si atom -5578.552686 kJ/mol
# Density = 1.785674 g / cm^3
# Si number density = 17.897474 Si / 1000 Ang^3
#
#
#
# Elastic Constant Matrix: (Units=GPa)
#
#
# Indices 1 2 3 4 5 6 
#
# 1 26.5129 6.3021 -8.0425 0.0000 0.0000 0.0000
# 2 6.3021 34.5854 -15.2614 0.0000 0.0000 0.0000
# 3 -8.0425 -15.2614 66.5665 0.0000 0.0000 0.0000
# 4 0.0000 0.0000 0.0000 7.1998 0.0000 0.0000
# 5 0.0000 0.0000 0.0000 0.0000 2.9344 0.0000
# 6 0.0000 0.0000 0.0000 0.0000 0.0000 16.5686
#
#
#
# Elastic Compliance Matrix: (Units=1/GPa)
#
#
# Indices 1 2 3 4 5 6 
#
# 1 0.040158 -0.005759 0.003531 0.000000 0.000000 0.000000
# 2 -0.005759 0.032994 0.006869 0.000000 0.000000 0.000000
# 3 0.003531 0.006869 0.017024 0.000000 0.000000 0.000000
# 4 0.000000 0.000000 0.000000 0.138893 0.000000 0.000000
# 5 0.000000 0.000000 0.000000 0.000000 0.340781 0.000000
# 6 0.000000 0.000000 0.000000 0.000000 0.000000 0.060355
#
#
# Mechanical properties :
#
#
# Convention : Reuss Voigt Hill
#
# Bulk Modulus (GPa) = 10.05452 10.40679 10.23066
# Shear Modulus (GPa) = 7.64438 14.98502 11.31470
#
# Velocity S-wave (km/s) = 2.06893 2.89670 2.51708
# Velocity P-wave (km/s) = 3.36710 4.12494 3.76513
#
# Compressibility (1/GPa) = 0.09945776
#
# Stress axis : x y z
#
# Youngs Moduli (GPa) = 24.90184 30.30830 58.74068
#
# Poissons Ratio (x) = 0.17455 -0.20744
# Poissons Ratio (y) = 0.14341 -0.40347
# Poissons Ratio (z) = -0.08794 -0.20818
#
# Static dielectric constant tensor:
#      x y z
#    x 1.605170 0.000000 0.000000 
#    y 0.000000 1.598970 0.000000 
#    z 0.000000 0.000000 1.616240 
# 
# From -- ./inp_files/20928.got.cif
#   From: 2010.05.17/outbox.cif.g08.bks.cpg/sg57_11_cif.got.tgz:20928.got - 2010.06.03 13:58:18.
