data_PCOD9435494
_publ_section_title
;
Structure prediction by ZEFSAII (Michael W. Deem and Ramdas Pophale) SiO2 
 PCOD9435494
Probable space group: P B C M
;
_chemical_formula_sum "Si O2"
_cell_formula_units_Z 64
_cell_length_a 20.953743
_cell_length_b 20.986543
_cell_length_c 8.835519
_cell_angle_alpha 90.000000
_cell_angle_beta 90.000000
_cell_angle_gamma 90.000000
_cell_volume 3885.389691
_symmetry_space_group_name_H-M "P B C M"
_symmetry_group_IT_number 57
_symmetry_cell_setting 'orthorhombic'
loop_
_space_group_symop_operation_xyz
x,y,z
-x,-y,1/2+z
x,1/2-y,-z
-x,1/2+y,1/2-z
-x,-y,-z
x,y,1/2-z
-x,1/2+y,z
x,1/2-y,1/2+z
loop_
_atom_site_type_symbol
_atom_site_label
_atom_site_fract_x
_atom_site_fract_y
_atom_site_fract_z
Si Si1 0.785646 0.335292 0.421848
Si Si2 0.920090 0.314599 0.570074
Si Si3 0.056809 0.958943 0.569300
Si Si4 0.344793 0.643750 0.069089
Si Si5 0.671635 0.497472 0.067086
Si Si6 0.477668 0.685734 0.569912
Si Si7 0.547957 0.947349 0.430863
Si Si8 0.811224 0.486742 0.420983
O O1 0.788724 0.310242 0.250000
O O2 0.845983 0.315357 0.520515
O O3 0.718130 0.323628 0.499849
O O4 0.792835 0.411951 0.412655
O O5 0.948950 0.250000 0.500000
O O6 0.925218 0.311383 0.750000
O O7 0.945624 0.384228 0.518955
O O8 0.052873 0.959293 0.750000
O O9 0.125037 0.988268 0.519415
O O10 0.000000 0.000000 0.500000
O O11 0.342587 0.644688 0.250000
O O12 0.343437 0.570900 0.008556
O O13 0.409121 0.674827 0.007515
O O14 0.669169 0.490825 0.250000
O O15 0.744348 0.517259 0.026093
O O16 0.616594 0.543595 0.007937
O O17 0.506209 0.750000 0.500000
O O18 0.469251 0.692384 0.750000
O O19 0.519048 0.622509 0.541717
O O20 0.552465 0.957361 0.250000
O O21 0.500000 0.000000 0.500000
O O22 0.825835 0.508606 0.250000
#
# Coordination Sequence:
#
# PCOD9435494 Si02
#       8
#     8   8   8   8   8   8   8   8
#     4   9  17  30  47  67  96 132 169 209 248 291
#     4  10  20  33  49  72 100 134 175 213 250 297
#     4  10  20  33  52  77 106 139 174 211 252 304
#     4  11  20  31  49  71  98 133 171 211 255 301
#     4  10  19  32  52  77 104 133 170 214 258 304
#     4  11  24  39  52  70  98 131 170 215 264 318
#     4  11  22  35  55  78 102 132 171 216 263 314
#     4   8  16  30  48  72 102 133 165 206 252 297
#
# _framework density 16.471964
#
# number of rings (size 3 to 8) (size 9 to 14) (size 15 to 20)
#    0.000    2.000    1.250    4.125    0.000    7.000 
#    0.000    2.500    0.000    0.000    0.000    0.875 
#    0.000    6.000    0.000    0.000    0.000    0.000 
#
# Total GULP energy -357040.985601 kJ/mol
# GULP energy per Si atom -5578.765400 kJ/mol
# Density = 1.643447 g / cm^3
# Si number density = 16.471964 Si / 1000 Ang^3
#
#
#
# Elastic Constant Matrix: (Units=GPa)
#
#
# Indices 1 2 3 4 5 6 
#
# 1 106.5244 52.5189 44.7933 0.0000 0.0000 0.0000
# 2 52.5189 84.7188 42.6754 0.0000 0.0000 0.0000
# 3 44.7933 42.6754 75.6090 0.0000 0.0000 0.0000
# 4 0.0000 0.0000 0.0000 23.3115 0.0000 0.0000
# 5 0.0000 0.0000 0.0000 0.0000 28.2526 0.0000
# 6 0.0000 0.0000 0.0000 0.0000 0.0000 11.4960
#
#
#
# Elastic Compliance Matrix: (Units=1/GPa)
#
#
# Indices 1 2 3 4 5 6 
#
# 1 0.014760 -0.006630 -0.005002 0.000000 0.000000 0.000000
# 2 -0.006630 0.019471 -0.007062 0.000000 0.000000 0.000000
# 3 -0.005002 -0.007062 0.020175 0.000000 0.000000 0.000000
# 4 0.000000 0.000000 0.000000 0.042897 0.000000 0.000000
# 5 0.000000 0.000000 0.000000 0.000000 0.035395 0.000000
# 6 0.000000 0.000000 0.000000 0.000000 0.000000 0.086987
#
#
# Mechanical properties :
#
#
# Convention : Reuss Voigt Hill
#
# Bulk Modulus (GPa) = 58.76182 60.75859 59.76020
# Shear Modulus (GPa) = 19.02978 21.06967 20.04973
#
# Velocity S-wave (km/s) = 3.40263 3.58036 3.49263
# Velocity P-wave (km/s) = 7.15461 7.35242 7.25419
#
# Compressibility (1/GPa) = 0.01701785
#
# Stress axis : x y z
#
# Youngs Moduli (GPa) = 67.75242 51.35753 49.56572
#
# Poissons Ratio (x) = 0.34051 0.24792
# Poissons Ratio (y) = 0.44921 0.35004
# Poissons Ratio (z) = 0.33889 0.36269
#
# Static dielectric constant tensor:
#      x y z
#    x 1.550950 0.000000 0.000000 
#    y 0.000000 1.589260 0.000000 
#    z 0.000000 0.000000 1.560170 
# 
# From -- ./inp_files/8591.got.cif
#   From: 2010.05.17/outbox.cif.g08.bks.cpg/sg57_5_cif.got.tgz:8591.got - 2010.06.03 13:58:18.
