data_PCOD9435769
_publ_section_title
;
Structure prediction by ZEFSAII (Michael W. Deem and Ramdas Pophale) SiO2 
 PCOD9435769
Probable space group: P B C M
;
_chemical_formula_sum "Si O2"
_cell_formula_units_Z 48
_cell_length_a 15.159028
_cell_length_b 18.950056
_cell_length_c 9.187562
_cell_angle_alpha 90.000000
_cell_angle_beta 90.000000
_cell_angle_gamma 90.000000
_cell_volume 2639.259756
_symmetry_space_group_name_H-M "P B C M"
_symmetry_group_IT_number 57
_symmetry_cell_setting 'orthorhombic'
loop_
_space_group_symop_operation_xyz
x,y,z
-x,-y,1/2+z
x,1/2-y,-z
-x,1/2+y,1/2-z
-x,-y,-z
x,y,1/2-z
-x,1/2+y,z
x,1/2-y,1/2+z
loop_
_atom_site_type_symbol
_atom_site_label
_atom_site_fract_x
_atom_site_fract_y
_atom_site_fract_z
Si Si1 0.884304 0.939668 0.078031
Si Si2 0.786682 0.178615 0.922439
Si Si3 0.470247 0.175114 0.924921
Si Si4 0.057154 0.602773 0.078987
Si Si5 0.682094 0.928005 0.424921
Si Si6 0.372160 0.929705 0.077164
O O1 0.893483 0.923300 0.250000
O O2 0.784485 0.923945 0.030446
O O3 0.903446 0.023409 0.061792
O O4 0.959291 0.900074 0.987124
O O5 0.795065 0.189539 0.750000
O O6 0.715282 0.117129 0.947102
O O7 0.756152 0.250000 0.000000
O O8 0.878734 0.154546 0.992326
O O9 0.475943 0.183610 0.750000
O O10 0.376163 0.140103 0.962018
O O11 0.545019 0.118338 0.967603
O O12 0.483476 0.250000 0.000000
O O13 0.056281 0.619478 0.250000
O O14 0.680814 0.935966 0.250000
O O15 0.637987 0.997194 0.493692
O O16 0.379952 0.943511 0.250000
#
# Coordination Sequence:
#
# PCOD9435769 Si02
#       6
#     8   8   8   8   8   8
#     4   9  18  33  54  80 109 142 180 226 276 325
#     4  11  22  35  53  79 114 150 186 231 281 336
#     4  10  22  39  57  81 113 149 187 227 277 333
#     4  10  19  33  54  79 108 144 184 224 276 331
#     4  10  20  36  59  85 112 145 187 234 279 329
#     4  10  21  36  56  84 113 144 185 232 280 332
#
# _framework density 18.186917999999999
#
# number of rings (size 3 to 8) (size 9 to 14) (size 15 to 20)
#    0.000    2.000    1.667    2.000    0.000    3.333 
#    0.000    0.833    0.000    2.000    0.000    0.000 
#    0.000    0.000    0.000    0.000    0.000    0.000 
#
# Total GULP energy -268034.406574 kJ/mol
# GULP energy per Si atom -5584.050137 kJ/mol
# Density = 1.814552 g / cm^3
# Si number density = 18.186918 Si / 1000 Ang^3
#
#
#
# Elastic Constant Matrix: (Units=GPa)
#
#
# Indices 1 2 3 4 5 6 
#
# 1 112.1017 11.8956 22.9841 0.0000 0.0000 0.0000
# 2 11.8956 26.1924 17.7854 0.0000 0.0000 0.0000
# 3 22.9841 17.7854 32.6024 0.0000 0.0000 0.0000
# 4 0.0000 0.0000 0.0000 27.0197 0.0000 0.0000
# 5 0.0000 0.0000 0.0000 0.0000 21.4022 0.0000
# 6 0.0000 0.0000 0.0000 0.0000 0.0000 13.7103
#
#
#
# Elastic Compliance Matrix: (Units=1/GPa)
#
#
# Indices 1 2 3 4 5 6 
#
# 1 0.010430 0.000407 -0.007575 0.000000 0.000000 0.000000
# 2 0.000407 0.060658 -0.033377 0.000000 0.000000 0.000000
# 3 -0.007575 -0.033377 0.054221 0.000000 0.000000 0.000000
# 4 0.000000 0.000000 0.000000 0.037010 0.000000 0.000000
# 5 0.000000 0.000000 0.000000 0.000000 0.046724 0.000000
# 6 0.000000 0.000000 0.000000 0.000000 0.000000 0.072938
#
#
# Mechanical properties :
#
#
# Convention : Reuss Voigt Hill
#
# Bulk Modulus (GPa) = 22.61507 30.69186 26.65347
# Shear Modulus (GPa) = 13.23406 20.30853 16.77129
#
# Velocity S-wave (km/s) = 2.70046 3.34527 3.04001
# Velocity P-wave (km/s) = 4.71011 5.64212 5.19705
#
# Compressibility (1/GPa) = 0.04421830
#
# Stress axis : x y z
#
# Youngs Moduli (GPa) = 95.87338 16.48574 18.44307
#
# Poissons Ratio (x) = -0.00670 0.13971
# Poissons Ratio (y) = -0.03898 0.61558
# Poissons Ratio (z) = 0.72624 0.55025
#
# Static dielectric constant tensor:
#      x y z
#    x 1.634700 0.000000 0.000000 
#    y 0.000000 1.590630 0.000000 
#    z 0.000000 0.000000 1.601900 
# 
# From -- ./inp_files/4581.got.cif
#   From: 2010.05.17/outbox.cif.g08.bks.cpg/sg57_3_cif.got.tgz:4581.got - 2010.06.03 13:58:18.
