data_PCOD9435171
_publ_section_title
;
Structure prediction by ZEFSAII (Michael W. Deem and Ramdas Pophale) SiO2 
 PCOD9435171
Probable space group: P B C M
;
_chemical_formula_sum "Si O2"
_cell_formula_units_Z 64
_cell_length_a 12.736125
_cell_length_b 27.696065
_cell_length_c 8.016742
_cell_angle_alpha 90.000000
_cell_angle_beta 90.000000
_cell_angle_gamma 90.000000
_cell_volume 2827.829949
_symmetry_space_group_name_H-M "P B C M"
_symmetry_group_IT_number 57
_symmetry_cell_setting 'orthorhombic'
loop_
_space_group_symop_operation_xyz
x,y,z
-x,-y,1/2+z
x,1/2-y,-z
-x,1/2+y,1/2-z
-x,-y,-z
x,y,1/2-z
-x,1/2+y,z
x,1/2-y,1/2+z
loop_
_atom_site_type_symbol
_atom_site_label
_atom_site_fract_x
_atom_site_fract_y
_atom_site_fract_z
Si Si1 0.024970 0.303106 0.449678
Si Si2 0.271037 0.904840 0.045123
Si Si3 0.708345 0.954414 0.440307
Si Si4 0.420584 0.303664 0.449486
Si Si5 0.783661 0.301538 0.449733
Si Si6 0.222448 0.355155 0.940327
Si Si7 0.498974 0.589449 0.953673
Si Si8 0.890297 0.021997 0.940595
O O1 0.062858 0.250000 0.500000
O O2 0.027852 0.308856 0.250000
O O3 0.904481 0.305644 0.507594
O O4 0.102978 0.340479 0.532374
O O5 0.268226 0.906454 0.250000
O O6 0.273880 0.849247 0.992723
O O7 0.382730 0.926680 0.994136
O O8 0.165575 0.930736 0.981774
O O9 0.706276 0.972642 0.250000
O O10 0.749267 0.899342 0.441136
O O11 0.591185 0.946487 0.510701
O O12 0.794229 0.984310 0.541720
O O13 0.459206 0.250000 0.500000
O O14 0.420301 0.304568 0.250000
O O15 0.302331 0.311864 0.517164
O O16 0.477960 0.354232 0.503201
O O17 0.739219 0.250000 0.500000
O O18 0.785380 0.302343 0.250000
O O19 0.240197 0.370132 0.750000
O O20 0.503391 0.589133 0.750000
O O21 0.910938 0.034227 0.750000
O O22 0.000000 0.000000 0.000000
#
# Coordination Sequence:
#
# PCOD9435171 Si02
#       8
#     8   8   8   8   8   8   8   8
#     4  10  19  31  48  73 107 149 197 245 297 354
#     4   9  19  38  62  88 119 157 199 243 298 360
#     4  10  21  39  61  86 119 155 193 242 299 359
#     4  10  19  32  51  79 116 157 198 247 299 353
#     4   9  19  35  56  82 114 154 195 238 289 349
#     4  11  21  33  52  79 111 151 197 247 298 355
#     4   8  17  35  59  85 114 154 201 246 298 358
#     4  11  24  41  64  93 123 158 199 247 300 362
#
# _framework density 22.632196
#
# number of rings (size 3 to 8) (size 9 to 14) (size 15 to 20)
#    0.000    2.250    0.000    3.750    1.750    1.500 
#    0.000    1.250    0.000   12.000    0.000    0.000 
#    0.000    0.000    0.000    0.000    0.000    0.000 
#
# Total GULP energy -357114.847450 kJ/mol
# GULP energy per Si atom -5579.919491 kJ/mol
# Density = 2.258068 g / cm^3
# Si number density = 22.632196 Si / 1000 Ang^3
#
#
#
# Elastic Constant Matrix: (Units=GPa)
#
#
# Indices 1 2 3 4 5 6 
#
# 1 105.4387 32.1048 -1.4589 0.0000 0.0000 0.0000
# 2 32.1048 68.3305 -7.9584 0.0000 0.0000 0.0000
# 3 -1.4589 -7.9584 38.3517 0.0000 0.0000 0.0000
# 4 0.0000 0.0000 0.0000 22.4119 0.0000 0.0000
# 5 0.0000 0.0000 0.0000 0.0000 3.4578 0.0000
# 6 0.0000 0.0000 0.0000 0.0000 0.0000 19.8209
#
#
#
# Elastic Compliance Matrix: (Units=1/GPa)
#
#
# Indices 1 2 3 4 5 6 
#
# 1 0.011085 -0.005287 -0.000675 0.000000 0.000000 0.000000
# 2 -0.005287 0.017519 0.003434 0.000000 0.000000 0.000000
# 3 -0.000675 0.003434 0.026761 0.000000 0.000000 0.000000
# 4 0.000000 0.000000 0.000000 0.044619 0.000000 0.000000
# 5 0.000000 0.000000 0.000000 0.000000 0.289202 0.000000
# 6 0.000000 0.000000 0.000000 0.000000 0.000000 0.050452
#
#
# Mechanical properties :
#
#
# Convention : Reuss Voigt Hill
#
# Bulk Modulus (GPa) = 19.87718 28.61063 24.24391
# Shear Modulus (GPa) = 10.83511 21.76700 16.30106
#
# Velocity S-wave (km/s) = 2.19040 3.10461 2.68668
# Velocity P-wave (km/s) = 3.89858 5.05178 4.51217
#
# Compressibility (1/GPa) = 0.05030894
#
# Stress axis : x y z
#
# Youngs Moduli (GPa) = 90.21542 57.08191 37.36722
#
# Poissons Ratio (x) = 0.30178 0.02524
# Poissons Ratio (y) = 0.47694 -0.12833
# Poissons Ratio (z) = 0.06093 -0.19603
#
# Static dielectric constant tensor:
#      x y z
#    x 1.854520 0.000000 0.000000 
#    y 0.000000 1.877730 0.000000 
#    z 0.000000 0.000000 1.766760 
# 
# From -- ./inp_files/3759.got.cif
#   From: 2010.05.17/outbox.cif.g08.bks.cpg/sg57_2_cif.got.tgz:3759.got - 2010.06.03 13:58:18.
