data_PCOD9435029
_publ_section_title
;
Structure prediction by ZEFSAII (Michael W. Deem and Ramdas Pophale) SiO2 
 PCOD9435029
Probable space group: P B C M
;
_chemical_formula_sum "Si O2"
_cell_formula_units_Z 64
_cell_length_a 15.265336
_cell_length_b 30.539068
_cell_length_c 8.753044
_cell_angle_alpha 90.000000
_cell_angle_beta 90.000000
_cell_angle_gamma 90.000000
_cell_volume 4080.574004
_symmetry_space_group_name_H-M "P B C M"
_symmetry_group_IT_number 57
_symmetry_cell_setting 'orthorhombic'
loop_
_space_group_symop_operation_xyz
x,y,z
-x,-y,1/2+z
x,1/2-y,-z
-x,1/2+y,1/2-z
-x,-y,-z
x,y,1/2-z
-x,1/2+y,z
x,1/2-y,1/2+z
loop_
_atom_site_type_symbol
_atom_site_label
_atom_site_fract_x
_atom_site_fract_y
_atom_site_fract_z
Si Si1 0.178917 0.459784 0.567245
Si Si2 0.204044 0.795239 0.933107
Si Si3 0.991726 0.203843 0.566396
Si Si4 0.044037 0.107711 0.934371
Si Si5 0.290067 0.613832 0.433843
Si Si6 0.370947 0.468620 0.068726
Si Si7 0.867559 0.057039 0.934285
Si Si8 0.456339 0.936715 0.932902
O O1 0.175819 0.458152 0.750000
O O2 0.124555 0.419602 0.499560
O O3 0.279283 0.459983 0.512833
O O4 0.135800 0.506246 0.517067
O O5 0.195668 0.792336 0.750000
O O6 0.262281 0.837051 0.972993
O O7 0.239870 0.750000 0.000000
O O8 0.107532 0.801065 0.004821
O O9 0.025771 0.250000 0.500000
O O10 0.989555 0.206635 0.750000
O O11 0.040601 0.158958 0.521711
O O12 0.046257 0.106002 0.750000
O O13 0.954229 0.083273 0.984809
O O14 0.285377 0.608904 0.250000
O O15 0.218457 0.581328 0.504528
O O16 0.388059 0.600663 0.479981
O O17 0.358661 0.465641 0.250000
O O18 0.405708 0.517671 0.032801
O O19 0.450293 0.437753 0.014391
O O20 0.865731 0.058136 0.750000
O O21 0.470263 0.935241 0.750000
#
# Coordination Sequence:
#
# PCOD9435029 Si02
#       8
#     8   8   8   8   8   8   8   8
#     4  11  22  33  49  71  97 132 170 207 244 287
#     4  10  19  30  47  70  97 128 162 198 241 289
#     4  10  19  32  50  70  95 126 161 203 248 288
#     4  10  21  35  49  68  97 133 167 203 245 288
#     4  10  19  31  49  72  97 130 165 199 240 287
#     4  10  19  32  50  70  95 127 160 199 244 287
#     4  10  20  33  47  68  99 133 168 203 238 282
#     4   9  18  32  49  70  96 124 159 200 240 285
#
# _framework density 15.684068
#
# number of rings (size 3 to 8) (size 9 to 14) (size 15 to 20)
#    0.000    2.000    2.500    2.625    0.000    3.500 
#    0.000    0.000    0.000    0.000    0.000    0.875 
#    0.000    4.000    0.000    0.000    0.000    0.000 
#
# Total GULP energy -357039.371895 kJ/mol
# GULP energy per Si atom -5578.740186 kJ/mol
# Density = 1.564837 g / cm^3
# Si number density = 15.684068 Si / 1000 Ang^3
#
#
#
# Elastic Constant Matrix: (Units=GPa)
#
#
# Indices 1 2 3 4 5 6 
#
# 1 71.0967 53.0206 21.5837 0.0000 0.0000 0.0000
# 2 53.0206 136.0292 38.6829 0.0000 0.0000 0.0000
# 3 21.5837 38.6829 24.0350 0.0000 0.0000 0.0000
# 4 0.0000 0.0000 0.0000 20.4515 0.0000 0.0000
# 5 0.0000 0.0000 0.0000 0.0000 23.4210 0.0000
# 6 0.0000 0.0000 0.0000 0.0000 0.0000 23.3036
#
#
#
# Elastic Compliance Matrix: (Units=1/GPa)
#
#
# Indices 1 2 3 4 5 6 
#
# 1 0.021194 -0.005253 -0.010579 0.000000 0.000000 0.000000
# 2 -0.005253 0.014857 -0.019195 0.000000 0.000000 0.000000
# 3 -0.010579 -0.019195 0.081998 0.000000 0.000000 0.000000
# 4 0.000000 0.000000 0.000000 0.048896 0.000000 0.000000
# 5 0.000000 0.000000 0.000000 0.000000 0.042697 0.000000
# 6 0.000000 0.000000 0.000000 0.000000 0.000000 0.042912
#
#
# Mechanical properties :
#
#
# Convention : Reuss Voigt Hill
#
# Bulk Modulus (GPa) = 20.83441 50.85948 35.84694
# Shear Modulus (GPa) = 14.76646 21.29349 18.02997
#
# Velocity S-wave (km/s) = 3.07171 3.68863 3.39421
# Velocity P-wave (km/s) = 5.08853 7.11612 6.18597
#
# Compressibility (1/GPa) = 0.04799752
#
# Stress axis : x y z
#
# Youngs Moduli (GPa) = 47.18319 67.30774 12.19535
#
# Poissons Ratio (x) = 0.35354 0.12901
# Poissons Ratio (y) = 0.24783 0.23409
# Poissons Ratio (z) = 0.49914 1.29196
#
# Static dielectric constant tensor:
#      x y z
#    x 1.496820 0.000000 0.000000 
#    y 0.000000 1.536660 0.000000 
#    z 0.000000 0.000000 1.527310 
# 
# From -- ./inp_files/5974.got.cif
#   From: 2010.05.17/outbox.cif.g08.bks.cpg/sg57_3_cif.got.tgz:5974.got - 2010.06.03 13:58:18.
