data_PCOD9435284
_publ_section_title
;
Structure prediction by ZEFSAII (Michael W. Deem and Ramdas Pophale) SiO2 
 PCOD9435284
Probable space group: P B C M
;
_chemical_formula_sum "Si O2"
_cell_formula_units_Z 56
_cell_length_a 17.006897
_cell_length_b 21.618016
_cell_length_c 8.837115
_cell_angle_alpha 90.000000
_cell_angle_beta 90.000000
_cell_angle_gamma 90.000000
_cell_volume 3249.012798
_symmetry_space_group_name_H-M "P B C M"
_symmetry_group_IT_number 57
_symmetry_cell_setting 'orthorhombic'
loop_
_space_group_symop_operation_xyz
x,y,z
-x,-y,1/2+z
x,1/2-y,-z
-x,1/2+y,1/2-z
-x,-y,-z
x,y,1/2-z
-x,1/2+y,z
x,1/2-y,1/2+z
loop_
_atom_site_type_symbol
_atom_site_label
_atom_site_fract_x
_atom_site_fract_y
_atom_site_fract_z
Si Si1 0.196153 0.019541 0.430465
Si Si2 0.192734 0.873708 0.429068
Si Si3 0.043149 0.683011 0.430237
Si Si4 0.377579 0.021162 0.431734
Si Si5 0.959721 0.938037 0.430488
Si Si6 0.471992 0.593768 0.070383
Si Si7 0.641445 0.316046 0.429214
O O1 0.187597 0.031654 0.250000
O O2 0.287000 0.031057 0.473852
O O3 0.131697 0.056915 0.523486
O O4 0.179588 0.946493 0.453916
O O5 0.179593 0.861059 0.250000
O O6 0.133296 0.832756 0.525544
O O7 0.283029 0.858559 0.464358
O O8 0.022278 0.750000 0.500000
O O9 0.033327 0.684242 0.250000
O O10 0.995875 0.624887 0.501008
O O11 0.378656 0.009838 0.250000
O O12 0.437759 0.076863 0.465468
O O13 0.417509 0.962246 0.510329
O O14 0.971040 0.938617 0.250000
O O15 0.000000 0.000000 0.500000
O O16 0.464396 0.597552 0.250000
O O17 0.437220 0.654441 0.995292
O O18 0.656853 0.250000 0.500000
O O19 0.635268 0.311777 0.250000
#
# Coordination Sequence:
#
# PCOD9435284 Si02
#       7
#     8   8   8   8   8   8   8
#     4  10  19  35  58  83 115 149 184 231 284 331
#     4  10  20  35  56  81 114 151 187 227 277 335
#     4  12  25  41  61  84 114 152 192 236 285 341
#     4   9  18  34  54  78 108 142 177 222 274 320
#     4  12  24  39  59  86 116 150 192 236 285 339
#     4  10  19  31  52  79 107 141 182 221 266 322
#     4  11  22  36  52  75 110 150 187 226 273 326
#
# _framework density 17.236004999999999
#
# number of rings (size 3 to 8) (size 9 to 14) (size 15 to 20)
#    0.000    1.429    2.857    3.857    0.000    3.429 
#    0.000    0.000    0.000    0.857    0.000    4.000 
#    0.000    0.000    0.000    0.000    0.000    0.000 
#
# Total GULP energy -312714.205511 kJ/mol
# GULP energy per Si atom -5584.182241 kJ/mol
# Density = 1.719678 g / cm^3
# Si number density = 17.236005 Si / 1000 Ang^3
#
#
#
# Elastic Constant Matrix: (Units=GPa)
#
#
# Indices 1 2 3 4 5 6 
#
# 1 101.1617 39.9317 50.9913 0.0000 0.0000 0.0000
# 2 39.9317 85.5901 53.8139 0.0000 0.0000 0.0000
# 3 50.9913 53.8139 81.9411 0.0000 0.0000 0.0000
# 4 0.0000 0.0000 0.0000 28.7857 0.0000 0.0000
# 5 0.0000 0.0000 0.0000 0.0000 24.7891 0.0000
# 6 0.0000 0.0000 0.0000 0.0000 0.0000 25.8095
#
#
#
# Elastic Compliance Matrix: (Units=1/GPa)
#
#
# Indices 1 2 3 4 5 6 
#
# 1 0.014576 -0.001869 -0.007843 0.000000 0.000000 0.000000
# 2 -0.001869 0.020141 -0.012064 0.000000 0.000000 0.000000
# 3 -0.007843 -0.012064 0.025008 0.000000 0.000000 0.000000
# 4 0.000000 0.000000 0.000000 0.034740 0.000000 0.000000
# 5 0.000000 0.000000 0.000000 0.000000 0.040340 0.000000
# 6 0.000000 0.000000 0.000000 0.000000 0.000000 0.038745
#
#
# Mechanical properties :
#
#
# Convention : Reuss Voigt Hill
#
# Bulk Modulus (GPa) = 61.83578 62.01851 61.92715
# Shear Modulus (GPa) = 22.47255 24.14059 23.30657
#
# Velocity S-wave (km/s) = 3.61475 3.74651 3.68122
# Velocity P-wave (km/s) = 7.30587 7.40102 7.35360
#
# Compressibility (1/GPa) = 0.01617187
#
# Stress axis : x y z
#
# Youngs Moduli (GPa) = 68.60392 49.65041 39.98791
#
# Poissons Ratio (x) = 0.09281 0.31363
# Poissons Ratio (y) = 0.12824 0.48242
# Poissons Ratio (z) = 0.53807 0.59898
#
# Static dielectric constant tensor:
#      x y z
#    x 1.599840 0.000000 0.000000 
#    y 0.000000 1.568930 0.000000 
#    z 0.000000 0.000000 1.575610 
# 
# From -- ./inp_files/5275.got.cif
#   From: 2010.05.17/outbox.cif.g08.bks.cpg/sg57_3_cif.got.tgz:5275.got - 2010.06.03 13:58:18.
