data_PCOD9435134
_publ_section_title
;
Structure prediction by ZEFSAII (Michael W. Deem and Ramdas Pophale) SiO2 
 PCOD9435134
Probable space group: P B C M
;
_chemical_formula_sum "Si O2"
_cell_formula_units_Z 64
_cell_length_a 10.445322
_cell_length_b 28.461197
_cell_length_c 9.927713
_cell_angle_alpha 90.000000
_cell_angle_beta 90.000000
_cell_angle_gamma 90.000000
_cell_volume 2951.373732
_symmetry_space_group_name_H-M "P B C M"
_symmetry_group_IT_number 57
_symmetry_cell_setting 'orthorhombic'
loop_
_space_group_symop_operation_xyz
x,y,z
-x,-y,1/2+z
x,1/2-y,-z
-x,1/2+y,1/2-z
-x,-y,-z
x,y,1/2-z
-x,1/2+y,z
x,1/2-y,1/2+z
loop_
_atom_site_type_symbol
_atom_site_label
_atom_site_fract_x
_atom_site_fract_y
_atom_site_fract_z
Si Si1 0.493461 0.783265 0.113911
Si Si2 0.530846 0.563271 0.905502
Si Si3 0.701620 0.512233 0.401848
Si Si4 0.207489 0.203400 0.910309
Si Si5 0.940690 0.866257 0.908347
Si Si6 0.660717 0.135297 0.522017
Si Si7 0.897009 0.069516 0.905487
Si Si8 0.172121 0.708002 0.105408
O O1 0.493871 0.754560 0.250000
O O2 0.638581 0.798290 0.089684
O O3 0.446719 0.750000 0.000000
O O4 0.401645 0.826935 0.118862
O O5 0.551434 0.579254 0.750000
O O6 0.423670 0.521967 0.895140
O O7 0.660163 0.547169 0.979428
O O8 0.456583 0.600118 0.001035
O O9 0.716445 0.531979 0.250000
O O10 0.826449 0.480341 0.432093
O O11 0.167212 0.206061 0.750000
O O12 0.172258 0.250000 0.000000
O O13 0.161244 0.157428 0.990817
O O14 0.906057 0.874496 0.750000
O O15 0.047247 0.824809 0.906145
O O16 0.002725 0.911603 0.983549
O O17 0.777716 0.106119 0.584087
O O18 0.718117 0.168347 0.407524
O O19 0.944136 0.069883 0.750000
O O20 0.177212 0.731343 0.250000
O O21 0.169905 0.750000 0.000000
#
# Coordination Sequence:
#
# PCOD9435134 Si02
#       8
#     8   8   8   8   8   8   8   8
#     4  10  21  35  50  68  92 124 161 199 235 272
#     4   9  16  26  43  65  90 124 159 189 223 268
#     4   8  15  27  42  64  94 125 155 186 225 273
#     4  10  20  34  51  69  90 119 157 199 239 276
#     4  10  20  33  49  71  96 121 154 195 238 282
#     4  10  19  31  48  69  97 127 161 194 228 277
#     4   9  17  30  49  72  99 130 158 187 230 283
#     4  10  22  34  46  67  94 125 157 191 234 281
#
# _framework density 21.684816999999999
#
# number of rings (size 3 to 8) (size 9 to 14) (size 15 to 20)
#    0.000    2.500    0.000    3.375    0.000    7.500 
#    0.000    5.000    0.000    0.000    0.000    0.875 
#    0.000    0.000    0.000    0.000    0.000    0.000 
#
# Total GULP energy -356413.097844 kJ/mol
# GULP energy per Si atom -5568.954654 kJ/mol
# Density = 2.163546 g / cm^3
# Si number density = 21.684817 Si / 1000 Ang^3
#
#
#
# Elastic Constant Matrix: (Units=GPa)
#
#
# Indices 1 2 3 4 5 6 
#
# 1 26.3625 8.3220 11.8621 0.0000 0.0000 0.0000
# 2 8.3220 42.0435 17.6358 0.0000 0.0000 0.0000
# 3 11.8621 17.6358 104.7465 0.0000 0.0000 0.0000
# 4 0.0000 0.0000 0.0000 23.7266 0.0000 0.0000
# 5 0.0000 0.0000 0.0000 0.0000 0.8103 0.0000
# 6 0.0000 0.0000 0.0000 0.0000 0.0000 21.8587
#
#
#
# Elastic Compliance Matrix: (Units=1/GPa)
#
#
# Indices 1 2 3 4 5 6 
#
# 1 0.041675 -0.006746 -0.003584 0.000000 0.000000 0.000000
# 2 -0.006746 0.026684 -0.003729 0.000000 0.000000 0.000000
# 3 -0.003584 -0.003729 0.010581 0.000000 0.000000 0.000000
# 4 0.000000 0.000000 0.000000 0.042147 0.000000 0.000000
# 5 0.000000 0.000000 0.000000 0.000000 1.234044 0.000000
# 6 0.000000 0.000000 0.000000 0.000000 0.000000 0.045748
#
#
# Mechanical properties :
#
#
# Convention : Reuss Voigt Hill
#
# Bulk Modulus (GPa) = 19.67615 27.64358 23.65987
# Shear Modulus (GPa) = 3.45797 18.30129 10.87963
#
# Velocity S-wave (km/s) = 1.26416 2.90826 2.24233
# Velocity P-wave (km/s) = 3.35026 4.90438 4.19983
#
# Compressibility (1/GPa) = 0.05082294
#
# Stress axis : x y z
#
# Youngs Moduli (GPa) = 23.99536 37.47530 94.51348
#
# Poissons Ratio (x) = 0.25280 0.33871
# Poissons Ratio (y) = 0.16187 0.35242
# Poissons Ratio (z) = 0.08599 0.13974
#
# Static dielectric constant tensor:
#      x y z
#    x 1.815440 0.000000 0.000000 
#    y 0.000000 1.815430 0.000000 
#    z 0.000000 0.000000 1.826010 
# 
# From -- ./inp_files/3769.got.cif
#   From: 2010.05.17/outbox.cif.g08.bks.cpg/sg57_2_cif.got.tgz:3769.got - 2010.06.03 13:58:18.
