data_PCOD9435524
_publ_section_title
;
Structure prediction by ZEFSAII (Michael W. Deem and Ramdas Pophale) SiO2 
 PCOD9435524
Probable space group: P B C M
;
_chemical_formula_sum "Si O2"
_cell_formula_units_Z 48
_cell_length_a 9.237621
_cell_length_b 18.843291
_cell_length_c 15.504708
_cell_angle_alpha 90.000000
_cell_angle_beta 90.000000
_cell_angle_gamma 90.000000
_cell_volume 2698.860808
_symmetry_space_group_name_H-M "P B C M"
_symmetry_group_IT_number 57
_symmetry_cell_setting 'orthorhombic'
loop_
_space_group_symop_operation_xyz
x,y,z
-x,-y,1/2+z
x,1/2-y,-z
-x,1/2+y,1/2-z
-x,-y,-z
x,y,1/2-z
-x,1/2+y,z
x,1/2-y,1/2+z
loop_
_atom_site_type_symbol
_atom_site_label
_atom_site_fract_x
_atom_site_fract_y
_atom_site_fract_z
Si Si1 0.323967 0.315130 0.649109
Si Si2 0.841333 0.918173 0.519210
Si Si3 0.814581 0.421553 0.998154
Si Si4 0.337439 0.842044 0.651443
Si Si5 0.864690 0.284741 0.093039
Si Si6 0.174225 0.167939 0.652155
O O1 0.291023 0.330248 0.750000
O O2 0.232561 0.365526 0.586669
O O3 0.494310 0.326072 0.635401
O O4 0.280763 0.233504 0.633932
O O5 0.811360 0.890380 0.422257
O O6 0.015628 0.917271 0.528558
O O7 0.788439 0.998784 0.529214
O O8 0.794096 0.360694 0.070266
O O9 0.719913 0.399153 0.916556
O O10 0.319532 0.865520 0.750000
O O11 0.243124 0.770623 0.636898
O O12 0.012238 0.299656 0.143458
O O13 0.903770 0.250000 0.000000
O O14 0.196054 0.142286 0.750000
#
# Coordination Sequence:
#
# PCOD9435524 Si02
#       6
#     8   8   8   8   8   8
#     4  10  21  35  52  77 105 137 176 214 257 306
#     4  10  20  36  54  76 107 139 171 213 259 308
#     4   9  20  35  52  76 104 135 174 210 257 311
#     4  10  20  34  53  77 104 134 172 215 257 306
#     4   9  17  32  53  75  99 132 171 212 259 308
#     4  10  19  32  53  78 102 132 173 217 260 307
#
# _framework density 17.785281000000001
#
# number of rings (size 3 to 8) (size 9 to 14) (size 15 to 20)
#    0.000    2.333    0.000    4.000    0.000    7.333 
#    0.000    7.500    0.000    4.000    0.000    0.000 
#    0.000    0.000    0.000    0.000    0.000    0.000 
#
# Total GULP energy -267823.380887 kJ/mol
# GULP energy per Si atom -5579.653768 kJ/mol
# Density = 1.774480 g / cm^3
# Si number density = 17.785281 Si / 1000 Ang^3
#
#
#
# Elastic Constant Matrix: (Units=GPa)
#
#
# Indices 1 2 3 4 5 6 
#
# 1 25.2181 -5.0637 14.3770 0.0000 0.0000 0.0000
# 2 -5.0637 50.3156 6.3919 0.0000 0.0000 0.0000
# 3 14.3770 6.3919 46.6824 0.0000 0.0000 0.0000
# 4 0.0000 0.0000 0.0000 8.0514 0.0000 0.0000
# 5 0.0000 0.0000 0.0000 0.0000 25.4641 0.0000
# 6 0.0000 0.0000 0.0000 0.0000 0.0000 6.2466
#
#
#
# Elastic Compliance Matrix: (Units=1/GPa)
#
#
# Indices 1 2 3 4 5 6 
#
# 1 0.050530 0.007187 -0.016546 0.000000 0.000000 0.000000
# 2 0.007187 0.021249 -0.005123 0.000000 0.000000 0.000000
# 3 -0.016546 -0.005123 0.027219 0.000000 0.000000 0.000000
# 4 0.000000 0.000000 0.000000 0.124202 0.000000 0.000000
# 5 0.000000 0.000000 0.000000 0.000000 0.039271 0.000000
# 6 0.000000 0.000000 0.000000 0.000000 0.000000 0.160086
#
#
# Mechanical properties :
#
#
# Convention : Reuss Voigt Hill
#
# Bulk Modulus (GPa) = 14.27879 17.06961 15.67420
# Shear Modulus (GPa) = 10.52931 15.05316 12.79123
#
# Velocity S-wave (km/s) = 2.43579 2.91242 2.68471
# Velocity P-wave (km/s) = 3.99458 4.57472 4.29446
#
# Compressibility (1/GPa) = 0.07003396
#
# Stress axis : x y z
#
# Youngs Moduli (GPa) = 19.79008 47.06173 36.73954
#
# Poissons Ratio (x) = -0.33825 0.60790
# Poissons Ratio (y) = -0.14224 0.18822
# Poissons Ratio (z) = 0.32745 0.24110
#
# Static dielectric constant tensor:
#      x y z
#    x 1.593480 0.000000 0.000000 
#    y 0.000000 1.602640 0.000000 
#    z 0.000000 0.000000 1.602680 
# 
# From -- ./inp_files/16375.got.cif
#   From: 2010.05.17/outbox.cif.g08.bks.cpg/sg57_9_cif.got.tgz:16375.got - 2010.06.03 13:58:18.
