data_PCOD9435112
_publ_section_title
;
Structure prediction by ZEFSAII (Michael W. Deem and Ramdas Pophale) SiO2 
 PCOD9435112
Probable space group: P B C M
;
_chemical_formula_sum "Si O2"
_cell_formula_units_Z 56
_cell_length_a 16.502912
_cell_length_b 25.028441
_cell_length_c 8.735644
_cell_angle_alpha 90.000000
_cell_angle_beta 90.000000
_cell_angle_gamma 90.000000
_cell_volume 3608.189261
_symmetry_space_group_name_H-M "P B C M"
_symmetry_group_IT_number 57
_symmetry_cell_setting 'orthorhombic'
loop_
_space_group_symop_operation_xyz
x,y,z
-x,-y,1/2+z
x,1/2-y,-z
-x,1/2+y,1/2-z
-x,-y,-z
x,y,1/2-z
-x,1/2+y,z
x,1/2-y,1/2+z
loop_
_atom_site_type_symbol
_atom_site_label
_atom_site_fract_x
_atom_site_fract_y
_atom_site_fract_z
Si Si1 0.483669 0.586852 0.067343
Si Si2 0.966641 0.555883 0.066055
Si Si3 0.587234 0.307762 0.067235
Si Si4 0.766197 0.307396 0.567287
Si Si5 0.880849 0.397122 0.067613
Si Si6 0.200391 0.486975 0.567545
Si Si7 0.622832 0.985160 0.432236
O O1 0.482770 0.594156 0.250000
O O2 0.413143 0.543784 0.026547
O O3 0.467881 0.643087 0.986430
O O4 0.566245 0.558220 0.015013
O O5 0.973526 0.555547 0.250000
O O6 0.871198 0.554888 0.027255
O O7 0.000000 0.500000 0.000000
O O8 0.027499 0.598907 0.995213
O O9 0.590583 0.304512 0.250000
O O10 0.562375 0.250000 0.000000
O O11 0.677322 0.318945 0.001838
O O12 0.790706 0.250000 0.500000
O O13 0.760056 0.305007 0.750000
O O14 0.829266 0.351810 0.514402
O O15 0.881657 0.389235 0.250000
O O16 0.836584 0.454036 0.037378
O O17 0.214812 0.483403 0.750000
O O18 0.284291 0.480216 0.480808
O O19 0.613754 0.979223 0.250000
#
# Coordination Sequence:
#
# PCOD9435112 Si02
#       7
#     8   8   8   8   8   8   8
#     4  10  20  34  49  68  96 127 160 197 239 285
#     4   9  17  29  44  65  92 122 155 189 227 271
#     4  11  21  34  51  71  96 125 160 198 237 281
#     4  11  21  33  48  68  94 124 158 193 231 275
#     4  10  19  31  47  68  94 125 158 193 234 276
#     4   9  18  30  45  66  94 125 155 189 230 276
#     4  10  20  31  47  70  95 126 161 197 238 285
#
# _framework density 15.520250000000001
#
# number of rings (size 3 to 8) (size 9 to 14) (size 15 to 20)
#    0.000    2.000    0.000    6.857    0.000    7.429 
#    0.000    0.000    0.000    0.000    0.000    1.000 
#    0.000    6.857    0.000    0.000    0.000    0.000 
#
# Total GULP energy -312422.783350 kJ/mol
# GULP energy per Si atom -5578.978274 kJ/mol
# Density = 1.548493 g / cm^3
# Si number density = 15.520250 Si / 1000 Ang^3
#
#
#
# Elastic Constant Matrix: (Units=GPa)
#
#
# Indices 1 2 3 4 5 6 
#
# 1 87.2041 40.3048 46.6623 0.0000 0.0000 0.0000
# 2 40.3048 82.0132 50.1639 0.0000 0.0000 0.0000
# 3 46.6623 50.1639 101.7188 0.0000 0.0000 0.0000
# 4 0.0000 0.0000 0.0000 25.1237 0.0000 0.0000
# 5 0.0000 0.0000 0.0000 0.0000 29.8056 0.0000
# 6 0.0000 0.0000 0.0000 0.0000 0.0000 23.1153
#
#
#
# Elastic Compliance Matrix: (Units=1/GPa)
#
#
# Indices 1 2 3 4 5 6 
#
# 1 0.016508 -0.004984 -0.005115 0.000000 0.000000 0.000000
# 2 -0.004984 0.018965 -0.007066 0.000000 0.000000 0.000000
# 3 -0.005115 -0.007066 0.015662 0.000000 0.000000 0.000000
# 4 0.000000 0.000000 0.000000 0.039803 0.000000 0.000000
# 5 0.000000 0.000000 0.000000 0.000000 0.033551 0.000000
# 6 0.000000 0.000000 0.000000 0.000000 0.000000 0.043261
#
#
# Mechanical properties :
#
#
# Convention : Reuss Voigt Hill
#
# Bulk Modulus (GPa) = 59.50844 60.57756 60.04300
# Shear Modulus (GPa) = 24.07529 24.52926 24.30227
#
# Velocity S-wave (km/s) = 3.94282 3.97982 3.96137
# Velocity P-wave (km/s) = 7.69113 7.76110 7.72620
#
# Compressibility (1/GPa) = 0.01680434
#
# Stress axis : x y z
#
# Youngs Moduli (GPa) = 60.57711 52.72946 63.84801
#
# Poissons Ratio (x) = 0.26281 0.32657
# Poissons Ratio (y) = 0.30193 0.45117
# Poissons Ratio (z) = 0.30984 0.37260
#
# Static dielectric constant tensor:
#      x y z
#    x 1.515790 0.000000 0.000000 
#    y 0.000000 1.497230 0.000000 
#    z 0.000000 0.000000 1.517150 
# 
# From -- ./inp_files/5132.got.cif
#   From: 2010.05.17/outbox.cif.g08.bks.cpg/sg57_3_cif.got.tgz:5132.got - 2010.06.03 13:58:18.
