data_PCOD9435599
_publ_section_title
;
Structure prediction by ZEFSAII (Michael W. Deem and Ramdas Pophale) SiO2 
 PCOD9435599
Probable space group: P B C M
;
_chemical_formula_sum "Si O2"
_cell_formula_units_Z 64
_cell_length_a 10.066778
_cell_length_b 19.594207
_cell_length_c 17.727774
_cell_angle_alpha 90.000000
_cell_angle_beta 90.000000
_cell_angle_gamma 90.000000
_cell_volume 3496.812852
_symmetry_space_group_name_H-M "P B C M"
_symmetry_group_IT_number 57
_symmetry_cell_setting 'orthorhombic'
loop_
_space_group_symop_operation_xyz
x,y,z
-x,-y,1/2+z
x,1/2-y,-z
-x,1/2+y,1/2-z
-x,-y,-z
x,y,1/2-z
-x,1/2+y,z
x,1/2-y,1/2+z
loop_
_atom_site_type_symbol
_atom_site_label
_atom_site_fract_x
_atom_site_fract_y
_atom_site_fract_z
Si Si1 0.234820 0.658570 0.337215
Si Si2 0.897636 0.469365 0.899689
Si Si3 0.217262 0.813362 0.162183
Si Si4 0.428495 0.012588 0.419145
Si Si5 0.662710 0.559082 0.838015
Si Si6 0.482085 0.311723 0.105040
Si Si7 0.143765 0.943266 0.425253
Si Si8 0.505824 0.839628 0.927215
O O1 0.280014 0.659026 0.250000
O O2 0.133963 0.596814 0.349829
O O3 0.180809 0.734474 0.353630
O O4 0.360519 0.647332 0.391849
O O5 0.781648 0.524755 0.884612
O O6 0.036477 0.507088 0.886821
O O7 0.889737 0.444306 0.986139
O O8 0.192418 0.828095 0.250000
O O9 0.376034 0.818366 0.146505
O O10 0.144488 0.868108 0.110112
O O11 0.409188 0.093410 0.410974
O O12 0.500000 0.000000 0.500000
O O13 0.530674 0.984153 0.357488
O O14 0.291225 0.972965 0.416107
O O15 0.694178 0.555231 0.750000
O O16 0.624513 0.635906 0.861860
O O17 0.443733 0.232001 0.106188
O O18 0.505116 0.330723 0.017293
#
# Coordination Sequence:
#
# PCOD9435599 Si02
#       8
#     8   8   8   8   8   8   8   8
#     4  10  20  35  56  84 118 155 195 240 295 356
#     4  11  23  39  57  85 118 159 199 242 291 357
#     4  10  20  34  55  84 116 150 194 246 295 348
#     4  12  19  36  62  90 118 147 192 251 292 345
#     4  12  23  37  59  86 117 155 194 238 298 352
#     4  10  19  33  54  86 117 154 195 247 298 345
#     4  11  23  38  60  86 117 153 200 243 291 348
#     4  10  19  32  57  85 118 152 196 247 300 344
#
# _framework density 18.302381
#
# number of rings (size 3 to 8) (size 9 to 14) (size 15 to 20)
#    0.000    1.250    5.000    1.500    0.000    3.000 
#    0.000    1.250    0.000    1.500    0.000    0.000 
#    0.000    0.000    0.000    0.000    0.000    0.000 
#
# Total GULP energy -357384.159268 kJ/mol
# GULP energy per Si atom -5584.127489 kJ/mol
# Density = 1.826072 g / cm^3
# Si number density = 18.302381 Si / 1000 Ang^3
#
#
#
# Elastic Constant Matrix: (Units=GPa)
#
#
# Indices 1 2 3 4 5 6 
#
# 1 57.5821 21.3793 -3.4202 0.0000 0.0000 0.0000
# 2 21.3793 129.1061 15.0788 0.0000 0.0000 0.0000
# 3 -3.4202 15.0788 45.9286 0.0000 0.0000 0.0000
# 4 0.0000 0.0000 0.0000 27.8480 0.0000 0.0000
# 5 0.0000 0.0000 0.0000 0.0000 6.0945 0.0000
# 6 0.0000 0.0000 0.0000 0.0000 0.0000 21.6025
#
#
#
# Elastic Compliance Matrix: (Units=1/GPa)
#
#
# Indices 1 2 3 4 5 6 
#
# 1 0.018780 -0.003404 0.002516 0.000000 0.000000 0.000000
# 2 -0.003404 0.008671 -0.003100 0.000000 0.000000 0.000000
# 3 0.002516 -0.003100 0.022978 0.000000 0.000000 0.000000
# 4 0.000000 0.000000 0.000000 0.035909 0.000000 0.000000
# 5 0.000000 0.000000 0.000000 0.000000 0.164083 0.000000
# 6 0.000000 0.000000 0.000000 0.000000 0.000000 0.046291
#
#
# Mechanical properties :
#
#
# Convention : Reuss Voigt Hill
#
# Bulk Modulus (GPa) = 23.55544 33.18806 28.37175
# Shear Modulus (GPa) = 15.68189 24.41425 20.04807
#
# Velocity S-wave (km/s) = 2.93033 3.65627 3.31324
# Velocity P-wave (km/s) = 4.93429 5.99975 5.49291
#
# Compressibility (1/GPa) = 0.04245304
#
# Stress axis : x y z
#
# Youngs Moduli (GPa) = 53.24910 115.32299 43.51954
#
# Poissons Ratio (x) = 0.39252 -0.10949
# Poissons Ratio (y) = 0.18124 0.13493
# Poissons Ratio (z) = -0.13397 0.35754
#
# Static dielectric constant tensor:
#      x y z
#    x 1.595690 0.000000 0.000000 
#    y 0.000000 1.662510 0.000000 
#    z 0.000000 0.000000 1.639620 
# 
# From -- ./inp_files/21436.got.cif
#   From: 2010.05.17/outbox.cif.g08.bks.cpg/sg57_11_cif.got.tgz:21436.got - 2010.06.03 13:58:18.
