data_PCOD9435432
_publ_section_title
;
Structure prediction by ZEFSAII (Michael W. Deem and Ramdas Pophale) SiO2 
 PCOD9435432
Probable space group: P B C M
;
_chemical_formula_sum "Si O2"
_cell_formula_units_Z 40
_cell_length_a 27.143345
_cell_length_b 9.240236
_cell_length_c 8.505606
_cell_angle_alpha 90.000000
_cell_angle_beta 90.000000
_cell_angle_gamma 90.000000
_cell_volume 2133.298812
_symmetry_space_group_name_H-M "P B C M"
_symmetry_group_IT_number 57
_symmetry_cell_setting 'orthorhombic'
loop_
_space_group_symop_operation_xyz
x,y,z
-x,-y,1/2+z
x,1/2-y,-z
-x,1/2+y,1/2-z
-x,-y,-z
x,y,1/2-z
-x,1/2+y,z
x,1/2-y,1/2+z
loop_
_atom_site_type_symbol
_atom_site_label
_atom_site_fract_x
_atom_site_fract_y
_atom_site_fract_z
Si Si1 0.846267 0.415103 0.060346
Si Si2 0.452638 0.586386 0.437792
Si Si3 0.046816 0.585893 0.938551
Si Si4 0.738761 0.085226 0.559886
Si Si5 0.358133 0.086731 0.439238
O O1 0.846286 0.414864 0.250000
O O2 0.899436 0.476929 0.010223
O O3 0.792821 0.473664 0.009281
O O4 0.846371 0.250000 0.000000
O O5 0.453701 0.750000 0.500000
O O6 0.500000 0.500000 0.500000
O O7 0.453283 0.587379 0.250000
O O8 0.403660 0.506425 0.497521
O O9 0.045592 0.587146 0.750000
O O10 0.044249 0.750000 0.000000
O O11 0.000000 0.500000 0.000000
O O12 0.733359 0.250000 0.500000
O O13 0.738134 0.089932 0.750000
O O14 0.693084 0.987593 0.508258
O O15 0.361486 0.250000 0.500000
O O16 0.359682 0.086705 0.250000
#
# Coordination Sequence:
#
# PCOD9435432 Si02
#       5
#     8   8   8   8   8
#     4   8  15  29  49  73 100 133 172 218 266 319
#     4  12  25  43  65  90 119 151 188 229 273 322
#     4  10  19  32  51  74 103 137 177 221 270 324
#     4   9  18  33  55  80 106 136 176 222 270 322
#     4  11  23  39  58  83 115 151 187 226 272 323
#
# _framework density 18.750304
#
# number of rings (size 3 to 8) (size 9 to 14) (size 15 to 20)
#    0.000    2.000    0.000    4.200    0.000    4.000 
#    0.000    1.000    0.000    2.400    0.000    0.000 
#    0.000    0.000    0.000    0.000    0.000    0.000 
#
# Total GULP energy -223152.085724 kJ/mol
# GULP energy per Si atom -5578.802143 kJ/mol
# Density = 1.870763 g / cm^3
# Si number density = 18.750304 Si / 1000 Ang^3
#
#
#
# Elastic Constant Matrix: (Units=GPa)
#
#
# Indices 1 2 3 4 5 6 
#
# 1 244.7240 98.8028 53.7679 0.0000 0.0000 0.0000
# 2 98.8028 111.5007 32.3376 0.0000 0.0000 0.0000
# 3 53.7679 32.3376 68.0897 0.0000 0.0000 0.0000
# 4 0.0000 0.0000 0.0000 29.7199 0.0000 0.0000
# 5 0.0000 0.0000 0.0000 0.0000 25.6039 0.0000
# 6 0.0000 0.0000 0.0000 0.0000 0.0000 34.5026
#
#
#
# Elastic Compliance Matrix: (Units=1/GPa)
#
#
# Indices 1 2 3 4 5 6 
#
# 1 0.006829 -0.005204 -0.002921 0.000000 0.000000 0.000000
# 2 -0.005204 0.014367 -0.002714 0.000000 0.000000 0.000000
# 3 -0.002921 -0.002714 0.018282 0.000000 0.000000 0.000000
# 4 0.000000 0.000000 0.000000 0.033648 0.000000 0.000000
# 5 0.000000 0.000000 0.000000 0.000000 0.039057 0.000000
# 6 0.000000 0.000000 0.000000 0.000000 0.000000 0.028983
#
#
# Mechanical properties :
#
#
# Convention : Reuss Voigt Hill
#
# Bulk Modulus (GPa) = 56.17928 88.23678 72.20803
# Shear Modulus (GPa) = 29.62485 33.92568 31.77527
#
# Velocity S-wave (km/s) = 3.97919 4.25825 4.12108
# Velocity P-wave (km/s) = 7.15114 8.44618 7.82549
#
# Compressibility (1/GPa) = 0.01780016
#
# Stress axis : x y z
#
# Youngs Moduli (GPa) = 146.43127 69.60310 54.69861
#
# Poissons Ratio (x) = 0.36223 0.15978
# Poissons Ratio (y) = 0.76206 0.14844
# Poissons Ratio (z) = 0.42774 0.18889
#
# Static dielectric constant tensor:
#      x y z
#    x 1.700540 0.000000 0.000000 
#    y 0.000000 1.565350 0.000000 
#    z 0.000000 0.000000 1.641430 
# 
# From -- ./inp_files/8866.got.cif
#   From: 2010.05.17/outbox.cif.g08.bks.cpg/sg57_5_cif.got.tgz:8866.got - 2010.06.03 13:58:18.
