data_PCOD9435852
_publ_section_title
;
Structure prediction by ZEFSAII (Michael W. Deem and Ramdas Pophale) SiO2 
 PCOD9435852
Probable space group: P B C M
;
_chemical_formula_sum "Si O2"
_cell_formula_units_Z 64
_cell_length_a 17.970635
_cell_length_b 22.763872
_cell_length_c 8.538332
_cell_angle_alpha 90.000000
_cell_angle_beta 90.000000
_cell_angle_gamma 90.000000
_cell_volume 3492.871399
_symmetry_space_group_name_H-M "P B C M"
_symmetry_group_IT_number 57
_symmetry_cell_setting 'orthorhombic'
loop_
_space_group_symop_operation_xyz
x,y,z
-x,-y,1/2+z
x,1/2-y,-z
-x,1/2+y,1/2-z
-x,-y,-z
x,y,1/2-z
-x,1/2+y,z
x,1/2-y,1/2+z
loop_
_atom_site_type_symbol
_atom_site_label
_atom_site_fract_x
_atom_site_fract_y
_atom_site_fract_z
Si Si1 0.152903 0.580528 0.561897
Si Si2 0.423005 0.526266 0.064797
Si Si3 0.990179 0.934036 0.438211
Si Si4 0.328491 0.422433 0.936249
Si Si5 0.750474 0.312375 0.934708
Si Si6 0.827472 0.947531 0.438247
Si Si7 0.593706 0.344958 0.065710
Si Si8 0.567696 0.811772 0.937178
O O1 0.156731 0.574399 0.750000
O O2 0.208199 0.631542 0.508671
O O3 0.170722 0.516474 0.488990
O O4 0.067387 0.596957 0.515465
O O5 0.429285 0.538108 0.250000
O O6 0.500000 0.500000 0.000000
O O7 0.360713 0.478073 0.029153
O O8 0.405855 0.585985 0.974355
O O9 0.989199 0.934745 0.250000
O O10 0.906360 0.918113 0.487282
O O11 0.000000 0.000000 0.500000
O O12 0.336336 0.432831 0.750000
O O13 0.378326 0.365912 0.977433
O O14 0.242668 0.416973 0.981856
O O15 0.760448 0.314233 0.750000
O O16 0.778350 0.250000 0.000000
O O17 0.663219 0.317304 0.976155
O O18 0.820682 0.945096 0.250000
O O19 0.602672 0.334888 0.250000
O O20 0.513753 0.321820 0.010069
O O21 0.560346 0.809957 0.750000
O O22 0.597366 0.750000 0.000000
#
# Coordination Sequence:
#
# PCOD9435852 Si02
#       8
#     8   8   8   8   8   8   8   8
#     4  10  19  35  57  83 115 149 185 225 277 334
#     4  12  23  37  57  83 113 146 183 228 281 334
#     4   8  16  30  52  81 113 145 176 215 263 322
#     4  11  23  38  56  81 113 148 185 228 278 331
#     4  12  25  41  58  80 111 148 192 237 282 334
#     4  10  19  33  55  86 118 148 184 227 279 334
#     4  12  24  40  61  83 111 146 186 230 279 331
#     4  11  24  41  60  79 105 140 186 233 278 328
#
# _framework density 18.323032999999999
#
# number of rings (size 3 to 8) (size 9 to 14) (size 15 to 20)
#    0.000    1.250    1.250    6.000    0.000    2.500 
#    0.000    0.000    0.000    0.750    0.000    1.750 
#    0.000    0.000    0.000    0.000    0.000    0.000 
#
# Total GULP energy -357545.757846 kJ/mol
# GULP energy per Si atom -5586.652466 kJ/mol
# Density = 1.828133 g / cm^3
# Si number density = 18.323033 Si / 1000 Ang^3
#
#
#
# Elastic Constant Matrix: (Units=GPa)
#
#
# Indices 1 2 3 4 5 6 
#
# 1 101.8215 5.9342 0.2774 0.0000 0.0000 0.0000
# 2 5.9342 59.4022 -1.9583 0.0000 0.0000 0.0000
# 3 0.2774 -1.9583 44.5281 0.0000 0.0000 0.0000
# 4 0.0000 0.0000 0.0000 24.4181 0.0000 0.0000
# 5 0.0000 0.0000 0.0000 0.0000 25.4634 0.0000
# 6 0.0000 0.0000 0.0000 0.0000 0.0000 7.0284
#
#
#
# Elastic Compliance Matrix: (Units=1/GPa)
#
#
# Indices 1 2 3 4 5 6 
#
# 1 0.009879 -0.000990 -0.000105 0.000000 0.000000 0.000000
# 2 -0.000990 0.016958 0.000752 0.000000 0.000000 0.000000
# 3 -0.000105 0.000752 0.022491 0.000000 0.000000 0.000000
# 4 0.000000 0.000000 0.000000 0.040953 0.000000 0.000000
# 5 0.000000 0.000000 0.000000 0.000000 0.039272 0.000000
# 6 0.000000 0.000000 0.000000 0.000000 0.000000 0.142280
#
#
# Mechanical properties :
#
#
# Convention : Reuss Voigt Hill
#
# Bulk Modulus (GPa) = 20.55851 23.80649 22.18250
# Shear Modulus (GPa) = 17.31692 24.81519 21.06606
#
# Velocity S-wave (km/s) = 3.07757 3.68410 3.39441
# Velocity P-wave (km/s) = 4.88600 5.57832 5.24359
#
# Compressibility (1/GPa) = 0.04864167
#
# Stress axis : x y z
#
# Youngs Moduli (GPa) = 101.22367 58.96876 44.46135
#
# Poissons Ratio (x) = 0.05840 0.00467
# Poissons Ratio (y) = 0.10025 -0.03343
# Poissons Ratio (z) = 0.01064 -0.04434
#
# Static dielectric constant tensor:
#      x y z
#    x 1.672310 0.000000 0.000000 
#    y 0.000000 1.623360 0.000000 
#    z 0.000000 0.000000 1.613900 
# 
# From -- ./inp_files/7292.got.cif
#   From: 2010.05.17/outbox.cif.g08.bks.cpg/sg57_4_cif.got.tgz:7292.got - 2010.06.03 13:58:18.
