data_PCOD9435019
_publ_section_title
;
Structure prediction by ZEFSAII (Michael W. Deem and Ramdas Pophale) SiO2 
 PCOD9435019
Probable space group: P B C M
;
_chemical_formula_sum "Si O2"
_cell_formula_units_Z 36
_cell_length_a 13.054829
_cell_length_b 5.350082
_cell_length_c 25.460698
_cell_angle_alpha 90.000000
_cell_angle_beta 90.000000
_cell_angle_gamma 90.000000
_cell_volume 1778.287319
_symmetry_space_group_name_H-M "P B C M"
_symmetry_group_IT_number 57
_symmetry_cell_setting 'orthorhombic'
loop_
_space_group_symop_operation_xyz
x,y,z
-x,-y,1/2+z
x,1/2-y,-z
-x,1/2+y,1/2-z
-x,-y,-z
x,y,1/2-z
-x,1/2+y,z
x,1/2-y,1/2+z
loop_
_atom_site_type_symbol
_atom_site_label
_atom_site_fract_x
_atom_site_fract_y
_atom_site_fract_z
Si Si1 0.284013 0.188997 0.913024
Si Si2 0.062536 0.168508 0.750000
Si Si3 0.389973 0.685313 0.944514
Si Si4 0.931937 0.753534 0.133866
Si Si5 0.465152 0.309188 0.159532
O O1 0.330194 0.423562 0.944802
O O2 0.164163 0.222863 0.904381
O O3 0.347872 0.202320 0.858114
O O4 0.312937 0.916593 0.934817
O O5 0.111442 0.225455 0.693718
O O6 0.970454 0.376690 0.750000
O O7 0.468706 0.680076 0.895773
O O8 0.441519 0.750000 0.000000
O O9 0.991303 0.490193 0.127980
O O10 0.495581 0.562954 0.187104
#
# Coordination Sequence:
#
# PCOD9435019 Si02
#       5
#     8   4   8   8   8
#     4  10  19  30  47  70  93 123 153 191 239 276
#     4   8  16  30  50  74  92 112 146 194 236 268
#     4  10  19  31  48  70  93 120 159 201 234 265
#     4  10  19  33  52  72  96 121 152 190 231 279
#     4   8  16  27  42  66  91 115 146 190 234 270
#
# _framework density 20.244197
#
# number of rings (size 3 to 8) (size 9 to 14) (size 15 to 20)
#    0.000    2.667    0.000    2.000    0.000    8.000 
#    0.000    0.000    0.000   13.333    0.000   14.000 
#    0.000    0.000    0.000    0.000    0.000    0.000 
#
# Total GULP energy -200585.612114 kJ/mol
# GULP energy per Si atom -5571.822559 kJ/mol
# Density = 2.019812 g / cm^3
# Si number density = 20.244197 Si / 1000 Ang^3
#
#
#
# Elastic Constant Matrix: (Units=GPa)
#
#
# Indices 1 2 3 4 5 6 
#
# 1 79.2539 25.5089 15.8409 0.0000 0.0000 0.0000
# 2 25.5089 169.9592 3.0714 0.0000 0.0000 0.0000
# 3 15.8409 3.0714 43.8517 0.0000 0.0000 0.0000
# 4 0.0000 0.0000 0.0000 4.6437 0.0000 0.0000
# 5 0.0000 0.0000 0.0000 0.0000 64.6135 0.0000
# 6 0.0000 0.0000 0.0000 0.0000 0.0000 24.6567
#
#
#
# Elastic Compliance Matrix: (Units=1/GPa)
#
#
# Indices 1 2 3 4 5 6 
#
# 1 0.014281 -0.002053 -0.005015 0.000000 0.000000 0.000000
# 2 -0.002053 0.006186 0.000308 0.000000 0.000000 0.000000
# 3 -0.005015 0.000308 0.024594 0.000000 0.000000 0.000000
# 4 0.000000 0.000000 0.000000 0.215344 0.000000 0.000000
# 5 0.000000 0.000000 0.000000 0.000000 0.015477 0.000000
# 6 0.000000 0.000000 0.000000 0.000000 0.000000 0.040557
#
#
# Mechanical properties :
#
#
# Convention : Reuss Voigt Hill
#
# Bulk Modulus (GPa) = 31.70353 42.43413 37.06883
# Shear Modulus (GPa) = 14.68548 35.35901 25.02225
#
# Velocity S-wave (km/s) = 2.69628 4.18380 3.51952
# Velocity P-wave (km/s) = 5.03863 6.65924 5.90480
#
# Compressibility (1/GPa) = 0.03154222
#
# Stress axis : x y z
#
# Youngs Moduli (GPa) = 70.02428 161.64776 40.66005
#
# Poissons Ratio (x) = 0.33182 0.20391
# Poissons Ratio (y) = 0.14374 -0.01253
# Poissons Ratio (z) = 0.35117 -0.04983
#
# Static dielectric constant tensor:
#      x y z
#    x 1.677190 0.000000 0.000000 
#    y 0.000000 1.798240 0.000000 
#    z 0.000000 0.000000 1.764670 
# 
# From -- ./inp_files/27003.got.cif
#   From: 2010.05.17/outbox.cif.g08.bks.cpg/sg57_14_cif.got.tgz:27003.got - 2010.06.03 13:58:18.
