data_PCOD9435760
_publ_section_title
;
Structure prediction by ZEFSAII (Michael W. Deem and Ramdas Pophale) SiO2 
 PCOD9435760
Probable space group: P B C M
;
_chemical_formula_sum "Si O2"
_cell_formula_units_Z 40
_cell_length_a 18.827221
_cell_length_b 13.776241
_cell_length_c 8.927004
_cell_angle_alpha 90.000000
_cell_angle_beta 90.000000
_cell_angle_gamma 90.000000
_cell_volume 2315.382154
_symmetry_space_group_name_H-M "P B C M"
_symmetry_group_IT_number 57
_symmetry_cell_setting 'orthorhombic'
loop_
_space_group_symop_operation_xyz
x,y,z
-x,-y,1/2+z
x,1/2-y,-z
-x,1/2+y,1/2-z
-x,-y,-z
x,y,1/2-z
-x,1/2+y,z
x,1/2-y,1/2+z
loop_
_atom_site_type_symbol
_atom_site_label
_atom_site_fract_x
_atom_site_fract_y
_atom_site_fract_z
Si Si1 0.745158 0.143070 0.429762
Si Si2 0.610513 0.461742 0.428562
Si Si3 0.899008 0.057040 0.070550
Si Si4 0.037132 0.148584 0.571392
Si Si5 0.537896 0.854904 0.071500
O O1 0.743923 0.250000 0.500000
O O2 0.739031 0.149335 0.250000
O O3 0.679957 0.082246 0.495657
O O4 0.820323 0.092515 0.466584
O O5 0.619634 0.469443 0.250000
O O6 0.542734 0.391688 0.457091
O O7 0.588947 0.565096 0.497880
O O8 0.909182 0.067326 0.250000
O O9 0.913915 0.944300 0.032420
O O10 0.958994 0.120382 0.988970
O O11 0.060135 0.250000 0.500000
O O12 0.035095 0.157993 0.750000
O O13 0.548426 0.852217 0.250000
O O14 0.548283 0.750000 0.000000
#
# Coordination Sequence:
#
# PCOD9435760 Si02
#       5
#     8   8   8   8   8
#     4  11  22  36  54  77 107 139 173 215 263 313
#     4  10  21  36  55  80 108 139 177 217 260 311
#     4   9  20  36  53  76 105 138 176 216 258 308
#     4  10  19  33  54  78 104 135 173 216 261 309
#     4  10  20  35  56  80 107 139 176 218 262 310
#
# _framework density 17.275766999999998
#
# number of rings (size 3 to 8) (size 9 to 14) (size 15 to 20)
#    0.000    2.000    0.000    3.600    0.000    8.000 
#    0.000    1.000    0.000    2.400    0.000    0.000 
#    0.000    0.000    0.000    0.000    0.000    0.000 
#
# Total GULP energy -223409.524500 kJ/mol
# GULP energy per Si atom -5585.238113 kJ/mol
# Density = 1.723645 g / cm^3
# Si number density = 17.275767 Si / 1000 Ang^3
#
#
#
# Elastic Constant Matrix: (Units=GPa)
#
#
# Indices 1 2 3 4 5 6 
#
# 1 127.5495 80.1082 65.0434 0.0000 0.0000 0.0000
# 2 80.1082 160.7913 68.1248 0.0000 0.0000 0.0000
# 3 65.0434 68.1248 65.6140 0.0000 0.0000 0.0000
# 4 0.0000 0.0000 0.0000 36.2435 0.0000 0.0000
# 5 0.0000 0.0000 0.0000 0.0000 26.3297 0.0000
# 6 0.0000 0.0000 0.0000 0.0000 0.0000 13.1134
#
#
#
# Elastic Compliance Matrix: (Units=1/GPa)
#
#
# Indices 1 2 3 4 5 6 
#
# 1 0.016309 -0.002277 -0.013803 0.000000 0.000000 0.000000
# 2 -0.002277 0.011422 -0.009601 0.000000 0.000000 0.000000
# 3 -0.013803 -0.009601 0.038892 0.000000 0.000000 0.000000
# 4 0.000000 0.000000 0.000000 0.027591 0.000000 0.000000
# 5 0.000000 0.000000 0.000000 0.000000 0.037980 0.000000
# 6 0.000000 0.000000 0.000000 0.000000 0.000000 0.076258
#
#
# Mechanical properties :
#
#
# Convention : Reuss Voigt Hill
#
# Bulk Modulus (GPa) = 65.53029 86.72307 76.12668
# Shear Modulus (GPa) = 18.87495 24.51587 21.69541
#
# Velocity S-wave (km/s) = 3.30899 3.77117 3.54761
# Velocity P-wave (km/s) = 7.25351 8.32289 7.80654
#
# Compressibility (1/GPa) = 0.01526012
#
# Stress axis : x y z
#
# Youngs Moduli (GPa) = 61.31567 87.55212 25.71225
#
# Poissons Ratio (x) = 0.19939 0.35490
# Poissons Ratio (y) = 0.13964 0.24687
# Poissons Ratio (z) = 0.84632 0.84061
#
# Static dielectric constant tensor:
#      x y z
#    x 1.557080 0.000000 0.000000 
#    y 0.000000 1.570270 0.000000 
#    z 0.000000 0.000000 1.573700 
# 
# From -- ./inp_files/4299.got.cif
#   From: 2010.05.17/outbox.cif.g08.bks.cpg/sg57_3_cif.got.tgz:4299.got - 2010.06.03 13:58:18.
