data_PCOD9435356
_publ_section_title
;
Structure prediction by ZEFSAII (Michael W. Deem and Ramdas Pophale) SiO2 
 PCOD9435356
Probable space group: P B C M
;
_chemical_formula_sum "Si O2"
_cell_formula_units_Z 32
_cell_length_a 22.216896
_cell_length_b 9.211822
_cell_length_c 8.578302
_cell_angle_alpha 90.000000
_cell_angle_beta 90.000000
_cell_angle_gamma 90.000000
_cell_volume 1755.618914
_symmetry_space_group_name_H-M "P B C M"
_symmetry_group_IT_number 57
_symmetry_cell_setting 'orthorhombic'
loop_
_space_group_symop_operation_xyz
x,y,z
-x,-y,1/2+z
x,1/2-y,-z
-x,1/2+y,1/2-z
-x,-y,-z
x,y,1/2-z
-x,1/2+y,z
x,1/2-y,1/2+z
loop_
_atom_site_type_symbol
_atom_site_label
_atom_site_fract_x
_atom_site_fract_y
_atom_site_fract_z
Si Si1 0.817872 0.583969 0.937544
Si Si2 0.942933 0.585775 0.435795
Si Si3 0.687756 0.915120 0.062106
Si Si4 0.443087 0.413968 0.437059
O O1 0.822415 0.585825 0.750000
O O2 0.752584 0.519071 0.984404
O O3 0.816479 0.750000 0.000000
O O4 0.879141 0.519853 0.006759
O O5 0.945955 0.750000 0.500000
O O6 0.943585 0.588868 0.250000
O O7 0.000000 0.500000 0.500000
O O8 0.688188 0.910063 0.250000
O O9 0.622716 0.977575 0.014308
O O10 0.687550 0.750000 0.000000
O O11 0.445865 0.250000 0.500000
O O12 0.500000 0.500000 0.500000
O O13 0.445244 0.411822 0.250000
#
# Coordination Sequence:
#
# PCOD9435356 Si02
#       4
#     8   8   8   8
#     4   9  15  26  44  68  94 122 155 197 240 282
#     4  11  21  34  51  74 101 131 163 199 240 287
#     4   8  15  26  43  66  93 121 155 196 239 281
#     4  10  19  32  49  72  99 130 163 200 242 288
#
# _framework density 18.22719
#
# number of rings (size 3 to 8) (size 9 to 14) (size 15 to 20)
#    0.000    2.500    0.000    5.250    0.000    2.000 
#    0.000    0.000    0.000    1.500    0.000    7.000 
#    0.000    0.000    0.000    0.000    0.000    0.000 
#
# Total GULP energy -178140.064978 kJ/mol
# GULP energy per Si atom -5566.877031 kJ/mol
# Density = 1.818570 g / cm^3
# Si number density = 18.227190 Si / 1000 Ang^3
#
#
#
# Elastic Constant Matrix: (Units=GPa)
#
#
# Indices 1 2 3 4 5 6 
#
# 1 260.5394 43.2139 65.1299 0.0000 0.0000 0.0000
# 2 43.2139 17.3146 12.4868 0.0000 0.0000 0.0000
# 3 65.1299 12.4868 89.1097 0.0000 0.0000 0.0000
# 4 0.0000 0.0000 0.0000 18.8561 0.0000 0.0000
# 5 0.0000 0.0000 0.0000 0.0000 30.1504 0.0000
# 6 0.0000 0.0000 0.0000 0.0000 0.0000 18.4919
#
#
#
# Elastic Compliance Matrix: (Units=1/GPa)
#
#
# Indices 1 2 3 4 5 6 
#
# 1 0.007231 -0.015837 -0.003066 0.000000 0.000000 0.000000
# 2 -0.015837 0.098931 -0.002288 0.000000 0.000000 0.000000
# 3 -0.003066 -0.002288 0.013784 0.000000 0.000000 0.000000
# 4 0.000000 0.000000 0.000000 0.053033 0.000000 0.000000
# 5 0.000000 0.000000 0.000000 0.000000 0.033167 0.000000
# 6 0.000000 0.000000 0.000000 0.000000 0.000000 0.054078
#
#
# Mechanical properties :
#
#
# Convention : Reuss Voigt Hill
#
# Bulk Modulus (GPa) = 12.89257 67.62498 40.25878
# Shear Modulus (GPa) = 15.22249 29.90855 22.56552
#
# Velocity S-wave (km/s) = 2.89304 4.05517 3.52236
# Velocity P-wave (km/s) = 4.27179 7.68814 6.21915
#
# Compressibility (1/GPa) = 0.07756403
#
# Stress axis : x y z
#
# Youngs Moduli (GPa) = 138.28433 10.10805 72.54889
#
# Poissons Ratio (x) = 0.16008 0.22245
# Poissons Ratio (y) = 2.19002 0.16598
# Poissons Ratio (z) = 0.42401 0.02313
#
# Static dielectric constant tensor:
#      x y z
#    x 1.731420 0.000000 0.000000 
#    y 0.000000 1.634090 0.000000 
#    z 0.000000 0.000000 1.613820 
# 
# From -- ./inp_files/6190.got.cif
#   From: 2010.05.17/outbox.cif.g08.bks.cpg/sg57_4_cif.got.tgz:6190.got - 2010.06.03 13:58:18.
