data_PCOD9435118
_publ_section_title
;
Structure prediction by ZEFSAII (Michael W. Deem and Ramdas Pophale) SiO2 
 PCOD9435118
Probable space group: P B C M
;
_chemical_formula_sum "Si O2"
_cell_formula_units_Z 48
_cell_length_a 16.762235
_cell_length_b 18.690197
_cell_length_c 8.915465
_cell_angle_alpha 90.000000
_cell_angle_beta 90.000000
_cell_angle_gamma 90.000000
_cell_volume 2793.121343
_symmetry_space_group_name_H-M "P B C M"
_symmetry_group_IT_number 57
_symmetry_cell_setting 'orthorhombic'
loop_
_space_group_symop_operation_xyz
x,y,z
-x,-y,1/2+z
x,1/2-y,-z
-x,1/2+y,1/2-z
-x,-y,-z
x,y,1/2-z
-x,1/2+y,z
x,1/2-y,1/2+z
loop_
_atom_site_type_symbol
_atom_site_label
_atom_site_fract_x
_atom_site_fract_y
_atom_site_fract_z
Si Si1 0.917726 0.025847 0.071035
Si Si2 0.320471 0.607255 0.926933
Si Si3 0.472941 0.671424 0.429795
Si Si4 0.835182 0.325352 0.930045
Si Si5 0.234488 0.456991 0.927717
Si Si6 0.655093 0.827658 0.930449
O O1 0.923203 0.023201 0.250000
O O2 0.891788 0.107227 0.029074
O O3 0.845986 0.975507 0.014545
O O4 0.000000 0.000000 0.000000
O O5 0.322936 0.624145 0.750000
O O6 0.292205 0.525517 0.944762
O O7 0.405504 0.621360 0.001101
O O8 0.252263 0.654996 0.005702
O O9 0.460576 0.750000 0.500000
O O10 0.465230 0.674682 0.250000
O O11 0.564002 0.650051 0.467476
O O12 0.831594 0.320354 0.750000
O O13 0.861152 0.250000 0.000000
O O14 0.216624 0.450375 0.750000
O O15 0.281062 0.386576 0.979359
O O16 0.659021 0.822373 0.750000
O O17 0.669460 0.750000 0.000000
#
# Coordination Sequence:
#
# PCOD9435118 Si02
#       6
#     8   8   8   8   8   8
#     4  10  21  37  58  82 106 133 166 205 251 303
#     4  10  19  31  49  73 102 136 170 207 253 302
#     4  10  19  31  47  69 100 136 174 214 253 295
#     4  10  20  34  53  78 106 135 168 206 249 299
#     4   9  19  36  55  75 101 132 167 207 254 306
#     4   9  19  35  53  73  99 134 174 215 256 296
#
# _framework density 17.185075999999999
#
# number of rings (size 3 to 8) (size 9 to 14) (size 15 to 20)
#    0.000    2.333    0.000    2.500    0.000    4.667 
#    0.000    0.833    0.000    0.000    0.000    0.000 
#    0.000    0.000    0.000    0.000    0.000    0.000 
#
# Total GULP energy -267855.428961 kJ/mol
# GULP energy per Si atom -5580.321437 kJ/mol
# Density = 1.714596 g / cm^3
# Si number density = 17.185076 Si / 1000 Ang^3
#
#
#
# Elastic Constant Matrix: (Units=GPa)
#
#
# Indices 1 2 3 4 5 6 
#
# 1 139.1486 91.0086 60.0024 0.0000 0.0000 0.0000
# 2 91.0086 98.8135 51.6578 0.0000 0.0000 0.0000
# 3 60.0024 51.6578 61.6833 0.0000 0.0000 0.0000
# 4 0.0000 0.0000 0.0000 26.8906 0.0000 0.0000
# 5 0.0000 0.0000 0.0000 0.0000 30.5663 0.0000
# 6 0.0000 0.0000 0.0000 0.0000 0.0000 19.1100
#
#
#
# Elastic Compliance Matrix: (Units=1/GPa)
#
#
# Indices 1 2 3 4 5 6 
#
# 1 0.019655 -0.014421 -0.007042 0.000000 0.000000 0.000000
# 2 -0.014421 0.028582 -0.009908 0.000000 0.000000 0.000000
# 3 -0.007042 -0.009908 0.031360 0.000000 0.000000 0.000000
# 4 0.000000 0.000000 0.000000 0.037188 0.000000 0.000000
# 5 0.000000 0.000000 0.000000 0.000000 0.032716 0.000000
# 6 0.000000 0.000000 0.000000 0.000000 0.000000 0.052329
#
#
# Mechanical properties :
#
#
# Convention : Reuss Voigt Hill
#
# Bulk Modulus (GPa) = 59.33408 78.33144 68.83276
# Shear Modulus (GPa) = 18.50536 21.77849 20.14192
#
# Velocity S-wave (km/s) = 3.28507 3.56376 3.42725
# Velocity P-wave (km/s) = 6.99931 7.91290 7.47008
#
# Compressibility (1/GPa) = 0.01685372
#
# Stress axis : x y z
#
# Youngs Moduli (GPa) = 50.87673 34.98691 31.88742
#
# Poissons Ratio (x) = 0.50455 0.22456
# Poissons Ratio (y) = 0.73370 0.31595
# Poissons Ratio (z) = 0.35829 0.34667
#
# Static dielectric constant tensor:
#      x y z
#    x 1.560140 0.000000 0.000000 
#    y 0.000000 1.576180 0.000000 
#    z 0.000000 0.000000 1.574890 
# 
# From -- ./inp_files/4678.got.cif
#   From: 2010.05.17/outbox.cif.g08.bks.cpg/sg57_3_cif.got.tgz:4678.got - 2010.06.03 13:58:18.
