data_PCOD9435843
_publ_section_title
;
Structure prediction by ZEFSAII (Michael W. Deem and Ramdas Pophale) SiO2 
 PCOD9435843
Probable space group: P B C M
;
_chemical_formula_sum "Si O2"
_cell_formula_units_Z 64
_cell_length_a 22.973703
_cell_length_b 8.784469
_cell_length_c 15.069250
_cell_angle_alpha 90.000000
_cell_angle_beta 90.000000
_cell_angle_gamma 90.000000
_cell_volume 3041.152193
_symmetry_space_group_name_H-M "P B C M"
_symmetry_group_IT_number 57
_symmetry_cell_setting 'orthorhombic'
loop_
_space_group_symop_operation_xyz
x,y,z
-x,-y,1/2+z
x,1/2-y,-z
-x,1/2+y,1/2-z
-x,-y,-z
x,y,1/2-z
-x,1/2+y,z
x,1/2-y,1/2+z
loop_
_atom_site_type_symbol
_atom_site_label
_atom_site_fract_x
_atom_site_fract_y
_atom_site_fract_z
Si Si1 0.693695 0.019300 0.646606
Si Si2 0.051239 0.446083 0.934592
Si Si3 0.467230 0.491283 0.142221
Si Si4 0.034512 0.746468 0.349409
Si Si5 0.578211 0.317554 0.358402
Si Si6 0.248055 0.423725 0.024535
Si Si7 0.648296 0.826392 0.352780
Si Si8 0.140886 0.592441 0.049880
O O1 0.712378 0.043889 0.750000
O O2 0.741575 0.009470 0.569368
O O3 0.662848 0.852644 0.644299
O O4 0.644042 0.139299 0.619950
O O5 0.050649 0.577905 0.860571
O O6 0.026461 0.289103 0.898469
O O7 0.111625 0.468058 0.984085
O O8 0.000000 0.500000 0.000000
O O9 0.471461 0.502207 0.250000
O O10 0.443100 0.652826 0.110602
O O11 0.530587 0.440530 0.110438
O O12 0.418068 0.364967 0.123559
O O13 0.025644 0.701912 0.250000
O O14 0.088068 0.646711 0.387244
O O15 0.576758 0.318148 0.250000
O O16 0.307499 0.409213 0.080630
O O17 0.199409 0.511992 0.081122
O O18 0.231485 0.250000 0.000000
O O19 0.657136 0.876358 0.250000
O O20 0.155448 0.750000 0.000000
#
# Coordination Sequence:
#
# PCOD9435843 Si02
#       8
#     8   8   8   8   8   8   8   8
#     4   9  18  34  52  71  97 130 167 213 261 306
#     4   9  18  34  54  77 108 144 175 209 261 317
#     4   9  16  27  46  74 101 129 164 205 257 316
#     4  10  19  33  55  84 112 139 177 223 264 309
#     4   9  16  27  47  73 101 130 164 206 256 313
#     4  10  21  36  54  75 100 135 178 218 258 309
#     4   9  18  33  52  72  98 129 165 211 261 309
#     4   9  20  36  52  72 104 142 173 207 258 311
#
# _framework density 21.044654000000001
#
# number of rings (size 3 to 8) (size 9 to 14) (size 15 to 20)
#    0.000    2.750    0.000    2.250    0.000    6.500 
#    0.000    3.750    0.000    1.500    0.000    0.000 
#    0.000    0.000    0.000    0.000    0.000    0.000 
#
# Total GULP energy -356806.124564 kJ/mol
# GULP energy per Si atom -5575.095696 kJ/mol
# Density = 2.099676 g / cm^3
# Si number density = 21.044654 Si / 1000 Ang^3
#
#
#
# Elastic Constant Matrix: (Units=GPa)
#
#
# Indices 1 2 3 4 5 6 
#
# 1 44.8972 4.4099 6.3706 0.0000 0.0000 0.0000
# 2 4.4099 30.8685 7.7727 0.0000 0.0000 0.0000
# 3 6.3706 7.7727 46.1477 0.0000 0.0000 0.0000
# 4 0.0000 0.0000 0.0000 10.3883 0.0000 0.0000
# 5 0.0000 0.0000 0.0000 0.0000 14.7153 0.0000
# 6 0.0000 0.0000 0.0000 0.0000 0.0000 25.2271
#
#
#
# Elastic Compliance Matrix: (Units=1/GPa)
#
#
# Indices 1 2 3 4 5 6 
#
# 1 0.022914 -0.002587 -0.002728 0.000000 0.000000 0.000000
# 2 -0.002587 0.034122 -0.005390 0.000000 0.000000 0.000000
# 3 -0.002728 -0.005390 0.022954 0.000000 0.000000 0.000000
# 4 0.000000 0.000000 0.000000 0.096262 0.000000 0.000000
# 5 0.000000 0.000000 0.000000 0.000000 0.067957 0.000000
# 6 0.000000 0.000000 0.000000 0.000000 0.000000 0.039640
#
#
# Mechanical properties :
#
#
# Convention : Reuss Voigt Hill
#
# Bulk Modulus (GPa) = 17.07023 17.66886 17.36955
# Shear Modulus (GPa) = 15.39480 16.95683 16.17581
#
# Velocity S-wave (km/s) = 2.70762 2.84166 2.77545
# Velocity P-wave (km/s) = 4.23131 4.37959 4.30609
#
# Compressibility (1/GPa) = 0.05858152
#
# Stress axis : x y z
#
# Youngs Moduli (GPa) = 43.64101 29.30640 43.56550
#
# Poissons Ratio (x) = 0.07581 0.11883
# Poissons Ratio (y) = 0.11289 0.23482
# Poissons Ratio (z) = 0.11903 0.15796
#
# Static dielectric constant tensor:
#      x y z
#    x 1.721770 0.000000 0.000000 
#    y 0.000000 1.785250 0.000000 
#    z 0.000000 0.000000 1.809400 
# 
# From -- ./inp_files/19486.got.cif
#   From: 2010.05.17/outbox.cif.g08.bks.cpg/sg57_10_cif.got.tgz:19486.got - 2010.06.03 13:58:18.
