data_PCOD9435457
_publ_section_title
;
Structure prediction by ZEFSAII (Michael W. Deem and Ramdas Pophale) SiO2 
 PCOD9435457
Probable space group: P B C M
;
_chemical_formula_sum "Si O2"
_cell_formula_units_Z 64
_cell_length_a 20.781363
_cell_length_b 19.876177
_cell_length_c 8.678274
_cell_angle_alpha 90.000000
_cell_angle_beta 90.000000
_cell_angle_gamma 90.000000
_cell_volume 3584.596217
_symmetry_space_group_name_H-M "P B C M"
_symmetry_group_IT_number 57
_symmetry_cell_setting 'orthorhombic'
loop_
_space_group_symop_operation_xyz
x,y,z
-x,-y,1/2+z
x,1/2-y,-z
-x,1/2+y,1/2-z
-x,-y,-z
x,y,1/2-z
-x,1/2+y,z
x,1/2-y,1/2+z
loop_
_atom_site_type_symbol
_atom_site_label
_atom_site_fract_x
_atom_site_fract_y
_atom_site_fract_z
Si Si1 0.768855 0.934773 0.563700
Si Si2 0.617994 0.173869 0.064685
Si Si3 0.955911 0.401485 0.067599
Si Si4 0.266277 0.914143 0.065651
Si Si5 0.523653 0.674455 0.064593
Si Si6 0.907850 0.542825 0.566279
Si Si7 0.335498 0.174371 0.436400
Si Si8 0.845447 0.322755 0.932072
O O1 0.774853 0.932895 0.750000
O O2 0.839563 0.930755 0.491148
O O3 0.721284 0.875195 0.514032
O O4 0.738851 0.007447 0.522376
O O5 0.621578 0.177505 0.250000
O O6 0.546493 0.147321 0.018129
O O7 0.625869 0.250000 0.000000
O O8 0.672961 0.125065 0.002934
O O9 0.946855 0.391998 0.250000
O O10 0.031790 0.408119 0.034506
O O11 0.924873 0.472857 0.017945
O O12 0.917424 0.344565 0.977538
O O13 0.268450 0.909624 0.250000
O O14 0.202642 0.876822 0.005656
O O15 0.523352 0.676183 0.250000
O O16 0.593443 0.646285 0.017463
O O17 0.524078 0.750000 0.000000
O O18 0.906279 0.530446 0.750000
O O19 0.328505 0.250000 0.500000
O O20 0.334231 0.177754 0.250000
O O21 0.837232 0.322457 0.750000
O O22 0.830084 0.250000 0.000000
#
# Coordination Sequence:
#
# PCOD9435457 Si02
#       8
#     8   8   8   8   8   8   8   8
#     4  10  21  36  56  79 110 146 181 222 272 326
#     4  10  19  32  51  76 105 141 181 228 272 320
#     4  10  20  36  56  81 109 139 179 223 268 319
#     4  11  22  36  52  75 108 147 185 226 268 323
#     4   8  15  29  51  75 102 134 176 221 269 323
#     4  10  20  34  57  83 108 139 178 222 266 315
#     4   9  18  35  57  82 106 137 176 222 277 331
#     4  12  24  38  57  81 111 148 186 230 276 324
#
# _framework density 17.854172999999999
#
# number of rings (size 3 to 8) (size 9 to 14) (size 15 to 20)
#    0.000    2.000    1.250    3.000    0.000    3.000 
#    0.000    1.250    0.000    1.500    0.000    0.000 
#    0.000    0.000    0.000    0.000    0.000    0.000 
#
# Total GULP energy -357007.312767 kJ/mol
# GULP energy per Si atom -5578.239262 kJ/mol
# Density = 1.781354 g / cm^3
# Si number density = 17.854173 Si / 1000 Ang^3
#
#
#
# Elastic Constant Matrix: (Units=GPa)
#
#
# Indices 1 2 3 4 5 6 
#
# 1 157.8687 54.4363 35.7640 0.0000 0.0000 0.0000
# 2 54.4363 76.1777 25.3157 0.0000 0.0000 0.0000
# 3 35.7640 25.3157 38.7819 0.0000 0.0000 0.0000
# 4 0.0000 0.0000 0.0000 20.4681 0.0000 0.0000
# 5 0.0000 0.0000 0.0000 0.0000 13.7756 0.0000
# 6 0.0000 0.0000 0.0000 0.0000 0.0000 28.5214
#
#
#
# Elastic Compliance Matrix: (Units=1/GPa)
#
#
# Indices 1 2 3 4 5 6 
#
# 1 0.009201 -0.004796 -0.005355 0.000000 0.000000 0.000000
# 2 -0.004796 0.019263 -0.008152 0.000000 0.000000 0.000000
# 3 -0.005355 -0.008152 0.036045 0.000000 0.000000 0.000000
# 4 0.000000 0.000000 0.000000 0.048857 0.000000 0.000000
# 5 0.000000 0.000000 0.000000 0.000000 0.072592 0.000000
# 6 0.000000 0.000000 0.000000 0.000000 0.000000 0.035061
#
#
# Mechanical properties :
#
#
# Convention : Reuss Voigt Hill
#
# Bulk Modulus (GPa) = 35.83675 55.98447 45.91061
# Shear Modulus (GPa) = 18.73184 23.04050 20.88617
#
# Velocity S-wave (km/s) = 3.24258 3.59623 3.42397
# Velocity P-wave (km/s) = 5.84249 6.97627 6.43440
#
# Compressibility (1/GPa) = 0.02790432
#
# Stress axis : x y z
#
# Youngs Moduli (GPa) = 108.68349 51.91236 27.74335
#
# Poissons Ratio (x) = 0.24895 0.14856
# Poissons Ratio (y) = 0.52120 0.22617
# Poissons Ratio (z) = 0.58196 0.42320
#
# Static dielectric constant tensor:
#      x y z
#    x 1.642750 0.000000 0.000000 
#    y 0.000000 1.574290 0.000000 
#    z 0.000000 0.000000 1.601210 
# 
# From -- ./inp_files/8571.got.cif
#   From: 2010.05.17/outbox.cif.g08.bks.cpg/sg57_5_cif.got.tgz:8571.got - 2010.06.03 13:58:18.
