data_PCOD9435903
_publ_section_title
;
Structure prediction by ZEFSAII (Michael W. Deem and Ramdas Pophale) SiO2 
 PCOD9435903
Probable space group: P B C M
;
_chemical_formula_sum "Si O2"
_cell_formula_units_Z 48
_cell_length_a 9.803051
_cell_length_b 27.852859
_cell_length_c 9.235401
_cell_angle_alpha 90.000000
_cell_angle_beta 90.000000
_cell_angle_gamma 90.000000
_cell_volume 2521.661570
_symmetry_space_group_name_H-M "P B C M"
_symmetry_group_IT_number 57
_symmetry_cell_setting 'orthorhombic'
loop_
_space_group_symop_operation_xyz
x,y,z
-x,-y,1/2+z
x,1/2-y,-z
-x,1/2+y,1/2-z
-x,-y,-z
x,y,1/2-z
-x,1/2+y,z
x,1/2-y,1/2+z
loop_
_atom_site_type_symbol
_atom_site_label
_atom_site_fract_x
_atom_site_fract_y
_atom_site_fract_z
Si Si1 0.485857 0.799793 0.578940
Si Si2 0.678793 0.626140 0.579588
Si Si3 0.822250 0.166492 0.080310
Si Si4 0.084395 0.296275 0.418194
Si Si5 0.191034 0.038781 0.421205
Si Si6 0.868919 0.443048 0.579137
O O1 0.520603 0.750000 0.500000
O O2 0.518461 0.797262 0.750000
O O3 0.564278 0.843730 0.504004
O O4 0.324378 0.809400 0.563194
O O5 0.647280 0.621084 0.750000
O O6 0.712296 0.575524 0.505612
O O7 0.814862 0.658813 0.566505
O O8 0.861838 0.169272 0.250000
O O9 0.816488 0.109970 0.042980
O O10 0.938946 0.190964 0.986447
O O11 0.141840 0.250000 0.500000
O O12 0.069545 0.284889 0.250000
O O13 0.218312 0.039667 0.250000
O O14 0.032881 0.055120 0.443339
O O15 0.196890 0.985240 0.485301
O O16 0.844989 0.452238 0.750000
#
# Coordination Sequence:
#
# PCOD9435903 Si02
#       6
#     8   8   8   8   8   8
#     4  11  24  41  61  84 115 155 197 237 289 349
#     4  11  23  39  59  85 116 153 196 241 290 344
#     4  10  21  39  61  86 116 152 192 238 290 344
#     4  11  23  36  56  84 113 146 189 240 289 342
#     4  10  19  33  58  88 119 153 190 238 292 346
#     4   9  18  34  57  86 120 153 187 235 291 346
#
# _framework density 19.035067999999999
#
# number of rings (size 3 to 8) (size 9 to 14) (size 15 to 20)
#    0.000    1.667    1.667    3.000    0.000    7.333 
#    0.000    0.833    0.000    0.000    0.000    0.000 
#    0.000    0.000    0.000    0.000    0.000    0.000 
#
# Total GULP energy -268289.495773 kJ/mol
# GULP energy per Si atom -5589.364495 kJ/mol
# Density = 1.899174 g / cm^3
# Si number density = 19.035068 Si / 1000 Ang^3
#
#
#
# Elastic Constant Matrix: (Units=GPa)
#
#
# Indices 1 2 3 4 5 6 
#
# 1 34.3188 -0.6001 30.7816 0.0000 0.0000 0.0000
# 2 -0.6001 80.9692 34.2369 0.0000 0.0000 0.0000
# 3 30.7816 34.2369 88.0145 0.0000 0.0000 0.0000
# 4 0.0000 0.0000 0.0000 37.7093 0.0000 0.0000
# 5 0.0000 0.0000 0.0000 0.0000 15.8437 0.0000
# 6 0.0000 0.0000 0.0000 0.0000 0.0000 12.2517
#
#
#
# Elastic Compliance Matrix: (Units=1/GPa)
#
#
# Indices 1 2 3 4 5 6 
#
# 1 0.047133 0.008760 -0.019892 0.000000 0.000000 0.000000
# 2 0.008760 0.016410 -0.009447 0.000000 0.000000 0.000000
# 3 -0.019892 -0.009447 0.021993 0.000000 0.000000 0.000000
# 4 0.000000 0.000000 0.000000 0.026519 0.000000 0.000000
# 5 0.000000 0.000000 0.000000 0.000000 0.063116 0.000000
# 6 0.000000 0.000000 0.000000 0.000000 0.000000 0.081621
#
#
# Mechanical properties :
#
#
# Convention : Reuss Voigt Hill
#
# Bulk Modulus (GPa) = 22.53290 36.90436 29.71863
# Shear Modulus (GPa) = 15.98755 22.41988 19.20372
#
# Velocity S-wave (km/s) = 2.90125 3.43566 3.17970
# Velocity P-wave (km/s) = 4.80481 5.93026 5.39696
#
# Compressibility (1/GPa) = 0.04437955
#
# Stress axis : x y z
#
# Youngs Moduli (GPa) = 21.21644 60.93878 45.46814
#
# Poissons Ratio (x) = -0.53385 0.90444
# Poissons Ratio (y) = -0.18586 0.42954
# Poissons Ratio (z) = 0.42203 0.57570
#
# Static dielectric constant tensor:
#      x y z
#    x 1.647450 0.000000 0.000000 
#    y 0.000000 1.667560 0.000000 
#    z 0.000000 0.000000 1.634470 
# 
# From -- ./inp_files/2053.got.cif
#   From: 2010.05.17/outbox.cif.g08.bks.cpg/sg57_2_cif.got.tgz:2053.got - 2010.06.03 13:58:18.
