data_PCOD9435652
_publ_section_title
;
Structure prediction by ZEFSAII (Michael W. Deem and Ramdas Pophale) SiO2 
 PCOD9435652
Probable space group: P B C M
;
_chemical_formula_sum "Si O2"
_cell_formula_units_Z 48
_cell_length_a 32.040238
_cell_length_b 9.579392
_cell_length_c 8.655968
_cell_angle_alpha 90.000000
_cell_angle_beta 90.000000
_cell_angle_gamma 90.000000
_cell_volume 2656.741631
_symmetry_space_group_name_H-M "P B C M"
_symmetry_group_IT_number 57
_symmetry_cell_setting 'orthorhombic'
loop_
_space_group_symop_operation_xyz
x,y,z
-x,-y,1/2+z
x,1/2-y,-z
-x,1/2+y,1/2-z
-x,-y,-z
x,y,1/2-z
-x,1/2+y,z
x,1/2-y,1/2+z
loop_
_atom_site_type_symbol
_atom_site_label
_atom_site_fract_x
_atom_site_fract_y
_atom_site_fract_z
Si Si1 0.037365 0.907594 0.564218
Si Si2 0.611271 0.594031 0.435773
Si Si3 0.780511 0.093093 0.435410
Si Si4 0.707457 0.903948 0.934414
Si Si5 0.462167 0.593133 0.434905
Si Si6 0.128667 0.592563 0.435954
O O1 0.034248 0.750000 0.500000
O O2 0.035315 0.903413 0.750000
O O3 0.083425 0.966425 0.517615
O O4 0.000000 0.000000 0.500000
O O5 0.602741 0.750000 0.500000
O O6 0.606541 0.595422 0.250000
O O7 0.659474 0.558913 0.474214
O O8 0.579902 0.483551 0.509444
O O9 0.778381 0.250000 0.500000
O O10 0.778757 0.096918 0.250000
O O11 0.826253 0.031749 0.482631
O O12 0.741873 0.006599 0.498537
O O13 0.710479 0.901532 0.750000
O O14 0.715014 0.750000 0.000000
O O15 0.464537 0.750000 0.500000
O O16 0.500000 0.500000 0.500000
O O17 0.464133 0.596878 0.250000
O O18 0.128773 0.750000 0.500000
O O19 0.128676 0.597712 0.250000
#
# Coordination Sequence:
#
# PCOD9435652 Si02
#       6
#     8   8   8   8   8   8
#     4  10  19  33  52  75 102 133 171 214 263 316
#     4  10  21  39  61  85 113 147 186 226 271 322
#     4  10  19  33  54  79 106 137 176 220 265 315
#     4  10  21  37  57  81 111 146 182 222 270 322
#     4  12  25  42  63  88 118 151 188 229 274 322
#     4   8  16  30  49  72  99 132 170 213 260 313
#
# _framework density 18.067243999999999
#
# number of rings (size 3 to 8) (size 9 to 14) (size 15 to 20)
#    0.000    2.000    0.000    4.000    0.000    4.000 
#    0.000    0.833    0.000    0.000    0.000    0.000 
#    0.000    0.000    0.000    0.000    0.000    0.000 
#
# Total GULP energy -267786.287551 kJ/mol
# GULP energy per Si atom -5578.880991 kJ/mol
# Density = 1.802612 g / cm^3
# Si number density = 18.067244 Si / 1000 Ang^3
#
#
#
# Elastic Constant Matrix: (Units=GPa)
#
#
# Indices 1 2 3 4 5 6 
#
# 1 186.0411 108.0041 70.9309 0.0000 0.0000 0.0000
# 2 108.0041 99.6272 49.1069 0.0000 0.0000 0.0000
# 3 70.9309 49.1069 85.0353 0.0000 0.0000 0.0000
# 4 0.0000 0.0000 0.0000 33.5546 0.0000 0.0000
# 5 0.0000 0.0000 0.0000 0.0000 21.2620 0.0000
# 6 0.0000 0.0000 0.0000 0.0000 0.0000 36.6779
#
#
#
# Elastic Compliance Matrix: (Units=1/GPa)
#
#
# Indices 1 2 3 4 5 6 
#
# 1 0.015672 -0.014743 -0.004559 0.000000 0.000000 0.000000
# 2 -0.014743 0.027900 -0.003814 0.000000 0.000000 0.000000
# 3 -0.004559 -0.003814 0.017765 0.000000 0.000000 0.000000
# 4 0.000000 0.000000 0.000000 0.029802 0.000000 0.000000
# 5 0.000000 0.000000 0.000000 0.000000 0.047032 0.000000
# 6 0.000000 0.000000 0.000000 0.000000 0.000000 0.027264
#
#
# Mechanical properties :
#
#
# Convention : Reuss Voigt Hill
#
# Bulk Modulus (GPa) = 66.20228 91.86526 79.03377
# Shear Modulus (GPa) = 23.07310 27.80970 25.44140
#
# Velocity S-wave (km/s) = 3.57749 3.92756 3.75660
# Velocity P-wave (km/s) = 7.33391 8.45721 7.91551
#
# Compressibility (1/GPa) = 0.01510522
#
# Stress axis : x y z
#
# Youngs Moduli (GPa) = 63.80846 35.84264 56.28946
#
# Poissons Ratio (x) = 0.52841 0.25661
# Poissons Ratio (y) = 0.94070 0.21471
# Poissons Ratio (z) = 0.29089 0.13672
#
# Static dielectric constant tensor:
#      x y z
#    x 1.662210 0.000000 0.000000 
#    y 0.000000 1.565650 0.000000 
#    z 0.000000 0.000000 1.606040 
# 
# From -- ./inp_files/9901.got.cif
#   From: 2010.05.17/outbox.cif.g08.bks.cpg/sg57_5_cif.got.tgz:9901.got - 2010.06.03 13:58:18.
