data_PCOD9435159
_publ_section_title
;
Structure prediction by ZEFSAII (Michael W. Deem and Ramdas Pophale) SiO2 
 PCOD9435159
Probable space group: P B C M
;
_chemical_formula_sum "Si O2"
_cell_formula_units_Z 64
_cell_length_a 31.306179
_cell_length_b 14.184739
_cell_length_c 8.809480
_cell_angle_alpha 90.000000
_cell_angle_beta 90.000000
_cell_angle_gamma 90.000000
_cell_volume 3912.025592
_symmetry_space_group_name_H-M "P B C M"
_symmetry_group_IT_number 57
_symmetry_cell_setting 'orthorhombic'
loop_
_space_group_symop_operation_xyz
x,y,z
-x,-y,1/2+z
x,1/2-y,-z
-x,1/2+y,1/2-z
-x,-y,-z
x,y,1/2-z
-x,1/2+y,z
x,1/2-y,1/2+z
loop_
_atom_site_type_symbol
_atom_site_label
_atom_site_fract_x
_atom_site_fract_y
_atom_site_fract_z
Si Si1 0.239369 0.648690 0.067917
Si Si2 0.391215 0.852607 0.430636
Si Si3 0.452805 0.003914 0.932301
Si Si4 0.018180 0.353997 0.431526
Si Si5 0.140372 0.648343 0.067725
Si Si6 0.066688 0.526399 0.568544
Si Si7 0.377343 0.353951 0.067730
Si Si8 0.317239 0.523504 0.066644
O O1 0.240714 0.658507 0.250000
O O2 0.190005 0.632993 0.023724
O O3 0.269881 0.560546 0.028165
O O4 0.253389 0.750000 0.000000
O O5 0.391576 0.750000 0.500000
O O6 0.394866 0.851339 0.250000
O O7 0.348191 0.903857 0.483167
O O8 0.428873 0.912467 0.505468
O O9 0.454707 0.003401 0.750000
O O10 0.421079 0.090592 0.977380
O O11 0.500000 0.000000 0.000000
O O12 0.021120 0.250000 0.500000
O O13 0.022442 0.350391 0.250000
O O14 0.052761 0.426093 0.500322
O O15 0.972130 0.401115 0.467466
O O16 0.137405 0.651330 0.250000
O O17 0.127554 0.750000 0.000000
O O18 0.109411 0.568958 0.002438
O O19 0.070182 0.519819 0.750000
O O20 0.377841 0.347046 0.250000
O O21 0.336733 0.420864 0.026186
O O22 0.375116 0.250000 0.000000
O O23 0.322344 0.531931 0.250000
#
# Coordination Sequence:
#
# PCOD9435159 Si02
#       8
#     8   8   8   8   8   8   8   8
#     4   9  18  31  49  73 102 133 163 198 246 300
#     4  11  21  33  50  73  99 129 161 196 239 288
#     4  10  21  37  53  73 100 130 163 201 242 288
#     4  10  20  33  50  72  98 129 167 210 255 302
#     4  10  19  31  48  72 101 134 168 203 247 300
#     4  10  20  33  50  72  99 132 168 208 252 299
#     4   9  19  34  53  74  98 127 161 201 244 286
#     4   9  18  34  52  73 100 128 161 204 247 290
#
# _framework density 16.359811000000001
#
# number of rings (size 3 to 8) (size 9 to 14) (size 15 to 20)
#    0.000    2.250    0.000    4.125    0.000    7.500 
#    0.000    1.250    0.000    0.750    0.000    1.750 
#    0.000    0.000    0.000    0.000    0.000    0.000 
#
# Total GULP energy -356888.594745 kJ/mol
# GULP energy per Si atom -5576.384293 kJ/mol
# Density = 1.632258 g / cm^3
# Si number density = 16.359811 Si / 1000 Ang^3
#
#
#
# Elastic Constant Matrix: (Units=GPa)
#
#
# Indices 1 2 3 4 5 6 
#
# 1 75.7220 58.1252 33.8566 0.0000 0.0000 0.0000
# 2 58.1252 154.0709 45.9320 0.0000 0.0000 0.0000
# 3 33.8566 45.9320 44.7267 0.0000 0.0000 0.0000
# 4 0.0000 0.0000 0.0000 32.6211 0.0000 0.0000
# 5 0.0000 0.0000 0.0000 0.0000 14.5933 0.0000
# 6 0.0000 0.0000 0.0000 0.0000 0.0000 13.6505
#
#
#
# Elastic Compliance Matrix: (Units=1/GPa)
#
#
# Indices 1 2 3 4 5 6 
#
# 1 0.022227 -0.004856 -0.011838 0.000000 0.000000 0.000000
# 2 -0.004856 0.010415 -0.007020 0.000000 0.000000 0.000000
# 3 -0.011838 -0.007020 0.038528 0.000000 0.000000 0.000000
# 4 0.000000 0.000000 0.000000 0.030655 0.000000 0.000000
# 5 0.000000 0.000000 0.000000 0.000000 0.068524 0.000000
# 6 0.000000 0.000000 0.000000 0.000000 0.000000 0.073257
#
#
# Mechanical properties :
#
#
# Convention : Reuss Voigt Hill
#
# Bulk Modulus (GPa) = 42.11943 61.14969 51.63456
# Shear Modulus (GPa) = 16.72524 21.28005 19.00265
#
# Velocity S-wave (km/s) = 3.20087 3.61051 3.41184
# Velocity P-wave (km/s) = 6.28190 7.40541 6.86668
#
# Compressibility (1/GPa) = 0.02374201
#
# Stress axis : x y z
#
# Youngs Moduli (GPa) = 44.99080 96.01123 25.95507
#
# Poissons Ratio (x) = 0.46625 0.30725
# Poissons Ratio (y) = 0.21848 0.18221
# Poissons Ratio (z) = 0.53259 0.67401
#
# Static dielectric constant tensor:
#      x y z
#    x 1.611510 0.000000 0.000000 
#    y 0.000000 1.528720 0.000000 
#    z 0.000000 0.000000 1.543060 
# 
# From -- ./inp_files/10264.got.cif
#   From: 2010.05.17/outbox.cif.g08.bks.cpg/sg57_6_cif.got.tgz:10264.got - 2010.06.03 13:58:18.
