data_PCOD9435440
_publ_section_title
;
Structure prediction by ZEFSAII (Michael W. Deem and Ramdas Pophale) SiO2 
 PCOD9435440
Probable space group: P B C M
;
_chemical_formula_sum "Si O2"
_cell_formula_units_Z 48
_cell_length_a 7.681449
_cell_length_b 32.293408
_cell_length_c 9.274093
_cell_angle_alpha 90.000000
_cell_angle_beta 90.000000
_cell_angle_gamma 90.000000
_cell_volume 2300.533055
_symmetry_space_group_name_H-M "P B C M"
_symmetry_group_IT_number 57
_symmetry_cell_setting 'orthorhombic'
loop_
_space_group_symop_operation_xyz
x,y,z
-x,-y,1/2+z
x,1/2-y,-z
-x,1/2+y,1/2-z
-x,-y,-z
x,y,1/2-z
-x,1/2+y,z
x,1/2-y,1/2+z
loop_
_atom_site_type_symbol
_atom_site_label
_atom_site_fract_x
_atom_site_fract_y
_atom_site_fract_z
Si Si1 0.827157 0.291569 0.082014
Si Si2 0.685045 0.959483 0.910357
Si Si3 0.253929 0.290163 0.084786
Si Si4 0.152957 0.626326 0.077179
Si Si5 0.219468 0.379506 0.076236
Si Si6 0.726029 0.034492 0.089981
O O1 0.777043 0.291844 0.250000
O O2 0.040879 0.291246 0.078113
O O3 0.770463 0.250000 0.000000
O O4 0.768752 0.333144 0.000002
O O5 0.751079 0.948653 0.750000
O O6 0.481706 0.969849 0.896424
O O7 0.694124 0.921014 0.018754
O O8 0.780715 0.999365 0.977232
O O9 0.303949 0.285019 0.250000
O O10 0.311511 0.335951 0.036555
O O11 0.313872 0.250000 0.000000
O O12 0.145729 0.632750 0.250000
O O13 0.240952 0.582021 0.048707
O O14 0.963538 0.621655 0.006432
O O15 0.197483 0.379739 0.250000
O O16 0.802658 0.027536 0.250000
#
# Coordination Sequence:
#
# PCOD9435440 Si02
#       6
#     8   8   8   8   8   8
#     4   9  16  27  44  69 100 132 165 201 242 289
#     4  10  20  35  55  75  95 127 168 205 247 299
#     4   8  15  26  42  65  94 126 157 192 234 280
#     4  10  19  32  51  75 102 131 164 205 250 292
#     4  10  20  33  49  74 105 132 163 204 248 294
#     4   9  20  37  54  73  98 128 164 205 249 300
#
# _framework density 20.864727999999999
#
# number of rings (size 3 to 8) (size 9 to 14) (size 15 to 20)
#    0.000    2.667    0.000    3.000    0.000    7.333 
#    0.000    0.000    0.000    1.000    0.000    2.333 
#    0.000    0.000    0.000    0.000    0.000    0.000 
#
# Total GULP energy -267646.392407 kJ/mol
# GULP energy per Si atom -5575.966508 kJ/mol
# Density = 2.081724 g / cm^3
# Si number density = 20.864728 Si / 1000 Ang^3
#
#
#
# Elastic Constant Matrix: (Units=GPa)
#
#
# Indices 1 2 3 4 5 6 
#
# 1 21.1305 -7.7325 3.8966 0.0000 0.0000 0.0000
# 2 -7.7325 151.3642 92.2142 0.0000 0.0000 0.0000
# 3 3.8966 92.2142 117.7206 0.0000 0.0000 0.0000
# 4 0.0000 0.0000 0.0000 37.9025 0.0000 0.0000
# 5 0.0000 0.0000 0.0000 0.0000 172.6834 0.0000
# 6 0.0000 0.0000 0.0000 0.0000 0.0000 28.5081
#
#
#
# Elastic Compliance Matrix: (Units=1/GPa)
#
#
# Indices 1 2 3 4 5 6 
#
# 1 0.051199 0.006978 -0.007161 0.000000 0.000000 0.000000
# 2 0.006978 0.013589 -0.010875 0.000000 0.000000 0.000000
# 3 -0.007161 -0.010875 0.017251 0.000000 0.000000 0.000000
# 4 0.000000 0.000000 0.000000 0.026384 0.000000 0.000000
# 5 0.000000 0.000000 0.000000 0.000000 0.005791 0.000000
# 6 0.000000 0.000000 0.000000 0.000000 0.000000 0.035078
#
#
# Mechanical properties :
#
#
# Convention : Reuss Voigt Hill
#
# Bulk Modulus (GPa) = 16.68833 51.88578 34.28706
# Shear Modulus (GPa) = 26.12594 61.27458 43.70026
#
# Velocity S-wave (km/s) = 3.54242 5.42506 4.58149
# Velocity P-wave (km/s) = 4.97468 8.01021 6.66749
#
# Compressibility (1/GPa) = 0.05992211
#
# Stress axis : x y z
#
# Youngs Moduli (GPa) = 19.53160 73.59157 57.96872
#
# Poissons Ratio (x) = -0.51353 0.41511
# Poissons Ratio (y) = -0.13629 0.63043
# Poissons Ratio (z) = 0.13986 0.80033
#
# Static dielectric constant tensor:
#      x y z
#    x 1.769380 0.000000 0.000000 
#    y 0.000000 1.775040 0.000000 
#    z 0.000000 0.000000 1.736540 
# 
# From -- ./inp_files/3288.got.cif
#   From: 2010.05.17/outbox.cif.g08.bks.cpg/sg57_2_cif.got.tgz:3288.got - 2010.06.03 13:58:18.
