data_PCOD9435314
_publ_section_title
;
Structure prediction by ZEFSAII (Michael W. Deem and Ramdas Pophale) SiO2 
 PCOD9435314
Probable space group: P B C M
;
_chemical_formula_sum "Si O2"
_cell_formula_units_Z 40
_cell_length_a 8.968359
_cell_length_b 11.259815
_cell_length_c 18.454458
_cell_angle_alpha 90.000000
_cell_angle_beta 90.000000
_cell_angle_gamma 90.000000
_cell_volume 1863.569244
_symmetry_space_group_name_H-M "P B C M"
_symmetry_group_IT_number 57
_symmetry_cell_setting 'orthorhombic'
loop_
_space_group_symop_operation_xyz
x,y,z
-x,-y,1/2+z
x,1/2-y,-z
-x,1/2+y,1/2-z
-x,-y,-z
x,y,1/2-z
-x,1/2+y,z
x,1/2-y,1/2+z
loop_
_atom_site_type_symbol
_atom_site_label
_atom_site_fract_x
_atom_site_fract_y
_atom_site_fract_z
Si Si1 0.914773 0.119728 0.970508
Si Si2 0.238011 0.533221 0.837051
Si Si3 0.689496 0.711079 0.080230
Si Si4 0.409900 0.076569 0.666771
Si Si5 0.399319 0.592979 0.454697
O O1 0.883941 0.107645 0.883664
O O2 0.966243 0.250000 0.000000
O O3 0.747672 0.114541 0.001665
O O4 0.000000 0.000000 0.000000
O O5 0.208314 0.521208 0.750000
O O6 0.247464 0.406905 0.881198
O O7 0.408595 0.584424 0.842854
O O8 0.689542 0.817097 0.136468
O O9 0.512700 0.694098 0.066912
O O10 0.742020 0.750000 0.000000
O O11 0.384433 0.059586 0.750000
O O12 0.357011 0.965681 0.620655
O O13 0.500000 0.500000 0.500000
#
# Coordination Sequence:
#
# PCOD9435314 Si02
#       5
#     8   8   8   8   8
#     4  12  26  46  67  96 130 182 231 271 326 402
#     4  10  21  39  61  91 128 169 214 275 341 398
#     4  11  17  30  59  92 128 167 210 265 335 400
#     4  10  19  31  55  96 130 157 205 271 337 394
#     4  11  19  37  62  91 123 169 216 273 328 392
#
# _framework density 21.464188
#
# number of rings (size 3 to 8) (size 9 to 14) (size 15 to 20)
#    0.000    1.200    6.000    2.400    0.000    3.200 
#    0.000    3.000    0.000    0.000    0.000    0.000 
#    0.000    0.000    0.000    0.000    0.000    0.000 
#
# Total GULP energy -222884.271493 kJ/mol
# GULP energy per Si atom -5572.106787 kJ/mol
# Density = 2.141533 g / cm^3
# Si number density = 21.464188 Si / 1000 Ang^3
#
#
#
# Elastic Constant Matrix: (Units=GPa)
#
#
# Indices 1 2 3 4 5 6 
#
# 1 72.2911 21.2139 18.1796 0.0000 0.0000 0.0000
# 2 21.2139 105.8927 60.7022 0.0000 0.0000 0.0000
# 3 18.1796 60.7022 203.0144 0.0000 0.0000 0.0000
# 4 0.0000 0.0000 0.0000 27.6047 0.0000 0.0000
# 5 0.0000 0.0000 0.0000 0.0000 -15.4918 0.0000
# 6 0.0000 0.0000 0.0000 0.0000 0.0000 4.5946
#
#
#
# Elastic Compliance Matrix: (Units=1/GPa)
#
#
# Indices 1 2 3 4 5 6 
#
# 1 0.014744 -0.002651 -0.000528 0.000000 0.000000 0.000000
# 2 -0.002651 0.011874 -0.003313 0.000000 0.000000 0.000000
# 3 -0.000528 -0.003313 0.005964 0.000000 0.000000 0.000000
# 4 0.000000 0.000000 0.000000 0.036226 0.000000 0.000000
# 5 0.000000 0.000000 0.000000 0.000000 -0.064550 0.000000
# 6 0.000000 0.000000 0.000000 0.000000 0.000000 0.217645
#
#
# Mechanical properties :
#
#
# Convention : Reuss Voigt Hill
#
# Bulk Modulus (GPa) = 51.02663 64.59884 57.81273
# Shear Modulus (GPa) = 20.71108 22.08168 21.39638
#
# Velocity S-wave (km/s) = 3.10967 3.21092 3.16070
# Velocity P-wave (km/s) = 6.05953 6.62632 6.34926
#
# Compressibility (1/GPa) = 0.01959761
#
# Stress axis : x y z
#
# Youngs Moduli (GPa) = 67.82590 84.21950 167.68494
#
# Poissons Ratio (x) = 0.22329 0.08846
# Poissons Ratio (y) = 0.17982 0.55552
# Poissons Ratio (z) = 0.03578 0.27901
#
# Static dielectric constant tensor:
#      x y z
#    x 1.827290 0.000000 0.000000 
#    y 0.000000 1.957570 0.000000 
#    z 0.000000 0.000000 1.822450 
# 
# From -- ./inp_files/20557.got.cif
#   From: 2010.05.17/outbox.cif.g08.bks.cpg/sg57_11_cif.got.tgz:20557.got - 2010.06.03 13:58:18.
