data_PCOD9435780
_publ_section_title
;
Structure prediction by ZEFSAII (Michael W. Deem and Ramdas Pophale) SiO2 
 PCOD9435780
Probable space group: P B C M
;
_chemical_formula_sum "Si O2"
_cell_formula_units_Z 64
_cell_length_a 10.846924
_cell_length_b 34.162748
_cell_length_c 8.787700
_cell_angle_alpha 90.000000
_cell_angle_beta 90.000000
_cell_angle_gamma 90.000000
_cell_volume 3256.376537
_symmetry_space_group_name_H-M "P B C M"
_symmetry_group_IT_number 57
_symmetry_cell_setting 'orthorhombic'
loop_
_space_group_symop_operation_xyz
x,y,z
-x,-y,1/2+z
x,1/2-y,-z
-x,1/2+y,1/2-z
-x,-y,-z
x,y,1/2-z
-x,1/2+y,z
x,1/2-y,1/2+z
loop_
_atom_site_type_symbol
_atom_site_label
_atom_site_fract_x
_atom_site_fract_y
_atom_site_fract_z
Si Si1 0.566473 0.937851 0.927956
Si Si2 0.955827 0.583537 0.924377
Si Si3 0.176483 0.869594 0.570633
Si Si4 0.915801 0.291622 0.067871
Si Si5 0.313375 0.561607 0.568580
Si Si6 0.178413 0.014195 0.429196
Si Si7 0.299351 0.132736 0.573451
Si Si8 0.190584 0.208475 0.432068
O O1 0.536470 0.936263 0.750000
O O2 0.689046 0.963995 0.945130
O O3 0.447994 0.952585 0.018630
O O4 0.603216 0.895319 0.992089
O O5 0.001112 0.583150 0.750000
O O6 0.830260 0.608954 0.929548
O O7 0.918202 0.540114 0.977823
O O8 0.053683 0.605683 0.028567
O O9 0.184570 0.863524 0.750000
O O10 0.165039 0.828215 0.485886
O O11 0.285043 0.897147 0.509311
O O12 0.923151 0.289777 0.250000
O O13 0.873536 0.250000 0.000000
O O14 0.053475 0.298199 0.000679
O O15 0.309163 0.564851 0.750000
O O16 0.209407 0.529915 0.522147
O O17 0.146012 0.014880 0.250000
O O18 0.331404 0.139082 0.750000
O O19 0.275743 0.173159 0.487513
O O20 0.232448 0.250000 0.500000
O O21 0.182488 0.210106 0.250000
#
# Coordination Sequence:
#
# PCOD9435780 Si02
#       8
#     8   8   8   8   8   8   8   8
#     4  10  20  36  58  83 109 141 186 236 283 334
#     4  10  20  34  55  81 111 146 185 228 281 338
#     4  12  24  38  57  81 114 152 189 233 280 333
#     4  11  21  36  57  84 115 148 185 226 273 328
#     4  11  23  39  57  80 110 148 192 236 281 331
#     4   9  20  37  58  82 111 145 185 234 285 337
#     4  10  19  33  54  80 111 145 182 227 278 333
#     4  11  20  31  51  81 115 148 180 223 274 332
#
# _framework density 19.653746999999999
#
# number of rings (size 3 to 8) (size 9 to 14) (size 15 to 20)
#    0.000    1.500    1.250    6.000    0.000    3.000 
#    0.000    0.000    0.000    0.750    0.000    5.250 
#    0.000    0.000    0.000    0.000    0.000    0.000 
#
# Total GULP energy -357853.941006 kJ/mol
# GULP energy per Si atom -5591.467828 kJ/mol
# Density = 1.960901 g / cm^3
# Si number density = 19.653747 Si / 1000 Ang^3
#
#
#
# Elastic Constant Matrix: (Units=GPa)
#
#
# Indices 1 2 3 4 5 6 
#
# 1 34.8310 2.8057 10.8894 0.0000 0.0000 0.0000
# 2 2.8057 127.4721 48.4958 0.0000 0.0000 0.0000
# 3 10.8894 48.4958 118.8762 0.0000 0.0000 0.0000
# 4 0.0000 0.0000 0.0000 31.5957 0.0000 0.0000
# 5 0.0000 0.0000 0.0000 0.0000 25.4681 0.0000
# 6 0.0000 0.0000 0.0000 0.0000 0.0000 25.2728
#
#
#
# Elastic Compliance Matrix: (Units=1/GPa)
#
#
# Indices 1 2 3 4 5 6 
#
# 1 0.029578 0.000450 -0.002893 0.000000 0.000000 0.000000
# 2 0.000450 0.009293 -0.003832 0.000000 0.000000 0.000000
# 3 -0.002893 -0.003832 0.010240 0.000000 0.000000 0.000000
# 4 0.000000 0.000000 0.000000 0.031650 0.000000 0.000000
# 5 0.000000 0.000000 0.000000 0.000000 0.039265 0.000000
# 6 0.000000 0.000000 0.000000 0.000000 0.000000 0.039568
#
#
# Mechanical properties :
#
#
# Convention : Reuss Voigt Hill
#
# Bulk Modulus (GPa) = 27.35189 45.06234 36.20712
# Shear Modulus (GPa) = 27.12490 31.06655 29.09572
#
# Velocity S-wave (km/s) = 3.71905 3.98011 3.85179
# Velocity P-wave (km/s) = 5.69112 6.64075 6.18419
#
# Compressibility (1/GPa) = 0.03656054
#
# Stress axis : x y z
#
# Youngs Moduli (GPa) = 33.80860 107.60896 97.65167
#
# Poissons Ratio (x) = -0.04837 0.28249
# Poissons Ratio (y) = -0.01520 0.37422
# Poissons Ratio (z) = 0.09780 0.41238
#
# Static dielectric constant tensor:
#      x y z
#    x 1.700080 0.000000 0.000000 
#    y 0.000000 1.702860 0.000000 
#    z 0.000000 0.000000 1.650720 
# 
# From -- ./inp_files/3830.got.cif
#   From: 2010.05.17/outbox.cif.g08.bks.cpg/sg57_2_cif.got.tgz:3830.got - 2010.06.03 13:58:18.
