data_PCOD9435945
_publ_section_title
;
Structure prediction by ZEFSAII (Michael W. Deem and Ramdas Pophale) SiO2 
 PCOD9435945
Probable space group: P B C M
;
_chemical_formula_sum "Si O2"
_cell_formula_units_Z 40
_cell_length_a 13.976217
_cell_length_b 18.752739
_cell_length_c 8.556757
_cell_angle_alpha 90.000000
_cell_angle_beta 90.000000
_cell_angle_gamma 90.000000
_cell_volume 2242.660547
_symmetry_space_group_name_H-M "P B C M"
_symmetry_group_IT_number 57
_symmetry_cell_setting 'orthorhombic'
loop_
_space_group_symop_operation_xyz
x,y,z
-x,-y,1/2+z
x,1/2-y,-z
-x,1/2+y,1/2-z
-x,-y,-z
x,y,1/2-z
-x,1/2+y,z
x,1/2-y,1/2+z
loop_
_atom_site_type_symbol
_atom_site_label
_atom_site_fract_x
_atom_site_fract_y
_atom_site_fract_z
Si Si1 0.598801 0.969082 0.062029
Si Si2 0.799644 0.034557 0.060367
Si Si3 0.315117 0.326086 0.936392
Si Si4 0.883928 0.884367 0.062057
Si Si5 0.914575 0.171522 0.437420
O O1 0.598189 0.966470 0.250000
O O2 0.691243 0.016275 0.012406
O O3 0.619107 0.890451 0.996271
O O4 0.500000 0.000000 0.000000
O O5 0.800317 0.035505 0.250000
O O6 0.842332 0.109480 0.006320
O O7 0.865399 0.966884 0.014016
O O8 0.311202 0.325793 0.750000
O O9 0.347938 0.250000 0.000000
O O10 0.209324 0.342045 0.004112
O O11 0.887826 0.881066 0.250000
O O12 0.979933 0.852036 0.992133
O O13 0.892102 0.250000 0.500000
O O14 0.912773 0.173321 0.250000
#
# Coordination Sequence:
#
# PCOD9435945 Si02
#       5
#     8   8   8   8   8
#     4  10  20  38  60  83 107 138 178 223 272 325
#     4   8  18  35  55  75 102 136 176 220 262 308
#     4  11  21  35  55  82 111 141 175 220 270 320
#     4  10  19  34  54  78 105 138 176 219 264 315
#     4  11  21  34  50  74 106 143 178 214 256 306
#
# _framework density 17.835958999999999
#
# number of rings (size 3 to 8) (size 9 to 14) (size 15 to 20)
#    0.000    2.000    0.000    6.000    0.000    0.000 
#    0.000   12.000    0.000    2.400    0.000    0.000 
#    0.000    0.000    0.000    0.000    0.000    0.000 
#
# Total GULP energy -223372.000599 kJ/mol
# GULP energy per Si atom -5584.300015 kJ/mol
# Density = 1.779536 g / cm^3
# Si number density = 17.835959 Si / 1000 Ang^3
#
#
#
# Elastic Constant Matrix: (Units=GPa)
#
#
# Indices 1 2 3 4 5 6 
#
# 1 82.2384 81.0984 25.0569 0.0000 0.0000 0.0000
# 2 81.0984 171.7972 45.6347 0.0000 0.0000 0.0000
# 3 25.0569 45.6347 78.6112 0.0000 0.0000 0.0000
# 4 0.0000 0.0000 0.0000 27.2450 0.0000 0.0000
# 5 0.0000 0.0000 0.0000 0.0000 23.7009 0.0000
# 6 0.0000 0.0000 0.0000 0.0000 0.0000 17.1882
#
#
#
# Elastic Compliance Matrix: (Units=1/GPa)
#
#
# Indices 1 2 3 4 5 6 
#
# 1 0.022847 -0.010464 -0.001208 0.000000 0.000000 0.000000
# 2 -0.010464 0.011675 -0.003442 0.000000 0.000000 0.000000
# 3 -0.001208 -0.003442 0.015104 0.000000 0.000000 0.000000
# 4 0.000000 0.000000 0.000000 0.036704 0.000000 0.000000
# 5 0.000000 0.000000 0.000000 0.000000 0.042193 0.000000
# 6 0.000000 0.000000 0.000000 0.000000 0.000000 0.058179
#
#
# Mechanical properties :
#
#
# Convention : Reuss Voigt Hill
#
# Bulk Modulus (GPa) = 51.55227 70.69186 61.12207
# Shear Modulus (GPa) = 22.38182 25.68394 24.03288
#
# Velocity S-wave (km/s) = 3.54626 3.79886 3.67473
# Velocity P-wave (km/s) = 6.76271 7.67869 7.23521
#
# Compressibility (1/GPa) = 0.01939779
#
# Stress axis : x y z
#
# Youngs Moduli (GPa) = 43.76941 85.65400 66.20820
#
# Poissons Ratio (x) = 0.89631 0.07996
# Poissons Ratio (y) = 0.45802 0.22788
# Poissons Ratio (z) = 0.05286 0.29482
#
# Static dielectric constant tensor:
#      x y z
#    x 1.579850 0.000000 0.000000 
#    y 0.000000 1.651670 0.000000 
#    z 0.000000 0.000000 1.603870 
# 
# From -- ./inp_files/2685.got.cif
#   From: 2010.05.17/outbox.cif.g08.bks.cpg/sg57_2_cif.got.tgz:2685.got - 2010.06.03 13:58:18.
