data_PCOD9435017
_publ_section_title
;
Structure prediction by ZEFSAII (Michael W. Deem and Ramdas Pophale) SiO2 
 PCOD9435017
Probable space group: P B C M
;
_chemical_formula_sum "Si O2"
_cell_formula_units_Z 56
_cell_length_a 18.085532
_cell_length_b 21.643068
_cell_length_c 9.318430
_cell_angle_alpha 90.000000
_cell_angle_beta 90.000000
_cell_angle_gamma 90.000000
_cell_volume 3647.479498
_symmetry_space_group_name_H-M "P B C M"
_symmetry_group_IT_number 57
_symmetry_cell_setting 'orthorhombic'
loop_
_space_group_symop_operation_xyz
x,y,z
-x,-y,1/2+z
x,1/2-y,-z
-x,1/2+y,1/2-z
-x,-y,-z
x,y,1/2-z
-x,1/2+y,z
x,1/2-y,1/2+z
loop_
_atom_site_type_symbol
_atom_site_label
_atom_site_fract_x
_atom_site_fract_y
_atom_site_fract_z
Si Si1 0.557383 0.584106 0.415088
Si Si2 0.946634 0.911764 0.919726
Si Si3 0.702101 0.897780 0.081620
Si Si4 0.731079 0.456677 0.918888
Si Si5 0.846528 0.684440 0.922111
Si Si6 0.104386 0.534642 0.080465
Si Si7 0.586752 0.064512 0.915152
O O1 0.449509 0.397530 0.750000
O O2 0.628975 0.613700 0.489160
O O3 0.481452 0.594427 0.500106
O O4 0.572037 0.509801 0.418984
O O5 0.930384 0.906280 0.750000
O O6 0.034994 0.919850 0.937012
O O7 0.911967 0.855949 0.008564
O O8 0.911901 0.974757 0.984063
O O9 0.683455 0.892371 0.250000
O O10 0.770540 0.853218 0.050139
O O11 0.726868 0.968965 0.058088
O O12 0.717279 0.445926 0.750000
O O13 0.815088 0.438280 0.953897
O O14 0.665799 0.426536 0.009987
O O15 0.855171 0.690120 0.750000
O O16 0.843380 0.750000 0.000000
O O17 0.106517 0.515827 0.250000
O O18 0.587409 0.083645 0.750000
#
# Coordination Sequence:
#
# PCOD9435017 Si02
#       7
#     8   8   8   8   8   8   8
#     4   9  16  25  38  56  80 111 146 179 211 254
#     4  10  19  30  47  68  90 118 154 191 233 280
#     4   9  17  29  44  59  82 115 148 184 225 266
#     4   9  15  26  42  60  86 118 149 181 221 266
#     4  11  22  36  50  66  90 120 156 196 238 278
#     4   9  17  30  46  66  92 122 153 189 230 278
#     4   9  16  24  35  56  84 113 145 177 212 253
#
# _framework density 15.353066999999999
#
# number of rings (size 3 to 8) (size 9 to 14) (size 15 to 20)
#    0.000    2.571    1.429    1.714    0.000    5.714 
#    0.000    0.000    0.000    0.000    0.000    0.000 
#    0.000    1.143    0.000    8.286    0.000    4.429 
#
# Total GULP energy -312036.849625 kJ/mol
# GULP energy per Si atom -5572.086600 kJ/mol
# Density = 1.531812 g / cm^3
# Si number density = 15.353067 Si / 1000 Ang^3
#
#
#
# Elastic Constant Matrix: (Units=GPa)
#
#
# Indices 1 2 3 4 5 6 
#
# 1 144.3130 23.7238 87.4165 0.0000 0.0000 0.0000
# 2 23.7238 35.4244 33.9171 0.0000 0.0000 0.0000
# 3 87.4165 33.9171 101.5530 0.0000 0.0000 0.0000
# 4 0.0000 0.0000 0.0000 15.8421 0.0000 0.0000
# 5 0.0000 0.0000 0.0000 0.0000 29.6777 0.0000
# 6 0.0000 0.0000 0.0000 0.0000 0.0000 8.8021
#
#
#
# Elastic Compliance Matrix: (Units=1/GPa)
#
#
# Indices 1 2 3 4 5 6 
#
# 1 0.014744 0.003348 -0.013810 0.000000 0.000000 0.000000
# 2 0.003348 0.042260 -0.016996 0.000000 0.000000 0.000000
# 3 -0.013810 -0.016996 0.027411 0.000000 0.000000 0.000000
# 4 0.000000 0.000000 0.000000 0.063123 0.000000 0.000000
# 5 0.000000 0.000000 0.000000 0.000000 0.033695 0.000000
# 6 0.000000 0.000000 0.000000 0.000000 0.000000 0.113609
#
#
# Mechanical properties :
#
#
# Convention : Reuss Voigt Hill
#
# Bulk Modulus (GPa) = 33.89927 63.48946 48.69437
# Shear Modulus (GPa) = 13.90462 19.94657 16.92560
#
# Velocity S-wave (km/s) = 3.01268 3.60834 3.32388
# Velocity P-wave (km/s) = 5.85059 7.66830 6.82027
#
# Compressibility (1/GPa) = 0.02949916
#
# Stress axis : x y z
#
# Youngs Moduli (GPa) = 67.82257 23.66308 36.48138
#
# Poissons Ratio (x) = -0.07923 0.50381
# Poissons Ratio (y) = -0.22708 0.62005
# Poissons Ratio (z) = 0.93664 0.40218
#
# Static dielectric constant tensor:
#      x y z
#    x 1.523530 0.000000 0.000000 
#    y 0.000000 1.474080 0.000000 
#    z 0.000000 0.000000 1.515780 
# 
# From -- ./inp_files/7301.got.cif
#   From: 2010.05.17/outbox.cif.g08.bks.cpg/sg57_4_cif.got.tgz:7301.got - 2010.06.03 13:58:18.
