data_PCOD9435659
_publ_section_title
;
Structure prediction by ZEFSAII (Michael W. Deem and Ramdas Pophale) SiO2 
 PCOD9435659
Probable space group: P B C M
;
_chemical_formula_sum "Si O2"
_cell_formula_units_Z 40
_cell_length_a 27.053145
_cell_length_b 9.239312
_cell_length_c 8.640830
_cell_angle_alpha 90.000000
_cell_angle_beta 90.000000
_cell_angle_gamma 90.000000
_cell_volume 2159.796605
_symmetry_space_group_name_H-M "P B C M"
_symmetry_group_IT_number 57
_symmetry_cell_setting 'orthorhombic'
loop_
_space_group_symop_operation_xyz
x,y,z
-x,-y,1/2+z
x,1/2-y,-z
-x,1/2+y,1/2-z
-x,-y,-z
x,y,1/2-z
-x,1/2+y,z
x,1/2-y,1/2+z
loop_
_atom_site_type_symbol
_atom_site_label
_atom_site_fract_x
_atom_site_fract_y
_atom_site_fract_z
Si Si1 0.046291 0.413103 0.935911
Si Si2 0.546680 0.912291 0.435822
Si Si3 0.262126 0.085904 0.436328
Si Si4 0.354934 0.911616 0.564424
Si Si5 0.153742 0.086635 0.063746
O O1 0.044039 0.410038 0.750000
O O2 0.100413 0.476850 0.983128
O O3 0.044076 0.250000 0.000000
O O4 0.000000 0.500000 0.000000
O O5 0.546688 0.750000 0.500000
O O6 0.544124 0.908186 0.250000
O O7 0.500000 0.000000 0.500000
O O8 0.597055 0.994699 0.481301
O O9 0.266630 0.250000 0.500000
O O10 0.264917 0.090616 0.250000
O O11 0.207435 0.026598 0.482728
O O12 0.305935 0.988901 0.501413
O O13 0.359199 0.750000 0.500000
O O14 0.352941 0.906849 0.750000
O O15 0.153726 0.091680 0.250000
O O16 0.153553 0.250000 0.000000
#
# Coordination Sequence:
#
# PCOD9435659 Si02
#       5
#     8   8   8   8   8
#     4  10  19  33  52  76 105 138 177 221 269 323
#     4  11  24  41  63  89 118 150 187 228 273 322
#     4  10  19  34  57  83 109 140 179 224 271 323
#     4  11  24  40  58  83 114 149 185 226 273 323
#     4   8  16  30  50  75 103 135 174 219 267 319
#
# _framework density 18.520263
#
# number of rings (size 3 to 8) (size 9 to 14) (size 15 to 20)
#    0.000    2.000    0.000    3.600    0.000    8.000 
#    0.000    1.000    0.000    0.000    0.000    0.000 
#    0.000    0.000    0.000    0.000    0.000    0.000 
#
# Total GULP energy -223169.667712 kJ/mol
# GULP energy per Si atom -5579.241693 kJ/mol
# Density = 1.847811 g / cm^3
# Si number density = 18.520263 Si / 1000 Ang^3
#
#
#
# Elastic Constant Matrix: (Units=GPa)
#
#
# Indices 1 2 3 4 5 6 
#
# 1 242.0384 99.0729 60.6007 0.0000 0.0000 0.0000
# 2 99.0729 112.6046 35.0880 0.0000 0.0000 0.0000
# 3 60.6007 35.0880 48.0872 0.0000 0.0000 0.0000
# 4 0.0000 0.0000 0.0000 32.5996 0.0000 0.0000
# 5 0.0000 0.0000 0.0000 0.0000 29.4231 0.0000
# 6 0.0000 0.0000 0.0000 0.0000 0.0000 34.5550
#
#
#
# Elastic Compliance Matrix: (Units=1/GPa)
#
#
# Indices 1 2 3 4 5 6 
#
# 1 0.007629 -0.004810 -0.006104 0.000000 0.000000 0.000000
# 2 -0.004810 0.014527 -0.004538 0.000000 0.000000 0.000000
# 3 -0.006104 -0.004538 0.031800 0.000000 0.000000 0.000000
# 4 0.000000 0.000000 0.000000 0.030675 0.000000 0.000000
# 5 0.000000 0.000000 0.000000 0.000000 0.033987 0.000000
# 6 0.000000 0.000000 0.000000 0.000000 0.000000 0.028939
#
#
# Mechanical properties :
#
#
# Convention : Reuss Voigt Hill
#
# Bulk Modulus (GPa) = 43.38316 88.02814 65.70565
# Shear Modulus (GPa) = 26.86079 33.18010 30.02044
#
# Velocity S-wave (km/s) = 3.81247 4.23727 4.03047
# Velocity P-wave (km/s) = 6.54641 8.46009 7.56402
#
# Compressibility (1/GPa) = 0.02305042
#
# Stress axis : x y z
#
# Youngs Moduli (GPa) = 131.08269 68.83902 31.44676
#
# Poissons Ratio (x) = 0.33111 0.19196
# Poissons Ratio (y) = 0.63049 0.14271
# Poissons Ratio (z) = 0.80017 0.31240
#
# Static dielectric constant tensor:
#      x y z
#    x 1.681140 0.000000 0.000000 
#    y 0.000000 1.587040 0.000000 
#    z 0.000000 0.000000 1.625730 
# 
# From -- ./inp_files/8905.got.cif
#   From: 2010.05.17/outbox.cif.g08.bks.cpg/sg57_5_cif.got.tgz:8905.got - 2010.06.03 13:58:18.
