data_PCOD9435774
_publ_section_title
;
Structure prediction by ZEFSAII (Michael W. Deem and Ramdas Pophale) SiO2 
 PCOD9435774
Probable space group: P B C M
;
_chemical_formula_sum "Si O2"
_cell_formula_units_Z 56
_cell_length_a 15.625553
_cell_length_b 21.639760
_cell_length_c 8.455732
_cell_angle_alpha 90.000000
_cell_angle_beta 90.000000
_cell_angle_gamma 90.000000
_cell_volume 2859.163861
_symmetry_space_group_name_H-M "P B C M"
_symmetry_group_IT_number 57
_symmetry_cell_setting 'orthorhombic'
loop_
_space_group_symop_operation_xyz
x,y,z
-x,-y,1/2+z
x,1/2-y,-z
-x,1/2+y,1/2-z
-x,-y,-z
x,y,1/2-z
-x,1/2+y,z
x,1/2-y,1/2+z
loop_
_atom_site_type_symbol
_atom_site_label
_atom_site_fract_x
_atom_site_fract_y
_atom_site_fract_z
Si Si1 0.944946 0.058987 0.557814
Si Si2 0.800234 0.625368 0.438835
Si Si3 0.439793 0.817182 0.558487
Si Si4 0.769178 0.488992 0.060557
Si Si5 0.582334 0.459367 0.938674
Si Si6 0.964675 0.683561 0.563517
Si Si7 0.634336 0.813980 0.939186
O O1 0.947472 0.057002 0.750000
O O2 0.844331 0.057793 0.511535
O O3 0.986261 0.123125 0.500064
O O4 0.000000 0.000000 0.500000
O O5 0.807101 0.635680 0.250000
O O6 0.815634 0.554147 0.472914
O O7 0.865775 0.670300 0.522761
O O8 0.701979 0.635318 0.487237
O O9 0.404538 0.750000 0.500000
O O10 0.435958 0.814992 0.750000
O O11 0.410815 0.886443 0.509478
O O12 0.538501 0.818867 0.500184
O O13 0.755891 0.485154 0.250000
O O14 0.675560 0.485690 0.984621
O O15 0.572070 0.458620 0.750000
O O16 0.500000 0.500000 0.000000
O O17 0.991642 0.750000 0.500000
O O18 0.975846 0.684358 0.750000
O O19 0.628413 0.814038 0.750000
O O20 0.671477 0.750000 0.000000
#
# Coordination Sequence:
#
# PCOD9435774 Si02
#       7
#     8   8   8   8   8   8   8
#     4  10  21  39  63  87 115 153 198 244 295 354
#     4  10  19  33  54  79 112 152 188 235 298 358
#     4   9  19  36  56  78 108 149 196 244 296 352
#     4  10  21  38  60  86 116 154 196 244 304 360
#     4  11  23  39  60  89 123 159 202 252 302 359
#     4  11  23  37  56  85 118 155 198 245 298 357
#     4   9  17  29  46  70 101 139 181 224 278 343
#
# _framework density 19.586145999999999
#
# number of rings (size 3 to 8) (size 9 to 14) (size 15 to 20)
#    0.000    2.000    1.429    2.143    0.000    6.857 
#    0.000    3.571    0.000    3.429    0.000    0.000 
#    0.000    0.000    0.000    0.000    0.000    0.000 
#
# Total GULP energy -311844.907989 kJ/mol
# GULP energy per Si atom -5568.659071 kJ/mol
# Density = 1.954157 g / cm^3
# Si number density = 19.586146 Si / 1000 Ang^3
#
#
#
# Elastic Constant Matrix: (Units=GPa)
#
#
# Indices 1 2 3 4 5 6 
#
# 1 82.7929 37.6163 14.3220 0.0000 0.0000 0.0000
# 2 37.6163 128.2065 27.4361 0.0000 0.0000 0.0000
# 3 14.3220 27.4361 16.9582 0.0000 0.0000 0.0000
# 4 0.0000 0.0000 0.0000 27.4464 0.0000 0.0000
# 5 0.0000 0.0000 0.0000 0.0000 19.2270 0.0000
# 6 0.0000 0.0000 0.0000 0.0000 0.0000 31.7915
#
#
#
# Elastic Compliance Matrix: (Units=1/GPa)
#
#
# Indices 1 2 3 4 5 6 
#
# 1 0.014661 -0.002527 -0.008294 0.000000 0.000000 0.000000
# 2 -0.002527 0.012366 -0.017873 0.000000 0.000000 0.000000
# 3 -0.008294 -0.017873 0.094889 0.000000 0.000000 0.000000
# 4 0.000000 0.000000 0.000000 0.036435 0.000000 0.000000
# 5 0.000000 0.000000 0.000000 0.000000 0.052010 0.000000
# 6 0.000000 0.000000 0.000000 0.000000 0.000000 0.031455
#
#
# Mechanical properties :
#
#
# Convention : Reuss Voigt Hill
#
# Bulk Modulus (GPa) = 15.49692 42.96739 29.23215
# Shear Modulus (GPa) = 15.59030 25.59852 20.59441
#
# Velocity S-wave (km/s) = 2.82438 3.61913 3.24617
# Velocity P-wave (km/s) = 4.30878 6.28087 5.38586
#
# Compressibility (1/GPa) = 0.06452896
#
# Stress axis : x y z
#
# Youngs Moduli (GPa) = 68.20774 80.86711 10.53866
#
# Poissons Ratio (x) = 0.20433 0.08741
# Poissons Ratio (y) = 0.17234 0.18835
# Poissons Ratio (z) = 0.56573 1.44530
#
# Static dielectric constant tensor:
#      x y z
#    x 1.695410 0.000000 0.000000 
#    y 0.000000 1.771940 0.000000 
#    z 0.000000 0.000000 1.668390 
# 
# From -- ./inp_files/5114.got.cif
#   From: 2010.05.17/outbox.cif.g08.bks.cpg/sg57_3_cif.got.tgz:5114.got - 2010.06.03 13:58:18.
