data_PCOD9435803
_publ_section_title
;
Structure prediction by ZEFSAII (Michael W. Deem and Ramdas Pophale) SiO2 
 PCOD9435803
Probable space group: P B C M
;
_chemical_formula_sum "Si O2"
_cell_formula_units_Z 48
_cell_length_a 17.624509
_cell_length_b 8.334778
_cell_length_c 16.217684
_cell_angle_alpha 90.000000
_cell_angle_beta 90.000000
_cell_angle_gamma 90.000000
_cell_volume 2382.318907
_symmetry_space_group_name_H-M "P B C M"
_symmetry_group_IT_number 57
_symmetry_cell_setting 'orthorhombic'
loop_
_space_group_symop_operation_xyz
x,y,z
-x,-y,1/2+z
x,1/2-y,-z
-x,1/2+y,1/2-z
-x,-y,-z
x,y,1/2-z
-x,1/2+y,z
x,1/2-y,1/2+z
loop_
_atom_site_type_symbol
_atom_site_label
_atom_site_fract_x
_atom_site_fract_y
_atom_site_fract_z
Si Si1 0.445564 0.765642 0.845261
Si Si2 0.435622 0.445606 0.934855
Si Si3 0.319241 0.921844 0.546600
Si Si4 0.833730 0.559336 0.511369
Si Si5 0.107956 0.957568 0.344875
Si Si6 0.966246 0.151345 0.084234
O O1 0.454149 0.794451 0.750000
O O2 0.425291 0.583944 0.867070
O O3 0.379503 0.879755 0.881947
O O4 0.525631 0.796774 0.891009
O O5 0.500000 0.500000 0.000000
O O6 0.359052 0.448281 0.986469
O O7 0.312027 0.750000 0.500000
O O8 0.236901 0.991864 0.563597
O O9 0.833635 0.750000 0.500000
O O10 0.831506 0.485255 0.418331
O O11 0.908836 0.488259 0.554923
O O12 0.131032 0.984176 0.250000
O O13 0.039178 0.076888 0.371319
O O14 0.075924 0.778139 0.357192
O O15 0.983723 0.250000 0.000000
#
# Coordination Sequence:
#
# PCOD9435803 Si02
#       6
#     8   8   8   8   8   8
#     4  10  19  33  54  83 110 138 181 234 273 312
#     4   9  18  33  54  77 106 143 179 216 269 332
#     4   9  19  36  54  74 106 148 185 216 268 337
#     4  11  22  38  58  80 110 150 189 225 274 340
#     4  11  21  36  58  86 113 142 184 235 277 322
#     4  10  20  36  58  82 112 149 185 222 275 337
#
# _framework density 20.148436
#
# number of rings (size 3 to 8) (size 9 to 14) (size 15 to 20)
#    0.000    2.000    0.000    7.500    0.000    2.667 
#    0.000   10.833    0.000    0.000    0.000    0.000 
#    0.000    0.000    0.000    0.000    0.000    0.000 
#
# Total GULP energy -267775.565945 kJ/mol
# GULP energy per Si atom -5578.657624 kJ/mol
# Density = 2.010258 g / cm^3
# Si number density = 20.148436 Si / 1000 Ang^3
#
#
#
# Elastic Constant Matrix: (Units=GPa)
#
#
# Indices 1 2 3 4 5 6 
#
# 1 57.4969 8.3229 -6.2439 0.0000 0.0000 0.0000
# 2 8.3229 75.9951 5.4702 0.0000 0.0000 0.0000
# 3 -6.2439 5.4702 74.2826 0.0000 0.0000 0.0000
# 4 0.0000 0.0000 0.0000 20.4198 0.0000 0.0000
# 5 0.0000 0.0000 0.0000 0.0000 15.8920 0.0000
# 6 0.0000 0.0000 0.0000 0.0000 0.0000 23.7363
#
#
#
# Elastic Compliance Matrix: (Units=1/GPa)
#
#
# Indices 1 2 3 4 5 6 
#
# 1 0.017873 -0.002077 0.001655 0.000000 0.000000 0.000000
# 2 -0.002077 0.013470 -0.001166 0.000000 0.000000 0.000000
# 3 0.001655 -0.001166 0.013687 0.000000 0.000000 0.000000
# 4 0.000000 0.000000 0.000000 0.048972 0.000000 0.000000
# 5 0.000000 0.000000 0.000000 0.000000 0.062925 0.000000
# 6 0.000000 0.000000 0.000000 0.000000 0.000000 0.042130
#
#
# Mechanical properties :
#
#
# Convention : Reuss Voigt Hill
#
# Bulk Modulus (GPa) = 23.89244 24.76366 24.32805
# Shear Modulus (GPa) = 23.12851 25.35798 24.24324
#
# Velocity S-wave (km/s) = 3.39175 3.55146 3.47253
# Velocity P-wave (km/s) = 5.21753 5.39764 5.30835
#
# Compressibility (1/GPa) = 0.04185424
#
# Stress axis : x y z
#
# Youngs Moduli (GPa) = 55.95168 74.23840 73.06132
#
# Poissons Ratio (x) = 0.15416 -0.12093
# Poissons Ratio (y) = 0.11618 0.08523
# Poissons Ratio (z) = -0.09261 0.08660
#
# Static dielectric constant tensor:
#      x y z
#    x 1.730000 0.000000 0.000000 
#    y 0.000000 1.757520 0.000000 
#    z 0.000000 0.000000 1.716600 
# 
# From -- ./inp_files/22828.got.cif
#   From: 2010.05.17/outbox.cif.g08.bks.cpg/sg57_12_cif.got.tgz:22828.got - 2010.06.03 13:58:18.
