data_PCOD9435192
_publ_section_title
;
Structure prediction by ZEFSAII (Michael W. Deem and Ramdas Pophale) SiO2 
 PCOD9435192
Probable space group: P B C M
;
_chemical_formula_sum "Si O2"
_cell_formula_units_Z 64
_cell_length_a 31.093050
_cell_length_b 14.047367
_cell_length_c 8.713863
_cell_angle_alpha 90.000000
_cell_angle_beta 90.000000
_cell_angle_gamma 90.000000
_cell_volume 3806.001734
_symmetry_space_group_name_H-M "P B C M"
_symmetry_group_IT_number 57
_symmetry_cell_setting 'orthorhombic'
loop_
_space_group_symop_operation_xyz
x,y,z
-x,-y,1/2+z
x,1/2-y,-z
-x,1/2+y,1/2-z
-x,-y,-z
x,y,1/2-z
-x,1/2+y,z
x,1/2-y,1/2+z
loop_
_atom_site_type_symbol
_atom_site_label
_atom_site_fract_x
_atom_site_fract_y
_atom_site_fract_z
Si Si1 0.876886 0.143645 0.066023
Si Si2 0.954626 0.473025 0.426218
Si Si3 0.351755 0.147923 0.064960
Si Si4 0.893853 0.845002 0.923617
Si Si5 0.566265 0.973558 0.565515
Si Si6 0.743573 0.645146 0.934206
Si Si7 0.482405 0.854384 0.566960
Si Si8 0.181359 0.024705 0.063473
O O1 0.874603 0.144278 0.250000
O O2 0.872097 0.250000 0.000000
O O3 0.923250 0.100630 0.013334
O O4 0.840080 0.072581 0.998946
O O5 0.960173 0.440655 0.250000
O O6 0.928272 0.571435 0.424767
O O7 0.000000 0.500000 0.500000
O O8 0.347531 0.153395 0.250000
O O9 0.387609 0.069921 0.025506
O O10 0.366559 0.250000 0.000000
O O11 0.305333 0.129738 0.990510
O O12 0.883010 0.819736 0.750000
O O13 0.851155 0.891820 0.992426
O O14 0.909798 0.750000 0.000000
O O15 0.564326 0.982795 0.750000
O O16 0.528168 0.900752 0.518533
O O17 0.554169 0.073720 0.491266
O O18 0.745879 0.647802 0.750000
O O19 0.756464 0.750000 0.000000
O O20 0.773137 0.560686 0.001240
O O21 0.477659 0.750000 0.500000
O O22 0.481855 0.850358 0.750000
O O23 0.180968 0.020610 0.250000
#
# Coordination Sequence:
#
# PCOD9435192 Si02
#       8
#     8   8   8   8   8   8   8   8
#     4  11  22  38  59  82 106 138 177 219 263 308
#     4  10  21  37  53  75 105 138 175 216 256 300
#     4  10  19  32  50  73 103 137 171 210 255 306
#     4   9  19  32  49  72  99 128 160 197 241 290
#     4   9  19  33  49  71  99 133 172 212 257 307
#     4  11  21  33  51  78 109 141 174 209 255 311
#     4  10  19  31  49  72  99 131 169 214 259 306
#     4  10  20  36  55  78 106 134 168 212 254 300
#
# _framework density 16.815546999999999
#
# number of rings (size 3 to 8) (size 9 to 14) (size 15 to 20)
#    0.000    2.000    0.000    6.000    0.000    6.000 
#    0.000    1.250    0.000    0.750    0.000    1.750 
#    0.000    0.000    0.000    0.000    0.000    0.000 
#
# Total GULP energy -356965.681505 kJ/mol
# GULP energy per Si atom -5577.588774 kJ/mol
# Density = 1.677727 g / cm^3
# Si number density = 16.815547 Si / 1000 Ang^3
#
#
#
# Elastic Constant Matrix: (Units=GPa)
#
#
# Indices 1 2 3 4 5 6 
#
# 1 84.9385 54.8352 41.8422 0.0000 0.0000 0.0000
# 2 54.8352 116.1843 53.6374 0.0000 0.0000 0.0000
# 3 41.8422 53.6374 99.7548 0.0000 0.0000 0.0000
# 4 0.0000 0.0000 0.0000 29.6022 0.0000 0.0000
# 5 0.0000 0.0000 0.0000 0.0000 22.2536 0.0000
# 6 0.0000 0.0000 0.0000 0.0000 0.0000 14.0175
#
#
#
# Elastic Compliance Matrix: (Units=1/GPa)
#
#
# Indices 1 2 3 4 5 6 
#
# 1 0.018045 -0.006681 -0.003977 0.000000 0.000000 0.000000
# 2 -0.006681 0.013922 -0.004684 0.000000 0.000000 0.000000
# 3 -0.003977 -0.004684 0.014211 0.000000 0.000000 0.000000
# 4 0.000000 0.000000 0.000000 0.033781 0.000000 0.000000
# 5 0.000000 0.000000 0.000000 0.000000 0.044937 0.000000
# 6 0.000000 0.000000 0.000000 0.000000 0.000000 0.071339
#
#
# Mechanical properties :
#
#
# Convention : Reuss Voigt Hill
#
# Bulk Modulus (GPa) = 64.53284 66.83413 65.68349
# Shear Modulus (GPa) = 21.54388 23.21217 22.37802
#
# Velocity S-wave (km/s) = 3.58325 3.71940 3.65196
# Velocity P-wave (km/s) = 7.45519 7.63394 7.54509
#
# Compressibility (1/GPa) = 0.01549599
#
# Stress axis : x y z
#
# Youngs Moduli (GPa) = 55.41574 71.82652 70.36766
#
# Poissons Ratio (x) = 0.47986 0.27985
# Poissons Ratio (y) = 0.37023 0.32958
# Poissons Ratio (z) = 0.22038 0.33641
#
# Static dielectric constant tensor:
#      x y z
#    x 1.575830 0.000000 0.000000 
#    y 0.000000 1.551080 0.000000 
#    z 0.000000 0.000000 1.572040 
# 
# From -- ./inp_files/10301.got.cif
#   From: 2010.05.17/outbox.cif.g08.bks.cpg/sg57_6_cif.got.tgz:10301.got - 2010.06.03 13:58:18.
