data_PCOD9435269
_publ_section_title
;
Structure prediction by ZEFSAII (Michael W. Deem and Ramdas Pophale) SiO2 
 PCOD9435269
Probable space group: P B C M
;
_chemical_formula_sum "Si O2"
_cell_formula_units_Z 48
_cell_length_a 18.595293
_cell_length_b 7.018838
_cell_length_c 13.272601
_cell_angle_alpha 90.000000
_cell_angle_beta 90.000000
_cell_angle_gamma 90.000000
_cell_volume 1732.304699
_symmetry_space_group_name_H-M "P B C M"
_symmetry_group_IT_number 57
_symmetry_cell_setting 'orthorhombic'
loop_
_space_group_symop_operation_xyz
x,y,z
-x,-y,1/2+z
x,1/2-y,-z
-x,1/2+y,1/2-z
-x,-y,-z
x,y,1/2-z
-x,1/2+y,z
x,1/2-y,1/2+z
loop_
_atom_site_type_symbol
_atom_site_label
_atom_site_fract_x
_atom_site_fract_y
_atom_site_fract_z
Si Si1 0.594821 0.471615 0.583151
Si Si2 0.060928 0.205047 0.370569
Si Si3 0.099891 0.614830 0.370724
Si Si4 0.784979 0.592688 0.136955
Si Si5 0.436156 0.095070 0.362924
Si Si6 0.249499 0.972721 0.919451
O O1 0.522976 0.387022 0.631186
O O2 0.594727 0.694322 0.616581
O O3 0.584335 0.471855 0.461439
O O4 0.673054 0.397382 0.613116
O O5 0.056230 0.226557 0.250000
O O6 0.089757 0.401437 0.414215
O O7 0.128240 0.061886 0.378802
O O8 0.977707 0.195552 0.399883
O O9 0.099995 0.616714 0.250000
O O10 0.181326 0.661504 0.398808
O O11 0.766880 0.528404 0.250000
O O12 0.768296 0.821965 0.132162
O O13 0.746146 0.514455 0.038750
O O14 0.416205 0.031919 0.250000
#
# Coordination Sequence:
#
# PCOD9435269 Si02
#       6
#     8   8   8   8   8   8
#     4  10  22  36  55  86 111 134 182 224 258 329
#     4   8  15  28  46  70 100 134 175 214 247 300
#     4   9  17  30  50  74 101 134 171 214 259 298
#     4   9  17  29  47  73 103 135 173 215 256 297
#     4  10  20  36  58  81 109 144 175 216 271 321
#     4  10  19  31  51  78 104 132 171 219 260 302
#
# _framework density 27.708753999999999
#
# number of rings (size 3 to 8) (size 9 to 14) (size 15 to 20)
#    0.000    2.667    0.000    4.000    0.000    5.333 
#    0.000    0.000    0.000   12.000    0.000   18.667 
#    0.000    0.000    0.000    0.000    0.000    0.000 
#
# Total GULP energy -268504.366234 kJ/mol
# GULP energy per Si atom -5593.840963 kJ/mol
# Density = 2.764569 g / cm^3
# Si number density = 27.708754 Si / 1000 Ang^3
#
#
#
# Elastic Constant Matrix: (Units=GPa)
#
#
# Indices 1 2 3 4 5 6 
#
# 1 253.0013 14.6732 21.6806 0.0000 0.0000 0.0000
# 2 14.6732 36.6604 4.8046 0.0000 0.0000 0.0000
# 3 21.6806 4.8046 178.6175 0.0000 0.0000 0.0000
# 4 0.0000 0.0000 0.0000 23.9631 0.0000 0.0000
# 5 0.0000 0.0000 0.0000 0.0000 32.6433 0.0000
# 6 0.0000 0.0000 0.0000 0.0000 0.0000 25.2289
#
#
#
# Elastic Compliance Matrix: (Units=1/GPa)
#
#
# Indices 1 2 3 4 5 6 
#
# 1 0.004083 -0.001575 -0.000453 0.000000 0.000000 0.000000
# 2 -0.001575 0.027981 -0.000562 0.000000 0.000000 0.000000
# 3 -0.000453 -0.000562 0.005669 0.000000 0.000000 0.000000
# 4 0.000000 0.000000 0.000000 0.041731 0.000000 0.000000
# 5 0.000000 0.000000 0.000000 0.000000 0.030634 0.000000
# 6 0.000000 0.000000 0.000000 0.000000 0.000000 0.039637
#
#
# Mechanical properties :
#
#
# Convention : Reuss Voigt Hill
#
# Bulk Modulus (GPa) = 30.71837 61.17732 45.94785
# Shear Modulus (GPa) = 30.16321 44.84179 37.50250
#
# Velocity S-wave (km/s) = 3.30294 4.02721 3.68292
# Velocity P-wave (km/s) = 5.06519 6.61447 5.89098
#
# Compressibility (1/GPa) = 0.03255381
#
# Stress axis : x y z
#
# Youngs Moduli (GPa) = 244.93526 35.73819 176.40828
#
# Poissons Ratio (x) = 0.05628 0.07995
# Poissons Ratio (y) = 0.38570 0.09906
# Poissons Ratio (z) = 0.11101 0.02007
#
# Static dielectric constant tensor:
#      x y z
#    x 2.132260 0.000000 0.000000 
#    y 0.000000 2.256350 0.000000 
#    z 0.000000 0.000000 2.121320 
# 
# From -- ./inp_files/18404.got.cif
#   From: 2010.05.17/outbox.cif.g08.bks.cpg/sg57_10_cif.got.tgz:18404.got - 2010.06.03 13:58:18.
