data_PCOD9435749
_publ_section_title
;
Structure prediction by ZEFSAII (Michael W. Deem and Ramdas Pophale) SiO2 
 PCOD9435749
Probable space group: P B C M
;
_chemical_formula_sum "Si O2"
_cell_formula_units_Z 56
_cell_length_a 30.540552
_cell_length_b 5.120566
_cell_length_c 14.586534
_cell_angle_alpha 90.000000
_cell_angle_beta 90.000000
_cell_angle_gamma 90.000000
_cell_volume 2281.113839
_symmetry_space_group_name_H-M "P B C M"
_symmetry_group_IT_number 57
_symmetry_cell_setting 'orthorhombic'
loop_
_space_group_symop_operation_xyz
x,y,z
-x,-y,1/2+z
x,1/2-y,-z
-x,1/2+y,1/2-z
-x,-y,-z
x,y,1/2-z
-x,1/2+y,z
x,1/2-y,1/2+z
loop_
_atom_site_type_symbol
_atom_site_label
_atom_site_fract_x
_atom_site_fract_y
_atom_site_fract_z
Si Si1 0.525868 0.315654 0.360412
Si Si2 0.617933 0.494730 0.439102
Si Si3 0.114941 0.555172 0.640738
Si Si4 0.157224 0.054731 0.858877
Si Si5 0.977637 0.781667 0.609224
Si Si6 0.703778 0.779136 0.888479
Si Si7 0.249693 0.779479 0.890491
O O1 0.526561 0.317093 0.250000
O O2 0.509246 0.032984 0.390730
O O3 0.573755 0.391262 0.394087
O O4 0.607613 0.750000 0.500000
O O5 0.656225 0.596521 0.372062
O O6 0.635158 0.250000 0.500000
O O7 0.121035 0.587080 0.750000
O O8 0.121870 0.846291 0.602947
O O9 0.068761 0.414893 0.627133
O O10 0.150571 0.346334 0.603433
O O11 0.150351 0.087582 0.750000
O O12 0.203340 0.911745 0.870507
O O13 0.981978 0.750000 0.500000
O O14 0.986705 0.491125 0.644736
O O15 0.714693 0.489814 0.856012
O O16 0.739661 0.989412 0.856321
O O17 0.705655 0.750000 0.000000
O O18 0.252473 0.750000 0.000000
#
# Coordination Sequence:
#
# PCOD9435749 Si02
#       7
#     8   8   8   8   8   8   8
#     4  10  22  39  56  78 113 150 182 226 282 333
#     4  11  21  35  58  84 110 143 185 232 276 323
#     4  10  21  36  54  75 103 138 172 210 256 307
#     4  10  21  36  52  76 107 135 170 217 261 298
#     4  10  21  36  54  78 106 134 167 212 259 302
#     4   9  18  33  52  77 106 134 168 215 264 307
#     4  10  19  33  54  76 101 136 174 207 253 316
#
# _framework density 24.549412
#
# number of rings (size 3 to 8) (size 9 to 14) (size 15 to 20)
#    0.000    2.000    0.000    4.714    0.000    3.429 
#    0.000    1.429    0.000    0.000    0.000    1.000 
#    0.000    0.000    0.000    0.000    0.000    0.000 
#
# Total GULP energy -313122.602717 kJ/mol
# GULP energy per Si atom -5591.475049 kJ/mol
# Density = 2.449354 g / cm^3
# Si number density = 24.549412 Si / 1000 Ang^3
#
#
#
# Elastic Constant Matrix: (Units=GPa)
#
#
# Indices 1 2 3 4 5 6 
#
# 1 73.7952 -7.9472 -21.4875 0.0000 0.0000 0.0000
# 2 -7.9472 114.5692 9.2356 0.0000 0.0000 0.0000
# 3 -21.4875 9.2356 61.2591 0.0000 0.0000 0.0000
# 4 0.0000 0.0000 0.0000 6.7930 0.0000 0.0000
# 5 0.0000 0.0000 0.0000 0.0000 -6.7952 0.0000
# 6 0.0000 0.0000 0.0000 0.0000 0.0000 45.2276
#
#
#
# Elastic Compliance Matrix: (Units=1/GPa)
#
#
# Indices 1 2 3 4 5 6 
#
# 1 0.015137 0.000630 0.005215 0.000000 0.000000 0.000000
# 2 0.000630 0.008862 -0.001115 0.000000 0.000000 0.000000
# 3 0.005215 -0.001115 0.018321 0.000000 0.000000 0.000000
# 4 0.000000 0.000000 0.000000 0.147211 0.000000 0.000000
# 5 0.000000 0.000000 0.000000 0.000000 -0.147162 0.000000
# 6 0.000000 0.000000 0.000000 0.000000 0.000000 0.022110
#
#
# Mechanical properties :
#
#
# Convention : Reuss Voigt Hill
#
# Bulk Modulus (GPa) = 19.31295 23.24726 21.28010
# Shear Modulus (GPa) = 69.17491 27.03324 48.10407
#
# Velocity S-wave (km/s) = 5.31404 3.32200 4.43140
# Velocity P-wave (km/s) = 6.74804 4.91979 5.90510
#
# Compressibility (1/GPa) = 0.05177874
#
# Stress axis : x y z
#
# Youngs Moduli (GPa) = 66.06230 112.84233 54.58114
#
# Poissons Ratio (x) = -0.07105 -0.28462
# Poissons Ratio (y) = -0.04160 0.06087
# Poissons Ratio (z) = -0.34449 0.12584
#
# Static dielectric constant tensor:
#      x y z
#    x 1.967000 0.000000 0.000000 
#    y 0.000000 1.964490 0.000000 
#    z 0.000000 0.000000 1.965390 
# 
# From -- ./inp_files/19652.got.cif
#   From: 2010.05.17/outbox.cif.g08.bks.cpg/sg57_10_cif.got.tgz:19652.got - 2010.06.03 13:58:18.
