data_PCOD9435886
_publ_section_title
;
Structure prediction by ZEFSAII (Michael W. Deem and Ramdas Pophale) SiO2 
 PCOD9435886
Probable space group: P B C M
;
_chemical_formula_sum "Si O2"
_cell_formula_units_Z 64
_cell_length_a 14.875579
_cell_length_b 12.396891
_cell_length_c 14.939609
_cell_angle_alpha 90.000000
_cell_angle_beta 90.000000
_cell_angle_gamma 90.000000
_cell_volume 2755.027211
_symmetry_space_group_name_H-M "P B C M"
_symmetry_group_IT_number 57
_symmetry_cell_setting 'orthorhombic'
loop_
_space_group_symop_operation_xyz
x,y,z
-x,-y,1/2+z
x,1/2-y,-z
-x,1/2+y,1/2-z
-x,-y,-z
x,y,1/2-z
-x,1/2+y,z
x,1/2-y,1/2+z
loop_
_atom_site_type_symbol
_atom_site_label
_atom_site_fract_x
_atom_site_fract_y
_atom_site_fract_z
Si Si1 0.365486 0.729100 0.643587
Si Si2 0.348537 0.008087 0.417733
Si Si3 0.440071 0.223609 0.105255
Si Si4 0.665201 0.918325 0.390970
Si Si5 0.954328 0.989051 0.140783
Si Si6 0.848128 0.958404 0.856738
Si Si7 0.785305 0.379873 0.648701
Si Si8 0.168067 0.294567 0.143967
O O1 0.355347 0.728259 0.750000
O O2 0.382250 0.607371 0.612877
O O3 0.455087 0.794967 0.621196
O O4 0.275317 0.785914 0.606146
O O5 0.384870 0.116193 0.368954
O O6 0.373856 0.028468 0.520148
O O7 0.240884 0.002373 0.406198
O O8 0.405897 0.335016 0.150696
O O9 0.427532 0.250000 0.000000
O O10 0.747172 0.835787 0.411724
O O11 0.717573 0.017161 0.345222
O O12 0.957355 0.000047 0.250000
O O13 0.878694 0.075071 0.108936
O O14 0.055980 0.000388 0.109359
O O15 0.914652 0.871476 0.121452
O O16 0.838134 0.983495 0.750000
O O17 0.851062 0.829729 0.866963
O O18 0.808120 0.345355 0.750000
O O19 0.190006 0.312170 0.250000
#
# Coordination Sequence:
#
# PCOD9435886 Si02
#       8
#     8   8   8   8   8   8   8   8
#     4  11  26  41  60  89 122 156 191 249 302 347
#     4  11  24  40  59  89 122 152 195 244 305 358
#     4  10  24  41  62  86 114 156 200 242 297 359
#     4  10  20  38  63  84 113 156 197 244 292 347
#     4   8  16  32  55  84 115 152 201 242 289 350
#     4  10  19  33  57  85 118 157 195 248 300 348
#     4   9  20  39  60  87 120 157 202 246 292 349
#     4   9  17  32  56  85 113 152 202 246 290 345
#
# _framework density 23.230260999999999
#
# number of rings (size 3 to 8) (size 9 to 14) (size 15 to 20)
#    0.000    2.250    1.250    1.500    3.500    4.000 
#    0.000    6.250    0.000    3.000    0.000    0.000 
#    0.000    0.000    0.000    0.000    0.000    0.000 
#
# Total GULP energy -357342.356896 kJ/mol
# GULP energy per Si atom -5583.474327 kJ/mol
# Density = 2.317739 g / cm^3
# Si number density = 23.230261 Si / 1000 Ang^3
#
#
#
# Elastic Constant Matrix: (Units=GPa)
#
#
# Indices 1 2 3 4 5 6 
#
# 1 93.6258 15.2765 -0.8824 0.0000 0.0000 0.0000
# 2 15.2765 60.3096 8.5012 0.0000 0.0000 0.0000
# 3 -0.8824 8.5012 45.3659 0.0000 0.0000 0.0000
# 4 0.0000 0.0000 0.0000 17.6150 0.0000 0.0000
# 5 0.0000 0.0000 0.0000 0.0000 23.6133 0.0000
# 6 0.0000 0.0000 0.0000 0.0000 0.0000 29.3247
#
#
#
# Elastic Compliance Matrix: (Units=1/GPa)
#
#
# Indices 1 2 3 4 5 6 
#
# 1 0.011167 -0.002937 0.000768 0.000000 0.000000 0.000000
# 2 -0.002937 0.017803 -0.003393 0.000000 0.000000 0.000000
# 3 0.000768 -0.003393 0.022694 0.000000 0.000000 0.000000
# 4 0.000000 0.000000 0.000000 0.056770 0.000000 0.000000
# 5 0.000000 0.000000 0.000000 0.000000 0.042349 0.000000
# 6 0.000000 0.000000 0.000000 0.000000 0.000000 0.034101
#
#
# Mechanical properties :
#
#
# Convention : Reuss Voigt Hill
#
# Bulk Modulus (GPa) = 24.66757 27.23246 25.95002
# Shear Modulus (GPa) = 23.86378 25.87099 24.86739
#
# Velocity S-wave (km/s) = 3.20858 3.34080 3.27536
# Velocity P-wave (km/s) = 4.93644 5.16038 5.04965
#
# Compressibility (1/GPa) = 0.04053905
#
# Stress axis : x y z
#
# Youngs Moduli (GPa) = 89.54756 56.16918 44.06494
#
# Poissons Ratio (x) = 0.16496 -0.03382
# Poissons Ratio (y) = 0.26299 0.14953
# Poissons Ratio (z) = -0.06873 0.19060
#
# Static dielectric constant tensor:
#      x y z
#    x 1.876710 0.000000 0.000000 
#    y 0.000000 1.860780 0.000000 
#    z 0.000000 0.000000 1.924470 
# 
# From -- ./inp_files/22675.got.cif
#   From: 2010.05.17/outbox.cif.g08.bks.cpg/sg57_12_cif.got.tgz:22675.got - 2010.06.03 13:58:18.
