data_PCOD9435036
_publ_section_title
;
Structure prediction by ZEFSAII (Michael W. Deem and Ramdas Pophale) SiO2 
 PCOD9435036
Probable space group: P B C M
;
_chemical_formula_sum "Si O2"
_cell_formula_units_Z 64
_cell_length_a 19.513063
_cell_length_b 21.703056
_cell_length_c 9.264399
_cell_angle_alpha 90.000000
_cell_angle_beta 90.000000
_cell_angle_gamma 90.000000
_cell_volume 3923.409043
_symmetry_space_group_name_H-M "P B C M"
_symmetry_group_IT_number 57
_symmetry_cell_setting 'orthorhombic'
loop_
_space_group_symop_operation_xyz
x,y,z
-x,-y,1/2+z
x,1/2-y,-z
-x,1/2+y,1/2-z
-x,-y,-z
x,y,1/2-z
-x,1/2+y,z
x,1/2-y,1/2+z
loop_
_atom_site_type_symbol
_atom_site_label
_atom_site_fract_x
_atom_site_fract_y
_atom_site_fract_z
Si Si1 0.044167 0.553928 0.422755
Si Si2 0.806758 0.005618 0.422277
Si Si3 0.462960 0.943488 0.582006
Si Si4 0.975688 0.685291 0.423991
Si Si5 0.160632 0.138052 0.576591
Si Si6 0.393764 0.103848 0.092329
Si Si7 0.307317 0.190655 0.582211
Si Si8 0.333284 0.965345 0.085337
O O1 0.035351 0.545584 0.250000
O O2 0.124247 0.543409 0.456142
O O3 0.000000 0.500000 0.500000
O O4 0.020668 0.623794 0.457384
O O5 0.793277 0.009158 0.250000
O O6 0.825399 0.934129 0.454602
O O7 0.739949 0.028227 0.507727
O O8 0.450743 0.959649 0.750000
O O9 0.524196 0.893978 0.579149
O O10 0.391389 0.928938 0.504629
O O11 0.500000 0.000000 0.500000
O O12 0.996390 0.750000 0.500000
O O13 0.973928 0.693204 0.250000
O O14 0.901526 0.666348 0.487214
O O15 0.147901 0.143422 0.750000
O O16 0.230278 0.173172 0.538188
O O17 0.374313 0.130386 0.250000
O O18 0.365740 0.034055 0.092748
O O19 0.356599 0.135756 0.961393
O O20 0.331999 0.250000 0.500000
O O21 0.306714 0.201404 0.750000
O O22 0.326381 0.943086 0.250000
#
# Coordination Sequence:
#
# PCOD9435036 Si02
#       8
#     8   8   8   8   8   8   8   8
#     4  10  21  36  55  78 105 137 175 218 270 322
#     4  10  19  33  52  75 104 136 170 211 262 317
#     4   9  17  29  46  69  96 127 160 198 244 292
#     4  11  23  37  55  78 103 138 178 220 266 317
#     4  10  20  34  52  74 100 136 175 214 260 310
#     4   9  18  31  46  66  94 127 163 203 244 290
#     4  11  22  33  46  66  94 132 173 210 249 295
#     4  10  19  30  47  73 101 130 164 202 247 303
#
# _framework density 16.312344
#
# number of rings (size 3 to 8) (size 9 to 14) (size 15 to 20)
#    0.000    2.000    2.500    2.625    0.000    6.000 
#    0.000    0.000    0.000    0.000    0.000    0.875 
#    0.000    2.000    0.000    0.000    0.000    0.000 
#
# Total GULP energy -356573.179621 kJ/mol
# GULP energy per Si atom -5571.455932 kJ/mol
# Density = 1.627522 g / cm^3
# Si number density = 16.312344 Si / 1000 Ang^3
#
#
#
# Elastic Constant Matrix: (Units=GPa)
#
#
# Indices 1 2 3 4 5 6 
#
# 1 104.9071 25.9904 48.2401 0.0000 0.0000 0.0000
# 2 25.9904 41.7829 21.3075 0.0000 0.0000 0.0000
# 3 48.2401 21.3075 58.9851 0.0000 0.0000 0.0000
# 4 0.0000 0.0000 0.0000 22.8472 0.0000 0.0000
# 5 0.0000 0.0000 0.0000 0.0000 20.4878 0.0000
# 6 0.0000 0.0000 0.0000 0.0000 0.0000 -15.8726
#
#
#
# Elastic Compliance Matrix: (Units=1/GPa)
#
#
# Indices 1 2 3 4 5 6 
#
# 1 0.015797 -0.003969 -0.011486 0.000000 0.000000 0.000000
# 2 -0.003969 0.030335 -0.007712 0.000000 0.000000 0.000000
# 3 -0.011486 -0.007712 0.029133 0.000000 0.000000 0.000000
# 4 0.000000 0.000000 0.000000 0.043769 0.000000 0.000000
# 5 0.000000 0.000000 0.000000 0.000000 0.048810 0.000000
# 6 0.000000 0.000000 0.000000 0.000000 0.000000 -0.063001
#
#
# Mechanical properties :
#
#
# Convention : Reuss Voigt Hill
#
# Bulk Modulus (GPa) = 34.56474 44.08345 39.32410
# Shear Modulus (GPa) = 31.09088 12.83495 21.96291
#
# Velocity S-wave (km/s) = 4.37048 2.80808 3.67331
# Velocity P-wave (km/s) = 6.83399 6.13164 6.49232
#
# Compressibility (1/GPa) = 0.02893122
#
# Stress axis : x y z
#
# Youngs Moduli (GPa) = 63.30267 32.96533 34.32576
#
# Poissons Ratio (x) = 0.13084 0.39425
# Poissons Ratio (y) = 0.25126 0.26472
# Poissons Ratio (z) = 0.72707 0.25423
#
# Static dielectric constant tensor:
#      x y z
#    x 1.549870 0.000000 0.000000 
#    y 0.000000 1.548250 0.000000 
#    z 0.000000 0.000000 1.536260 
# 
# From -- ./inp_files/7175.got.cif
#   From: 2010.05.17/outbox.cif.g08.bks.cpg/sg57_4_cif.got.tgz:7175.got - 2010.06.03 13:58:18.
