data_PCOD9435968
_publ_section_title
;
Structure prediction by ZEFSAII (Michael W. Deem and Ramdas Pophale) SiO2 
 PCOD9435968
Probable space group: P B C M
;
_chemical_formula_sum "Si O2"
_cell_formula_units_Z 64
_cell_length_a 15.013039
_cell_length_b 26.049475
_cell_length_c 7.503820
_cell_angle_alpha 90.000000
_cell_angle_beta 90.000000
_cell_angle_gamma 90.000000
_cell_volume 2934.607313
_symmetry_space_group_name_H-M "P B C M"
_symmetry_group_IT_number 57
_symmetry_cell_setting 'orthorhombic'
loop_
_space_group_symop_operation_xyz
x,y,z
-x,-y,1/2+z
x,1/2-y,-z
-x,1/2+y,1/2-z
-x,-y,-z
x,y,1/2-z
-x,1/2+y,z
x,1/2-y,1/2+z
loop_
_atom_site_type_symbol
_atom_site_label
_atom_site_fract_x
_atom_site_fract_y
_atom_site_fract_z
Si Si1 0.383849 0.595187 0.468108
Si Si2 0.713971 0.990720 0.465530
Si Si3 0.710595 0.690238 0.035956
Si Si4 0.908669 0.810113 0.963214
Si Si5 0.732404 0.308987 0.537073
Si Si6 0.911612 0.138337 0.468519
Si Si7 0.584316 0.602958 0.459058
Si Si8 0.902125 0.021349 0.463028
O O1 0.382530 0.594441 0.250000
O O2 0.327821 0.545238 0.522270
O O3 0.337077 0.647993 0.527013
O O4 0.485864 0.592092 0.531025
O O5 0.712976 0.989125 0.250000
O O6 0.650774 0.944899 0.526004
O O7 0.816843 0.988943 0.527566
O O8 0.713522 0.684174 0.250000
O O9 0.809945 0.676963 0.967545
O O10 0.635423 0.652320 0.964596
O O11 0.693627 0.750000 0.000000
O O12 0.906399 0.816866 0.750000
O O13 0.992192 0.842285 0.030907
O O14 0.923891 0.750000 0.000000
O O15 0.710547 0.250000 0.500000
O O16 0.734359 0.314146 0.750000
O O17 0.831115 0.324915 0.472962
O O18 0.912571 0.138767 0.250000
O O19 0.894677 0.080059 0.526300
O O20 0.570101 0.613426 0.250000
O O21 0.893581 0.023303 0.250000
O O22 0.000000 0.000000 0.500000
#
# Coordination Sequence:
#
# PCOD9435968 Si02
#       8
#     8   8   8   8   8   8   8   8
#     4   9  18  36  57  77 107 144 181 221 270 326
#     4  10  20  37  58  80 107 143 182 219 267 328
#     4   9  19  34  51  74 104 136 171 214 265 316
#     4   9  17  30  48  70  95 127 166 206 248 301
#     4  10  19  34  55  79 107 143 183 224 270 326
#     4   9  17  32  54  73  99 140 177 208 258 325
#     4  10  21  35  56  83 106 138 182 227 272 319
#     4  10  21  36  55  80 108 142 178 216 267 323
#
# _framework density 21.808712
#
# number of rings (size 3 to 8) (size 9 to 14) (size 15 to 20)
#    0.000    2.500    1.250    0.750    1.750    1.500 
#    0.000    2.500    0.000    0.000    0.000    0.000 
#    0.000    0.000    0.000    0.000    0.000    0.000 
#
# Total GULP energy -357403.958806 kJ/mol
# GULP energy per Si atom -5584.436856 kJ/mol
# Density = 2.175907 g / cm^3
# Si number density = 21.808712 Si / 1000 Ang^3
#
#
#
# Elastic Constant Matrix: (Units=GPa)
#
#
# Indices 1 2 3 4 5 6 
#
# 1 166.3750 59.1453 -0.0895 0.0000 0.0000 0.0000
# 2 59.1453 84.2438 -12.4413 0.0000 0.0000 0.0000
# 3 -0.0895 -12.4413 55.2111 0.0000 0.0000 0.0000
# 4 0.0000 0.0000 0.0000 21.7698 0.0000 0.0000
# 5 0.0000 0.0000 0.0000 0.0000 53.1483 0.0000
# 6 0.0000 0.0000 0.0000 0.0000 0.0000 30.2126
#
#
#
# Elastic Compliance Matrix: (Units=1/GPa)
#
#
# Indices 1 2 3 4 5 6 
#
# 1 0.008100 -0.005881 -0.001312 0.000000 0.000000 0.000000
# 2 -0.005881 0.016548 0.003719 0.000000 0.000000 0.000000
# 3 -0.001312 0.003719 0.018948 0.000000 0.000000 0.000000
# 4 0.000000 0.000000 0.000000 0.045935 0.000000 0.000000
# 5 0.000000 0.000000 0.000000 0.000000 0.018815 0.000000
# 6 0.000000 0.000000 0.000000 0.000000 0.000000 0.033099
#
#
# Mechanical properties :
#
#
# Convention : Reuss Voigt Hill
#
# Bulk Modulus (GPa) = 27.28494 44.33989 35.81242
# Shear Modulus (GPa) = 31.13130 38.30715 34.71923
#
# Velocity S-wave (km/s) = 3.78229 4.19562 3.99430
# Velocity P-wave (km/s) = 5.62250 6.62166 6.14243
#
# Compressibility (1/GPa) = 0.03665025
#
# Stress axis : x y z
#
# Youngs Moduli (GPa) = 123.45038 60.42883 52.77517
#
# Poissons Ratio (x) = 0.35537 0.06924
# Poissons Ratio (y) = 0.72599 -0.19630
# Poissons Ratio (z) = 0.16197 -0.22476
#
# Static dielectric constant tensor:
#      x y z
#    x 1.811670 0.000000 0.000000 
#    y 0.000000 1.749990 0.000000 
#    z 0.000000 0.000000 1.841700 
# 
# From -- ./inp_files/5703.got.cif
#   From: 2010.05.17/outbox.cif.g08.bks.cpg/sg57_3_cif.got.tgz:5703.got - 2010.06.03 13:58:18.
