data_PCOD9435399
_publ_section_title
;
Structure prediction by ZEFSAII (Michael W. Deem and Ramdas Pophale) SiO2 
 PCOD9435399
Probable space group: P B C M
;
_chemical_formula_sum "Si O2"
_cell_formula_units_Z 48
_cell_length_a 15.288591
_cell_length_b 21.126522
_cell_length_c 8.756163
_cell_angle_alpha 90.000000
_cell_angle_beta 90.000000
_cell_angle_gamma 90.000000
_cell_volume 2828.194715
_symmetry_space_group_name_H-M "P B C M"
_symmetry_group_IT_number 57
_symmetry_cell_setting 'orthorhombic'
loop_
_space_group_symop_operation_xyz
x,y,z
-x,-y,1/2+z
x,1/2-y,-z
-x,1/2+y,1/2-z
-x,-y,-z
x,y,1/2-z
-x,1/2+y,z
x,1/2-y,1/2+z
loop_
_atom_site_type_symbol
_atom_site_label
_atom_site_fract_x
_atom_site_fract_y
_atom_site_fract_z
Si Si1 0.113463 0.184006 0.431782
Si Si2 0.690098 0.644586 0.431819
Si Si3 0.733821 0.511521 0.931120
Si Si4 0.488393 0.187318 0.568013
Si Si5 0.078560 0.041393 0.434011
Si Si6 0.430495 0.949680 0.067840
O O1 0.080051 0.250000 0.500000
O O2 0.102666 0.187005 0.250000
O O3 0.217499 0.178121 0.464127
O O4 0.074901 0.115848 0.483039
O O5 0.686713 0.632004 0.250000
O O6 0.692158 0.579157 0.523984
O O7 0.605413 0.681403 0.486138
O O8 0.741991 0.505471 0.750000
O O9 0.829286 0.513258 0.007574
O O10 0.664858 0.461764 0.997365
O O11 0.532689 0.250000 0.500000
O O12 0.477279 0.193255 0.750000
O O13 0.537669 0.121565 0.536612
O O14 0.077965 0.040409 0.250000
O O15 0.000000 0.000000 0.500000
O O16 0.427371 0.959153 0.250000
O O17 0.500000 0.000000 0.000000
#
# Coordination Sequence:
#
# PCOD9435399 Si02
#       6
#     8   8   8   8   8   8
#     4   9  19  32  49  76 108 141 174 213 264 323
#     4  10  19  32  50  74 108 144 180 223 267 321
#     4  11  21  34  55  82 109 143 183 225 275 328
#     4  11  23  35  50  74 106 145 187 229 279 330
#     4  10  21  38  58  83 112 143 181 227 277 329
#     4  11  22  36  55  79 108 145 188 229 270 323
#
# _framework density 16.971957
#
# number of rings (size 3 to 8) (size 9 to 14) (size 15 to 20)
#    0.000    1.667    1.667    5.000    0.000    7.333 
#    0.000    0.000    0.000    1.000    0.000    7.000 
#    0.000    0.000    0.000    0.000    0.000    0.000 
#
# Total GULP energy -267903.527877 kJ/mol
# GULP energy per Si atom -5581.323497 kJ/mol
# Density = 1.693333 g / cm^3
# Si number density = 16.971957 Si / 1000 Ang^3
#
#
#
# Elastic Constant Matrix: (Units=GPa)
#
#
# Indices 1 2 3 4 5 6 
#
# 1 85.5438 63.3830 37.6693 0.0000 0.0000 0.0000
# 2 63.3830 129.3133 61.9212 0.0000 0.0000 0.0000
# 3 37.6693 61.9212 75.1253 0.0000 0.0000 0.0000
# 4 0.0000 0.0000 0.0000 28.7050 0.0000 0.0000
# 5 0.0000 0.0000 0.0000 0.0000 27.6286 0.0000
# 6 0.0000 0.0000 0.0000 0.0000 0.0000 17.8047
#
#
#
# Elastic Compliance Matrix: (Units=1/GPa)
#
#
# Indices 1 2 3 4 5 6 
#
# 1 0.018762 -0.007750 -0.003020 0.000000 0.000000 0.000000
# 2 -0.007750 0.015977 -0.009283 0.000000 0.000000 0.000000
# 3 -0.003020 -0.009283 0.022476 0.000000 0.000000 0.000000
# 4 0.000000 0.000000 0.000000 0.034837 0.000000 0.000000
# 5 0.000000 0.000000 0.000000 0.000000 0.036194 0.000000
# 6 0.000000 0.000000 0.000000 0.000000 0.000000 0.056165
#
#
# Mechanical properties :
#
#
# Convention : Reuss Voigt Hill
#
# Bulk Modulus (GPa) = 58.44448 68.43658 63.44053
# Shear Modulus (GPa) = 21.71833 23.29494 22.50663
#
# Velocity S-wave (km/s) = 3.58111 3.70882 3.64553
# Velocity P-wave (km/s) = 7.18400 7.66494 7.42836
#
# Compressibility (1/GPa) = 0.01711025
#
# Stress axis : x y z
#
# Youngs Moduli (GPa) = 53.29876 62.59011 44.49136
#
# Poissons Ratio (x) = 0.48510 0.13434
# Poissons Ratio (y) = 0.41309 0.41300
# Poissons Ratio (z) = 0.16094 0.58100
#
# Static dielectric constant tensor:
#      x y z
#    x 1.561910 0.000000 0.000000 
#    y 0.000000 1.615710 0.000000 
#    z 0.000000 0.000000 1.568730 
# 
# From -- ./inp_files/4853.got.cif
#   From: 2010.05.17/outbox.cif.g08.bks.cpg/sg57_3_cif.got.tgz:4853.got - 2010.06.03 13:58:18.
