data_PCOD9435619
_publ_section_title
;
Structure prediction by ZEFSAII (Michael W. Deem and Ramdas Pophale) SiO2 
 PCOD9435619
Probable space group: P B C M
;
_chemical_formula_sum "Si O2"
_cell_formula_units_Z 64
_cell_length_a 18.174426
_cell_length_b 23.230369
_cell_length_c 8.422732
_cell_angle_alpha 90.000000
_cell_angle_beta 90.000000
_cell_angle_gamma 90.000000
_cell_volume 3556.065847
_symmetry_space_group_name_H-M "P B C M"
_symmetry_group_IT_number 57
_symmetry_cell_setting 'orthorhombic'
loop_
_space_group_symop_operation_xyz
x,y,z
-x,-y,1/2+z
x,1/2-y,-z
-x,1/2+y,1/2-z
-x,-y,-z
x,y,1/2-z
-x,1/2+y,z
x,1/2-y,1/2+z
loop_
_atom_site_type_symbol
_atom_site_label
_atom_site_fract_x
_atom_site_fract_y
_atom_site_fract_z
Si Si1 0.089776 0.651323 0.943286
Si Si2 0.927578 0.687612 0.558032
Si Si3 0.488124 0.434970 0.060113
Si Si4 0.649062 0.417223 0.443399
Si Si5 0.751015 0.311442 0.057897
Si Si6 0.920037 0.018793 0.940283
Si Si7 0.667053 0.550319 0.439355
Si Si8 0.178033 0.415957 0.439574
O O1 0.088967 0.653609 0.750000
O O2 0.164286 0.681834 0.997653
O O3 0.094129 0.584375 0.989026
O O4 0.011494 0.676115 0.998260
O O5 0.903527 0.750000 0.500000
O O6 0.928666 0.686496 0.750000
O O7 0.873069 0.636899 0.503622
O O8 0.484712 0.434432 0.250000
O O9 0.564115 0.403967 0.011759
O O10 0.500000 0.500000 0.000000
O O11 0.408349 0.419295 0.993943
O O12 0.652285 0.418519 0.250000
O O13 0.704183 0.367063 0.496105
O O14 0.667569 0.482858 0.496282
O O15 0.750713 0.311979 0.250000
O O16 0.721816 0.250000 0.000000
O O17 0.918737 0.016703 0.750000
O O18 0.860594 0.974741 0.006085
O O19 0.000000 0.000000 0.000000
O O20 0.667368 0.547971 0.250000
O O21 0.739173 0.582742 0.498322
O O22 0.178881 0.413952 0.250000
#
# Coordination Sequence:
#
# PCOD9435619 Si02
#       8
#     8   8   8   8   8   8   8   8
#     4   9  18  34  53  72 102 138 170 211 263 310
#     4  10  21  37  53  71  97 133 177 220 260 307
#     4   9  16  29  50  77 107 137 168 204 251 310
#     4   8  16  31  51  74 104 140 170 200 252 316
#     4  10  19  33  51  71  99 137 177 215 253 300
#     4  11  20  34  54  77 105 137 172 214 265 320
#     4  10  19  33  54  81 106 134 173 213 266 326
#     4  11  22  36  52  76 109 139 172 216 267 315
#
# _framework density 17.997416000000001
#
# number of rings (size 3 to 8) (size 9 to 14) (size 15 to 20)
#    0.000    2.250    1.250    3.375    0.000    3.000 
#    0.000    6.250    0.000    0.750    0.000    1.750 
#    0.000    0.000    0.000    0.000    0.000    0.000 
#
# Total GULP energy -356948.904122 kJ/mol
# GULP energy per Si atom -5577.326627 kJ/mol
# Density = 1.795645 g / cm^3
# Si number density = 17.997416 Si / 1000 Ang^3
#
#
#
# Elastic Constant Matrix: (Units=GPa)
#
#
# Indices 1 2 3 4 5 6 
#
# 1 126.6366 36.2082 19.1419 0.0000 0.0000 0.0000
# 2 36.2082 82.5273 9.8996 0.0000 0.0000 0.0000
# 3 19.1419 9.8996 23.4269 0.0000 0.0000 0.0000
# 4 0.0000 0.0000 0.0000 21.1152 0.0000 0.0000
# 5 0.0000 0.0000 0.0000 0.0000 25.1151 0.0000
# 6 0.0000 0.0000 0.0000 0.0000 0.0000 14.2344
#
#
#
# Elastic Compliance Matrix: (Units=1/GPa)
#
#
# Indices 1 2 3 4 5 6 
#
# 1 0.009910 -0.003557 -0.006595 0.000000 0.000000 0.000000
# 2 -0.003557 0.014041 -0.003027 0.000000 0.000000 0.000000
# 3 -0.006595 -0.003027 0.049353 0.000000 0.000000 0.000000
# 4 0.000000 0.000000 0.000000 0.047359 0.000000 0.000000
# 5 0.000000 0.000000 0.000000 0.000000 0.039817 0.000000
# 6 0.000000 0.000000 0.000000 0.000000 0.000000 0.070252
#
#
# Mechanical properties :
#
#
# Convention : Reuss Voigt Hill
#
# Bulk Modulus (GPa) = 21.30028 40.34335 30.82181
# Shear Modulus (GPa) = 18.33252 23.24902 20.79077
#
# Velocity S-wave (km/s) = 3.19504 3.59806 3.40252
# Velocity P-wave (km/s) = 5.04697 6.30287 5.70956
#
# Compressibility (1/GPa) = 0.04694775
#
# Stress axis : x y z
#
# Youngs Moduli (GPa) = 100.90337 71.22034 20.26199
#
# Poissons Ratio (x) = 0.25334 0.13362
# Poissons Ratio (y) = 0.35892 0.06133
# Poissons Ratio (z) = 0.66542 0.21557
#
# Static dielectric constant tensor:
#      x y z
#    x 1.644080 0.000000 0.000000 
#    y 0.000000 1.572430 0.000000 
#    z 0.000000 0.000000 1.613160 
# 
# From -- ./inp_files/7119.got.cif
#   From: 2010.05.17/outbox.cif.g08.bks.cpg/sg57_4_cif.got.tgz:7119.got - 2010.06.03 13:58:18.
