data_PCOD9435634
_publ_section_title
;
Structure prediction by ZEFSAII (Michael W. Deem and Ramdas Pophale) SiO2 
 PCOD9435634
Probable space group: P B C M
;
_chemical_formula_sum "Si O2"
_cell_formula_units_Z 64
_cell_length_a 14.634052
_cell_length_b 31.104335
_cell_length_c 8.787492
_cell_angle_alpha 90.000000
_cell_angle_beta 90.000000
_cell_angle_gamma 90.000000
_cell_volume 3999.912189
_symmetry_space_group_name_H-M "P B C M"
_symmetry_group_IT_number 57
_symmetry_cell_setting 'orthorhombic'
loop_
_space_group_symop_operation_xyz
x,y,z
-x,-y,1/2+z
x,1/2-y,-z
-x,1/2+y,1/2-z
-x,-y,-z
x,y,1/2-z
-x,1/2+y,z
x,1/2-y,1/2+z
loop_
_atom_site_type_symbol
_atom_site_label
_atom_site_fract_x
_atom_site_fract_y
_atom_site_fract_z
Si Si1 0.953263 0.543295 0.068321
Si Si2 0.445033 0.459024 0.068174
Si Si3 0.764320 0.522164 0.567593
Si Si4 0.144095 0.703508 0.067513
Si Si5 0.931159 0.380120 0.425276
Si Si6 0.259272 0.929552 0.074512
Si Si7 0.642313 0.203808 0.066846
Si Si8 0.434421 0.885808 0.568288
O O1 0.045009 0.460342 0.750000
O O2 0.849632 0.546020 0.007721
O O3 0.007391 0.585366 0.013217
O O4 0.000000 0.500000 0.000000
O O5 0.453919 0.461456 0.250000
O O6 0.337580 0.461550 0.029860
O O7 0.500000 0.500000 0.000000
O O8 0.488084 0.414794 0.007921
O O9 0.774622 0.522013 0.750000
O O10 0.767977 0.474125 0.502012
O O11 0.139814 0.704112 0.250000
O O12 0.251163 0.695465 0.023808
O O13 0.120312 0.750000 0.000000
O O14 0.080127 0.666168 0.002384
O O15 0.961637 0.376606 0.250000
O O16 0.829166 0.399705 0.425217
O O17 0.288829 0.936208 0.250000
O O18 0.340183 0.908872 0.978341
O O19 0.639751 0.205985 0.250000
O O20 0.579430 0.163718 0.018525
O O21 0.616111 0.250000 0.000000
O O22 0.445399 0.886845 0.750000
#
# Coordination Sequence:
#
# PCOD9435634 Si02
#       8
#     8   8   8   8   8   8   8   8
#     4  12  24  37  55  77 104 139 178 219 263 314
#     4  11  23  36  53  76 103 139 178 218 262 311
#     4  11  23  38  54  73 104 139 177 223 265 307
#     4  10  19  33  51  75 107 140 176 216 262 313
#     4  11  22  35  52  77 106 141 180 217 261 314
#     4  11  21  31  50  75 104 141 180 216 258 308
#     4   9  19  32  49  73 103 137 172 212 259 307
#     4  11  21  34  51  75 106 141 178 218 261 310
#
# _framework density 16.000350999999998
#
# number of rings (size 3 to 8) (size 9 to 14) (size 15 to 20)
#    0.000    1.250    3.750    3.375    0.000    4.000 
#    0.000    0.000    0.000    0.000    0.000    0.875 
#    0.000    4.000    0.000    0.000    0.000    0.000 
#
# Total GULP energy -357362.972482 kJ/mol
# GULP energy per Si atom -5583.796445 kJ/mol
# Density = 1.596393 g / cm^3
# Si number density = 16.000351 Si / 1000 Ang^3
#
#
#
# Elastic Constant Matrix: (Units=GPa)
#
#
# Indices 1 2 3 4 5 6 
#
# 1 78.6538 49.1489 37.8804 0.0000 0.0000 0.0000
# 2 49.1489 133.4307 49.2421 0.0000 0.0000 0.0000
# 3 37.8804 49.2421 68.7217 0.0000 0.0000 0.0000
# 4 0.0000 0.0000 0.0000 28.0074 0.0000 0.0000
# 5 0.0000 0.0000 0.0000 0.0000 22.9799 0.0000
# 6 0.0000 0.0000 0.0000 0.0000 0.0000 16.8858
#
#
#
# Elastic Compliance Matrix: (Units=1/GPa)
#
#
# Indices 1 2 3 4 5 6 
#
# 1 0.018925 -0.004243 -0.007391 0.000000 0.000000 0.000000
# 2 -0.004243 0.011140 -0.005643 0.000000 0.000000 0.000000
# 3 -0.007391 -0.005643 0.022669 0.000000 0.000000 0.000000
# 4 0.000000 0.000000 0.000000 0.035705 0.000000 0.000000
# 5 0.000000 0.000000 0.000000 0.000000 0.043516 0.000000
# 6 0.000000 0.000000 0.000000 0.000000 0.000000 0.059221
#
#
# Mechanical properties :
#
#
# Convention : Reuss Voigt Hill
#
# Bulk Modulus (GPa) = 55.00959 61.48320 58.24640
# Shear Modulus (GPa) = 21.57093 23.21026 22.39059
#
# Velocity S-wave (km/s) = 3.67570 3.81282 3.74489
# Velocity P-wave (km/s) = 7.24357 7.60875 7.42840
#
# Compressibility (1/GPa) = 0.01817865
#
# Stress axis : x y z
#
# Youngs Moduli (GPa) = 52.83951 89.76457 44.11223
#
# Poissons Ratio (x) = 0.38090 0.32605
# Poissons Ratio (y) = 0.22421 0.24895
# Poissons Ratio (z) = 0.39055 0.50659
#
# Static dielectric constant tensor:
#      x y z
#    x 1.440730 0.000000 0.000000 
#    y 0.000000 1.485050 0.000000 
#    z 0.000000 0.000000 1.545710 
# 
# From -- ./inp_files/6046.got.cif
#   From: 2010.05.17/outbox.cif.g08.bks.cpg/sg57_4_cif.got.tgz:6046.got - 2010.06.03 13:58:18.
