data_PCOD9435743
_publ_section_title
;
Structure prediction by ZEFSAII (Michael W. Deem and Ramdas Pophale) SiO2 
 PCOD9435743
Probable space group: P B C M
;
_chemical_formula_sum "Si O2"
_cell_formula_units_Z 64
_cell_length_a 10.075935
_cell_length_b 20.851624
_cell_length_c 14.786565
_cell_angle_alpha 90.000000
_cell_angle_beta 90.000000
_cell_angle_gamma 90.000000
_cell_volume 3106.651511
_symmetry_space_group_name_H-M "P B C M"
_symmetry_group_IT_number 57
_symmetry_cell_setting 'orthorhombic'
loop_
_space_group_symop_operation_xyz
x,y,z
-x,-y,1/2+z
x,1/2-y,-z
-x,1/2+y,1/2-z
-x,-y,-z
x,y,1/2-z
-x,1/2+y,z
x,1/2-y,1/2+z
loop_
_atom_site_type_symbol
_atom_site_label
_atom_site_fract_x
_atom_site_fract_y
_atom_site_fract_z
Si Si1 0.009468 0.866010 0.901243
Si Si2 0.053846 0.006264 0.602444
Si Si3 0.192985 0.754394 0.891727
Si Si4 0.133431 0.885698 0.099968
Si Si5 0.282756 0.376604 0.641288
Si Si6 0.569652 0.155690 0.142164
Si Si7 0.363994 0.976229 0.358463
Si Si8 0.345910 0.986120 0.640354
O O1 0.089834 0.807869 0.857392
O O2 0.852869 0.854034 0.903617
O O3 0.029757 0.935765 0.855938
O O4 0.070872 0.872748 0.001387
O O5 0.970051 0.064272 0.644381
O O6 0.211210 0.016107 0.603220
O O7 0.000000 0.000000 0.500000
O O8 0.162015 0.683354 0.856927
O O9 0.338468 0.783582 0.875733
O O10 0.179436 0.750000 0.000000
O O11 0.271713 0.923939 0.095259
O O12 0.268694 0.367876 0.750000
O O13 0.418245 0.342905 0.608546
O O14 0.305495 0.452614 0.625703
O O15 0.557857 0.148725 0.250000
O O16 0.638531 0.088748 0.112477
O O17 0.359503 0.965367 0.250000
O O18 0.517964 0.978648 0.386662
O O19 0.338757 0.987828 0.750000
#
# Coordination Sequence:
#
# PCOD9435743 Si02
#       8
#     8   8   8   8   8   8   8   8
#     4  10  19  35  55  78 112 150 188 232 273 336
#     4  10  19  33  53  82 114 147 188 232 280 338
#     4  10  21  37  54  77 113 152 186 226 282 342
#     4  10  21  35  53  80 117 152 185 228 283 342
#     4   9  18  33  57  85 109 136 182 241 285 323
#     4   9  18  35  58  84 108 139 189 239 280 335
#     4   9  18  34  55  82 113 144 181 232 289 335
#     4   9  18  34  58  84 111 142 186 240 285 329
#
# _framework density 20.600959
#
# number of rings (size 3 to 8) (size 9 to 14) (size 15 to 20)
#    0.000    2.500    2.500    1.500    0.000    2.000 
#    0.000   10.625    0.000    1.500    0.000    0.000 
#    0.000    0.000    0.000    0.000    0.000    0.000 
#
# Total GULP energy -357130.670434 kJ/mol
# GULP energy per Si atom -5580.166726 kJ/mol
# Density = 2.055407 g / cm^3
# Si number density = 20.600959 Si / 1000 Ang^3
#
#
#
# Elastic Constant Matrix: (Units=GPa)
#
#
# Indices 1 2 3 4 5 6 
#
# 1 204.2710 92.3267 30.7948 0.0000 0.0000 0.0000
# 2 92.3267 135.3952 13.5181 0.0000 0.0000 0.0000
# 3 30.7948 13.5181 66.9653 0.0000 0.0000 0.0000
# 4 0.0000 0.0000 0.0000 -12.4200 0.0000 0.0000
# 5 0.0000 0.0000 0.0000 0.0000 22.0877 0.0000
# 6 0.0000 0.0000 0.0000 0.0000 0.0000 31.0474
#
#
#
# Elastic Compliance Matrix: (Units=1/GPa)
#
#
# Indices 1 2 3 4 5 6 
#
# 1 0.007451 -0.004836 -0.002450 0.000000 0.000000 0.000000
# 2 -0.004836 0.010677 0.000069 0.000000 0.000000 0.000000
# 3 -0.002450 0.000069 0.016046 0.000000 0.000000 0.000000
# 4 0.000000 0.000000 0.000000 -0.080515 0.000000 0.000000
# 5 0.000000 0.000000 0.000000 0.000000 0.045274 0.000000
# 6 0.000000 0.000000 0.000000 0.000000 0.000000 0.032209
#
#
# Mechanical properties :
#
#
# Convention : Reuss Voigt Hill
#
# Bulk Modulus (GPa) = 50.66275 75.54566 63.10420
# Shear Modulus (GPa) = 95.86776 26.14247 61.00512
#
# Velocity S-wave (km/s) = 6.82910 3.56616 5.44766
# Velocity P-wave (km/s) = 9.31815 7.32852 8.38258
#
# Compressibility (1/GPa) = 0.01973837
#
# Stress axis : x y z
#
# Youngs Moduli (GPa) = 134.21776 93.66266 62.32116
#
# Poissons Ratio (x) = 0.45295 0.15269
# Poissons Ratio (y) = 0.64907 -0.00428
# Poissons Ratio (z) = 0.32883 -0.00643
#
# Static dielectric constant tensor:
#      x y z
#    x 1.762160 0.000000 0.000000 
#    y 0.000000 1.773020 0.000000 
#    z 0.000000 0.000000 1.780950 
# 
# From -- ./inp_files/24706.got.cif
#   From: 2010.05.17/outbox.cif.g08.bks.cpg/sg57_13_cif.got.tgz:24706.got - 2010.06.03 13:58:18.
