data_PCOD9435205
_publ_section_title
;
Structure prediction by ZEFSAII (Michael W. Deem and Ramdas Pophale) SiO2 
 PCOD9435205
Probable space group: P B C M
;
_chemical_formula_sum "Si O2"
_cell_formula_units_Z 36
_cell_length_a 6.416837
_cell_length_b 13.102333
_cell_length_c 15.529748
_cell_angle_alpha 90.000000
_cell_angle_beta 90.000000
_cell_angle_gamma 90.000000
_cell_volume 1305.671874
_symmetry_space_group_name_H-M "P B C M"
_symmetry_group_IT_number 57
_symmetry_cell_setting 'orthorhombic'
loop_
_space_group_symop_operation_xyz
x,y,z
-x,-y,1/2+z
x,1/2-y,-z
-x,1/2+y,1/2-z
-x,-y,-z
x,y,1/2-z
-x,1/2+y,z
x,1/2-y,1/2+z
loop_
_atom_site_type_symbol
_atom_site_label
_atom_site_fract_x
_atom_site_fract_y
_atom_site_fract_z
Si Si1 0.375068 0.506167 0.750000
Si Si2 0.799532 0.455961 0.600836
Si Si3 0.309252 0.332439 0.250000
Si Si4 0.942842 0.654485 0.250000
Si Si5 0.122036 0.610731 0.904536
Si Si6 0.450434 0.775760 0.905379
O O1 0.613425 0.548311 0.750000
O O2 0.287843 0.392621 0.750000
O O3 0.262079 0.556739 0.832572
O O4 0.944799 0.394264 0.667635
O O5 0.884016 0.572479 0.611470
O O6 0.832271 0.431654 0.499952
O O7 0.578778 0.396818 0.611882
O O8 0.081079 0.277466 0.250000
O O9 0.422662 0.282193 0.332936
O O10 0.218985 0.723640 0.906070
O O11 0.539612 0.750000 0.000000
#
# Coordination Sequence:
#
# PCOD9435205 Si02
#       6
#     4   8   4   4   8   8
#     4   8  16  32  52  72  98 134 164 192 238 296
#     4   9  16  29  49  73  96 123 162 206 242 274
#     4  10  19  33  51  70  98 132 160 190 241 301
#     4  10  19  31  49  74 102 126 156 204 249 281
#     4   8  15  28  50  72  95 125 160 199 240 285
#     4   9  17  31  51  71  93 127 167 196 232 293
#
# _framework density 27.572011
#
# number of rings (size 3 to 8) (size 9 to 14) (size 15 to 20)
#    0.000    3.111    0.000    0.667    0.000    0.000 
#    0.000    5.556    0.000   45.333    0.000    0.000 
#    0.000    0.000    0.000    0.000    0.000    0.000 
#
# Total GULP energy -200881.092297 kJ/mol
# GULP energy per Si atom -5580.030342 kJ/mol
# Density = 2.750926 g / cm^3
# Si number density = 27.572011 Si / 1000 Ang^3
#
#
#
# Elastic Constant Matrix: (Units=GPa)
#
#
# Indices 1 2 3 4 5 6 
#
# 1 82.8574 20.1939 64.5629 0.0000 0.0000 0.0000
# 2 20.1939 136.8854 46.1149 0.0000 0.0000 0.0000
# 3 64.5629 46.1149 162.8555 0.0000 0.0000 0.0000
# 4 0.0000 0.0000 0.0000 48.1391 0.0000 0.0000
# 5 0.0000 0.0000 0.0000 0.0000 12.0408 0.0000
# 6 0.0000 0.0000 0.0000 0.0000 0.0000 52.4582
#
#
#
# Elastic Compliance Matrix: (Units=1/GPa)
#
#
# Indices 1 2 3 4 5 6 
#
# 1 0.017473 -0.000270 -0.006850 0.000000 0.000000 0.000000
# 2 -0.000270 0.008080 -0.002181 0.000000 0.000000 0.000000
# 3 -0.006850 -0.002181 0.009474 0.000000 0.000000 0.000000
# 4 0.000000 0.000000 0.000000 0.020773 0.000000 0.000000
# 5 0.000000 0.000000 0.000000 0.000000 0.083051 0.000000
# 6 0.000000 0.000000 0.000000 0.000000 0.000000 0.019063
#
#
# Mechanical properties :
#
#
# Convention : Reuss Voigt Hill
#
# Bulk Modulus (GPa) = 60.88721 71.59351 66.24036
# Shear Modulus (GPa) = 27.47400 39.30940 33.39170
#
# Velocity S-wave (km/s) = 3.16008 3.77994 3.48382
# Velocity P-wave (km/s) = 5.95363 6.71364 6.34502
#
# Compressibility (1/GPa) = 0.01642381
#
# Stress axis : x y z
#
# Youngs Moduli (GPa) = 57.23243 123.76348 105.55399
#
# Poissons Ratio (x) = 0.03339 0.72310
# Poissons Ratio (y) = 0.01544 0.23021
# Poissons Ratio (z) = 0.39207 0.26993
#
# Static dielectric constant tensor:
#      x y z
#    x 2.164700 0.000000 0.000000 
#    y 0.000000 2.153730 0.000000 
#    z 0.000000 0.000000 2.242000 
# 
# From -- ./inp_files/15823.got.cif
#   From: 2010.05.17/outbox.cif.g08.bks.cpg/sg57_8_cif.got.tgz:15823.got - 2010.06.03 13:58:18.
