data_PCOD9435859
_publ_section_title
;
Structure prediction by ZEFSAII (Michael W. Deem and Ramdas Pophale) SiO2 
 PCOD9435859
Probable space group: P B C M
;
_chemical_formula_sum "Si O2"
_cell_formula_units_Z 56
_cell_length_a 17.647236
_cell_length_b 20.329266
_cell_length_c 8.778761
_cell_angle_alpha 90.000000
_cell_angle_beta 90.000000
_cell_angle_gamma 90.000000
_cell_volume 3149.427517
_symmetry_space_group_name_H-M "P B C M"
_symmetry_group_IT_number 57
_symmetry_cell_setting 'orthorhombic'
loop_
_space_group_symop_operation_xyz
x,y,z
-x,-y,1/2+z
x,1/2-y,-z
-x,1/2+y,1/2-z
-x,-y,-z
x,y,1/2-z
-x,1/2+y,z
x,1/2-y,1/2+z
loop_
_atom_site_type_symbol
_atom_site_label
_atom_site_fract_x
_atom_site_fract_y
_atom_site_fract_z
Si Si1 0.684031 0.587117 0.066914
Si Si2 0.273624 0.939627 0.433827
Si Si3 0.557234 0.821182 0.067200
Si Si4 0.380574 0.820459 0.433325
Si Si5 0.042573 0.406219 0.432478
Si Si6 0.184541 0.178137 0.567181
Si Si7 0.891720 0.049584 0.068375
O O1 0.683314 0.591076 0.250000
O O2 0.693127 0.510878 0.021469
O O3 0.609867 0.622252 0.000599
O O4 0.755258 0.627532 0.002241
O O5 0.270688 0.938398 0.250000
O O6 0.327351 0.880034 0.485144
O O7 0.188740 0.933586 0.496302
O O8 0.564380 0.819457 0.250000
O O9 0.468898 0.831644 0.026192
O O10 0.580227 0.750000 0.000000
O O11 0.357451 0.750000 0.500000
O O12 0.377026 0.817051 0.250000
O O13 0.031780 0.407496 0.250000
O O14 0.100376 0.348078 0.470880
O O15 0.084067 0.474904 0.475669
O O16 0.961199 0.405670 0.511630
O O17 0.197651 0.250000 0.500000
O O18 0.192571 0.178625 0.750000
O O19 0.886062 0.052045 0.250000
#
# Coordination Sequence:
#
# PCOD9435859 Si02
#       7
#     8   8   8   8   8   8   8
#     4  11  22  35  54  81 112 147 185 224 273 330
#     4  10  21  37  57  82 114 145 180 227 278 329
#     4  10  20  36  57  79 109 146 186 228 272 326
#     4   9  20  39  60  82 107 142 183 227 279 331
#     4   9  19  35  54  77 107 142 179 222 270 321
#     4  11  22  37  55  79 113 149 187 229 275 326
#     4  10  19  33  56  83 108 137 180 224 269 323
#
# _framework density 17.781008
#
# number of rings (size 3 to 8) (size 9 to 14) (size 15 to 20)
#    0.000    2.000    1.429    2.143    0.000    4.000 
#    0.000    0.714    0.000    0.000    0.000    0.000 
#    0.000    0.000    0.000    0.000    0.000    0.000 
#
# Total GULP energy -312677.548715 kJ/mol
# GULP energy per Si atom -5583.527656 kJ/mol
# Density = 1.774054 g / cm^3
# Si number density = 17.781008 Si / 1000 Ang^3
#
#
#
# Elastic Constant Matrix: (Units=GPa)
#
#
# Indices 1 2 3 4 5 6 
#
# 1 128.1286 93.4269 39.7390 0.0000 0.0000 0.0000
# 2 93.4269 143.9430 42.7962 0.0000 0.0000 0.0000
# 3 39.7390 42.7962 37.1671 0.0000 0.0000 0.0000
# 4 0.0000 0.0000 0.0000 23.0326 0.0000 0.0000
# 5 0.0000 0.0000 0.0000 0.0000 25.1487 0.0000
# 6 0.0000 0.0000 0.0000 0.0000 0.0000 22.9701
#
#
#
# Elastic Compliance Matrix: (Units=1/GPa)
#
#
# Indices 1 2 3 4 5 6 
#
# 1 0.016224 -0.008170 -0.007940 0.000000 0.000000 0.000000
# 2 -0.008170 0.014678 -0.008165 0.000000 0.000000 0.000000
# 3 -0.007940 -0.008165 0.044797 0.000000 0.000000 0.000000
# 4 0.000000 0.000000 0.000000 0.043417 0.000000 0.000000
# 5 0.000000 0.000000 0.000000 0.000000 0.039763 0.000000
# 6 0.000000 0.000000 0.000000 0.000000 0.000000 0.043535
#
#
# Mechanical properties :
#
#
# Convention : Reuss Voigt Hill
#
# Bulk Modulus (GPa) = 36.83429 73.46253 55.14841
# Shear Modulus (GPa) = 19.22980 23.11540 21.17260
#
# Velocity S-wave (km/s) = 3.29215 3.60947 3.45446
# Velocity P-wave (km/s) = 5.93393 7.66654 6.85520
#
# Compressibility (1/GPa) = 0.02714862
#
# Stress axis : x y z
#
# Youngs Moduli (GPa) = 61.63556 68.13125 22.32311
#
# Poissons Ratio (x) = 0.55663 0.17724
# Poissons Ratio (y) = 0.50356 0.18227
# Poissons Ratio (z) = 0.48937 0.55631
#
# Static dielectric constant tensor:
#      x y z
#    x 1.595450 0.000000 0.000000 
#    y 0.000000 1.592010 0.000000 
#    z 0.000000 0.000000 1.595200 
# 
# From -- ./inp_files/7040.got.cif
#   From: 2010.05.17/outbox.cif.g08.bks.cpg/sg57_4_cif.got.tgz:7040.got - 2010.06.03 13:58:18.
