data_PCOD9435051
_publ_section_title
;
Structure prediction by ZEFSAII (Michael W. Deem and Ramdas Pophale) SiO2 
 PCOD9435051
Probable space group: P B C M
;
_chemical_formula_sum "Si O2"
_cell_formula_units_Z 48
_cell_length_a 12.177790
_cell_length_b 26.306645
_cell_length_c 8.314452
_cell_angle_alpha 90.000000
_cell_angle_beta 90.000000
_cell_angle_gamma 90.000000
_cell_volume 2663.591223
_symmetry_space_group_name_H-M "P B C M"
_symmetry_group_IT_number 57
_symmetry_cell_setting 'orthorhombic'
loop_
_space_group_symop_operation_xyz
x,y,z
-x,-y,1/2+z
x,1/2-y,-z
-x,1/2+y,1/2-z
-x,-y,-z
x,y,1/2-z
-x,1/2+y,z
x,1/2-y,1/2+z
loop_
_atom_site_type_symbol
_atom_site_label
_atom_site_fract_x
_atom_site_fract_y
_atom_site_fract_z
Si Si1 0.373505 0.192514 0.057402
Si Si2 0.626397 0.307470 0.557590
Si Si3 0.501192 0.556958 0.556367
Si Si4 0.266363 0.096827 0.557319
Si Si5 0.124959 0.499185 0.942660
Si Si6 0.267936 0.596681 0.944163
O O1 0.375269 0.190329 0.250000
O O2 0.499947 0.179613 0.999056
O O3 0.354562 0.250000 0.000000
O O4 0.276085 0.155521 0.996029
O O5 0.645701 0.250000 0.500000
O O6 0.623642 0.309311 0.750000
O O7 0.724134 0.344725 0.498472
O O8 0.500000 0.500000 0.500000
O O9 0.501514 0.560814 0.750000
O O10 0.614333 0.579244 0.494846
O O11 0.388173 0.579844 0.496801
O O12 0.261744 0.095648 0.750000
O O13 0.182492 0.053525 0.498012
O O14 0.129618 0.499758 0.750000
O O15 0.185850 0.551589 0.999276
O O16 0.000000 0.500000 0.000000
O O17 0.262868 0.596526 0.750000
#
# Coordination Sequence:
#
# PCOD9435051 Si02
#       6
#     8   8   8   8   8   8
#     4  10  20  33  51  79 115 152 186 222 267 323
#     4  10  20  32  51  79 114 151 185 221 266 324
#     4  10  19  30  48  77 111 143 176 217 270 330
#     4  11  21  34  55  81 112 147 182 224 273 330
#     4  11  24  41  59  80 108 144 187 234 281 329
#     4  10  20  35  54  78 111 146 181 224 273 326
#
# _framework density 18.020783000000002
#
# number of rings (size 3 to 8) (size 9 to 14) (size 15 to 20)
#    0.000    1.667    3.333    2.000    0.000    4.000 
#    0.000    0.000    0.000    1.000    0.000    2.333 
#    0.000    0.000    0.000    0.000    0.000    0.000 
#
# Total GULP energy -267219.970086 kJ/mol
# GULP energy per Si atom -5567.082710 kJ/mol
# Density = 1.797977 g / cm^3
# Si number density = 18.020783 Si / 1000 Ang^3
#
#
#
# Elastic Constant Matrix: (Units=GPa)
#
#
# Indices 1 2 3 4 5 6 
#
# 1 104.5056 70.7434 24.8700 0.0000 0.0000 0.0000
# 2 70.7434 149.7722 24.8264 0.0000 0.0000 0.0000
# 3 24.8700 24.8264 38.6695 0.0000 0.0000 0.0000
# 4 0.0000 0.0000 0.0000 33.7645 0.0000 0.0000
# 5 0.0000 0.0000 0.0000 0.0000 21.7117 0.0000
# 6 0.0000 0.0000 0.0000 0.0000 0.0000 15.2367
#
#
#
# Elastic Compliance Matrix: (Units=1/GPa)
#
#
# Indices 1 2 3 4 5 6 
#
# 1 0.015131 -0.006193 -0.005755 0.000000 0.000000 0.000000
# 2 -0.006193 0.010007 -0.002442 0.000000 0.000000 0.000000
# 3 -0.005755 -0.002442 0.031129 0.000000 0.000000 0.000000
# 4 0.000000 0.000000 0.000000 0.029617 0.000000 0.000000
# 5 0.000000 0.000000 0.000000 0.000000 0.046058 0.000000
# 6 0.000000 0.000000 0.000000 0.000000 0.000000 0.065631
#
#
# Mechanical properties :
#
#
# Convention : Reuss Voigt Hill
#
# Bulk Modulus (GPa) = 36.38066 59.31411 47.84738
# Shear Modulus (GPa) = 21.23014 25.64306 23.43660
#
# Velocity S-wave (km/s) = 3.43606 3.77632 3.61020
# Velocity P-wave (km/s) = 5.99783 7.21109 6.63226
#
# Compressibility (1/GPa) = 0.02748714
#
# Stress axis : x y z
#
# Youngs Moduli (GPa) = 66.09120 99.93376 32.12422
#
# Poissons Ratio (x) = 0.61887 0.18488
# Poissons Ratio (y) = 0.40929 0.07843
# Poissons Ratio (z) = 0.38037 0.24399
#
# Static dielectric constant tensor:
#      x y z
#    x 1.617580 0.000000 0.000000 
#    y 0.000000 1.729380 0.000000 
#    z 0.000000 0.000000 1.619820 
# 
# From -- ./inp_files/3124.got.cif
#   From: 2010.05.17/outbox.cif.g08.bks.cpg/sg57_2_cif.got.tgz:3124.got - 2010.06.03 13:58:18.
