data_PCOD9435731
_publ_section_title
;
Structure prediction by ZEFSAII (Michael W. Deem and Ramdas Pophale) SiO2 
 PCOD9435731
Probable space group: P B C M
;
_chemical_formula_sum "Si O2"
_cell_formula_units_Z 56
_cell_length_a 21.487671
_cell_length_b 14.388416
_cell_length_c 8.538766
_cell_angle_alpha 90.000000
_cell_angle_beta 90.000000
_cell_angle_gamma 90.000000
_cell_volume 2639.960590
_symmetry_space_group_name_H-M "P B C M"
_symmetry_group_IT_number 57
_symmetry_cell_setting 'orthorhombic'
loop_
_space_group_symop_operation_xyz
x,y,z
-x,-y,1/2+z
x,1/2-y,-z
-x,1/2+y,1/2-z
-x,-y,-z
x,y,1/2-z
-x,1/2+y,z
x,1/2-y,1/2+z
loop_
_atom_site_type_symbol
_atom_site_label
_atom_site_fract_x
_atom_site_fract_y
_atom_site_fract_z
Si Si1 0.386478 0.155454 0.064851
Si Si2 0.829644 0.645173 0.561943
Si Si3 0.901469 0.355095 0.564553
Si Si4 0.217833 0.538905 0.563066
Si Si5 0.029846 0.144112 0.562885
Si Si6 0.514713 0.396729 0.439008
Si Si7 0.353368 0.947450 0.440646
O O1 0.378864 0.155682 0.250000
O O2 0.363536 0.054691 0.005095
O O3 0.356636 0.250000 0.000000
O O4 0.459658 0.157990 0.021764
O O5 0.821295 0.750000 0.500000
O O6 0.823929 0.644864 0.750000
O O7 0.785014 0.569308 0.485520
O O8 0.900546 0.612252 0.521266
O O9 0.896998 0.250000 0.500000
O O10 0.904454 0.351838 0.750000
O O11 0.840837 0.410185 0.511431
O O12 0.966725 0.398749 0.505227
O O13 0.213359 0.545826 0.750000
O O14 0.284229 0.580846 0.511088
O O15 0.028949 0.250000 0.500000
O O16 0.025047 0.143720 0.750000
O O17 0.500000 0.500000 0.500000
O O18 0.508949 0.389962 0.250000
O O19 0.587215 0.384702 0.485274
O O20 0.354653 0.950355 0.250000
#
# Coordination Sequence:
#
# PCOD9435731 Si02
#       7
#     8   8   8   8   8   8   8
#     4  10  19  33  53  81 110 138 174 216 263 313
#     4  10  21  37  56  82 114 148 187 231 278 332
#     4  11  22  38  59  83 109 139 181 233 285 338
#     4  11  22  38  58  81 111 150 190 229 276 329
#     4   9  17  32  55  80 107 140 179 227 283 334
#     4   9  16  31  53  76 100 129 165 207 253 300
#     4   8  18  35  54  75 104 140 178 218 262 315
#
# _framework density 21.212440000000001
#
# number of rings (size 3 to 8) (size 9 to 14) (size 15 to 20)
#    0.000    2.286    0.000    5.143    0.000    2.857 
#    0.000   10.714    0.000    0.000    0.000    0.000 
#    0.000    0.000    0.000    0.000    0.000    0.000 
#
# Total GULP energy -312405.736255 kJ/mol
# GULP energy per Si atom -5578.673862 kJ/mol
# Density = 2.116416 g / cm^3
# Si number density = 21.212440 Si / 1000 Ang^3
#
#
#
# Elastic Constant Matrix: (Units=GPa)
#
#
# Indices 1 2 3 4 5 6 
#
# 1 98.1824 -10.9694 5.8276 0.0000 0.0000 0.0000
# 2 -10.9694 33.5564 -8.7541 0.0000 0.0000 0.0000
# 3 5.8276 -8.7541 51.4755 0.0000 0.0000 0.0000
# 4 0.0000 0.0000 0.0000 24.0270 0.0000 0.0000
# 5 0.0000 0.0000 0.0000 0.0000 -15.1695 0.0000
# 6 0.0000 0.0000 0.0000 0.0000 0.0000 19.9131
#
#
#
# Elastic Compliance Matrix: (Units=1/GPa)
#
#
# Indices 1 2 3 4 5 6 
#
# 1 0.010591 0.003296 -0.000639 0.000000 0.000000 0.000000
# 2 0.003296 0.032210 0.005105 0.000000 0.000000 0.000000
# 3 -0.000639 0.005105 0.020367 0.000000 0.000000 0.000000
# 4 0.000000 0.000000 0.000000 0.041620 0.000000 0.000000
# 5 0.000000 0.000000 0.000000 0.000000 -0.065922 0.000000
# 6 0.000000 0.000000 0.000000 0.000000 0.000000 0.050218
#
#
# Mechanical properties :
#
#
# Convention : Reuss Voigt Hill
#
# Bulk Modulus (GPa) = 12.70792 17.26917 14.98854
# Shear Modulus (GPa) = 50.10443 18.89479 34.49961
#
# Velocity S-wave (km/s) = 4.86535 2.98777 4.03722
# Velocity P-wave (km/s) = 6.12910 4.47896 5.36782
#
# Compressibility (1/GPa) = 0.07869109
#
# Stress axis : x y z
#
# Youngs Moduli (GPa) = 94.41779 31.04671 49.09878
#
# Poissons Ratio (x) = -0.10232 0.03135
# Poissons Ratio (y) = -0.31116 -0.25063
# Poissons Ratio (z) = 0.06029 -0.15848
#
# Static dielectric constant tensor:
#      x y z
#    x 1.825360 0.000000 0.000000 
#    y 0.000000 1.802020 0.000000 
#    z 0.000000 0.000000 1.706830 
# 
# From -- ./inp_files/8185.got.cif
#   From: 2010.05.17/outbox.cif.g08.bks.cpg/sg57_5_cif.got.tgz:8185.got - 2010.06.03 13:58:18.
