data_PCOD9435893
_publ_section_title
;
Structure prediction by ZEFSAII (Michael W. Deem and Ramdas Pophale) SiO2 
 PCOD9435893
Probable space group: P B C M
;
_chemical_formula_sum "Si O2"
_cell_formula_units_Z 56
_cell_length_a 23.285223
_cell_length_b 14.675747
_cell_length_c 8.634443
_cell_angle_alpha 90.000000
_cell_angle_beta 90.000000
_cell_angle_gamma 90.000000
_cell_volume 2950.631297
_symmetry_space_group_name_H-M "P B C M"
_symmetry_group_IT_number 57
_symmetry_cell_setting 'orthorhombic'
loop_
_space_group_symop_operation_xyz
x,y,z
-x,-y,1/2+z
x,1/2-y,-z
-x,1/2+y,1/2-z
-x,-y,-z
x,y,1/2-z
-x,1/2+y,z
x,1/2-y,1/2+z
loop_
_atom_site_type_symbol
_atom_site_label
_atom_site_fract_x
_atom_site_fract_y
_atom_site_fract_z
Si Si1 0.853988 0.847883 0.564407
Si Si2 0.532298 0.646421 0.435936
Si Si3 0.801690 0.030536 0.936733
Si Si4 0.303408 0.647133 0.435420
Si Si5 0.416891 0.535727 0.063095
Si Si6 0.021614 0.403667 0.063380
Si Si7 0.901084 0.339759 0.434699
O O1 0.838016 0.750000 0.500000
O O2 0.856762 0.846696 0.750000
O O3 0.917840 0.872592 0.504241
O O4 0.808449 0.925490 0.517243
O O5 0.539202 0.750000 0.500000
O O6 0.535222 0.651555 0.250000
O O7 0.575249 0.566066 0.494256
O O8 0.470508 0.601536 0.480643
O O9 0.796060 0.035630 0.750000
O O10 0.863078 0.074529 0.980791
O O11 0.751801 0.090037 0.010236
O O12 0.303853 0.750000 0.500000
O O13 0.303753 0.653183 0.250000
O O14 0.359280 0.588619 0.484578
O O15 0.417536 0.527150 0.250000
O O16 0.025452 0.404729 0.250000
O O17 0.966703 0.344303 0.012897
O O18 0.000000 0.500000 0.000000
O O19 0.872005 0.250000 0.500000
O O20 0.901480 0.336278 0.250000
#
# Coordination Sequence:
#
# PCOD9435893 Si02
#       7
#     8   8   8   8   8   8   8
#     4  11  23  41  61  84 112 145 187 235 288 347
#     4  10  19  33  57  87 121 160 198 240 291 341
#     4  10  22  41  59  79 112 147 188 236 280 332
#     4  11  23  39  61  88 117 151 192 235 285 339
#     4   9  20  37  56  84 121 158 199 243 284 340
#     4  11  21  36  57  82 112 146 182 225 281 341
#     4  10  21  36  53  78 108 140 176 219 273 330
#
# _framework density 18.978988999999999
#
# number of rings (size 3 to 8) (size 9 to 14) (size 15 to 20)
#    0.000    1.714    1.429    3.000    0.000    6.857 
#    0.000    0.714    0.000    1.714    0.000    0.000 
#    0.000    0.000    0.000    0.000    0.000    0.000 
#
# Total GULP energy -312410.512061 kJ/mol
# GULP energy per Si atom -5578.759144 kJ/mol
# Density = 1.893579 g / cm^3
# Si number density = 18.978989 Si / 1000 Ang^3
#
#
#
# Elastic Constant Matrix: (Units=GPa)
#
#
# Indices 1 2 3 4 5 6 
#
# 1 102.0224 70.6588 30.9308 0.0000 0.0000 0.0000
# 2 70.6588 206.6852 47.6920 0.0000 0.0000 0.0000
# 3 30.9308 47.6920 35.9479 0.0000 0.0000 0.0000
# 4 0.0000 0.0000 0.0000 35.1743 0.0000 0.0000
# 5 0.0000 0.0000 0.0000 0.0000 22.6888 0.0000
# 6 0.0000 0.0000 0.0000 0.0000 0.0000 28.5150
#
#
#
# Elastic Compliance Matrix: (Units=1/GPa)
#
#
# Indices 1 2 3 4 5 6 
#
# 1 0.014432 -0.002981 -0.008463 0.000000 0.000000 0.000000
# 2 -0.002981 0.007589 -0.007503 0.000000 0.000000 0.000000
# 3 -0.008463 -0.007503 0.045054 0.000000 0.000000 0.000000
# 4 0.000000 0.000000 0.000000 0.028430 0.000000 0.000000
# 5 0.000000 0.000000 0.000000 0.000000 0.044075 0.000000
# 6 0.000000 0.000000 0.000000 0.000000 0.000000 0.035069
#
#
# Mechanical properties :
#
#
# Convention : Reuss Voigt Hill
#
# Bulk Modulus (GPa) = 34.26895 71.46875 52.86885
# Shear Modulus (GPa) = 22.49526 30.30054 26.39790
#
# Velocity S-wave (km/s) = 3.44651 4.00000 3.73353
# Velocity P-wave (km/s) = 5.82524 7.68582 6.81928
#
# Compressibility (1/GPa) = 0.02918093
#
# Stress axis : x y z
#
# Youngs Moduli (GPa) = 69.28967 131.77542 22.19572
#
# Poissons Ratio (x) = 0.39283 0.18784
# Poissons Ratio (y) = 0.20656 0.16653
# Poissons Ratio (z) = 0.58639 0.98869
#
# Static dielectric constant tensor:
#      x y z
#    x 1.657180 0.000000 0.000000 
#    y 0.000000 1.714220 0.000000 
#    z 0.000000 0.000000 1.643550 
# 
# From -- ./inp_files/8112.got.cif
#   From: 2010.05.17/outbox.cif.g08.bks.cpg/sg57_5_cif.got.tgz:8112.got - 2010.06.03 13:58:18.
