data_PCOD9435052
_publ_section_title
;
Structure prediction by ZEFSAII (Michael W. Deem and Ramdas Pophale) SiO2 
 PCOD9435052
Probable space group: P B C M
;
_chemical_formula_sum "Si O2"
_cell_formula_units_Z 48
_cell_length_a 13.150831
_cell_length_b 24.355094
_cell_length_c 8.315546
_cell_angle_alpha 90.000000
_cell_angle_beta 90.000000
_cell_angle_gamma 90.000000
_cell_volume 2663.383943
_symmetry_space_group_name_H-M "P B C M"
_symmetry_group_IT_number 57
_symmetry_cell_setting 'orthorhombic'
loop_
_space_group_symop_operation_xyz
x,y,z
-x,-y,1/2+z
x,1/2-y,-z
-x,1/2+y,1/2-z
-x,-y,-z
x,y,1/2-z
-x,1/2+y,z
x,1/2-y,1/2+z
loop_
_atom_site_type_symbol
_atom_site_label
_atom_site_fract_x
_atom_site_fract_y
_atom_site_fract_z
Si Si1 0.806387 0.384130 0.555801
Si Si2 0.193388 0.117006 0.557431
Si Si3 0.384603 0.063423 0.442367
Si Si4 0.001156 0.187528 0.442603
Si Si5 0.385477 0.936961 0.057422
Si Si6 0.113926 0.499239 0.443603
O O1 0.806347 0.381611 0.750000
O O2 0.689402 0.388078 0.500443
O O3 0.840193 0.444257 0.497041
O O4 0.896571 0.343080 0.500719
O O5 0.190426 0.119300 0.750000
O O6 0.311009 0.112119 0.505099
O O7 0.106880 0.158925 0.497575
O O8 0.158400 0.057342 0.494702
O O9 0.378762 0.062681 0.250000
O O10 0.500130 0.072788 0.497403
O O11 0.359227 0.000170 0.500825
O O12 0.999460 0.250000 0.500000
O O13 0.000141 0.185218 0.250000
O O14 0.383274 0.938426 0.250000
O O15 0.121626 0.499016 0.250000
O O16 0.000000 0.500000 0.500000
#
# Coordination Sequence:
#
# PCOD9435052 Si02
#       6
#     8   8   8   8   8   8
#     4  10  20  35  54  78 111 147 181 223 274 330
#     4  11  21  34  55  81 112 146 182 225 274 330
#     4  10  20  33  51  78 115 153 185 220 268 327
#     4  11  24  41  59  80 108 144 188 233 279 327
#     4  10  20  32  51  80 114 150 186 223 267 326
#     4  10  19  30  48  77 111 143 176 217 270 332
#
# _framework density 18.022185
#
# number of rings (size 3 to 8) (size 9 to 14) (size 15 to 20)
#    0.000    1.667    3.333    2.000    0.000    4.000 
#    0.000    0.000    0.000    1.000    0.000    4.667 
#    0.000    0.000    0.000    0.000    0.000    0.000 
#
# Total GULP energy -267220.892880 kJ/mol
# GULP energy per Si atom -5567.101935 kJ/mol
# Density = 1.798117 g / cm^3
# Si number density = 18.022185 Si / 1000 Ang^3
#
#
#
# Elastic Constant Matrix: (Units=GPa)
#
#
# Indices 1 2 3 4 5 6 
#
# 1 148.4653 69.9853 24.9026 0.0000 0.0000 0.0000
# 2 69.9853 103.7829 24.3535 0.0000 0.0000 0.0000
# 3 24.9026 24.3535 38.0546 0.0000 0.0000 0.0000
# 4 0.0000 0.0000 0.0000 20.1106 0.0000 0.0000
# 5 0.0000 0.0000 0.0000 0.0000 33.3083 0.0000
# 6 0.0000 0.0000 0.0000 0.0000 0.0000 14.5353
#
#
#
# Elastic Compliance Matrix: (Units=1/GPa)
#
#
# Indices 1 2 3 4 5 6 
#
# 1 0.010096 -0.006187 -0.002647 0.000000 0.000000 0.000000
# 2 -0.006187 0.015130 -0.005634 0.000000 0.000000 0.000000
# 3 -0.002647 -0.005634 0.031616 0.000000 0.000000 0.000000
# 4 0.000000 0.000000 0.000000 0.049725 0.000000 0.000000
# 5 0.000000 0.000000 0.000000 0.000000 0.030023 0.000000
# 6 0.000000 0.000000 0.000000 0.000000 0.000000 0.068798
#
#
# Mechanical properties :
#
#
# Convention : Reuss Voigt Hill
#
# Bulk Modulus (GPa) = 35.83530 58.75397 47.29464
# Shear Modulus (GPa) = 20.52334 24.99494 22.75914
#
# Velocity S-wave (km/s) = 3.37825 3.72815 3.55750
# Velocity P-wave (km/s) = 5.92823 7.15568 6.57068
#
# Compressibility (1/GPa) = 0.02790544
#
# Stress axis : x y z
#
# Youngs Moduli (GPa) = 99.04751 66.09522 31.62980
#
# Poissons Ratio (x) = 0.40894 0.08374
# Poissons Ratio (y) = 0.61281 0.17819
# Poissons Ratio (z) = 0.26221 0.37236
#
# Static dielectric constant tensor:
#      x y z
#    x 1.728100 0.000000 0.000000 
#    y 0.000000 1.617730 0.000000 
#    z 0.000000 0.000000 1.618390 
# 
# From -- ./inp_files/3152.got.cif
#   From: 2010.05.17/outbox.cif.g08.bks.cpg/sg57_2_cif.got.tgz:3152.got - 2010.06.03 13:58:18.
