data_PCOD9435675
_publ_section_title
;
Structure prediction by ZEFSAII (Michael W. Deem and Ramdas Pophale) SiO2 
 PCOD9435675
Probable space group: P B C M
;
_chemical_formula_sum "Si O2"
_cell_formula_units_Z 64
_cell_length_a 19.855287
_cell_length_b 19.668286
_cell_length_c 8.233963
_cell_angle_alpha 90.000000
_cell_angle_beta 90.000000
_cell_angle_gamma 90.000000
_cell_volume 3215.522812
_symmetry_space_group_name_H-M "P B C M"
_symmetry_group_IT_number 57
_symmetry_cell_setting 'orthorhombic'
loop_
_space_group_symop_operation_xyz
x,y,z
-x,-y,1/2+z
x,1/2-y,-z
-x,1/2+y,1/2-z
-x,-y,-z
x,y,1/2-z
-x,1/2+y,z
x,1/2-y,1/2+z
loop_
_atom_site_type_symbol
_atom_site_label
_atom_site_fract_x
_atom_site_fract_y
_atom_site_fract_z
Si Si1 0.716802 0.548548 0.943716
Si Si2 0.132095 0.053746 0.058029
Si Si3 0.371612 0.325755 0.445922
Si Si4 0.914844 0.090193 0.550989
Si Si5 0.782422 0.172592 0.554589
Si Si6 0.954973 0.672741 0.558155
Si Si7 0.524797 0.326258 0.446032
Si Si8 0.651681 0.411486 0.447142
O O1 0.726338 0.552162 0.750000
O O2 0.680323 0.617216 0.001953
O O3 0.789646 0.539700 0.023695
O O4 0.669212 0.485227 0.985449
O O5 0.121784 0.058781 0.250000
O O6 0.090136 0.988154 0.996376
O O7 0.107642 0.124132 0.981790
O O8 0.353289 0.250000 0.500000
O O9 0.372550 0.327594 0.250000
O O10 0.448370 0.339722 0.502872
O O11 0.915776 0.089111 0.750000
O O12 0.846766 0.128902 0.499706
O O13 0.979245 0.132603 0.492353
O O14 0.787599 0.250000 0.500000
O O15 0.782758 0.171126 0.750000
O O16 0.712765 0.138051 0.500954
O O17 0.949251 0.750000 0.500000
O O18 0.962979 0.676055 0.750000
O O19 0.543258 0.250000 0.500000
O O20 0.524450 0.327349 0.250000
O O21 0.580815 0.379751 0.501344
O O22 0.651875 0.414733 0.250000
#
# Coordination Sequence:
#
# PCOD9435675 Si02
#       8
#     8   8   8   8   8   8   8   8
#     4  11  23  38  57  84 116 149 193 243 285 340
#     4  11  22  41  64  85 115 154 191 237 293 345
#     4   9  20  38  58  82 112 145 188 240 290 341
#     4   9  19  37  60  84 116 151 188 232 280 338
#     4  10  19  33  52  80 114 150 188 228 272 328
#     4  11  23  40  61  89 119 150 190 236 284 341
#     4   9  18  34  56  82 113 151 191 235 287 342
#     4  10  20  35  55  79 115 154 190 230 283 343
#
# _framework density 19.903449999999999
#
# number of rings (size 3 to 8) (size 9 to 14) (size 15 to 20)
#    0.000    2.000    1.250    2.250    0.000    3.000 
#    0.000    3.750    0.000    0.000    0.000    0.000 
#    0.000    0.000    0.000    0.000    0.000    0.000 
#
# Total GULP energy -357462.671599 kJ/mol
# GULP energy per Si atom -5585.354244 kJ/mol
# Density = 1.985815 g / cm^3
# Si number density = 19.903450 Si / 1000 Ang^3
#
#
#
# Elastic Constant Matrix: (Units=GPa)
#
#
# Indices 1 2 3 4 5 6 
#
# 1 27.1412 37.5427 -2.2386 0.0000 0.0000 0.0000
# 2 37.5427 143.4043 7.2381 0.0000 0.0000 0.0000
# 3 -2.2386 7.2381 10.7074 0.0000 0.0000 0.0000
# 4 0.0000 0.0000 0.0000 28.5203 0.0000 0.0000
# 5 0.0000 0.0000 0.0000 0.0000 14.8289 0.0000
# 6 0.0000 0.0000 0.0000 0.0000 0.0000 35.1090
#
#
#
# Elastic Compliance Matrix: (Units=1/GPa)
#
#
# Indices 1 2 3 4 5 6 
#
# 1 0.063855 -0.018005 0.025521 0.000000 0.000000 0.000000
# 2 -0.018005 0.012297 -0.012077 0.000000 0.000000 0.000000
# 3 0.025521 -0.012077 0.106893 0.000000 0.000000 0.000000
# 4 0.000000 0.000000 0.000000 0.035063 0.000000 0.000000
# 5 0.000000 0.000000 0.000000 0.000000 0.067436 0.000000
# 6 0.000000 0.000000 0.000000 0.000000 0.000000 0.028483
#
#
# Mechanical properties :
#
#
# Convention : Reuss Voigt Hill
#
# Bulk Modulus (GPa) = 5.74965 29.59302 17.67134
# Shear Modulus (GPa) = 13.11920 24.93902 19.02911
#
# Velocity S-wave (km/s) = 2.57016 3.54361 3.09539
# Velocity P-wave (km/s) = 3.42092 5.62526 4.65544
#
# Compressibility (1/GPa) = 0.17392362
#
# Stress axis : x y z
#
# Youngs Moduli (GPa) = 15.66054 81.32392 9.35515
#
# Poissons Ratio (x) = 1.46424 -0.23876
# Poissons Ratio (y) = 0.28197 0.11298
# Poissons Ratio (z) = -0.39968 0.98212
#
# Static dielectric constant tensor:
#      x y z
#    x 1.698850 0.000000 0.000000 
#    y 0.000000 1.675180 0.000000 
#    z 0.000000 0.000000 1.693240 
# 
# From -- ./inp_files/8526.got.cif
#   From: 2010.05.17/outbox.cif.g08.bks.cpg/sg57_5_cif.got.tgz:8526.got - 2010.06.03 13:58:18.
