data_PCOD9435250
_publ_section_title
;
Structure prediction by ZEFSAII (Michael W. Deem and Ramdas Pophale) SiO2 
 PCOD9435250
Probable space group: P B C M
;
_chemical_formula_sum "Si O2"
_cell_formula_units_Z 48
_cell_length_a 11.613538
_cell_length_b 25.522568
_cell_length_c 9.804282
_cell_angle_alpha 90.000000
_cell_angle_beta 90.000000
_cell_angle_gamma 90.000000
_cell_volume 2906.060887
_symmetry_space_group_name_H-M "P B C M"
_symmetry_group_IT_number 57
_symmetry_cell_setting 'orthorhombic'
loop_
_space_group_symop_operation_xyz
x,y,z
-x,-y,1/2+z
x,1/2-y,-z
-x,1/2+y,1/2-z
-x,-y,-z
x,y,1/2-z
-x,1/2+y,z
x,1/2-y,1/2+z
loop_
_atom_site_type_symbol
_atom_site_label
_atom_site_fract_x
_atom_site_fract_y
_atom_site_fract_z
Si Si1 0.865269 0.696588 0.413774
Si Si2 0.017998 0.951093 0.403361
Si Si3 0.136790 0.701646 0.404820
Si Si4 0.386719 0.004684 0.589743
Si Si5 0.790369 0.409646 0.906494
Si Si6 0.227612 0.105292 0.593737
O O1 0.847361 0.750000 0.500000
O O2 0.844612 0.701674 0.250000
O O3 0.786909 0.651906 0.484670
O O4 0.003003 0.684210 0.429994
O O5 0.048548 0.966758 0.250000
O O6 0.118617 0.919890 0.475597
O O7 0.899416 0.919720 0.399407
O O8 0.000000 0.000000 0.500000
O O9 0.164346 0.750000 0.500000
O O10 0.137743 0.720772 0.250000
O O11 0.224296 0.652904 0.414876
O O12 0.415518 0.008577 0.750000
O O13 0.312492 0.057075 0.556386
O O14 0.500000 0.000000 0.500000
O O15 0.310639 0.951755 0.573906
O O16 0.834577 0.419218 0.750000
O O17 0.255807 0.122954 0.750000
#
# Coordination Sequence:
#
# PCOD9435250 Si02
#       6
#     8   8   8   8   8   8
#     4  10  19  31  50  77 110 144 175 208 251 313
#     4  11  20  30  48  76 108 139 170 209 261 321
#     4   9  18  30  48  74 108 142 171 204 250 307
#     4  10  22  39  56  75 103 136 178 228 272 314
#     4  10  19  35  53  75 107 141 174 215 261 311
#     4  10  20  34  52  75 107 141 172 217 265 309
#
# _framework density 16.517204
#
# number of rings (size 3 to 8) (size 9 to 14) (size 15 to 20)
#    0.000    2.000    3.333    1.000    0.000    3.333 
#    0.000    0.000    0.000    1.000    0.000    4.667 
#    0.000    0.000    0.000    0.000    0.000    0.000 
#
# Total GULP energy -267213.725090 kJ/mol
# GULP energy per Si atom -5566.952606 kJ/mol
# Density = 1.647961 g / cm^3
# Si number density = 16.517204 Si / 1000 Ang^3
#
#
#
# Elastic Constant Matrix: (Units=GPa)
#
#
# Indices 1 2 3 4 5 6 
#
# 1 64.6026 40.8822 50.5499 0.0000 0.0000 0.0000
# 2 40.8822 117.5357 85.2903 0.0000 0.0000 0.0000
# 3 50.5499 85.2903 123.3463 0.0000 0.0000 0.0000
# 4 0.0000 0.0000 0.0000 33.4112 0.0000 0.0000
# 5 0.0000 0.0000 0.0000 0.0000 25.4848 0.0000
# 6 0.0000 0.0000 0.0000 0.0000 0.0000 7.9655
#
#
#
# Elastic Compliance Matrix: (Units=1/GPa)
#
#
# Indices 1 2 3 4 5 6 
#
# 1 0.023102 -0.002339 -0.007851 0.000000 0.000000 0.000000
# 2 -0.002339 0.017313 -0.011013 0.000000 0.000000 0.000000
# 3 -0.007851 -0.011013 0.018940 0.000000 0.000000 0.000000
# 4 0.000000 0.000000 0.000000 0.029930 0.000000 0.000000
# 5 0.000000 0.000000 0.000000 0.000000 0.039239 0.000000
# 6 0.000000 0.000000 0.000000 0.000000 0.000000 0.125542
#
#
# Mechanical properties :
#
#
# Convention : Reuss Voigt Hill
#
# Bulk Modulus (GPa) = 58.99594 73.21438 66.10516
# Shear Modulus (GPa) = 16.54964 21.95644 19.25304
#
# Velocity S-wave (km/s) = 3.16882 3.64992 3.41784
# Velocity P-wave (km/s) = 7.01313 7.88574 7.46220
#
# Compressibility (1/GPa) = 0.01695032
#
# Stress axis : x y z
#
# Youngs Moduli (GPa) = 43.28608 57.75918 52.79887
#
# Poissons Ratio (x) = 0.13509 0.41450
# Poissons Ratio (y) = 0.10124 0.58148
# Poissons Ratio (z) = 0.33982 0.63611
#
# Static dielectric constant tensor:
#      x y z
#    x 1.499630 0.000000 0.000000 
#    y 0.000000 1.588750 0.000000 
#    z 0.000000 0.000000 1.552410 
# 
# From -- ./inp_files/3160.got.cif
#   From: 2010.05.17/outbox.cif.g08.bks.cpg/sg57_2_cif.got.tgz:3160.got - 2010.06.03 13:58:18.
