data_PCOD9435365
_publ_section_title
;
Structure prediction by ZEFSAII (Michael W. Deem and Ramdas Pophale) SiO2 
 PCOD9435365
Probable space group: P B C M
;
_chemical_formula_sum "Si O2"
_cell_formula_units_Z 64
_cell_length_a 15.335961
_cell_length_b 30.463429
_cell_length_c 8.711944
_cell_angle_alpha 90.000000
_cell_angle_beta 90.000000
_cell_angle_gamma 90.000000
_cell_volume 4070.097913
_symmetry_space_group_name_H-M "P B C M"
_symmetry_group_IT_number 57
_symmetry_cell_setting 'orthorhombic'
loop_
_space_group_symop_operation_xyz
x,y,z
-x,-y,1/2+z
x,1/2-y,-z
-x,1/2+y,1/2-z
-x,-y,-z
x,y,1/2-z
-x,1/2+y,z
x,1/2-y,1/2+z
loop_
_atom_site_type_symbol
_atom_site_label
_atom_site_fract_x
_atom_site_fract_y
_atom_site_fract_z
Si Si1 0.013281 0.296413 0.434218
Si Si2 0.863296 0.559338 0.065503
Si Si3 0.708691 0.881792 0.065836
Si Si4 0.208670 0.204017 0.432989
Si Si5 0.453840 0.062320 0.934283
Si Si6 0.034580 0.893029 0.064390
Si Si7 0.181670 0.960649 0.065311
Si Si8 0.373396 0.968215 0.566912
O O1 0.979614 0.250000 0.500000
O O2 0.017276 0.293168 0.250000
O O3 0.111412 0.302040 0.498563
O O4 0.963621 0.341376 0.476237
O O5 0.859450 0.562904 0.250000
O O6 0.859936 0.507880 0.022352
O O7 0.779312 0.582961 0.993153
O O8 0.949108 0.583914 0.005298
O O9 0.716170 0.878572 0.250000
O O10 0.612255 0.898781 0.026813
O O11 0.733204 0.836143 0.988566
O O12 0.241637 0.250000 0.500000
O O13 0.202911 0.205722 0.250000
O O14 0.464208 0.060794 0.750000
O O15 0.404874 0.017137 0.981659
O O16 0.548523 0.062891 0.009949
O O17 0.027452 0.895495 0.250000
O O18 0.118678 0.921084 0.015921
O O19 0.186934 0.959789 0.250000
O O20 0.278980 0.958039 0.000432
O O21 0.368407 0.967651 0.750000
#
# Coordination Sequence:
#
# PCOD9435365 Si02
#       8
#     8   8   8   8   8   8   8   8
#     4  10  19  32  50  70  95 127 164 206 252 295
#     4  11  21  31  47  71  99 133 172 209 241 287
#     4  11  20  33  51  72 101 134 168 202 247 299
#     4  11  21  33  50  73 100 130 166 204 250 296
#     4   9  19  33  50  71  97 130 163 200 247 296
#     4  10  21  35  50  68  97 136 170 204 249 300
#     4  10  21  35  49  69  99 135 172 208 249 296
#     4  10  19  32  50  73  97 127 165 207 248 288
#
# _framework density 15.724437
#
# number of rings (size 3 to 8) (size 9 to 14) (size 15 to 20)
#    0.000    1.750    2.500    3.750    0.000    3.000 
#    0.000    0.000    0.000    0.000    0.000    0.875 
#    0.000    2.000    0.000    0.000    0.000    0.000 
#
# Total GULP energy -357191.758796 kJ/mol
# GULP energy per Si atom -5581.121231 kJ/mol
# Density = 1.568865 g / cm^3
# Si number density = 15.724437 Si / 1000 Ang^3
#
#
#
# Elastic Constant Matrix: (Units=GPa)
#
#
# Indices 1 2 3 4 5 6 
#
# 1 85.3623 60.0653 26.0365 0.0000 0.0000 0.0000
# 2 60.0653 138.4241 43.4534 0.0000 0.0000 0.0000
# 3 26.0365 43.4534 43.2031 0.0000 0.0000 0.0000
# 4 0.0000 0.0000 0.0000 22.9834 0.0000 0.0000
# 5 0.0000 0.0000 0.0000 0.0000 22.7723 0.0000
# 6 0.0000 0.0000 0.0000 0.0000 0.0000 20.3542
#
#
#
# Elastic Compliance Matrix: (Units=1/GPa)
#
#
# Indices 1 2 3 4 5 6 
#
# 1 0.017375 -0.006214 -0.004221 0.000000 0.000000 0.000000
# 2 -0.006214 0.012780 -0.009109 0.000000 0.000000 0.000000
# 3 -0.004221 -0.009109 0.034852 0.000000 0.000000 0.000000
# 4 0.000000 0.000000 0.000000 0.043510 0.000000 0.000000
# 5 0.000000 0.000000 0.000000 0.000000 0.043913 0.000000
# 6 0.000000 0.000000 0.000000 0.000000 0.000000 0.049130
#
#
# Mechanical properties :
#
#
# Convention : Reuss Voigt Hill
#
# Bulk Modulus (GPa) = 38.58207 58.45554 48.51880
# Shear Modulus (GPa) = 20.05713 22.38424 21.22069
#
# Velocity S-wave (km/s) = 3.57534 3.77707 3.67759
# Velocity P-wave (km/s) = 6.45242 7.50182 6.99682
#
# Compressibility (1/GPa) = 0.02591878
#
# Stress axis : x y z
#
# Youngs Moduli (GPa) = 57.55422 78.24560 28.69277
#
# Poissons Ratio (x) = 0.48625 0.12110
# Poissons Ratio (y) = 0.35767 0.26137
# Poissons Ratio (z) = 0.24291 0.71275
#
# Static dielectric constant tensor:
#      x y z
#    x 1.496670 0.000000 0.000000 
#    y 0.000000 1.542920 0.000000 
#    z 0.000000 0.000000 1.527710 
# 
# From -- ./inp_files/6072.got.cif
#   From: 2010.05.17/outbox.cif.g08.bks.cpg/sg57_4_cif.got.tgz:6072.got - 2010.06.03 13:58:18.
