data_PCOD9435915
_publ_section_title
;
Structure prediction by ZEFSAII (Michael W. Deem and Ramdas Pophale) SiO2 
 PCOD9435915
Probable space group: P B C M
;
_chemical_formula_sum "Si O2"
_cell_formula_units_Z 64
_cell_length_a 15.098528
_cell_length_b 30.496822
_cell_length_c 8.728463
_cell_angle_alpha 90.000000
_cell_angle_beta 90.000000
_cell_angle_gamma 90.000000
_cell_volume 4019.082943
_symmetry_space_group_name_H-M "P B C M"
_symmetry_group_IT_number 57
_symmetry_cell_setting 'orthorhombic'
loop_
_space_group_symop_operation_xyz
x,y,z
-x,-y,1/2+z
x,1/2-y,-z
-x,1/2+y,1/2-z
-x,-y,-z
x,y,1/2-z
-x,1/2+y,z
x,1/2-y,1/2+z
loop_
_atom_site_type_symbol
_atom_site_label
_atom_site_fract_x
_atom_site_fract_y
_atom_site_fract_z
Si Si1 0.293605 0.204173 0.566092
Si Si2 0.638063 0.559249 0.065228
Si Si3 0.672889 0.039984 0.933027
Si Si4 0.201505 0.114967 0.566308
Si Si5 0.459080 0.610732 0.066536
Si Si6 0.500296 0.203159 0.566177
Si Si7 0.946228 0.561344 0.067455
Si Si8 0.865958 0.028060 0.432535
O O1 0.260936 0.250000 0.500000
O O2 0.292628 0.205999 0.750000
O O3 0.237165 0.162427 0.517152
O O4 0.396463 0.198754 0.518913
O O5 0.646935 0.561699 0.250000
O O6 0.633173 0.507892 0.023479
O O7 0.551536 0.586994 0.019309
O O8 0.724729 0.580367 0.989973
O O9 0.666768 0.044141 0.750000
O O10 0.618697 0.078862 0.011186
O O11 0.775148 0.039670 0.984198
O O12 0.196147 0.113302 0.750000
O O13 0.107956 0.102559 0.493340
O O14 0.459005 0.613942 0.250000
O O15 0.453858 0.659338 0.996265
O O16 0.531674 0.250000 0.500000
O O17 0.505044 0.204248 0.750000
O O18 0.935532 0.556761 0.250000
O O19 0.050829 0.559898 0.033479
O O20 0.900794 0.519339 0.987526
O O21 0.851445 0.027097 0.250000
#
# Coordination Sequence:
#
# PCOD9435915 Si02
#       8
#     8   8   8   8   8   8   8   8
#     4   9  19  32  48  72  99 131 166 206 250 299
#     4  10  21  34  48  70 101 138 176 209 246 296
#     4  11  22  35  51  72 101 137 176 216 255 299
#     4  11  20  31  50  75 102 134 171 207 250 300
#     4  11  22  35  51  73 101 138 176 210 254 304
#     4  10  19  34  52  73 100 130 168 212 257 301
#     4  10  20  33  50  73 100 130 166 205 250 299
#     4  10  20  34  51  72  98 130 168 210 251 295
#
# _framework density 15.92403
#
# number of rings (size 3 to 8) (size 9 to 14) (size 15 to 20)
#    0.000    1.750    2.500    2.625    0.000    4.000 
#    0.000    0.000    0.000    0.000    0.000    0.875 
#    0.000    4.000    0.000    0.000    0.000    0.000 
#
# Total GULP energy -357246.152996 kJ/mol
# GULP energy per Si atom -5581.971141 kJ/mol
# Density = 1.588779 g / cm^3
# Si number density = 15.924030 Si / 1000 Ang^3
#
#
#
# Elastic Constant Matrix: (Units=GPa)
#
#
# Indices 1 2 3 4 5 6 
#
# 1 54.2271 35.7288 14.6098 0.0000 0.0000 0.0000
# 2 35.7288 127.5884 30.8384 0.0000 0.0000 0.0000
# 3 14.6098 30.8384 30.7906 0.0000 0.0000 0.0000
# 4 0.0000 0.0000 0.0000 26.4608 0.0000 0.0000
# 5 0.0000 0.0000 0.0000 0.0000 24.3169 0.0000
# 6 0.0000 0.0000 0.0000 0.0000 0.0000 22.8724
#
#
#
# Elastic Compliance Matrix: (Units=1/GPa)
#
#
# Indices 1 2 3 4 5 6 
#
# 1 0.023423 -0.005110 -0.005996 0.000000 0.000000 0.000000
# 2 -0.005110 0.011456 -0.009049 0.000000 0.000000 0.000000
# 3 -0.005996 -0.009049 0.044386 0.000000 0.000000 0.000000
# 4 0.000000 0.000000 0.000000 0.037792 0.000000 0.000000
# 5 0.000000 0.000000 0.000000 0.000000 0.041124 0.000000
# 6 0.000000 0.000000 0.000000 0.000000 0.000000 0.043721
#
#
# Mechanical properties :
#
#
# Convention : Reuss Voigt Hill
#
# Bulk Modulus (GPa) = 25.67102 41.66225 33.66664
# Shear Modulus (GPa) = 19.59276 23.49195 21.54235
#
# Velocity S-wave (km/s) = 3.51150 3.84507 3.68206
# Velocity P-wave (km/s) = 5.70936 6.77736 6.26615
#
# Compressibility (1/GPa) = 0.03895443
#
# Stress axis : x y z
#
# Youngs Moduli (GPa) = 42.69258 87.29194 22.52977
#
# Poissons Ratio (x) = 0.44606 0.13509
# Poissons Ratio (y) = 0.21816 0.20387
# Poissons Ratio (z) = 0.25600 0.78990
#
# Static dielectric constant tensor:
#      x y z
#    x 1.522610 0.000000 0.000000 
#    y 0.000000 1.528580 0.000000 
#    z 0.000000 0.000000 1.530260 
# 
# From -- ./inp_files/5986.got.cif
#   From: 2010.05.17/outbox.cif.g08.bks.cpg/sg57_3_cif.got.tgz:5986.got - 2010.06.03 13:58:18.
