data_PCOD9435977
_publ_section_title
;
Structure prediction by ZEFSAII (Michael W. Deem and Ramdas Pophale) SiO2 
 PCOD9435977
Probable space group: P B C M
;
_chemical_formula_sum "Si O2"
_cell_formula_units_Z 64
_cell_length_a 22.208754
_cell_length_b 18.160422
_cell_length_c 8.624574
_cell_angle_alpha 90.000000
_cell_angle_beta 90.000000
_cell_angle_gamma 90.000000
_cell_volume 3478.466159
_symmetry_space_group_name_H-M "P B C M"
_symmetry_group_IT_number 57
_symmetry_cell_setting 'orthorhombic'
loop_
_space_group_symop_operation_xyz
x,y,z
-x,-y,1/2+z
x,1/2-y,-z
-x,1/2+y,1/2-z
-x,-y,-z
x,y,1/2-z
-x,1/2+y,z
x,1/2-y,1/2+z
loop_
_atom_site_type_symbol
_atom_site_label
_atom_site_fract_x
_atom_site_fract_y
_atom_site_fract_z
Si Si1 0.310446 0.543979 0.062299
Si Si2 0.995838 0.670142 0.436223
Si Si3 0.123782 0.400371 0.436362
Si Si4 0.106520 0.930181 0.561534
Si Si5 0.564606 0.521259 0.563767
Si Si6 0.779366 0.167818 0.063107
Si Si7 0.253932 0.105315 0.434748
Si Si8 0.373549 0.327202 0.064283
O O1 0.306978 0.536849 0.250000
O O2 0.379845 0.531728 0.016003
O O3 0.279532 0.620573 0.018171
O O4 0.272205 0.476554 0.992706
O O5 0.013784 0.750000 0.500000
O O6 0.994849 0.672342 0.250000
O O7 0.930627 0.648124 0.499629
O O8 0.044652 0.608916 0.486643
O O9 0.123786 0.398425 0.250000
O O10 0.113237 0.485353 0.488623
O O11 0.188695 0.375961 0.497999
O O12 0.107498 0.931251 0.750000
O O13 0.162663 0.879745 0.511316
O O14 0.500000 0.500000 0.500000
O O15 0.561942 0.519576 0.750000
O O16 0.585466 0.603325 0.516818
O O17 0.781209 0.171115 0.250000
O O18 0.780110 0.250000 0.000000
O O19 0.252989 0.107643 0.250000
O O20 0.306999 0.156940 0.498634
O O21 0.370578 0.325827 0.250000
O O22 0.396243 0.250000 0.000000
#
# Coordination Sequence:
#
# PCOD9435977 Si02
#       8
#     8   8   8   8   8   8   8   8
#     4   9  18  36  57  77 111 151 187 225 276 333
#     4  11  23  39  55  79 109 142 185 232 281 336
#     4  11  21  38  60  81 108 147 185 228 283 338
#     4   9  19  36  59  80 106 143 184 227 278 335
#     4   9  19  35  58  85 113 152 192 231 274 325
#     4  10  19  34  55  81 111 145 182 227 278 333
#     4  11  21  34  56  86 113 142 182 230 280 335
#     4  10  21  38  59  86 118 153 191 234 284 335
#
# _framework density 18.398914000000001
#
# number of rings (size 3 to 8) (size 9 to 14) (size 15 to 20)
#    0.000    2.000    1.250    3.750    0.000    3.500 
#    0.000    5.625    0.000    3.000    0.000    0.000 
#    0.000    0.000    0.000    0.000    0.000    0.000 
#
# Total GULP energy -357389.214066 kJ/mol
# GULP energy per Si atom -5584.206470 kJ/mol
# Density = 1.835704 g / cm^3
# Si number density = 18.398914 Si / 1000 Ang^3
#
#
#
# Elastic Constant Matrix: (Units=GPa)
#
#
# Indices 1 2 3 4 5 6 
#
# 1 114.2580 10.1892 21.3803 0.0000 0.0000 0.0000
# 2 10.1892 48.7026 11.4247 0.0000 0.0000 0.0000
# 3 21.3803 11.4247 41.7366 0.0000 0.0000 0.0000
# 4 0.0000 0.0000 0.0000 29.9060 0.0000 0.0000
# 5 0.0000 0.0000 0.0000 0.0000 24.1479 0.0000
# 6 0.0000 0.0000 0.0000 0.0000 0.0000 16.3681
#
#
#
# Elastic Compliance Matrix: (Units=1/GPa)
#
#
# Indices 1 2 3 4 5 6 
#
# 1 0.009719 -0.000925 -0.004726 0.000000 0.000000 0.000000
# 2 -0.000925 0.022030 -0.005557 0.000000 0.000000 0.000000
# 3 -0.004726 -0.005557 0.027902 0.000000 0.000000 0.000000
# 4 0.000000 0.000000 0.000000 0.033438 0.000000 0.000000
# 5 0.000000 0.000000 0.000000 0.000000 0.041412 0.000000
# 6 0.000000 0.000000 0.000000 0.000000 0.000000 0.061094
#
#
# Mechanical properties :
#
#
# Convention : Reuss Voigt Hill
#
# Bulk Modulus (GPa) = 26.85542 32.29840 29.57691
# Shear Modulus (GPa) = 21.69949 24.86458 23.28203
#
# Velocity S-wave (km/s) = 3.43795 3.68015 3.56111
# Velocity P-wave (km/s) = 5.51246 5.97081 5.74621
#
# Compressibility (1/GPa) = 0.03723643
#
# Stress axis : x y z
#
# Youngs Moduli (GPa) = 102.89293 45.39317 35.84029
#
# Poissons Ratio (x) = 0.04198 0.16936
# Poissons Ratio (y) = 0.09515 0.19915
# Poissons Ratio (z) = 0.48622 0.25223
#
# Static dielectric constant tensor:
#      x y z
#    x 1.622260 0.000000 0.000000 
#    y 0.000000 1.625010 0.000000 
#    z 0.000000 0.000000 1.623130 
# 
# From -- ./inp_files/8435.got.cif
#   From: 2010.05.17/outbox.cif.g08.bks.cpg/sg57_5_cif.got.tgz:8435.got - 2010.06.03 13:58:18.
