data_PCOD9435442
_publ_section_title
;
Structure prediction by ZEFSAII (Michael W. Deem and Ramdas Pophale) SiO2 
 PCOD9435442
Probable space group: P B C M
;
_chemical_formula_sum "Si O2"
_cell_formula_units_Z 64
_cell_length_a 30.001289
_cell_length_b 14.345717
_cell_length_c 8.310591
_cell_angle_alpha 90.000000
_cell_angle_beta 90.000000
_cell_angle_gamma 90.000000
_cell_volume 3576.795274
_symmetry_space_group_name_H-M "P B C M"
_symmetry_group_IT_number 57
_symmetry_cell_setting 'orthorhombic'
loop_
_space_group_symop_operation_xyz
x,y,z
-x,-y,1/2+z
x,1/2-y,-z
-x,1/2+y,1/2-z
-x,-y,-z
x,y,1/2-z
-x,1/2+y,z
x,1/2-y,1/2+z
loop_
_atom_site_type_symbol
_atom_site_label
_atom_site_fract_x
_atom_site_fract_y
_atom_site_fract_z
Si Si1 0.422746 0.642680 0.554992
Si Si2 0.151295 0.854520 0.442549
Si Si3 0.068262 0.969062 0.557760
Si Si4 0.383255 0.144162 0.557477
Si Si5 0.519259 0.857964 0.444403
Si Si6 0.018384 0.144709 0.057954
Si Si7 0.663530 0.029268 0.556240
Si Si8 0.252525 0.645627 0.944518
O O1 0.419625 0.750000 0.500000
O O2 0.422622 0.640852 0.750000
O O3 0.471268 0.603686 0.499431
O O4 0.379458 0.587574 0.496396
O O5 0.139650 0.750000 0.500000
O O6 0.151143 0.854593 0.250000
O O7 0.115084 0.927645 0.502704
O O8 0.201940 0.874579 0.499220
O O9 0.066834 0.969802 0.750000
O O10 0.028409 0.900472 0.498361
O O11 0.056209 0.072160 0.497103
O O12 0.378055 0.250000 0.500000
O O13 0.383483 0.142867 0.750000
O O14 0.432253 0.108181 0.498193
O O15 0.345388 0.076168 0.494050
O O16 0.518464 0.750000 0.500000
O O17 0.519438 0.862003 0.250000
O O18 0.017166 0.145345 0.250000
O O19 0.024018 0.250000 0.000000
O O20 0.663552 0.034489 0.750000
O O21 0.709477 0.074873 0.498301
O O22 0.252291 0.644467 0.750000
O O23 0.263930 0.750000 0.000000
#
# Coordination Sequence:
#
# PCOD9435442 Si02
#       8
#     8   8   8   8   8   8   8   8
#     4   9  17  29  46  68  96 127 155 187 228 278
#     4  10  19  32  51  75 103 135 170 208 251 295
#     4  10  20  33  51  76 105 139 179 218 255 298
#     4  10  20  34  51  69  90 119 156 197 239 284
#     4   8  15  28  44  64  90 119 152 188 228 275
#     4  10  20  33  50  74 107 144 179 216 257 300
#     4  10  20  33  49  71  98 126 156 193 240 289
#     4   9  19  34  52  75 103 132 161 199 245 294
#
# _framework density 17.893111999999999
#
# number of rings (size 3 to 8) (size 9 to 14) (size 15 to 20)
#    0.000    2.500    0.000    2.250    0.000    5.000 
#    0.000    0.000    0.000    0.750    0.000    3.500 
#    0.000    0.000    0.000    0.000    0.000    0.000 
#
# Total GULP energy -356955.690710 kJ/mol
# GULP energy per Si atom -5577.432667 kJ/mol
# Density = 1.785239 g / cm^3
# Si number density = 17.893112 Si / 1000 Ang^3
#
#
#
# Elastic Constant Matrix: (Units=GPa)
#
#
# Indices 1 2 3 4 5 6 
#
# 1 117.4448 83.5930 19.9414 0.0000 0.0000 0.0000
# 2 83.5930 124.2525 14.1743 0.0000 0.0000 0.0000
# 3 19.9414 14.1743 19.1025 0.0000 0.0000 0.0000
# 4 0.0000 0.0000 0.0000 26.1685 0.0000 0.0000
# 5 0.0000 0.0000 0.0000 0.0000 9.8249 0.0000
# 6 0.0000 0.0000 0.0000 0.0000 0.0000 32.4476
#
#
#
# Elastic Compliance Matrix: (Units=1/GPa)
#
#
# Indices 1 2 3 4 5 6 
#
# 1 0.018177 -0.010995 -0.010817 0.000000 0.000000 0.000000
# 2 -0.010995 0.015443 0.000019 0.000000 0.000000 0.000000
# 3 -0.010817 0.000019 0.063627 0.000000 0.000000 0.000000
# 4 0.000000 0.000000 0.000000 0.038214 0.000000 0.000000
# 5 0.000000 0.000000 0.000000 0.000000 0.101782 0.000000
# 6 0.000000 0.000000 0.000000 0.000000 0.000000 0.030819
#
#
# Mechanical properties :
#
#
# Convention : Reuss Voigt Hill
#
# Bulk Modulus (GPa) = 18.63539 55.13524 36.88532
# Shear Modulus (GPa) = 15.17287 23.22762 19.20025
#
# Velocity S-wave (km/s) = 2.91516 3.60687 3.27930
# Velocity P-wave (km/s) = 4.66565 6.94453 5.91586
#
# Compressibility (1/GPa) = 0.05366133
#
# Stress axis : x y z
#
# Youngs Moduli (GPa) = 55.01408 64.75404 15.71653
#
# Poissons Ratio (x) = 0.71197 0.17001
# Poissons Ratio (y) = 0.60488 -0.00030
# Poissons Ratio (z) = 0.59509 -0.00123
#
# Static dielectric constant tensor:
#      x y z
#    x 1.639930 0.000000 0.000000 
#    y 0.000000 1.583140 0.000000 
#    z 0.000000 0.000000 1.612900 
# 
# From -- ./inp_files/9356.got.cif
#   From: 2010.05.17/outbox.cif.g08.bks.cpg/sg57_5_cif.got.tgz:9356.got - 2010.06.03 13:58:18.
