data_PCOD9435751
_publ_section_title
;
Structure prediction by ZEFSAII (Michael W. Deem and Ramdas Pophale) SiO2 
 PCOD9435751
Probable space group: P B C M
;
_chemical_formula_sum "Si O2"
_cell_formula_units_Z 56
_cell_length_a 8.598507
_cell_length_b 17.675234
_cell_length_c 18.832872
_cell_angle_alpha 90.000000
_cell_angle_beta 90.000000
_cell_angle_gamma 90.000000
_cell_volume 2862.231625
_symmetry_space_group_name_H-M "P B C M"
_symmetry_group_IT_number 57
_symmetry_cell_setting 'orthorhombic'
loop_
_space_group_symop_operation_xyz
x,y,z
-x,-y,1/2+z
x,1/2-y,-z
-x,1/2+y,1/2-z
-x,-y,-z
x,y,1/2-z
-x,1/2+y,z
x,1/2-y,1/2+z
loop_
_atom_site_type_symbol
_atom_site_label
_atom_site_fract_x
_atom_site_fract_y
_atom_site_fract_z
Si Si1 0.172508 0.748402 0.327987
Si Si2 0.155869 0.397764 0.524059
Si Si3 0.732335 0.836061 0.117359
Si Si4 0.590384 0.194594 0.938357
Si Si5 0.154601 0.175784 0.169627
Si Si6 0.015136 0.584623 0.672098
Si Si7 0.177286 0.938678 0.472696
O O1 0.243171 0.736470 0.250000
O O2 0.298131 0.754032 0.389298
O O3 0.089406 0.830934 0.327369
O O4 0.031392 0.690110 0.337357
O O5 0.199075 0.338053 0.462957
O O6 0.204348 0.373483 0.602414
O O7 0.230600 0.478599 0.503118
O O8 0.970069 0.410256 0.518038
O O9 0.548540 0.840805 0.107619
O O10 0.769318 0.758056 0.157150
O O11 0.833075 0.901160 0.155880
O O12 0.694116 0.125900 0.968453
O O13 0.529727 0.250000 0.000000
O O14 0.187002 0.149573 0.250000
O O15 0.037627 0.550331 0.750000
O O16 0.102399 0.547243 0.606025
#
# Coordination Sequence:
#
# PCOD9435751 Si02
#       7
#     8   8   8   8   8   8   8
#     4   8  16  29  46  69  93 119 157 204 249 290
#     4  10  19  35  52  73 103 135 169 211 256 306
#     4  10  20  32  49  74 103 135 171 206 250 304
#     4  11  20  31  49  75 103 133 168 210 253 301
#     4  10  19  33  54  76  98 130 171 213 256 303
#     4   8  15  31  51  70  95 126 164 208 248 294
#     4   9  20  33  52  77 102 134 172 212 259 305
#
# _framework density 19.565152000000001
#
# number of rings (size 3 to 8) (size 9 to 14) (size 15 to 20)
#    0.000    2.571    0.000    4.286    0.000    2.286 
#    0.000    0.000    0.000    0.000    0.000    0.000 
#    0.000    0.000    0.000    0.000    0.000    0.000 
#
# Total GULP energy -312039.966941 kJ/mol
# GULP energy per Si atom -5572.142267 kJ/mol
# Density = 1.952062 g / cm^3
# Si number density = 19.565152 Si / 1000 Ang^3
#
#
#
# Elastic Constant Matrix: (Units=GPa)
#
#
# Indices 1 2 3 4 5 6 
#
# 1 39.6284 -1.8527 -4.4675 0.0000 0.0000 0.0000
# 2 -1.8527 22.0869 3.4486 0.0000 0.0000 0.0000
# 3 -4.4675 3.4486 95.4099 0.0000 0.0000 0.0000
# 4 0.0000 0.0000 0.0000 13.7726 0.0000 0.0000
# 5 0.0000 0.0000 0.0000 0.0000 8.3759 0.0000
# 6 0.0000 0.0000 0.0000 0.0000 0.0000 12.2090
#
#
#
# Elastic Compliance Matrix: (Units=1/GPa)
#
#
# Indices 1 2 3 4 5 6 
#
# 1 0.025452 0.001960 0.001121 0.000000 0.000000 0.000000
# 2 0.001960 0.045684 -0.001559 0.000000 0.000000 0.000000
# 3 0.001121 -0.001559 0.010590 0.000000 0.000000 0.000000
# 4 0.000000 0.000000 0.000000 0.072608 0.000000 0.000000
# 5 0.000000 0.000000 0.000000 0.000000 0.119390 0.000000
# 6 0.000000 0.000000 0.000000 0.000000 0.000000 0.081907
#
#
# Mechanical properties :
#
#
# Convention : Reuss Voigt Hill
#
# Bulk Modulus (GPa) = 11.79679 16.82023 14.30851
# Shear Modulus (GPa) = 13.12875 17.53796 15.33335
#
# Velocity S-wave (km/s) = 2.59323 2.99722 2.80251
# Velocity P-wave (km/s) = 3.87415 4.53800 4.21915
#
# Compressibility (1/GPa) = 0.08476886
#
# Stress axis : x y z
#
# Youngs Moduli (GPa) = 39.28897 21.88971 94.42918
#
# Poissons Ratio (x) = -0.04290 -0.10585
# Poissons Ratio (y) = -0.07701 0.14726
# Poissons Ratio (z) = -0.04404 0.03414
#
# Static dielectric constant tensor:
#      x y z
#    x 1.684790 0.000000 0.000000 
#    y 0.000000 1.688190 0.000000 
#    z 0.000000 0.000000 1.727220 
# 
# From -- ./inp_files/21344.got.cif
#   From: 2010.05.17/outbox.cif.g08.bks.cpg/sg57_11_cif.got.tgz:21344.got - 2010.06.03 13:58:18.
