data_PCOD9435252
_publ_section_title
;
Structure prediction by ZEFSAII (Michael W. Deem and Ramdas Pophale) SiO2 
 PCOD9435252
Probable space group: P B C M
;
_chemical_formula_sum "Si O2"
_cell_formula_units_Z 64
_cell_length_a 27.505253
_cell_length_b 14.130703
_cell_length_c 7.588014
_cell_angle_alpha 90.000000
_cell_angle_beta 90.000000
_cell_angle_gamma 90.000000
_cell_volume 2949.222483
_symmetry_space_group_name_H-M "P B C M"
_symmetry_group_IT_number 57
_symmetry_cell_setting 'orthorhombic'
loop_
_space_group_symop_operation_xyz
x,y,z
-x,-y,1/2+z
x,1/2-y,-z
-x,1/2+y,1/2-z
-x,-y,-z
x,y,1/2-z
-x,1/2+y,z
x,1/2-y,1/2+z
loop_
_atom_site_type_symbol
_atom_site_label
_atom_site_fract_x
_atom_site_fract_y
_atom_site_fract_z
Si Si1 0.578324 0.137944 0.538087
Si Si2 0.776271 0.361109 0.037569
Si Si3 0.037272 0.638705 0.460256
Si Si4 0.526316 0.637168 0.961171
Si Si5 0.868149 0.476078 0.046692
Si Si6 0.322957 0.952721 0.457015
Si Si7 0.632863 0.860690 0.459669
Si Si8 0.929621 0.639982 0.461878
O O1 0.581211 0.250000 0.500000
O O2 0.577194 0.126445 0.750000
O O3 0.525806 0.100673 0.470096
O O4 0.626911 0.089463 0.466391
O O5 0.776366 0.369429 0.250000
O O6 0.823130 0.418423 0.968726
O O7 0.725963 0.406444 0.969850
O O8 0.779362 0.250000 0.000000
O O9 0.041242 0.750000 0.500000
O O10 0.039506 0.624649 0.250000
O O11 0.083009 0.586547 0.542535
O O12 0.983456 0.609991 0.526345
O O13 0.526837 0.624690 0.750000
O O14 0.579315 0.608017 0.031486
O O15 0.525094 0.750000 0.000000
O O16 0.854949 0.495178 0.250000
O O17 0.886626 0.574622 0.966439
O O18 0.323453 0.928852 0.250000
O O19 0.327270 0.065691 0.473923
O O20 0.640578 0.750000 0.500000
O O21 0.631378 0.868959 0.250000
O O22 0.922997 0.750000 0.500000
O O23 0.931049 0.629048 0.250000
#
# Coordination Sequence:
#
# PCOD9435252 Si02
#       8
#     8   8   8   8   8   8   8   8
#     4   9  17  30  49  73 103 136 169 208 255 307
#     4  10  22  39  58  79 106 137 171 214 259 303
#     4  10  19  31  50  78 109 141 176 215 260 312
#     4   8  15  28  46  71 101 131 164 203 250 303
#     4  10  20  35  54  77 106 141 179 219 262 306
#     4  10  21  36  53  75 103 136 172 213 261 306
#     4  10  20  35  55  77 102 133 169 210 255 307
#     4   9  19  34  52  76 108 142 175 214 260 308
#
# _framework density 21.700634999999998
#
# number of rings (size 3 to 8) (size 9 to 14) (size 15 to 20)
#    0.000    2.500    0.000    1.875    0.000    4.500 
#    0.000    0.625    0.000    1.500    0.000    0.000 
#    0.000    0.000    0.000    0.000    0.000    0.000 
#
# Total GULP energy -357248.894400 kJ/mol
# GULP energy per Si atom -5582.013975 kJ/mol
# Density = 2.165124 g / cm^3
# Si number density = 21.700635 Si / 1000 Ang^3
#
#
#
# Elastic Constant Matrix: (Units=GPa)
#
#
# Indices 1 2 3 4 5 6 
#
# 1 158.0377 87.1698 2.9550 0.0000 0.0000 0.0000
# 2 87.1698 108.7866 -14.3328 0.0000 0.0000 0.0000
# 3 2.9550 -14.3328 59.4428 0.0000 0.0000 0.0000
# 4 0.0000 0.0000 0.0000 22.5263 0.0000 0.0000
# 5 0.0000 0.0000 0.0000 0.0000 5.9494 0.0000
# 6 0.0000 0.0000 0.0000 0.0000 0.0000 40.0599
#
#
#
# Elastic Compliance Matrix: (Units=1/GPa)
#
#
# Indices 1 2 3 4 5 6 
#
# 1 0.011825 -0.009866 -0.002967 0.000000 0.000000 0.000000
# 2 -0.009866 0.017726 0.004764 0.000000 0.000000 0.000000
# 3 -0.002967 0.004764 0.018119 0.000000 0.000000 0.000000
# 4 0.000000 0.000000 0.000000 0.044393 0.000000 0.000000
# 5 0.000000 0.000000 0.000000 0.000000 0.168083 0.000000
# 6 0.000000 0.000000 0.000000 0.000000 0.000000 0.024963
#
#
# Mechanical properties :
#
#
# Convention : Reuss Voigt Hill
#
# Bulk Modulus (GPa) = 31.71281 53.09457 42.40369
# Shear Modulus (GPa) = 16.03819 30.40545 23.22182
#
# Velocity S-wave (km/s) = 2.72153 3.74723 3.27479
# Velocity P-wave (km/s) = 4.95188 6.57588 5.82080
#
# Compressibility (1/GPa) = 0.03153300
#
# Stress axis : x y z
#
# Youngs Moduli (GPa) = 84.56655 56.41527 55.19011
#
# Poissons Ratio (x) = 0.55660 0.16374
# Poissons Ratio (y) = 0.83435 -0.26295
# Poissons Ratio (z) = 0.25089 -0.26879
#
# Static dielectric constant tensor:
#      x y z
#    x 1.820130 0.000000 0.000000 
#    y 0.000000 1.800230 0.000000 
#    z 0.000000 0.000000 1.834020 
# 
# From -- ./inp_files/9413.got.cif
#   From: 2010.05.17/outbox.cif.g08.bks.cpg/sg57_5_cif.got.tgz:9413.got - 2010.06.03 13:58:18.
