data_PCOD9435035
_publ_section_title
;
Structure prediction by ZEFSAII (Michael W. Deem and Ramdas Pophale) SiO2 
 PCOD9435035
Probable space group: P B C M
;
_chemical_formula_sum "Si O2"
_cell_formula_units_Z 56
_cell_length_a 21.189629
_cell_length_b 14.413139
_cell_length_c 9.278533
_cell_angle_alpha 90.000000
_cell_angle_beta 90.000000
_cell_angle_gamma 90.000000
_cell_volume 2833.748117
_symmetry_space_group_name_H-M "P B C M"
_symmetry_group_IT_number 57
_symmetry_cell_setting 'orthorhombic'
loop_
_space_group_symop_operation_xyz
x,y,z
-x,-y,1/2+z
x,1/2-y,-z
-x,1/2+y,1/2-z
-x,-y,-z
x,y,1/2-z
-x,1/2+y,z
x,1/2-y,1/2+z
loop_
_atom_site_type_symbol
_atom_site_label
_atom_site_fract_x
_atom_site_fract_y
_atom_site_fract_z
Si Si1 0.651663 0.110859 0.588768
Si Si2 0.767039 0.047028 0.078884
Si Si3 0.086953 0.543576 0.078693
Si Si4 0.024094 0.348250 0.077339
Si Si5 0.604997 0.901145 0.590968
Si Si6 0.280029 0.340037 0.080223
Si Si7 0.526682 0.338080 0.580771
O O1 0.653318 0.151539 0.750000
O O2 0.718659 0.111184 0.509025
O O3 0.593587 0.146502 0.494012
O O4 0.634182 0.002729 0.601433
O O5 0.754905 0.057978 0.250000
O O6 0.840170 0.065408 0.049503
O O7 0.753354 0.938135 0.045074
O O8 0.074568 0.557638 0.250000
O O9 0.072536 0.434169 0.050008
O O10 0.040728 0.608596 0.986684
O O11 0.020291 0.334497 0.250000
O O12 0.038264 0.250000 0.000000
O O13 0.611838 0.855831 0.750000
O O14 0.647574 0.851818 0.472239
O O15 0.530542 0.910210 0.562750
O O16 0.276355 0.326558 0.250000
O O17 0.253212 0.250000 0.000000
O O18 0.497999 0.250000 0.500000
O O19 0.536384 0.324106 0.750000
#
# Coordination Sequence:
#
# PCOD9435035 Si02
#       7
#     8   8   8   8   8   8   8
#     4  10  20  35  54  76 101 130 167 210 257 311
#     4   9  19  36  55  75 103 141 179 215 258 308
#     4   9  19  37  59  83 114 150 187 226 267 315
#     4  10  20  35  58  88 119 150 184 223 268 316
#     4   9  19  34  52  73  97 128 167 211 261 316
#     4  10  19  30  47  72 103 137 173 215 264 317
#     4  11  22  35  51  72  98 129 167 213 263 311
#
# _framework density 19.761811000000002
#
# number of rings (size 3 to 8) (size 9 to 14) (size 15 to 20)
#    0.000    2.286    0.000    2.571    0.000    5.143 
#    0.000    0.714    0.000    3.429    0.000    0.000 
#    0.000    0.000    0.000    0.000    0.000    0.000 
#
# Total GULP energy -312166.200080 kJ/mol
# GULP energy per Si atom -5574.396430 kJ/mol
# Density = 1.971683 g / cm^3
# Si number density = 19.761811 Si / 1000 Ang^3
#
#
#
# Elastic Constant Matrix: (Units=GPa)
#
#
# Indices 1 2 3 4 5 6 
#
# 1 85.9120 -16.2808 20.6205 0.0000 0.0000 0.0000
# 2 -16.2808 15.3445 -1.4707 0.0000 0.0000 0.0000
# 3 20.6205 -1.4707 54.4676 0.0000 0.0000 0.0000
# 4 0.0000 0.0000 0.0000 29.3145 0.0000 0.0000
# 5 0.0000 0.0000 0.0000 0.0000 26.6918 0.0000
# 6 0.0000 0.0000 0.0000 0.0000 0.0000 15.6272
#
#
#
# Elastic Compliance Matrix: (Units=1/GPa)
#
#
# Indices 1 2 3 4 5 6 
#
# 1 0.016142 0.016584 -0.005663 0.000000 0.000000 0.000000
# 2 0.016584 0.082377 -0.004054 0.000000 0.000000 0.000000
# 3 -0.005663 -0.004054 0.020394 0.000000 0.000000 0.000000
# 4 0.000000 0.000000 0.000000 0.034113 0.000000 0.000000
# 5 0.000000 0.000000 0.000000 0.000000 0.037465 0.000000
# 6 0.000000 0.000000 0.000000 0.000000 0.000000 0.063991
#
#
# Mechanical properties :
#
#
# Convention : Reuss Voigt Hill
#
# Bulk Modulus (GPa) = 7.53884 17.94023 12.73953
# Shear Modulus (GPa) = 17.54609 24.51705 21.03157
#
# Velocity S-wave (km/s) = 2.98296 3.52608 3.26583
# Velocity P-wave (km/s) = 3.96071 5.06710 4.54768
#
# Compressibility (1/GPa) = 0.13264649
#
# Stress axis : x y z
#
# Youngs Moduli (GPa) = 61.95077 12.13928 49.03381
#
# Poissons Ratio (x) = -0.20132 0.27769
# Poissons Ratio (y) = -1.02739 0.19879
# Poissons Ratio (z) = 0.35084 0.04921
#
# Static dielectric constant tensor:
#      x y z
#    x 1.683270 0.000000 0.000000 
#    y 0.000000 1.585030 0.000000 
#    z 0.000000 0.000000 1.696470 
# 
# From -- ./inp_files/8160.got.cif
#   From: 2010.05.17/outbox.cif.g08.bks.cpg/sg57_5_cif.got.tgz:8160.got - 2010.06.03 13:58:18.
