data_PCOD9435972
_publ_section_title
;
Structure prediction by ZEFSAII (Michael W. Deem and Ramdas Pophale) SiO2 
 PCOD9435972
Probable space group: P B C M
;
_chemical_formula_sum "Si O2"
_cell_formula_units_Z 48
_cell_length_a 14.866444
_cell_length_b 8.333529
_cell_length_c 14.702825
_cell_angle_alpha 90.000000
_cell_angle_beta 90.000000
_cell_angle_gamma 90.000000
_cell_volume 1821.532139
_symmetry_space_group_name_H-M "P B C M"
_symmetry_group_IT_number 57
_symmetry_cell_setting 'orthorhombic'
loop_
_space_group_symop_operation_xyz
x,y,z
-x,-y,1/2+z
x,1/2-y,-z
-x,1/2+y,1/2-z
-x,-y,-z
x,y,1/2-z
-x,1/2+y,z
x,1/2-y,1/2+z
loop_
_atom_site_type_symbol
_atom_site_label
_atom_site_fract_x
_atom_site_fract_y
_atom_site_fract_z
Si Si1 0.802047 0.697907 0.397466
Si Si2 0.133537 0.673830 0.362662
Si Si3 0.025984 0.136944 0.855293
Si Si4 0.471673 0.689023 0.360850
Si Si5 0.306189 0.514241 0.355683
Si Si6 0.361370 0.495669 0.639793
O O1 0.813174 0.750000 0.500000
O O2 0.902137 0.715242 0.357722
O O3 0.740691 0.540431 0.389644
O O4 0.739876 0.840984 0.357113
O O5 0.135889 0.677854 0.250000
O O6 0.078746 0.514957 0.392329
O O7 0.234277 0.641296 0.394557
O O8 0.070467 0.817562 0.394867
O O9 0.010789 0.100676 0.750000
O O10 0.481119 0.699709 0.250000
O O11 0.406688 0.540709 0.389438
O O12 0.572015 0.647860 0.391811
O O13 0.414260 0.844000 0.388620
O O14 0.314594 0.556943 0.250000
O O15 0.357461 0.499132 0.750000
#
# Coordination Sequence:
#
# PCOD9435972 Si02
#       6
#     8   8   8   8   8   8
#     4  11  22  35  50  73 104 143 181 213 251 301
#     4   8  15  27  49  75  97 123 161 205 253 299
#     4   9  17  32  52  75 101 132 168 213 259 303
#     4   9  18  32  57  85 105 128 166 211 261 313
#     4   9  17  34  55  76 103 135 168 212 262 310
#     4  10  19  34  55  80 104 131 167 212 259 308
#
# _framework density 26.351441999999999
#
# number of rings (size 3 to 8) (size 9 to 14) (size 15 to 20)
#    0.000    2.667    0.000    3.500    0.000    4.000 
#    0.000   12.500    0.000    0.000    0.000    0.000 
#    0.000    0.000    0.000    0.000    0.000    0.000 
#
# Total GULP energy -268093.389687 kJ/mol
# GULP energy per Si atom -5585.278952 kJ/mol
# Density = 2.629147 g / cm^3
# Si number density = 26.351442 Si / 1000 Ang^3
#
#
#
# Elastic Constant Matrix: (Units=GPa)
#
#
# Indices 1 2 3 4 5 6 
#
# 1 121.4817 2.0173 2.2677 0.0000 0.0000 0.0000
# 2 2.0173 58.2344 1.2486 0.0000 0.0000 0.0000
# 3 2.2677 1.2486 51.1087 0.0000 0.0000 0.0000
# 4 0.0000 0.0000 0.0000 18.7715 0.0000 0.0000
# 5 0.0000 0.0000 0.0000 0.0000 -36.4478 0.0000
# 6 0.0000 0.0000 0.0000 0.0000 0.0000 44.8749
#
#
#
# Elastic Compliance Matrix: (Units=1/GPa)
#
#
# Indices 1 2 3 4 5 6 
#
# 1 0.008243 -0.000278 -0.000359 0.000000 0.000000 0.000000
# 2 -0.000278 0.017190 -0.000408 0.000000 0.000000 0.000000
# 3 -0.000359 -0.000408 0.019592 0.000000 0.000000 0.000000
# 4 0.000000 0.000000 0.000000 0.053272 0.000000 0.000000
# 5 0.000000 0.000000 0.000000 0.000000 -0.027436 0.000000
# 6 0.000000 0.000000 0.000000 0.000000 0.000000 0.022284
#
#
# Mechanical properties :
#
#
# Convention : Reuss Voigt Hill
#
# Bulk Modulus (GPa) = 23.29020 26.87687 25.08354
# Shear Modulus (GPa) = 45.64272 20.45912 33.05092
#
# Velocity S-wave (km/s) = 4.16634 2.78941 3.54536
# Velocity P-wave (km/s) = 5.65703 4.53827 5.12825
#
# Compressibility (1/GPa) = 0.04293651
#
# Stress axis : x y z
#
# Youngs Moduli (GPa) = 121.31496 58.17222 51.04117
#
# Poissons Ratio (x) = 0.01616 0.01832
# Poissons Ratio (y) = 0.03371 0.02081
# Poissons Ratio (z) = 0.04355 0.02371
#
# Static dielectric constant tensor:
#      x y z
#    x 2.048630 0.000000 0.000000 
#    y 0.000000 2.161210 0.000000 
#    z 0.000000 0.000000 2.080120 
# 
# From -- ./inp_files/18974.got.cif
#   From: 2010.05.17/outbox.cif.g08.bks.cpg/sg57_10_cif.got.tgz:18974.got - 2010.06.03 13:58:18.
