data_PCOD9435931
_publ_section_title
;
Structure prediction by ZEFSAII (Michael W. Deem and Ramdas Pophale) SiO2 
 PCOD9435931
Probable space group: P B C M
;
_chemical_formula_sum "Si O2"
_cell_formula_units_Z 64
_cell_length_a 19.400926
_cell_length_b 19.520970
_cell_length_c 9.054827
_cell_angle_alpha 90.000000
_cell_angle_beta 90.000000
_cell_angle_gamma 90.000000
_cell_volume 3429.288400
_symmetry_space_group_name_H-M "P B C M"
_symmetry_group_IT_number 57
_symmetry_cell_setting 'orthorhombic'
loop_
_space_group_symop_operation_xyz
x,y,z
-x,-y,1/2+z
x,1/2-y,-z
-x,1/2+y,1/2-z
-x,-y,-z
x,y,1/2-z
-x,1/2+y,z
x,1/2-y,1/2+z
loop_
_atom_site_type_symbol
_atom_site_label
_atom_site_fract_x
_atom_site_fract_y
_atom_site_fract_z
Si Si1 0.568937 0.470749 0.570405
Si Si2 0.078158 0.085294 0.426558
Si Si3 0.800663 0.675060 0.572653
Si Si4 0.288210 0.453147 0.426515
Si Si5 0.924613 0.434416 0.574950
Si Si6 0.272351 0.686677 0.414498
Si Si7 0.790925 0.071065 0.923831
Si Si8 0.433866 0.685730 0.087050
O O1 0.500000 0.500000 0.500000
O O2 0.567308 0.471049 0.750000
O O3 0.636648 0.516428 0.530426
O O4 0.567737 0.390845 0.522548
O O5 0.091752 0.082051 0.250000
O O6 0.132922 0.134989 0.504687
O O7 0.997218 0.103705 0.447856
O O8 0.077976 0.008824 0.495569
O O9 0.794237 0.750000 0.500000
O O10 0.809017 0.681014 0.750000
O O11 0.734036 0.625510 0.545682
O O12 0.280984 0.464960 0.250000
O O13 0.231368 0.498216 0.511009
O O14 0.915649 0.444341 0.750000
O O15 0.859100 0.399382 0.501352
O O16 0.239104 0.750000 0.500000
O O17 0.244299 0.673624 0.250000
O O18 0.267632 0.621838 0.519917
O O19 0.352891 0.701746 0.395354
O O20 0.798302 0.068376 0.750000
O O21 0.465792 0.682243 0.250000
O O22 0.464720 0.750000 0.000000
#
# Coordination Sequence:
#
# PCOD9435931 Si02
#       8
#     8   8   8   8   8   8   8   8
#     4  10  21  39  60  87 120 156 196 243 301 360
#     4  10  20  35  56  84 114 146 194 245 291 355
#     4  11  23  39  63  87 117 161 205 254 313 363
#     4  10  21  40  61  83 115 155 195 244 306 361
#     4  10  20  34  54  81 116 153 188 238 300 349
#     4  10  19  34  53  77 112 148 184 227 278 338
#     4  12  22  32  54  86 116 150 195 241 287 347
#     4   9  18  33  55  81 112 148 186 230 282 347
#
# _framework density 18.662763000000002
#
# number of rings (size 3 to 8) (size 9 to 14) (size 15 to 20)
#    0.000    1.750    2.500    2.625    0.000    3.500 
#    0.000    1.250    0.000    6.000    0.000    0.000 
#    0.000    0.000    0.000    0.000    0.000    0.000 
#
# Total GULP energy -356366.281428 kJ/mol
# GULP energy per Si atom -5568.223147 kJ/mol
# Density = 1.862029 g / cm^3
# Si number density = 18.662763 Si / 1000 Ang^3
#
#
#
# Elastic Constant Matrix: (Units=GPa)
#
#
# Indices 1 2 3 4 5 6 
#
# 1 86.8853 39.6546 42.6596 0.0000 0.0000 0.0000
# 2 39.6546 127.3680 50.9476 0.0000 0.0000 0.0000
# 3 42.6596 50.9476 70.2815 0.0000 0.0000 0.0000
# 4 0.0000 0.0000 0.0000 26.7930 0.0000 0.0000
# 5 0.0000 0.0000 0.0000 0.0000 8.9879 0.0000
# 6 0.0000 0.0000 0.0000 0.0000 0.0000 0.8252
#
#
#
# Elastic Compliance Matrix: (Units=1/GPa)
#
#
# Indices 1 2 3 4 5 6 
#
# 1 0.016625 -0.001605 -0.008928 0.000000 0.000000 0.000000
# 2 -0.001605 0.011213 -0.007154 0.000000 0.000000 0.000000
# 3 -0.008928 -0.007154 0.024833 0.000000 0.000000 0.000000
# 4 0.000000 0.000000 0.000000 0.037323 0.000000 0.000000
# 5 0.000000 0.000000 0.000000 0.000000 0.111261 0.000000
# 6 0.000000 0.000000 0.000000 0.000000 0.000000 1.211879
#
#
# Mechanical properties :
#
#
# Convention : Reuss Voigt Hill
#
# Bulk Modulus (GPa) = 57.81022 61.22872 59.51947
# Shear Modulus (GPa) = 3.43814 17.40607 10.42211
#
# Velocity S-wave (km/s) = 1.35877 3.05727 2.36571
# Velocity P-wave (km/s) = 5.78836 6.73362 6.27881
#
# Compressibility (1/GPa) = 0.01729798
#
# Stress axis : x y z
#
# Youngs Moduli (GPa) = 60.14892 89.18594 40.26830
#
# Poissons Ratio (x) = 0.14314 0.35951
# Poissons Ratio (y) = 0.09654 0.28807
# Poissons Ratio (z) = 0.53700 0.63802
#
# Static dielectric constant tensor:
#      x y z
#    x 1.711880 0.000000 0.000000 
#    y 0.000000 0.945890 0.000000 
#    z 0.000000 0.000000 1.668880 
# 
# From -- ./inp_files/8760.got.cif
#   From: 2010.05.17/outbox.cif.g08.bks.cpg/sg57_5_cif.got.tgz:8760.got - 2010.06.03 13:58:18.
