data_PCOD9435999
_publ_section_title
;
Structure prediction by ZEFSAII (Michael W. Deem and Ramdas Pophale) SiO2 
 PCOD9435999
Probable space group: P B C M
;
_chemical_formula_sum "Si O2"
_cell_formula_units_Z 48
_cell_length_a 16.176507
_cell_length_b 18.561096
_cell_length_c 8.476978
_cell_angle_alpha 90.000000
_cell_angle_beta 90.000000
_cell_angle_gamma 90.000000
_cell_volume 2545.244004
_symmetry_space_group_name_H-M "P B C M"
_symmetry_group_IT_number 57
_symmetry_cell_setting 'orthorhombic'
loop_
_space_group_symop_operation_xyz
x,y,z
-x,-y,1/2+z
x,1/2-y,-z
-x,1/2+y,1/2-z
-x,-y,-z
x,y,1/2-z
-x,1/2+y,z
x,1/2-y,1/2+z
loop_
_atom_site_type_symbol
_atom_site_label
_atom_site_fract_x
_atom_site_fract_y
_atom_site_fract_z
Si Si1 0.664217 0.669005 0.561081
Si Si2 0.998681 0.917650 0.060847
Si Si3 0.497192 0.081352 0.559388
Si Si4 0.660079 0.168582 0.940993
Si Si5 0.175862 0.413069 0.561299
Si Si6 0.820384 0.419212 0.441935
O O1 0.656463 0.750000 0.500000
O O2 0.663568 0.669856 0.750000
O O3 0.586044 0.621586 0.505724
O O4 0.749118 0.633431 0.503639
O O5 0.994261 0.917227 0.250000
O O6 0.089177 0.888836 0.012094
O O7 0.914194 0.885562 0.993516
O O8 0.000000 0.000000 0.000000
O O9 0.497153 0.080456 0.750000
O O10 0.578392 0.125285 0.507705
O O11 0.500000 0.000000 0.500000
O O12 0.660867 0.168959 0.750000
O O13 0.742663 0.127190 0.996358
O O14 0.658125 0.250000 0.000000
O O15 0.177868 0.412734 0.750000
O O16 0.185619 0.496870 0.508072
O O17 0.818741 0.419991 0.250000
#
# Coordination Sequence:
#
# PCOD9435999 Si02
#       6
#     8   8   8   8   8   8
#     4  11  23  38  55  80 111 145 181 222 271 327
#     4   9  16  29  50  78 109 142 181 228 275 323
#     4  10  22  38  59  84 110 139 177 220 265 316
#     4  10  20  36  54  77 108 142 176 214 260 315
#     4  10  19  34  56  80 105 141 184 230 280 327
#     4   8  16  31  53  77 105 141 180 220 267 316
#
# _framework density 18.858702999999998
#
# number of rings (size 3 to 8) (size 9 to 14) (size 15 to 20)
#    0.000    2.333    0.000    4.000    0.000    3.333 
#    0.000    5.833    0.000    2.000    0.000    0.000 
#    0.000    0.000    0.000    0.000    0.000    0.000 
#
# Total GULP energy -267830.451134 kJ/mol
# GULP energy per Si atom -5579.801065 kJ/mol
# Density = 1.881578 g / cm^3
# Si number density = 18.858703 Si / 1000 Ang^3
#
#
#
# Elastic Constant Matrix: (Units=GPa)
#
#
# Indices 1 2 3 4 5 6 
#
# 1 212.6743 93.8024 36.6248 0.0000 0.0000 0.0000
# 2 93.8024 120.1784 22.3163 0.0000 0.0000 0.0000
# 3 36.6248 22.3163 31.8770 0.0000 0.0000 0.0000
# 4 0.0000 0.0000 0.0000 28.9914 0.0000 0.0000
# 5 0.0000 0.0000 0.0000 0.0000 15.9415 0.0000
# 6 0.0000 0.0000 0.0000 0.0000 0.0000 -9.5208
#
#
#
# Elastic Compliance Matrix: (Units=1/GPa)
#
#
# Indices 1 2 3 4 5 6 
#
# 1 0.007927 -0.005168 -0.005489 0.000000 0.000000 0.000000
# 2 -0.005168 0.012933 -0.003117 0.000000 0.000000 0.000000
# 3 -0.005489 -0.003117 0.039860 0.000000 0.000000 0.000000
# 4 0.000000 0.000000 0.000000 0.034493 0.000000 0.000000
# 5 0.000000 0.000000 0.000000 0.000000 0.062729 0.000000
# 6 0.000000 0.000000 0.000000 0.000000 0.000000 -0.105033
#
#
# Mechanical properties :
#
#
# Convention : Reuss Voigt Hill
#
# Bulk Modulus (GPa) = 30.14642 74.46852 52.30747
# Shear Modulus (GPa) = 54.63651 21.21483 37.92567
#
# Velocity S-wave (km/s) = 5.38836 3.35764 4.48933
# Velocity P-wave (km/s) = 7.39815 7.38952 7.39384
#
# Compressibility (1/GPa) = 0.03317144
#
# Stress axis : x y z
#
# Youngs Moduli (GPa) = 126.15795 77.32054 25.08796
#
# Poissons Ratio (x) = 0.39956 0.13772
# Poissons Ratio (y) = 0.65193 0.07820
# Poissons Ratio (z) = 0.69254 0.24101
#
# Static dielectric constant tensor:
#      x y z
#    x 1.678630 0.000000 0.000000 
#    y 0.000000 1.610990 0.000000 
#    z 0.000000 0.000000 1.647900 
# 
# From -- ./inp_files/4538.got.cif
#   From: 2010.05.17/outbox.cif.g08.bks.cpg/sg57_3_cif.got.tgz:4538.got - 2010.06.03 13:58:18.
