data_PCOD9435533
_publ_section_title
;
Structure prediction by ZEFSAII (Michael W. Deem and Ramdas Pophale) SiO2 
 PCOD9435533
Probable space group: P B C M
;
_chemical_formula_sum "Si O2"
_cell_formula_units_Z 48
_cell_length_a 32.455161
_cell_length_b 9.510369
_cell_length_c 8.626206
_cell_angle_alpha 90.000000
_cell_angle_beta 90.000000
_cell_angle_gamma 90.000000
_cell_volume 2662.569549
_symmetry_space_group_name_H-M "P B C M"
_symmetry_group_IT_number 57
_symmetry_cell_setting 'orthorhombic'
loop_
_space_group_symop_operation_xyz
x,y,z
-x,-y,1/2+z
x,1/2-y,-z
-x,1/2+y,1/2-z
-x,-y,-z
x,y,1/2-z
-x,1/2+y,z
x,1/2-y,1/2+z
loop_
_atom_site_type_symbol
_atom_site_label
_atom_site_fract_x
_atom_site_fract_y
_atom_site_fract_z
Si Si1 0.963117 0.907320 0.064478
Si Si2 0.293034 0.591160 0.936769
Si Si3 0.462083 0.091567 0.063206
Si Si4 0.616672 0.409125 0.062676
Si Si5 0.203270 0.908660 0.436209
Si Si6 0.870986 0.592369 0.935689
O O1 0.965234 0.904120 0.250000
O O2 0.917079 0.959056 0.020152
O O3 0.966982 0.750000 0.000000
O O4 0.000000 0.000000 0.000000
O O5 0.293049 0.593914 0.750000
O O6 0.337864 0.534683 0.985697
O O7 0.248502 0.530587 0.984066
O O8 0.292808 0.750000 0.000000
O O9 0.463721 0.095067 0.250000
O O10 0.420119 0.011517 0.014397
O O11 0.463628 0.250000 0.000000
O O12 0.500000 0.000000 0.000000
O O13 0.615916 0.400610 0.250000
O O14 0.611274 0.250000 0.000000
O O15 0.200695 0.750000 0.500000
O O16 0.201602 0.904971 0.250000
O O17 0.165447 0.997681 0.499339
O O18 0.868732 0.595680 0.750000
O O19 0.866859 0.750000 0.000000
#
# Coordination Sequence:
#
# PCOD9435533 Si02
#       6
#     8   8   8   8   8   8
#     4  10  21  37  57  79 104 135 171 213 259 309
#     4   8  15  29  49  74 103 134 170 211 255 302
#     4  11  23  38  56  78 106 139 175 216 261 310
#     4   9  18  33  54  78 104 135 171 212 258 308
#     4  10  19  32  53  79 107 139 176 218 258 301
#     4  10  21  37  55  76 104 138 174 212 259 312
#
# _framework density 18.027698000000001
#
# number of rings (size 3 to 8) (size 9 to 14) (size 15 to 20)
#    0.000    2.333    0.000    2.500    0.000    6.000 
#    0.000    0.833    0.000    2.000    0.000    0.000 
#    0.000    0.000    0.000    0.000    0.000    0.000 
#
# Total GULP energy -267591.216493 kJ/mol
# GULP energy per Si atom -5574.817010 kJ/mol
# Density = 1.798667 g / cm^3
# Si number density = 18.027698 Si / 1000 Ang^3
#
#
#
# Elastic Constant Matrix: (Units=GPa)
#
#
# Indices 1 2 3 4 5 6 
#
# 1 238.9645 98.1221 55.8099 0.0000 0.0000 0.0000
# 2 98.1221 83.1435 27.3904 0.0000 0.0000 0.0000
# 3 55.8099 27.3904 43.2262 0.0000 0.0000 0.0000
# 4 0.0000 0.0000 0.0000 31.3180 0.0000 0.0000
# 5 0.0000 0.0000 0.0000 0.0000 22.7792 0.0000
# 6 0.0000 0.0000 0.0000 0.0000 0.0000 34.6523
#
#
#
# Elastic Compliance Matrix: (Units=1/GPa)
#
#
# Indices 1 2 3 4 5 6 
#
# 1 0.009342 -0.008912 -0.006415 0.000000 0.000000 0.000000
# 2 -0.008912 0.023702 -0.003512 0.000000 0.000000 0.000000
# 3 -0.006415 -0.003512 0.033642 0.000000 0.000000 0.000000
# 4 0.000000 0.000000 0.000000 0.031930 0.000000 0.000000
# 5 0.000000 0.000000 0.000000 0.000000 0.043900 0.000000
# 6 0.000000 0.000000 0.000000 0.000000 0.000000 0.028858
#
#
# Mechanical properties :
#
#
# Convention : Reuss Voigt Hill
#
# Bulk Modulus (GPa) = 34.47340 80.88658 57.67999
# Shear Modulus (GPa) = 22.85997 30.01735 26.43866
#
# Velocity S-wave (km/s) = 3.56483 4.08495 3.83372
# Velocity P-wave (km/s) = 6.00899 8.19844 7.18757
#
# Compressibility (1/GPa) = 0.02900787
#
# Stress axis : x y z
#
# Youngs Moduli (GPa) = 107.03948 42.19017 29.72473
#
# Poissons Ratio (x) = 0.37600 0.19068
# Poissons Ratio (y) = 0.95395 0.10440
# Poissons Ratio (z) = 0.68664 0.14819
#
# Static dielectric constant tensor:
#      x y z
#    x 1.669180 0.000000 0.000000 
#    y 0.000000 1.511620 0.000000 
#    z 0.000000 0.000000 1.609240 
# 
# From -- ./inp_files/9893.got.cif
#   From: 2010.05.17/outbox.cif.g08.bks.cpg/sg57_5_cif.got.tgz:9893.got - 2010.06.03 13:58:18.
