data_PCOD9435381
_publ_section_title
;
Structure prediction by ZEFSAII (Michael W. Deem and Ramdas Pophale) SiO2 
 PCOD9435381
Probable space group: P B C M
;
_chemical_formula_sum "Si O2"
_cell_formula_units_Z 48
_cell_length_a 14.395108
_cell_length_b 8.089753
_cell_length_c 16.145306
_cell_angle_alpha 90.000000
_cell_angle_beta 90.000000
_cell_angle_gamma 90.000000
_cell_volume 1880.167191
_symmetry_space_group_name_H-M "P B C M"
_symmetry_group_IT_number 57
_symmetry_cell_setting 'orthorhombic'
loop_
_space_group_symop_operation_xyz
x,y,z
-x,-y,1/2+z
x,1/2-y,-z
-x,1/2+y,1/2-z
-x,-y,-z
x,y,1/2-z
-x,1/2+y,z
x,1/2-y,1/2+z
loop_
_atom_site_type_symbol
_atom_site_label
_atom_site_fract_x
_atom_site_fract_y
_atom_site_fract_z
Si Si1 0.025282 0.682419 0.148648
Si Si2 0.521880 0.075961 0.410111
Si Si3 0.187627 0.466697 0.346314
Si Si4 0.853054 0.502273 0.150485
Si Si5 0.703663 0.221714 0.594801
Si Si6 0.641429 0.778485 0.154024
O O1 0.025960 0.677435 0.250000
O O2 0.089979 0.529873 0.118641
O O3 0.081088 0.846597 0.126389
O O4 0.918178 0.655841 0.123816
O O5 0.594582 0.230873 0.405169
O O6 0.422290 0.134854 0.380250
O O7 0.500000 0.000000 0.500000
O O8 0.574942 0.938114 0.357499
O O9 0.171378 0.422088 0.250000
O O10 0.247636 0.637638 0.349372
O O11 0.259327 0.333428 0.383925
O O12 0.846404 0.508336 0.250000
O O13 0.751066 0.451729 0.119328
O O14 0.732505 0.250000 0.500000
O O15 0.658053 0.747737 0.250000
#
# Coordination Sequence:
#
# PCOD9435381 Si02
#       6
#     8   8   8   8   8   8
#     4   8  14  28  50  73  97 128 166 206 257 315
#     4  11  22  38  56  78 110 149 182 216 271 335
#     4   8  16  32  53  75 102 137 174 216 266 317
#     4   9  17  31  52  75 100 134 173 215 261 311
#     4  10  19  32  50  73 102 139 178 214 257 315
#     4  10  20  35  58  84 107 135 179 229 268 309
#
# _framework density 25.529644999999999
#
# number of rings (size 3 to 8) (size 9 to 14) (size 15 to 20)
#    0.000    2.667    0.000    3.500    0.000    2.000 
#    0.000    6.667    0.000   10.000    0.000    0.000 
#    0.000    0.000    0.000    0.000    0.000    0.000 
#
# Total GULP energy -267967.216342 kJ/mol
# GULP energy per Si atom -5582.650340 kJ/mol
# Density = 2.547154 g / cm^3
# Si number density = 25.529645 Si / 1000 Ang^3
#
#
#
# Elastic Constant Matrix: (Units=GPa)
#
#
# Indices 1 2 3 4 5 6 
#
# 1 206.2903 56.0844 6.2223 0.0000 0.0000 0.0000
# 2 56.0844 84.9122 3.9144 0.0000 0.0000 0.0000
# 3 6.2223 3.9144 30.3375 0.0000 0.0000 0.0000
# 4 0.0000 0.0000 0.0000 16.0427 0.0000 0.0000
# 5 0.0000 0.0000 0.0000 0.0000 -3.4509 0.0000
# 6 0.0000 0.0000 0.0000 0.0000 0.0000 68.1857
#
#
#
# Elastic Compliance Matrix: (Units=1/GPa)
#
#
# Indices 1 2 3 4 5 6 
#
# 1 0.005924 -0.003880 -0.000714 0.000000 0.000000 0.000000
# 2 -0.003880 0.014388 -0.001061 0.000000 0.000000 0.000000
# 3 -0.000714 -0.001061 0.033246 0.000000 0.000000 0.000000
# 4 0.000000 0.000000 0.000000 0.062334 0.000000 0.000000
# 5 0.000000 0.000000 0.000000 0.000000 -0.289777 0.000000
# 6 0.000000 0.000000 0.000000 0.000000 0.000000 0.014666
#
#
# Mechanical properties :
#
#
# Convention : Reuss Voigt Hill
#
# Bulk Modulus (GPa) = 23.66963 50.44246 37.05604
# Shear Modulus (GPa) = -37.36185 33.17676 -2.09254
#
# Velocity S-wave (km/s) = -3.82968 3.60882 -0.90633
# Velocity P-wave (km/s) = 3.20371 6.09640 3.66758
#
# Compressibility (1/GPa) = 0.04224824
#
# Stress axis : x y z
#
# Youngs Moduli (GPa) = 168.80802 69.50062 30.07894
#
# Poissons Ratio (x) = 0.26965 0.02149
# Poissons Ratio (y) = 0.65494 0.03191
# Poissons Ratio (z) = 0.12060 0.07372
#
# Static dielectric constant tensor:
#      x y z
#    x 2.062680 0.000000 0.000000 
#    y 0.000000 2.153100 0.000000 
#    z 0.000000 0.000000 1.913870 
# 
# From -- ./inp_files/19048.got.cif
#   From: 2010.05.17/outbox.cif.g08.bks.cpg/sg57_10_cif.got.tgz:19048.got - 2010.06.03 13:58:18.
