data_PCOD9435333
_publ_section_title
;
Structure prediction by ZEFSAII (Michael W. Deem and Ramdas Pophale) SiO2 
 PCOD9435333
Probable space group: P B C M
;
_chemical_formula_sum "Si O2"
_cell_formula_units_Z 56
_cell_length_a 18.432181
_cell_length_b 20.366650
_cell_length_c 8.939876
_cell_angle_alpha 90.000000
_cell_angle_beta 90.000000
_cell_angle_gamma 90.000000
_cell_volume 3356.045356
_symmetry_space_group_name_H-M "P B C M"
_symmetry_group_IT_number 57
_symmetry_cell_setting 'orthorhombic'
loop_
_space_group_symop_operation_xyz
x,y,z
-x,-y,1/2+z
x,1/2-y,-z
-x,1/2+y,1/2-z
-x,-y,-z
x,y,1/2-z
-x,1/2+y,z
x,1/2-y,1/2+z
loop_
_atom_site_type_symbol
_atom_site_label
_atom_site_fract_x
_atom_site_fract_y
_atom_site_fract_z
Si Si1 0.333478 0.440546 0.424090
Si Si2 0.961096 0.936932 0.427791
Si Si3 0.206307 0.890727 0.569393
Si Si4 0.491006 0.072187 0.571237
Si Si5 0.187585 0.464521 0.928047
Si Si6 0.633824 0.402206 0.576486
Si Si7 0.927423 0.318224 0.072352
O O1 0.317620 0.425987 0.250000
O O2 0.409106 0.406034 0.469348
O O3 0.262626 0.430103 0.523099
O O4 0.350503 0.519030 0.431862
O O5 0.952693 0.947296 0.250000
O O6 0.882887 0.929875 0.503948
O O7 0.012672 0.874536 0.451769
O O8 0.000000 0.000000 0.500000
O O9 0.203002 0.895510 0.750000
O O10 0.289247 0.871925 0.528128
O O11 0.146704 0.841652 0.506097
O O12 0.189738 0.962299 0.499465
O O13 0.492852 0.066169 0.750000
O O14 0.560964 0.111861 0.515058
O O15 0.500000 0.000000 0.500000
O O16 0.182341 0.469886 0.750000
O O17 0.620693 0.386630 0.750000
O O18 0.916038 0.311445 0.250000
O O19 0.950856 0.250000 0.000000
#
# Coordination Sequence:
#
# PCOD9435333 Si02
#       7
#     8   8   8   8   8   8   8
#     4   8  15  26  37  55  87 124 159 197 244 290
#     4  11  22  36  55  77 101 131 169 210 255 308
#     4  10  19  32  49  68  96 130 165 207 249 294
#     4   9  15  22  34  53  81 119 157 194 237 285
#     4  11  20  29  46  72  97 127 167 208 253 300
#     4   8  15  25  38  58  84 119 158 195 238 283
#     4  11  24  39  56  77 101 132 169 208 258 311
#
# _framework density 16.686305999999998
#
# number of rings (size 3 to 8) (size 9 to 14) (size 15 to 20)
#    0.000    2.286    1.429    4.714    0.000    8.000 
#    0.000    0.000    0.000    0.000    0.000    0.000 
#    0.000    1.143    0.000    6.286    0.000    6.714 
#
# Total GULP energy -312083.990010 kJ/mol
# GULP energy per Si atom -5572.928393 kJ/mol
# Density = 1.664833 g / cm^3
# Si number density = 16.686306 Si / 1000 Ang^3
#
#
#
# Elastic Constant Matrix: (Units=GPa)
#
#
# Indices 1 2 3 4 5 6 
#
# 1 150.4107 31.8803 78.9440 0.0000 0.0000 0.0000
# 2 31.8803 40.4970 36.8664 0.0000 0.0000 0.0000
# 3 78.9440 36.8664 96.8430 0.0000 0.0000 0.0000
# 4 0.0000 0.0000 0.0000 15.4309 0.0000 0.0000
# 5 0.0000 0.0000 0.0000 0.0000 33.2483 0.0000
# 6 0.0000 0.0000 0.0000 0.0000 0.0000 9.9140
#
#
#
# Elastic Compliance Matrix: (Units=1/GPa)
#
#
# Indices 1 2 3 4 5 6 
#
# 1 0.011637 -0.000804 -0.009180 0.000000 0.000000 0.000000
# 2 -0.000804 0.037845 -0.013752 0.000000 0.000000 0.000000
# 3 -0.009180 -0.013752 0.023045 0.000000 0.000000 0.000000
# 4 0.000000 0.000000 0.000000 0.064805 0.000000 0.000000
# 5 0.000000 0.000000 0.000000 0.000000 0.030077 0.000000
# 6 0.000000 0.000000 0.000000 0.000000 0.000000 0.100867
#
#
# Mechanical properties :
#
#
# Convention : Reuss Voigt Hill
#
# Bulk Modulus (GPa) = 39.91219 64.79247 52.35233
# Shear Modulus (GPa) = 15.42741 21.05598 18.24169
#
# Velocity S-wave (km/s) = 3.04395 3.55614 3.30996
# Velocity P-wave (km/s) = 6.02704 7.46830 6.78604
#
# Compressibility (1/GPa) = 0.02505500
#
# Stress axis : x y z
#
# Youngs Moduli (GPa) = 85.93126 26.42383 43.39414
#
# Poissons Ratio (x) = 0.02124 0.39837
# Poissons Ratio (y) = 0.06907 0.59674
# Poissons Ratio (z) = 0.78888 0.36337
#
# Static dielectric constant tensor:
#      x y z
#    x 1.625910 0.000000 0.000000 
#    y 0.000000 1.542220 0.000000 
#    z 0.000000 0.000000 1.554530 
# 
# From -- ./inp_files/6984.got.cif
#   From: 2010.05.17/outbox.cif.g08.bks.cpg/sg57_4_cif.got.tgz:6984.got - 2010.06.03 13:58:18.
