data_PCOD9435039
_publ_section_title
;
Structure prediction by ZEFSAII (Michael W. Deem and Ramdas Pophale) SiO2 
 PCOD9435039
Probable space group: P B C M
;
_chemical_formula_sum "Si O2"
_cell_formula_units_Z 64
_cell_length_a 15.991556
_cell_length_b 29.414776
_cell_length_c 8.716512
_cell_angle_alpha 90.000000
_cell_angle_beta 90.000000
_cell_angle_gamma 90.000000
_cell_volume 4100.142975
_symmetry_space_group_name_H-M "P B C M"
_symmetry_group_IT_number 57
_symmetry_cell_setting 'orthorhombic'
loop_
_space_group_symop_operation_xyz
x,y,z
-x,-y,1/2+z
x,1/2-y,-z
-x,1/2+y,1/2-z
-x,-y,-z
x,y,1/2-z
-x,1/2+y,z
x,1/2-y,1/2+z
loop_
_atom_site_type_symbol
_atom_site_label
_atom_site_fract_x
_atom_site_fract_y
_atom_site_fract_z
Si Si1 0.655587 0.646664 0.064422
Si Si2 0.596220 0.548660 0.434340
Si Si3 0.662139 0.144547 0.434716
Si Si4 0.496007 0.699245 0.566528
Si Si5 0.995995 0.698948 0.933337
Si Si6 0.598541 0.452511 0.934358
Si Si7 0.817825 0.301239 0.065901
Si Si8 0.175558 0.198948 0.433631
O O1 0.645868 0.649417 0.250000
O O2 0.645951 0.593835 0.019844
O O3 0.744230 0.668902 0.024013
O O4 0.580297 0.674480 0.988649
O O5 0.597431 0.545907 0.250000
O O6 0.498726 0.554285 0.482277
O O7 0.626984 0.500857 0.500484
O O8 0.660031 0.147141 0.250000
O O9 0.583130 0.171970 0.500584
O O10 0.650515 0.091818 0.480941
O O11 0.746110 0.167353 0.496809
O O12 0.494719 0.750000 0.500000
O O13 0.492148 0.700538 0.750000
O O14 0.987702 0.700544 0.750000
O O15 0.088466 0.680662 0.970777
O O16 0.997405 0.750000 0.000000
O O17 0.911715 0.678571 0.004126
O O18 0.599342 0.454825 0.750000
O O19 0.809935 0.298807 0.250000
O O20 0.809730 0.250000 0.000000
O O21 0.185634 0.250000 0.500000
O O22 0.170929 0.202266 0.250000
#
# Coordination Sequence:
#
# PCOD9435039 Si02
#       8
#     8   8   8   8   8   8   8   8
#     4  10  20  35  50  70  98 129 162 199 240 283
#     4   9  17  32  51  69  94 123 156 199 242 283
#     4  11  21  35  51  69  97 129 160 199 240 284
#     4  12  24  35  48  66  94 132 168 199 232 279
#     4   9  17  30  48  68  95 124 157 199 240 279
#     4   9  18  32  50  70  93 122 157 198 242 284
#     4  10  20  33  49  72  98 128 163 199 238 285
#     4  10  19  30  48  70  97 128 162 197 235 282
#
# _framework density 15.609213
#
# number of rings (size 3 to 8) (size 9 to 14) (size 15 to 20)
#    0.000    2.000    1.250    4.125    0.000    5.000 
#    0.000    0.000    0.000    0.000    0.000    0.875 
#    0.000    0.000    0.000    0.000    0.000    0.000 
#
# Total GULP energy -356992.137786 kJ/mol
# GULP energy per Si atom -5578.002153 kJ/mol
# Density = 1.557369 g / cm^3
# Si number density = 15.609213 Si / 1000 Ang^3
#
#
#
# Elastic Constant Matrix: (Units=GPa)
#
#
# Indices 1 2 3 4 5 6 
#
# 1 139.8755 68.1905 49.4462 0.0000 0.0000 0.0000
# 2 68.1905 120.3232 37.4309 0.0000 0.0000 0.0000
# 3 49.4462 37.4309 52.1187 0.0000 0.0000 0.0000
# 4 0.0000 0.0000 0.0000 23.0748 0.0000 0.0000
# 5 0.0000 0.0000 0.0000 0.0000 23.7522 0.0000
# 6 0.0000 0.0000 0.0000 0.0000 0.0000 3.9110
#
#
#
# Elastic Compliance Matrix: (Units=1/GPa)
#
#
# Indices 1 2 3 4 5 6 
#
# 1 0.012265 -0.004289 -0.008555 0.000000 0.000000 0.000000
# 2 -0.004289 0.012202 -0.004694 0.000000 0.000000 0.000000
# 3 -0.008555 -0.004694 0.030675 0.000000 0.000000 0.000000
# 4 0.000000 0.000000 0.000000 0.043337 0.000000 0.000000
# 5 0.000000 0.000000 0.000000 0.000000 0.042101 0.000000
# 6 0.000000 0.000000 0.000000 0.000000 0.000000 0.255687
#
#
# Mechanical properties :
#
#
# Convention : Reuss Voigt Hill
#
# Bulk Modulus (GPa) = 49.83970 69.16142 59.50056
# Shear Modulus (GPa) = 11.41469 20.63092 16.02280
#
# Velocity S-wave (km/s) = 2.70715 3.63948 3.20737
# Velocity P-wave (km/s) = 6.46301 7.87816 7.20541
#
# Compressibility (1/GPa) = 0.02006432
#
# Stress axis : x y z
#
# Youngs Moduli (GPa) = 81.53600 81.95352 32.60027
#
# Poissons Ratio (x) = 0.35152 0.27890
# Poissons Ratio (y) = 0.34973 0.15303
# Poissons Ratio (z) = 0.69755 0.38469
#
# Static dielectric constant tensor:
#      x y z
#    x 1.529230 0.000000 0.000000 
#    y 0.000000 1.500770 0.000000 
#    z 0.000000 0.000000 1.527050 
# 
# From -- ./inp_files/5978.got.cif
#   From: 2010.05.17/outbox.cif.g08.bks.cpg/sg57_3_cif.got.tgz:5978.got - 2010.06.03 13:58:18.
