data_PCOD9435583
_publ_section_title
;
Structure prediction by ZEFSAII (Michael W. Deem and Ramdas Pophale) SiO2 
 PCOD9435583
Probable space group: P B C M
;
_chemical_formula_sum "Si O2"
_cell_formula_units_Z 56
_cell_length_a 18.191538
_cell_length_b 20.186407
_cell_length_c 8.176916
_cell_angle_alpha 90.000000
_cell_angle_beta 90.000000
_cell_angle_gamma 90.000000
_cell_volume 3002.741730
_symmetry_space_group_name_H-M "P B C M"
_symmetry_group_IT_number 57
_symmetry_cell_setting 'orthorhombic'
loop_
_space_group_symop_operation_xyz
x,y,z
-x,-y,1/2+z
x,1/2-y,-z
-x,1/2+y,1/2-z
-x,-y,-z
x,y,1/2-z
-x,1/2+y,z
x,1/2-y,1/2+z
loop_
_atom_site_type_symbol
_atom_site_label
_atom_site_fract_x
_atom_site_fract_y
_atom_site_fract_z
Si Si1 0.141276 0.930834 0.550121
Si Si2 0.532843 0.070285 0.448123
Si Si3 0.277336 0.396464 0.053486
Si Si4 0.582831 0.822945 0.944089
Si Si5 0.887027 0.918307 0.052196
Si Si6 0.978259 0.173527 0.444763
Si Si7 0.694148 0.453657 0.949159
O O1 0.140755 0.931165 0.750000
O O2 0.091066 0.870088 0.492683
O O3 0.226637 0.925741 0.497943
O O4 0.110438 0.003836 0.500782
O O5 0.534025 0.072313 0.250000
O O6 0.476950 0.125565 0.511490
O O7 0.617403 0.077638 0.504592
O O8 0.500000 0.000000 0.500000
O O9 0.276266 0.396028 0.250000
O O10 0.192980 0.391282 0.998683
O O11 0.305876 0.469046 0.001634
O O12 0.335200 0.342906 0.996062
O O13 0.580010 0.826537 0.750000
O O14 0.564768 0.750000 0.000000
O O15 0.889133 0.918375 0.250000
O O16 0.950805 0.870407 0.991196
O O17 0.981114 0.250000 0.500000
O O18 0.973219 0.175074 0.250000
O O19 0.694769 0.451801 0.750000
#
# Coordination Sequence:
#
# PCOD9435583 Si02
#       7
#     8   8   8   8   8   8   8
#     4   8  16  32  55  80 103 132 173 215 259 313
#     4  10  19  32  55  81 104 134 174 216 259 307
#     4   9  17  32  55  78 101 132 166 209 262 314
#     4  11  23  35  49  74 108 144 178 213 258 311
#     4   9  18  34  57  82 104 130 172 217 263 317
#     4  11  22  35  52  75 105 141 176 214 261 310
#     4   8  14  29  54  80 102 128 165 210 260 310
#
# _framework density 18.649622000000001
#
# number of rings (size 3 to 8) (size 9 to 14) (size 15 to 20)
#    0.000    2.571    1.429    3.000    0.000    1.714 
#    0.000    1.429    0.000    3.429    0.000    0.000 
#    0.000    0.000    0.000    0.000    0.000    0.000 
#
# Total GULP energy -312201.931420 kJ/mol
# GULP energy per Si atom -5575.034490 kJ/mol
# Density = 1.860717 g / cm^3
# Si number density = 18.649622 Si / 1000 Ang^3
#
#
#
# Elastic Constant Matrix: (Units=GPa)
#
#
# Indices 1 2 3 4 5 6 
#
# 1 145.1629 92.5592 11.8184 0.0000 0.0000 0.0000
# 2 92.5592 134.3623 13.0289 0.0000 0.0000 0.0000
# 3 11.8184 13.0289 10.0392 0.0000 0.0000 0.0000
# 4 0.0000 0.0000 0.0000 3.9599 0.0000 0.0000
# 5 0.0000 0.0000 0.0000 0.0000 16.3262 0.0000
# 6 0.0000 0.0000 0.0000 0.0000 0.0000 27.2933
#
#
#
# Elastic Compliance Matrix: (Units=1/GPa)
#
#
# Indices 1 2 3 4 5 6 
#
# 1 0.012425 -0.008169 -0.004026 0.000000 0.000000 0.000000
# 2 -0.008169 0.013885 -0.008403 0.000000 0.000000 0.000000
# 3 -0.004026 -0.008403 0.115254 0.000000 0.000000 0.000000
# 4 0.000000 0.000000 0.000000 0.252532 0.000000 0.000000
# 5 0.000000 0.000000 0.000000 0.000000 0.061251 0.000000
# 6 0.000000 0.000000 0.000000 0.000000 0.000000 0.036639
#
#
# Mechanical properties :
#
#
# Convention : Reuss Voigt Hill
#
# Bulk Modulus (GPa) = 9.96321 58.26415 34.11368
# Shear Modulus (GPa) = 8.82397 20.99307 14.90852
#
# Velocity S-wave (km/s) = 2.17755 3.35872 2.83043
# Velocity P-wave (km/s) = 3.41705 6.80813 5.38641
#
# Compressibility (1/GPa) = 0.10036930
#
# Stress axis : x y z
#
# Youngs Moduli (GPa) = 80.47972 72.01999 8.67647
#
# Poissons Ratio (x) = 0.58835 0.03493
# Poissons Ratio (y) = 0.65746 0.07291
# Poissons Ratio (z) = 0.32397 0.60518
#
# Static dielectric constant tensor:
#      x y z
#    x 1.670850 0.000000 0.000000 
#    y 0.000000 1.621090 0.000000 
#    z 0.000000 0.000000 1.636970 
# 
# From -- ./inp_files/7027.got.cif
#   From: 2010.05.17/outbox.cif.g08.bks.cpg/sg57_4_cif.got.tgz:7027.got - 2010.06.03 13:58:18.
