data_PCOD9435287
_publ_section_title
;
Structure prediction by ZEFSAII (Michael W. Deem and Ramdas Pophale) SiO2 
 PCOD9435287
Probable space group: P B C M
;
_chemical_formula_sum "Si O2"
_cell_formula_units_Z 56
_cell_length_a 21.728674
_cell_length_b 14.402724
_cell_length_c 8.263633
_cell_angle_alpha 90.000000
_cell_angle_beta 90.000000
_cell_angle_gamma 90.000000
_cell_volume 2586.121256
_symmetry_space_group_name_H-M "P B C M"
_symmetry_group_IT_number 57
_symmetry_cell_setting 'orthorhombic'
loop_
_space_group_symop_operation_xyz
x,y,z
-x,-y,1/2+z
x,1/2-y,-z
-x,1/2+y,1/2-z
-x,-y,-z
x,y,1/2-z
-x,1/2+y,z
x,1/2-y,1/2+z
loop_
_atom_site_type_symbol
_atom_site_label
_atom_site_fract_x
_atom_site_fract_y
_atom_site_fract_z
Si Si1 0.351513 0.448368 0.554650
Si Si2 0.480996 0.397475 0.554918
Si Si3 0.831601 0.143976 0.059776
Si Si4 0.781625 0.960481 0.941000
Si Si5 0.902042 0.856140 0.057865
Si Si6 0.965145 0.142087 0.554838
Si Si7 0.387755 0.846068 0.555796
O O1 0.351283 0.442891 0.750000
O O2 0.410470 0.388310 0.496274
O O3 0.283589 0.422756 0.494260
O O4 0.362037 0.556534 0.509388
O O5 0.500000 0.500000 0.500000
O O6 0.479983 0.390323 0.750000
O O7 0.540823 0.342887 0.496035
O O8 0.821075 0.141922 0.250000
O O9 0.826035 0.250000 0.000000
O O10 0.901433 0.109449 0.022641
O O11 0.787098 0.070214 0.976149
O O12 0.783060 0.945840 0.750000
O O13 0.841625 0.911635 0.011026
O O14 0.907003 0.854634 0.250000
O O15 0.968344 0.896178 0.999055
O O16 0.896113 0.750000 0.000000
O O17 0.968195 0.250000 0.500000
O O18 0.958958 0.136170 0.750000
O O19 0.357019 0.750000 0.500000
O O20 0.386213 0.850208 0.750000
#
# Coordination Sequence:
#
# PCOD9435287 Si02
#       7
#     8   8   8   8   8   8   8
#     4   9  19  36  55  74 102 139 177 217 262 313
#     4   8  15  30  51  73  96 125 162 203 248 296
#     4  11  22  37  57  81 112 147 185 231 280 334
#     4  11  23  38  57  81 111 150 191 230 275 329
#     4  10  21  38  60  84 110 142 182 232 284 335
#     4   9  17  32  55  81 108 139 178 226 282 335
#     4  10  19  31  52  80 108 136 169 212 260 312
#
# _framework density 21.654048
#
# number of rings (size 3 to 8) (size 9 to 14) (size 15 to 20)
#    0.000    2.286    0.000    3.857    0.000    4.571 
#    0.000    0.714    0.000    1.714    0.000    0.000 
#    0.000    0.000    0.000    0.000    0.000    0.000 
#
# Total GULP energy -312294.946386 kJ/mol
# GULP energy per Si atom -5576.695471 kJ/mol
# Density = 2.160476 g / cm^3
# Si number density = 21.654048 Si / 1000 Ang^3
#
#
#
# Elastic Constant Matrix: (Units=GPa)
#
#
# Indices 1 2 3 4 5 6 
#
# 1 104.1990 -4.2117 -3.6714 0.0000 0.0000 0.0000
# 2 -4.2117 32.0349 -13.5146 0.0000 0.0000 0.0000
# 3 -3.6714 -13.5146 16.2763 0.0000 0.0000 0.0000
# 4 0.0000 0.0000 0.0000 22.1697 0.0000 0.0000
# 5 0.0000 0.0000 0.0000 0.0000 10.8374 0.0000
# 6 0.0000 0.0000 0.0000 0.0000 0.0000 11.8737
#
#
#
# Elastic Compliance Matrix: (Units=1/GPa)
#
#
# Indices 1 2 3 4 5 6 
#
# 1 0.009917 0.003459 0.005109 0.000000 0.000000 0.000000
# 2 0.003459 0.049252 0.041676 0.000000 0.000000 0.000000
# 3 0.005109 0.041676 0.097196 0.000000 0.000000 0.000000
# 4 0.000000 0.000000 0.000000 0.045107 0.000000 0.000000
# 5 0.000000 0.000000 0.000000 0.000000 0.092273 0.000000
# 6 0.000000 0.000000 0.000000 0.000000 0.000000 0.084220
#
#
# Mechanical properties :
#
#
# Convention : Reuss Voigt Hill
#
# Bulk Modulus (GPa) = 3.89328 12.19054 8.04191
# Shear Modulus (GPa) = 13.77053 20.57002 17.17027
#
# Velocity S-wave (km/s) = 2.52451 3.08545 2.81897
# Velocity P-wave (km/s) = 3.20926 4.28197 3.78382
#
# Compressibility (1/GPa) = 0.25685312
#
# Stress axis : x y z
#
# Youngs Moduli (GPa) = 100.83834 20.30360 10.28850
#
# Poissons Ratio (x) = -0.07023 -0.05257
# Poissons Ratio (y) = -0.34882 -0.42878
# Poissons Ratio (z) = -0.51520 -0.84617
#
# Static dielectric constant tensor:
#      x y z
#    x 1.892600 0.000000 0.000000 
#    y 0.000000 1.798870 0.000000 
#    z 0.000000 0.000000 1.759620 
# 
# From -- ./inp_files/8102.got.cif
#   From: 2010.05.17/outbox.cif.g08.bks.cpg/sg57_5_cif.got.tgz:8102.got - 2010.06.03 13:58:18.
