data_PCOD9435304
_publ_section_title
;
Structure prediction by ZEFSAII (Michael W. Deem and Ramdas Pophale) SiO2 
 PCOD9435304
Probable space group: P B C M
;
_chemical_formula_sum "Si O2"
_cell_formula_units_Z 64
_cell_length_a 18.438235
_cell_length_b 22.382367
_cell_length_c 8.491311
_cell_angle_alpha 90.000000
_cell_angle_beta 90.000000
_cell_angle_gamma 90.000000
_cell_volume 3504.290537
_symmetry_space_group_name_H-M "P B C M"
_symmetry_group_IT_number 57
_symmetry_cell_setting 'orthorhombic'
loop_
_space_group_symop_operation_xyz
x,y,z
-x,-y,1/2+z
x,1/2-y,-z
-x,1/2+y,1/2-z
-x,-y,-z
x,y,1/2-z
-x,1/2+y,z
x,1/2-y,1/2+z
loop_
_atom_site_type_symbol
_atom_site_label
_atom_site_fract_x
_atom_site_fract_y
_atom_site_fract_z
Si Si1 0.439271 0.950798 0.559944
Si Si2 0.882044 0.028921 0.059601
Si Si3 0.031790 0.416109 0.937199
Si Si4 0.876756 0.683803 0.562308
Si Si5 0.536754 0.184684 0.566319
Si Si6 0.619775 0.692952 0.431415
Si Si7 0.269128 0.115313 0.570480
Si Si8 0.724659 0.474006 0.569031
O O1 0.442203 0.955238 0.750000
O O2 0.447915 0.880408 0.512569
O O3 0.500000 0.000000 0.500000
O O4 0.356606 0.965329 0.503405
O O5 0.876734 0.029382 0.250000
O O6 0.949776 0.069942 0.009781
O O7 0.802040 0.047313 0.998279
O O8 0.911650 0.963525 0.011321
O O9 0.034580 0.424122 0.750000
O O10 0.056738 0.350932 0.985560
O O11 0.870622 0.750000 0.500000
O O12 0.883616 0.682696 0.750000
O O13 0.804330 0.647231 0.520759
O O14 0.564372 0.250000 0.500000
O O15 0.555571 0.181493 0.750000
O O16 0.450478 0.188957 0.539934
O O17 0.662885 0.750000 0.500000
O O18 0.599568 0.700651 0.250000
O O19 0.667432 0.635023 0.455763
O O20 0.287029 0.134834 0.750000
O O21 0.262288 0.044823 0.573464
O O22 0.720577 0.451159 0.750000
#
# Coordination Sequence:
#
# PCOD9435304 Si02
#       8
#     8   8   8   8   8   8   8   8
#     4  11  22  37  59  88 120 156 195 241 296 351
#     4   9  17  34  56  79 105 139 178 223 274 325
#     4  10  19  31  53  81 108 136 177 224 271 322
#     4  11  22  35  52  73 108 148 187 224 268 327
#     4  11  22  39  60  81 109 146 192 242 294 356
#     4  11  21  33  50  73 101 136 181 228 273 329
#     4  10  19  33  51  73 104 144 182 221 267 323
#     4   9  18  34  56  79 107 143 182 223 276 334
#
# _framework density 18.263327
#
# number of rings (size 3 to 8) (size 9 to 14) (size 15 to 20)
#    0.000    1.750    1.250    5.250    0.000    3.500 
#    0.000    1.875    0.000    0.750    0.000    0.000 
#    0.000    0.000    0.000    0.000    0.000    0.000 
#
# Total GULP energy -356418.495432 kJ/mol
# GULP energy per Si atom -5569.038991 kJ/mol
# Density = 1.822176 g / cm^3
# Si number density = 18.263327 Si / 1000 Ang^3
#
#
#
# Elastic Constant Matrix: (Units=GPa)
#
#
# Indices 1 2 3 4 5 6 
#
# 1 123.5617 45.0619 17.3477 0.0000 0.0000 0.0000
# 2 45.0619 95.0277 12.8876 0.0000 0.0000 0.0000
# 3 17.3477 12.8876 27.6909 0.0000 0.0000 0.0000
# 4 0.0000 0.0000 0.0000 27.7650 0.0000 0.0000
# 5 0.0000 0.0000 0.0000 0.0000 16.2064 0.0000
# 6 0.0000 0.0000 0.0000 0.0000 0.0000 30.4213
#
#
#
# Elastic Compliance Matrix: (Units=1/GPa)
#
#
# Indices 1 2 3 4 5 6 
#
# 1 0.010275 -0.004269 -0.004450 0.000000 0.000000 0.000000
# 2 -0.004269 0.013006 -0.003379 0.000000 0.000000 0.000000
# 3 -0.004450 -0.003379 0.040473 0.000000 0.000000 0.000000
# 4 0.000000 0.000000 0.000000 0.036017 0.000000 0.000000
# 5 0.000000 0.000000 0.000000 0.000000 0.061704 0.000000
# 6 0.000000 0.000000 0.000000 0.000000 0.000000 0.032872
#
#
# Mechanical properties :
#
#
# Convention : Reuss Voigt Hill
#
# Bulk Modulus (GPa) = 25.27895 44.09719 34.68807
# Shear Modulus (GPa) = 21.57710 26.27743 23.92727
#
# Velocity S-wave (km/s) = 3.44094 3.79728 3.62349
# Velocity P-wave (km/s) = 5.44593 6.58964 6.04490
#
# Compressibility (1/GPa) = 0.03955860
#
# Stress axis : x y z
#
# Youngs Moduli (GPa) = 97.32682 76.88958 24.70758
#
# Poissons Ratio (x) = 0.32822 0.10995
# Poissons Ratio (y) = 0.41546 0.08348
# Poissons Ratio (z) = 0.43312 0.25979
#
# Static dielectric constant tensor:
#      x y z
#    x 1.663110 0.000000 0.000000 
#    y 0.000000 1.689990 0.000000 
#    z 0.000000 0.000000 2.139350 
# 
# From -- ./inp_files/7220.got.cif
#   From: 2010.05.17/outbox.cif.g08.bks.cpg/sg57_4_cif.got.tgz:7220.got - 2010.06.03 13:58:18.
