data_PCOD9435505
_publ_section_title
;
Structure prediction by ZEFSAII (Michael W. Deem and Ramdas Pophale) SiO2 
 PCOD9435505
Probable space group: P B C M
;
_chemical_formula_sum "Si O2"
_cell_formula_units_Z 64
_cell_length_a 20.217191
_cell_length_b 21.030818
_cell_length_c 8.777229
_cell_angle_alpha 90.000000
_cell_angle_beta 90.000000
_cell_angle_gamma 90.000000
_cell_volume 3731.937900
_symmetry_space_group_name_H-M "P B C M"
_symmetry_group_IT_number 57
_symmetry_cell_setting 'orthorhombic'
loop_
_space_group_symop_operation_xyz
x,y,z
-x,-y,1/2+z
x,1/2-y,-z
-x,1/2+y,1/2-z
-x,-y,-z
x,y,1/2-z
-x,1/2+y,z
x,1/2-y,1/2+z
loop_
_atom_site_type_symbol
_atom_site_label
_atom_site_fract_x
_atom_site_fract_y
_atom_site_fract_z
Si Si1 0.319945 0.983940 0.067518
Si Si2 0.818763 0.016059 0.432643
Si Si3 0.821545 0.633720 0.568006
Si Si4 0.462570 0.938484 0.066182
Si Si5 0.461585 0.182309 0.066875
Si Si6 0.956419 0.683328 0.432362
Si Si7 0.039335 0.559959 0.065773
Si Si8 0.682059 0.867047 0.933009
O O1 0.315658 0.982175 0.250000
O O2 0.385476 0.946061 0.021884
O O3 0.327985 0.058502 0.024254
O O4 0.250619 0.961213 0.999875
O O5 0.814706 0.018611 0.250000
O O6 0.884181 0.053532 0.482283
O O7 0.827160 0.941365 0.474330
O O8 0.825891 0.639298 0.750000
O O9 0.882495 0.669433 0.491714
O O10 0.749533 0.655579 0.511118
O O11 0.467095 0.939261 0.250000
O O12 0.495668 0.875299 0.000342
O O13 0.500000 0.000000 0.000000
O O14 0.466003 0.181734 0.250000
O O15 0.384640 0.169547 0.024773
O O16 0.482302 0.250000 0.000000
O O17 0.979535 0.750000 0.500000
O O18 0.955731 0.686165 0.250000
O O19 0.003050 0.624698 0.480759
O O20 0.037482 0.556256 0.250000
O O21 0.000000 0.500000 0.000000
O O22 0.690110 0.863999 0.750000
#
# Coordination Sequence:
#
# PCOD9435505 Si02
#       8
#     8   8   8   8   8   8   8   8
#     4   9  18  33  53  80 110 141 178 221 267 320
#     4   9  18  32  52  81 110 136 173 222 269 319
#     4  10  19  32  52  78 109 143 181 221 264 318
#     4  11  21  36  58  84 112 145 185 230 274 326
#     4  11  23  39  56  80 111 148 187 229 277 328
#     4  11  23  37  54  76 107 146 181 221 269 319
#     4  10  20  35  56  81 107 138 178 222 269 317
#     4   9  18  34  52  74 110 148 184 222 265 320
#
# _framework density 17.149267999999999
#
# number of rings (size 3 to 8) (size 9 to 14) (size 15 to 20)
#    0.000    2.000    2.500    1.500    0.000    4.000 
#    0.000    1.250    0.000    0.750    0.000    3.500 
#    0.000    0.000    0.000    0.000    0.000    0.000 
#
# Total GULP energy -357274.141603 kJ/mol
# GULP energy per Si atom -5582.408463 kJ/mol
# Density = 1.711024 g / cm^3
# Si number density = 17.149268 Si / 1000 Ang^3
#
#
#
# Elastic Constant Matrix: (Units=GPa)
#
#
# Indices 1 2 3 4 5 6 
#
# 1 137.6189 71.7878 35.8005 0.0000 0.0000 0.0000
# 2 71.7878 119.2473 37.1682 0.0000 0.0000 0.0000
# 3 35.8005 37.1682 31.7779 0.0000 0.0000 0.0000
# 4 0.0000 0.0000 0.0000 23.5010 0.0000 0.0000
# 5 0.0000 0.0000 0.0000 0.0000 27.4673 0.0000
# 6 0.0000 0.0000 0.0000 0.0000 0.0000 21.7127
#
#
#
# Elastic Compliance Matrix: (Units=1/GPa)
#
#
# Indices 1 2 3 4 5 6 
#
# 1 0.011699 -0.004619 -0.007778 0.000000 0.000000 0.000000
# 2 -0.004619 0.015020 -0.012365 0.000000 0.000000 0.000000
# 3 -0.007778 -0.012365 0.054693 0.000000 0.000000 0.000000
# 4 0.000000 0.000000 0.000000 0.042551 0.000000 0.000000
# 5 0.000000 0.000000 0.000000 0.000000 0.036407 0.000000
# 6 0.000000 0.000000 0.000000 0.000000 0.000000 0.046056
#
#
# Mechanical properties :
#
#
# Convention : Reuss Voigt Hill
#
# Bulk Modulus (GPa) = 31.35813 64.23968 47.79891
# Shear Modulus (GPa) = 18.75610 24.12870 21.44240
#
# Velocity S-wave (km/s) = 3.31070 3.75504 3.53985
# Velocity P-wave (km/s) = 5.73928 7.50606 6.68133
#
# Compressibility (1/GPa) = 0.03188966
#
# Stress axis : x y z
#
# Youngs Moduli (GPa) = 85.47673 66.57609 18.28383
#
# Poissons Ratio (x) = 0.30749 0.14221
# Poissons Ratio (y) = 0.39479 0.22608
# Poissons Ratio (z) = 0.66483 0.82321
#
# Static dielectric constant tensor:
#      x y z
#    x 1.580790 0.000000 0.000000 
#    y 0.000000 1.571400 0.000000 
#    z 0.000000 0.000000 1.572280 
# 
# From -- ./inp_files/8549.got.cif
#   From: 2010.05.17/outbox.cif.g08.bks.cpg/sg57_5_cif.got.tgz:8549.got - 2010.06.03 13:58:18.
