data_PCOD9435715
_publ_section_title
;
Structure prediction by ZEFSAII (Michael W. Deem and Ramdas Pophale) SiO2 
 PCOD9435715
Probable space group: P B C M
;
_chemical_formula_sum "Si O2"
_cell_formula_units_Z 64
_cell_length_a 23.921433
_cell_length_b 15.460898
_cell_length_c 8.802497
_cell_angle_alpha 90.000000
_cell_angle_beta 90.000000
_cell_angle_gamma 90.000000
_cell_volume 3255.575661
_symmetry_space_group_name_H-M "P B C M"
_symmetry_group_IT_number 57
_symmetry_cell_setting 'orthorhombic'
loop_
_space_group_symop_operation_xyz
x,y,z
-x,-y,1/2+z
x,1/2-y,-z
-x,1/2+y,1/2-z
-x,-y,-z
x,y,1/2-z
-x,1/2+y,z
x,1/2-y,1/2+z
loop_
_atom_site_type_symbol
_atom_site_label
_atom_site_fract_x
_atom_site_fract_y
_atom_site_fract_z
Si Si1 0.466736 0.922216 0.423020
Si Si2 0.955142 0.342791 0.933066
Si Si3 0.259926 0.983039 0.568322
Si Si4 0.348411 0.653071 0.565692
Si Si5 0.691607 0.848002 0.568604
Si Si6 0.867423 0.487309 0.568397
Si Si7 0.583404 0.841371 0.075358
Si Si8 0.915262 0.657613 0.431305
O O1 0.455120 0.948237 0.250000
O O2 0.409315 0.884414 0.486247
O O3 0.517444 0.854955 0.425925
O O4 0.500000 0.000000 0.500000
O O5 0.952937 0.338421 0.750000
O O6 0.913420 0.417929 0.984417
O O7 0.019765 0.359100 0.976900
O O8 0.938916 0.250000 0.000000
O O9 0.270040 0.985944 0.750000
O O10 0.301725 0.913827 0.492765
O O11 0.267739 0.079529 0.500154
O O12 0.195697 0.956646 0.540541
O O13 0.341081 0.750000 0.500000
O O14 0.348234 0.657282 0.750000
O O15 0.700331 0.750000 0.500000
O O16 0.695100 0.841974 0.750000
O O17 0.630463 0.890166 0.522119
O O18 0.873803 0.498010 0.750000
O O19 0.878866 0.578901 0.491398
O O20 0.601607 0.846936 0.250000
O O21 0.590467 0.750000 0.000000
O O22 0.898672 0.750000 0.500000
O O23 0.912720 0.662394 0.250000
#
# Coordination Sequence:
#
# PCOD9435715 Si02
#       8
#     8   8   8   8   8   8   8   8
#     4  10  22  36  55  83 113 145 183 230 288 348
#     4   9  19  36  58  87 119 153 190 234 286 343
#     4  11  24  42  61  84 115 155 201 251 299 348
#     4  11  24  43  64  88 119 160 206 252 301 355
#     4  11  22  38  60  86 116 152 193 241 298 362
#     4  10  22  39  59  84 117 153 195 244 293 342
#     4  10  19  33  53  79 107 136 172 217 272 336
#     4  10  20  35  59  89 122 156 191 231 285 348
#
# _framework density 19.658581999999999
#
# number of rings (size 3 to 8) (size 9 to 14) (size 15 to 20)
#    0.000    1.750    0.000    4.875    0.000    7.000 
#    0.000    1.250    0.000    0.000    0.000    0.000 
#    0.000    0.000    0.000    0.000    0.000    0.000 
#
# Total GULP energy -356808.994568 kJ/mol
# GULP energy per Si atom -5575.140540 kJ/mol
# Density = 1.961384 g / cm^3
# Si number density = 19.658582 Si / 1000 Ang^3
#
#
#
# Elastic Constant Matrix: (Units=GPa)
#
#
# Indices 1 2 3 4 5 6 
#
# 1 56.3578 39.5469 26.3385 0.0000 0.0000 0.0000
# 2 39.5469 104.8015 30.8600 0.0000 0.0000 0.0000
# 3 26.3385 30.8600 55.6453 0.0000 0.0000 0.0000
# 4 0.0000 0.0000 0.0000 33.6152 0.0000 0.0000
# 5 0.0000 0.0000 0.0000 0.0000 25.2163 0.0000
# 6 0.0000 0.0000 0.0000 0.0000 0.0000 10.9969
#
#
#
# Elastic Compliance Matrix: (Units=1/GPa)
#
#
# Indices 1 2 3 4 5 6 
#
# 1 0.027176 -0.007729 -0.008576 0.000000 0.000000 0.000000
# 2 -0.007729 0.013603 -0.003885 0.000000 0.000000 0.000000
# 3 -0.008576 -0.003885 0.024185 0.000000 0.000000 0.000000
# 4 0.000000 0.000000 0.000000 0.029748 0.000000 0.000000
# 5 0.000000 0.000000 0.000000 0.000000 0.039657 0.000000
# 6 0.000000 0.000000 0.000000 0.000000 0.000000 0.090935
#
#
# Mechanical properties :
#
#
# Convention : Reuss Voigt Hill
#
# Bulk Modulus (GPa) = 40.68128 45.58838 43.13483
# Shear Modulus (GPa) = 18.25620 21.96962 20.11291
#
# Velocity S-wave (km/s) = 3.05070 3.34662 3.20208
# Velocity P-wave (km/s) = 5.75742 6.17847 5.97166
#
# Compressibility (1/GPa) = 0.02458133
#
# Stress axis : x y z
#
# Youngs Moduli (GPa) = 36.79761 73.51542 41.34766
#
# Poissons Ratio (x) = 0.56823 0.35462
# Poissons Ratio (y) = 0.28442 0.16065
# Poissons Ratio (z) = 0.31559 0.28563
#
# Static dielectric constant tensor:
#      x y z
#    x 1.134440 0.000000 0.000000 
#    y 0.000000 1.596770 0.000000 
#    z 0.000000 0.000000 1.671790 
# 
# From -- ./inp_files/9508.got.cif
#   From: 2010.05.17/outbox.cif.g08.bks.cpg/sg57_5_cif.got.tgz:9508.got - 2010.06.03 13:58:18.
