data_PCOD9435837
_publ_section_title
;
Structure prediction by ZEFSAII (Michael W. Deem and Ramdas Pophale) SiO2 
 PCOD9435837
Probable space group: P B C M
;
_chemical_formula_sum "Si O2"
_cell_formula_units_Z 40
_cell_length_a 17.100870
_cell_length_b 10.453664
_cell_length_c 10.178061
_cell_angle_alpha 90.000000
_cell_angle_beta 90.000000
_cell_angle_gamma 90.000000
_cell_volume 1819.498877
_symmetry_space_group_name_H-M "P B C M"
_symmetry_group_IT_number 57
_symmetry_cell_setting 'orthorhombic'
loop_
_space_group_symop_operation_xyz
x,y,z
-x,-y,1/2+z
x,1/2-y,-z
-x,1/2+y,1/2-z
-x,-y,-z
x,y,1/2-z
-x,1/2+y,z
x,1/2-y,1/2+z
loop_
_atom_site_type_symbol
_atom_site_label
_atom_site_fract_x
_atom_site_fract_y
_atom_site_fract_z
Si Si1 0.916504 0.640862 0.900918
Si Si2 0.667185 0.609789 0.018805
Si Si3 0.735112 0.152928 0.893693
Si Si4 0.905529 0.078830 0.892917
Si Si5 0.418983 0.053743 0.750000
Si Si6 0.544071 0.664543 0.250000
O O1 0.887376 0.644384 0.750000
O O2 0.011288 0.648806 0.894627
O O3 0.888264 0.750000 0.000000
O O4 0.900683 0.509572 0.978817
O O5 0.719273 0.495147 0.073291
O O6 0.596995 0.633099 0.122418
O O7 0.704845 0.750000 0.000000
O O8 0.633366 0.564493 0.879733
O O9 0.702643 0.181297 0.750000
O O10 0.828942 0.165401 0.889668
O O11 0.701954 0.250000 0.000000
O O12 0.904971 0.006309 0.750000
O O13 0.471574 0.183531 0.750000
O O14 0.470170 0.927041 0.750000
#
# Coordination Sequence:
#
# PCOD9435837 Si02
#       6
#     8   8   8   8   4   4
#     4  10  19  33  55  82 111 147 195 247 305 367
#     4  10  22  41  62  89 125 165 203 248 301 358
#     4  11  24  41  62  89 123 162 206 254 305 362
#     4   9  20  37  55  79 113 152 195 249 304 358
#     4  10  22  36  64  92 124 157 200 245 302 361
#     4  10  20  40  62  92 122 159 198 249 302 355
#
# _framework density 21.984075000000001
#
# number of rings (size 3 to 8) (size 9 to 14) (size 15 to 20)
#    0.000    2.000    1.000    1.800    1.400    4.000 
#    0.000    0.000    0.000    0.000    0.000    0.000 
#    0.000    0.000    0.000    0.000    0.000    0.000 
#
# Total GULP energy -223327.291165 kJ/mol
# GULP energy per Si atom -5583.182279 kJ/mol
# Density = 2.193404 g / cm^3
# Si number density = 21.984075 Si / 1000 Ang^3
#
#
#
# Elastic Constant Matrix: (Units=GPa)
#
#
# Indices 1 2 3 4 5 6 
#
# 1 29.9600 9.2707 12.9394 0.0000 0.0000 0.0000
# 2 9.2707 66.8500 45.4102 0.0000 0.0000 0.0000
# 3 12.9394 45.4102 214.5971 0.0000 0.0000 0.0000
# 4 0.0000 0.0000 0.0000 29.8203 0.0000 0.0000
# 5 0.0000 0.0000 0.0000 0.0000 35.0793 0.0000
# 6 0.0000 0.0000 0.0000 0.0000 0.0000 -1.4907
#
#
#
# Elastic Compliance Matrix: (Units=1/GPa)
#
#
# Indices 1 2 3 4 5 6 
#
# 1 0.035169 -0.004014 -0.001271 0.000000 0.000000 0.000000
# 2 -0.004014 0.017928 -0.003552 0.000000 0.000000 0.000000
# 3 -0.001271 -0.003552 0.005488 0.000000 0.000000 0.000000
# 4 0.000000 0.000000 0.000000 0.033534 0.000000 0.000000
# 5 0.000000 0.000000 0.000000 0.000000 0.028507 0.000000
# 6 0.000000 0.000000 0.000000 0.000000 0.000000 -0.670832
#
#
# Mechanical properties :
#
#
# Convention : Reuss Voigt Hill
#
# Bulk Modulus (GPa) = 24.44276 49.62751 37.03514
# Shear Modulus (GPa) = -9.63586 28.93423 9.64918
#
# Velocity S-wave (km/s) = -2.09586 3.63181 2.09731
# Velocity P-wave (km/s) = 2.29906 6.34114 4.76947
#
# Compressibility (1/GPa) = 0.04091192
#
# Stress axis : x y z
#
# Youngs Moduli (GPa) = 28.43422 55.77845 182.21216
#
# Poissons Ratio (x) = 0.22387 0.23164
# Poissons Ratio (y) = 0.11412 0.64716
# Poissons Ratio (z) = 0.03615 0.19811
#
# Static dielectric constant tensor:
#      x y z
#    x 1.793840 0.000000 0.000000 
#    y 0.000000 1.807730 0.000000 
#    z 0.000000 0.000000 1.823680 
# 
# From -- ./inp_files/6284.got.cif
#   From: 2010.05.17/outbox.cif.g08.bks.cpg/sg57_4_cif.got.tgz:6284.got - 2010.06.03 13:58:18.
