data_PCOD9435828
_publ_section_title
;
Structure prediction by ZEFSAII (Michael W. Deem and Ramdas Pophale) SiO2 
 PCOD9435828
Probable space group: P B C M
;
_chemical_formula_sum "Si O2"
_cell_formula_units_Z 64
_cell_length_a 11.904294
_cell_length_b 16.751241
_cell_length_c 18.337626
_cell_angle_alpha 90.000000
_cell_angle_beta 90.000000
_cell_angle_gamma 90.000000
_cell_volume 3656.737133
_symmetry_space_group_name_H-M "P B C M"
_symmetry_group_IT_number 57
_symmetry_cell_setting 'orthorhombic'
loop_
_space_group_symop_operation_xyz
x,y,z
-x,-y,1/2+z
x,1/2-y,-z
-x,1/2+y,1/2-z
-x,-y,-z
x,y,1/2-z
-x,1/2+y,z
x,1/2-y,1/2+z
loop_
_atom_site_type_symbol
_atom_site_label
_atom_site_fract_x
_atom_site_fract_y
_atom_site_fract_z
Si Si1 0.214829 0.907587 0.930300
Si Si2 0.202622 0.746543 0.334281
Si Si3 0.452963 0.588406 0.989562
Si Si4 0.951613 0.329430 0.454475
Si Si5 0.813992 0.909539 0.076435
Si Si6 0.563571 0.339375 0.332011
Si Si7 0.313535 0.226600 0.667174
Si Si8 0.677541 0.833014 0.541061
O O1 0.205080 0.842519 0.866552
O O2 0.196009 0.997902 0.903892
O O3 0.336725 0.900686 0.968078
O O4 0.124399 0.882561 0.991706
O O5 0.166931 0.748507 0.250000
O O6 0.122522 0.798432 0.386744
O O7 0.327967 0.783035 0.338593
O O8 0.437744 0.605106 0.903399
O O9 0.500000 0.500000 0.000000
O O10 0.549065 0.645235 0.023520
O O11 0.986387 0.250000 0.500000
O O12 0.059889 0.377907 0.429221
O O13 0.746363 0.849406 0.129410
O O14 0.755091 0.898640 0.997051
O O15 0.567512 0.376621 0.250000
O O16 0.446785 0.291190 0.335597
O O17 0.276308 0.232812 0.750000
O O18 0.295946 0.308788 0.623336
O O19 0.701952 0.750000 0.500000
#
# Coordination Sequence:
#
# PCOD9435828 Si02
#       8
#     8   8   8   8   8   8   8   8
#     4  11  22  35  59  86 114 147 188 242 288 337
#     4  10  22  38  58  85 112 146 193 237 283 341
#     4  12  20  35  58  89 114 151 193 234 289 345
#     4  10  21  37  60  82 107 147 196 239 281 337
#     4  11  21  37  55  85 116 149 188 240 288 333
#     4  10  19  35  57  83 115 148 185 235 289 341
#     4  10  20  34  55  82 112 152 191 229 283 341
#     4  10  19  33  55  79 112 149 191 234 272 339
#
# _framework density 17.501940999999999
#
# number of rings (size 3 to 8) (size 9 to 14) (size 15 to 20)
#    0.000    1.500    5.000    2.250    0.000    1.000 
#    0.000    1.250    0.000    0.750    0.000    0.000 
#    0.000    0.000    0.000    0.000    0.000    0.000 
#
# Total GULP energy -357021.462824 kJ/mol
# GULP energy per Si atom -5578.460357 kJ/mol
# Density = 1.746211 g / cm^3
# Si number density = 17.501941 Si / 1000 Ang^3
#
#
#
# Elastic Constant Matrix: (Units=GPa)
#
#
# Indices 1 2 3 4 5 6 
#
# 1 85.6832 24.8468 25.9370 0.0000 0.0000 0.0000
# 2 24.8468 72.7451 48.7416 0.0000 0.0000 0.0000
# 3 25.9370 48.7416 131.2899 0.0000 0.0000 0.0000
# 4 0.0000 0.0000 0.0000 17.0597 0.0000 0.0000
# 5 0.0000 0.0000 0.0000 0.0000 4.4101 0.0000
# 6 0.0000 0.0000 0.0000 0.0000 0.0000 26.5637
#
#
#
# Elastic Compliance Matrix: (Units=1/GPa)
#
#
# Indices 1 2 3 4 5 6 
#
# 1 0.013102 -0.003648 -0.001234 0.000000 0.000000 0.000000
# 2 -0.003648 0.019314 -0.006450 0.000000 0.000000 0.000000
# 3 -0.001234 -0.006450 0.010255 0.000000 0.000000 0.000000
# 4 0.000000 0.000000 0.000000 0.058618 0.000000 0.000000
# 5 0.000000 0.000000 0.000000 0.000000 0.226750 0.000000
# 6 0.000000 0.000000 0.000000 0.000000 0.000000 0.037645
#
#
# Mechanical properties :
#
#
# Convention : Reuss Voigt Hill
#
# Bulk Modulus (GPa) = 49.98136 54.30767 52.14451
# Shear Modulus (GPa) = 12.65766 22.28624 17.47195
#
# Velocity S-wave (km/s) = 2.69218 3.57229 3.16299
# Velocity P-wave (km/s) = 6.18736 6.93627 6.57249
#
# Compressibility (1/GPa) = 0.02000746
#
# Stress axis : x y z
#
# Youngs Moduli (GPa) = 76.32173 51.77506 97.51367
#
# Poissons Ratio (x) = 0.18890 0.12033
# Poissons Ratio (y) = 0.27846 0.62893
# Poissons Ratio (z) = 0.09418 0.33393
#
# Static dielectric constant tensor:
#      x y z
#    x 1.592210 0.000000 0.000000 
#    y 0.000000 1.580130 0.000000 
#    z 0.000000 0.000000 1.623180 
# 
# From -- ./inp_files/22058.got.cif
#   From: 2010.05.17/outbox.cif.g08.bks.cpg/sg57_12_cif.got.tgz:22058.got - 2010.06.03 13:58:18.
