data_PCOD9435190
_publ_section_title
;
Structure prediction by ZEFSAII (Michael W. Deem and Ramdas Pophale) SiO2 
 PCOD9435190
Probable space group: P B C M
;
_chemical_formula_sum "Si O2"
_cell_formula_units_Z 48
_cell_length_a 24.236864
_cell_length_b 14.066267
_cell_length_c 8.746365
_cell_angle_alpha 90.000000
_cell_angle_beta 90.000000
_cell_angle_gamma 90.000000
_cell_volume 2981.830000
_symmetry_space_group_name_H-M "P B C M"
_symmetry_group_IT_number 57
_symmetry_cell_setting 'orthorhombic'
loop_
_space_group_symop_operation_xyz
x,y,z
-x,-y,1/2+z
x,1/2-y,-z
-x,1/2+y,1/2-z
-x,-y,-z
x,y,1/2-z
-x,1/2+y,z
x,1/2-y,1/2+z
loop_
_atom_site_type_symbol
_atom_site_label
_atom_site_fract_x
_atom_site_fract_y
_atom_site_fract_z
Si Si1 0.526145 0.854948 0.932847
Si Si2 0.413518 0.966732 0.932702
Si Si3 0.688322 0.355245 0.067226
Si Si4 0.975097 0.645833 0.067413
Si Si5 0.807323 0.354824 0.565858
Si Si6 0.084275 0.530356 0.433939
O O1 0.532514 0.853571 0.750000
O O2 0.465037 0.896466 0.967567
O O3 0.532206 0.750000 0.000000
O O4 0.568465 0.930380 0.005324
O O5 0.406577 0.969630 0.750000
O O6 0.359151 0.925734 0.011182
O O7 0.689951 0.349817 0.250000
O O8 0.676765 0.250000 0.000000
O O9 0.748270 0.383742 0.002513
O O10 0.973478 0.650105 0.250000
O O11 0.034834 0.602422 0.021177
O O12 0.967648 0.750000 0.000000
O O13 0.930363 0.570328 0.007849
O O14 0.819572 0.250000 0.500000
O O15 0.803579 0.349260 0.750000
O O16 0.856961 0.425284 0.523984
O O17 0.082438 0.520757 0.250000
#
# Coordination Sequence:
#
# PCOD9435190 Si02
#       6
#     8   8   8   8   8   8
#     4  10  20  33  51  75 102 132 165 202 244 290
#     4  10  20  34  52  74 101 132 166 203 244 289
#     4  11  21  33  50  73 101 131 165 202 244 292
#     4  10  19  31  49  72  99 129 161 199 241 287
#     4  10  19  32  50  72  99 129 162 200 243 289
#     4   9  19  33  49  71  98 129 163 199 240 287
#
# _framework density 16.097497000000001
#
# number of rings (size 3 to 8) (size 9 to 14) (size 15 to 20)
#    0.000    2.000    0.000    5.500    0.000    5.333 
#    0.000    0.000    0.000    1.000    0.000    2.333 
#    0.000    0.000    0.000    0.000    0.000    0.000 
#
# Total GULP energy -267990.613482 kJ/mol
# GULP energy per Si atom -5583.137781 kJ/mol
# Density = 1.606086 g / cm^3
# Si number density = 16.097497 Si / 1000 Ang^3
#
#
#
# Elastic Constant Matrix: (Units=GPa)
#
#
# Indices 1 2 3 4 5 6 
#
# 1 123.5430 93.3609 61.6829 0.0000 0.0000 0.0000
# 2 93.3609 149.6947 61.9684 0.0000 0.0000 0.0000
# 3 61.6829 61.9684 78.4587 0.0000 0.0000 0.0000
# 4 0.0000 0.0000 0.0000 30.4830 0.0000 0.0000
# 5 0.0000 0.0000 0.0000 0.0000 23.9566 0.0000
# 6 0.0000 0.0000 0.0000 0.0000 0.0000 23.4251
#
#
#
# Elastic Compliance Matrix: (Units=1/GPa)
#
#
# Indices 1 2 3 4 5 6 
#
# 1 0.018094 -0.008017 -0.007893 0.000000 0.000000 0.000000
# 2 -0.008017 0.013478 -0.004342 0.000000 0.000000 0.000000
# 3 -0.007893 -0.004342 0.022380 0.000000 0.000000 0.000000
# 4 0.000000 0.000000 0.000000 0.032805 0.000000 0.000000
# 5 0.000000 0.000000 0.000000 0.000000 0.041742 0.000000
# 6 0.000000 0.000000 0.000000 0.000000 0.000000 0.042689
#
#
# Mechanical properties :
#
#
# Convention : Reuss Voigt Hill
#
# Bulk Modulus (GPa) = 74.36292 87.30230 80.83261
# Shear Modulus (GPa) = 23.12941 24.55189 23.84065
#
# Velocity S-wave (km/s) = 3.79467 3.90962 3.85257
# Velocity P-wave (km/s) = 8.09290 8.64473 8.37336
#
# Compressibility (1/GPa) = 0.01344756
#
# Stress axis : x y z
#
# Youngs Moduli (GPa) = 55.26800 74.19544 44.68240
#
# Poissons Ratio (x) = 0.59484 0.35267
# Poissons Ratio (y) = 0.44310 0.19402
# Poissons Ratio (z) = 0.43621 0.32217
#
# Static dielectric constant tensor:
#      x y z
#    x 1.529330 0.000000 0.000000 
#    y 0.000000 1.507820 0.000000 
#    z 0.000000 0.000000 1.535500 
# 
# From -- ./inp_files/9104.got.cif
#   From: 2010.05.17/outbox.cif.g08.bks.cpg/sg57_5_cif.got.tgz:9104.got - 2010.06.03 13:58:18.
