data_PCOD9435540
_publ_section_title
;
Structure prediction by ZEFSAII (Michael W. Deem and Ramdas Pophale) SiO2 
 PCOD9435540
Probable space group: P B C M
;
_chemical_formula_sum "Si O2"
_cell_formula_units_Z 64
_cell_length_a 27.364304
_cell_length_b 11.970230
_cell_length_c 9.443404
_cell_angle_alpha 90.000000
_cell_angle_beta 90.000000
_cell_angle_gamma 90.000000
_cell_volume 3093.253204
_symmetry_space_group_name_H-M "P B C M"
_symmetry_group_IT_number 57
_symmetry_cell_setting 'orthorhombic'
loop_
_space_group_symop_operation_xyz
x,y,z
-x,-y,1/2+z
x,1/2-y,-z
-x,1/2+y,1/2-z
-x,-y,-z
x,y,1/2-z
-x,1/2+y,z
x,1/2-y,1/2+z
loop_
_atom_site_type_symbol
_atom_site_label
_atom_site_fract_x
_atom_site_fract_y
_atom_site_fract_z
Si Si1 0.008864 0.371997 0.578223
Si Si2 0.493610 0.344240 0.092323
Si Si3 0.358014 0.860514 0.585476
Si Si4 0.750944 0.064140 0.408093
Si Si5 0.421479 0.028099 0.410934
Si Si6 0.882237 0.933744 0.909706
Si Si7 0.772916 0.644715 0.412981
Si Si8 0.859567 0.355350 0.912803
O O1 0.993485 0.250000 0.500000
O O2 0.994324 0.375519 0.750000
O O3 0.067865 0.366974 0.578897
O O4 0.000000 0.500000 0.500000
O O5 0.482491 0.305364 0.250000
O O6 0.532129 0.444289 0.101436
O O7 0.518725 0.250000 0.000000
O O8 0.444835 0.376546 0.007907
O O9 0.371422 0.750000 0.500000
O O10 0.374721 0.858833 0.750000
O O11 0.299207 0.869181 0.586308
O O12 0.380213 0.964253 0.499449
O O13 0.754512 0.012613 0.250000
O O14 0.800649 0.133555 0.425978
O O15 0.751349 0.968330 0.524118
O O16 0.406914 0.057619 0.250000
O O17 0.879884 0.982706 0.750000
O O18 0.831878 0.866628 0.927913
O O19 0.881490 0.032712 0.022475
O O20 0.755330 0.750000 0.500000
O O21 0.761109 0.657122 0.250000
O O22 0.871897 0.343529 0.750000
O O23 0.876611 0.250000 0.000000
#
# Coordination Sequence:
#
# PCOD9435540 Si02
#       8
#     8   8   8   8   8   8   8   8
#     4  11  24  43  66  92 124 162 205 252 304 363
#     4  10  20  35  56  80 107 138 172 215 266 316
#     4  11  22  36  55  78 107 141 177 217 262 314
#     4   9  20  36  52  75 107 143 182 223 268 321
#     4  10  21  36  55  80 108 138 176 218 261 314
#     4   9  20  37  57  83 113 147 189 236 286 342
#     4  10  19  33  56  82 108 139 176 222 273 324
#     4  10  19  32  53  80 112 149 189 235 286 339
#
# _framework density 20.690190000000001
#
# number of rings (size 3 to 8) (size 9 to 14) (size 15 to 20)
#    0.000    2.000    0.000    3.375    0.000    6.000 
#    0.000    0.625    0.000    3.000    0.000    0.000 
#    0.000    0.000    0.000    0.000    0.000    0.000 
#
# Total GULP energy -356678.116078 kJ/mol
# GULP energy per Si atom -5573.095564 kJ/mol
# Density = 2.064310 g / cm^3
# Si number density = 20.690190 Si / 1000 Ang^3
#
#
#
# Elastic Constant Matrix: (Units=GPa)
#
#
# Indices 1 2 3 4 5 6 
#
# 1 66.1135 2.9555 17.1079 0.0000 0.0000 0.0000
# 2 2.9555 71.6196 78.6137 0.0000 0.0000 0.0000
# 3 17.1079 78.6137 180.8837 0.0000 0.0000 0.0000
# 4 0.0000 0.0000 0.0000 36.7470 0.0000 0.0000
# 5 0.0000 0.0000 0.0000 0.0000 19.2303 0.0000
# 6 0.0000 0.0000 0.0000 0.0000 0.0000 4.7426
#
#
#
# Elastic Compliance Matrix: (Units=1/GPa)
#
#
# Indices 1 2 3 4 5 6 
#
# 1 0.015635 0.001870 -0.002291 0.000000 0.000000 0.000000
# 2 0.001870 0.026924 -0.011878 0.000000 0.000000 0.000000
# 3 -0.002291 -0.011878 0.010907 0.000000 0.000000 0.000000
# 4 0.000000 0.000000 0.000000 0.027213 0.000000 0.000000
# 5 0.000000 0.000000 0.000000 0.000000 0.052001 0.000000
# 6 0.000000 0.000000 0.000000 0.000000 0.000000 0.210856
#
#
# Mechanical properties :
#
#
# Convention : Reuss Voigt Hill
#
# Bulk Modulus (GPa) = 34.64181 57.33011 45.98596
# Shear Modulus (GPa) = 13.23599 26.80659 20.02129
#
# Velocity S-wave (km/s) = 2.53202 3.60338 3.11412
# Velocity P-wave (km/s) = 5.03265 6.71427 5.93334
#
# Compressibility (1/GPa) = 0.02886685
#
# Stress axis : x y z
#
# Youngs Moduli (GPa) = 63.95958 37.14222 91.68031
#
# Poissons Ratio (x) = -0.06946 0.21008
# Poissons Ratio (y) = -0.11961 1.08899
# Poissons Ratio (z) = 0.14656 0.44118
#
# Static dielectric constant tensor:
#      x y z
#    x 1.740170 0.000000 0.000000 
#    y 0.000000 1.890820 0.000000 
#    z 0.000000 0.000000 1.734920 
# 
# From -- ./inp_files/10290.got.cif
#   From: 2010.05.17/outbox.cif.g08.bks.cpg/sg57_6_cif.got.tgz:10290.got - 2010.06.03 13:58:18.
