data_PCOD9435840
_publ_section_title
;
Structure prediction by ZEFSAII (Michael W. Deem and Ramdas Pophale) SiO2 
 PCOD9435840
Probable space group: P B C M
;
_chemical_formula_sum "Si O2"
_cell_formula_units_Z 64
_cell_length_a 10.519783
_cell_length_b 19.475698
_cell_length_c 17.899355
_cell_angle_alpha 90.000000
_cell_angle_beta 90.000000
_cell_angle_gamma 90.000000
_cell_volume 3667.221942
_symmetry_space_group_name_H-M "P B C M"
_symmetry_group_IT_number 57
_symmetry_cell_setting 'orthorhombic'
loop_
_space_group_symop_operation_xyz
x,y,z
-x,-y,1/2+z
x,1/2-y,-z
-x,1/2+y,1/2-z
-x,-y,-z
x,y,1/2-z
-x,1/2+y,z
x,1/2-y,1/2+z
loop_
_atom_site_type_symbol
_atom_site_label
_atom_site_fract_x
_atom_site_fract_y
_atom_site_fract_z
Si Si1 0.755583 0.140307 0.659651
Si Si2 0.358828 0.482354 0.091267
Si Si3 0.540407 0.652752 0.660914
Si Si4 0.237130 0.792382 0.660134
Si Si5 0.495546 0.286262 0.920887
Si Si6 0.386221 0.436346 0.922118
Si Si7 0.148371 0.005448 0.159860
Si Si8 0.876153 0.064158 0.159882
O O1 0.757129 0.137892 0.750000
O O2 0.606759 0.137856 0.637096
O O3 0.806402 0.215538 0.638087
O O4 0.829053 0.073050 0.633071
O O5 0.374663 0.408455 0.129939
O O6 0.486484 0.526143 0.107650
O O7 0.236785 0.522283 0.121050
O O8 0.355848 0.469217 0.002710
O O9 0.543845 0.653845 0.750000
O O10 0.571619 0.727637 0.628803
O O11 0.258890 0.791774 0.750000
O O12 0.371503 0.803809 0.619497
O O13 0.144348 0.855220 0.643180
O O14 0.417574 0.356035 0.930270
O O15 0.520600 0.250000 0.000000
O O16 0.267131 0.451104 0.869506
O O17 0.150395 0.005432 0.250000
O O18 0.013357 0.036133 0.136253
O O19 0.864841 0.055923 0.250000
#
# Coordination Sequence:
#
# PCOD9435840 Si02
#       8
#     8   8   8   8   8   8   8   8
#     4   8  15  30  53  79 106 140 187 231 276 330
#     4  11  21  36  56  85 114 146 187 236 292 342
#     4  10  19  33  55  83 111 145 188 236 287 340
#     4   9  18  33  56  82 110 146 189 236 284 336
#     4  11  20  35  55  83 117 147 185 242 286 341
#     4  11  23  36  58  84 114 150 187 234 297 345
#     4  10  21  37  58  84 115 152 193 236 285 346
#     4  10  21  37  57  84 117 151 194 241 284 337
#
# _framework density 17.451903000000001
#
# number of rings (size 3 to 8) (size 9 to 14) (size 15 to 20)
#    0.000    2.000    3.750    1.500    0.000    2.000 
#    0.000    1.250    0.000    3.000    0.000    0.000 
#    0.000    0.000    0.000    0.000    0.000    0.000 
#
# Total GULP energy -356964.192368 kJ/mol
# GULP energy per Si atom -5577.565506 kJ/mol
# Density = 1.741218 g / cm^3
# Si number density = 17.451903 Si / 1000 Ang^3
#
#
#
# Elastic Constant Matrix: (Units=GPa)
#
#
# Indices 1 2 3 4 5 6 
#
# 1 103.2835 66.0115 25.9008 0.0000 0.0000 0.0000
# 2 66.0115 134.5602 14.8539 0.0000 0.0000 0.0000
# 3 25.9008 14.8539 26.0012 0.0000 0.0000 0.0000
# 4 0.0000 0.0000 0.0000 23.7635 0.0000 0.0000
# 5 0.0000 0.0000 0.0000 0.0000 16.1383 0.0000
# 6 0.0000 0.0000 0.0000 0.0000 0.0000 24.8644
#
#
#
# Elastic Compliance Matrix: (Units=1/GPa)
#
#
# Indices 1 2 3 4 5 6 
#
# 1 0.017644 -0.007167 -0.013481 0.000000 0.000000 0.000000
# 2 -0.007167 0.010843 0.000945 0.000000 0.000000 0.000000
# 3 -0.013481 0.000945 0.051349 0.000000 0.000000 0.000000
# 4 0.000000 0.000000 0.000000 0.042081 0.000000 0.000000
# 5 0.000000 0.000000 0.000000 0.000000 0.061965 0.000000
# 6 0.000000 0.000000 0.000000 0.000000 0.000000 0.040218
#
#
# Mechanical properties :
#
#
# Convention : Reuss Voigt Hill
#
# Bulk Modulus (GPa) = 24.73448 53.04191 38.88819
# Shear Modulus (GPa) = 18.05167 23.42515 20.73841
#
# Velocity S-wave (km/s) = 3.21965 3.66767 3.45094
# Velocity P-wave (km/s) = 5.29388 6.95665 6.18143
#
# Compressibility (1/GPa) = 0.04042940
#
# Stress axis : x y z
#
# Youngs Moduli (GPa) = 56.67777 92.22214 19.47464
#
# Poissons Ratio (x) = 0.66099 0.26254
# Poissons Ratio (y) = 0.40623 -0.01840
# Poissons Ratio (z) = 0.76407 -0.08716
#
# Static dielectric constant tensor:
#      x y z
#    x 1.557890 0.000000 0.000000 
#    y 0.000000 1.614370 0.000000 
#    z 0.000000 0.000000 1.594200 
# 
# From -- ./inp_files/24603.got.cif
#   From: 2010.05.17/outbox.cif.g08.bks.cpg/sg57_13_cif.got.tgz:24603.got - 2010.06.03 13:58:18.
