data_PCOD9435926
_publ_section_title
;
Structure prediction by ZEFSAII (Michael W. Deem and Ramdas Pophale) SiO2 
 PCOD9435926
Probable space group: P B C M
;
_chemical_formula_sum "Si O2"
_cell_formula_units_Z 64
_cell_length_a 15.859670
_cell_length_b 21.494584
_cell_length_c 7.579469
_cell_angle_alpha 90.000000
_cell_angle_beta 90.000000
_cell_angle_gamma 90.000000
_cell_volume 2583.818312
_symmetry_space_group_name_H-M "P B C M"
_symmetry_group_IT_number 57
_symmetry_cell_setting 'orthorhombic'
loop_
_space_group_symop_operation_xyz
x,y,z
-x,-y,1/2+z
x,1/2-y,-z
-x,1/2+y,1/2-z
-x,-y,-z
x,y,1/2-z
-x,1/2+y,z
x,1/2-y,1/2+z
loop_
_atom_site_type_symbol
_atom_site_label
_atom_site_fract_x
_atom_site_fract_y
_atom_site_fract_z
Si Si1 0.900973 0.350863 0.953522
Si Si2 0.264004 0.322467 0.454905
Si Si3 0.078055 0.127792 0.463942
Si Si4 0.539793 0.184590 0.462547
Si Si5 0.878160 0.493522 0.459550
Si Si6 0.587855 0.913291 0.546823
Si Si7 0.688085 0.025031 0.960838
Si Si8 0.719175 0.164597 0.451995
O O1 0.901034 0.330459 0.750000
O O2 0.812292 0.327609 0.033700
O O3 0.993481 0.337662 0.029576
O O4 0.894785 0.426516 0.956076
O O5 0.274650 0.250000 0.500000
O O6 0.281406 0.331401 0.250000
O O7 0.166936 0.341579 0.489778
O O8 0.331214 0.367240 0.548767
O O9 0.073962 0.125763 0.250000
O O10 0.076238 0.055556 0.525769
O O11 0.495170 0.250000 0.500000
O O12 0.545334 0.178272 0.250000
O O13 0.488294 0.125985 0.533213
O O14 0.633977 0.188687 0.539511
O O15 0.893308 0.486348 0.250000
O O16 0.778877 0.507534 0.482720
O O17 0.565964 0.926400 0.750000
O O18 0.616875 0.978924 0.469044
O O19 0.677603 0.035276 0.750000
O O20 0.699018 0.091082 0.050441
O O21 0.723981 0.187103 0.250000
#
# Coordination Sequence:
#
# PCOD9435926 Si02
#       8
#     8   8   8   8   8   8   8   8
#     4   9  18  31  52  78 110 147 183 225 271 319
#     4  12  25  39  57  80 109 146 185 232 282 335
#     4  10  19  34  53  76 108 148 186 225 272 322
#     4  10  22  39  60  81 107 144 186 234 281 328
#     4   9  16  28  48  75 110 146 179 219 267 321
#     4  10  20  38  60  83 113 145 180 224 279 338
#     4   9  17  31  53  81 113 149 180 217 275 336
#     4   9  19  36  54  81 117 148 184 231 278 324
#
# _framework density 24.769545999999998
#
# number of rings (size 3 to 8) (size 9 to 14) (size 15 to 20)
#    0.000    2.250    1.250    1.875    0.000    4.000 
#    0.000    0.625    0.000    1.500    0.000    0.000 
#    0.000    0.000    0.000    0.000    0.000    0.000 
#
# Total GULP energy -357518.038651 kJ/mol
# GULP energy per Si atom -5586.219354 kJ/mol
# Density = 2.471317 g / cm^3
# Si number density = 24.769546 Si / 1000 Ang^3
#
#
#
# Elastic Constant Matrix: (Units=GPa)
#
#
# Indices 1 2 3 4 5 6 
#
# 1 114.0165 16.5711 4.6154 0.0000 0.0000 0.0000
# 2 16.5711 65.3797 -8.8954 0.0000 0.0000 0.0000
# 3 4.6154 -8.8954 69.4830 0.0000 0.0000 0.0000
# 4 0.0000 0.0000 0.0000 11.7326 0.0000 0.0000
# 5 0.0000 0.0000 0.0000 0.0000 5.7553 0.0000
# 6 0.0000 0.0000 0.0000 0.0000 0.0000 -6.0337
#
#
#
# Elastic Compliance Matrix: (Units=1/GPa)
#
#
# Indices 1 2 3 4 5 6 
#
# 1 0.009164 -0.002448 -0.000922 0.000000 0.000000 0.000000
# 2 -0.002448 0.016220 0.002239 0.000000 0.000000 0.000000
# 3 -0.000922 0.002239 0.014740 0.000000 0.000000 0.000000
# 4 0.000000 0.000000 0.000000 0.085233 0.000000 0.000000
# 5 0.000000 0.000000 0.000000 0.000000 0.173754 0.000000
# 6 0.000000 0.000000 0.000000 0.000000 0.000000 -0.165736
#
#
# Mechanical properties :
#
#
# Convention : Reuss Voigt Hill
#
# Bulk Modulus (GPa) = 26.41163 30.38458 28.39810
# Shear Modulus (GPa) = 33.72502 18.06337 25.89419
#
# Velocity S-wave (km/s) = 3.69392 2.70341 3.23678
# Velocity P-wave (km/s) = 5.37397 4.69447 5.04567
#
# Compressibility (1/GPa) = 0.03786211
#
# Stress axis : x y z
#
# Youngs Moduli (GPa) = 109.12506 61.65064 67.84292
#
# Poissons Ratio (x) = 0.15093 0.06256
# Poissons Ratio (y) = 0.26715 -0.15191
# Poissons Ratio (z) = 0.10063 -0.13805
#
# Static dielectric constant tensor:
#      x y z
#    x 2.025450 0.000000 0.000000 
#    y 0.000000 1.964770 0.000000 
#    z 0.000000 0.000000 1.906060 
# 
# From -- ./inp_files/5583.got.cif
#   From: 2010.05.17/outbox.cif.g08.bks.cpg/sg57_3_cif.got.tgz:5583.got - 2010.06.03 13:58:18.
