data_PCOD9435582
_publ_section_title
;
Structure prediction by ZEFSAII (Michael W. Deem and Ramdas Pophale) SiO2 
 PCOD9435582
Probable space group: P B C M
;
_chemical_formula_sum "Si O2"
_cell_formula_units_Z 60
_cell_length_a 19.220069
_cell_length_b 15.048295
_cell_length_c 9.272699
_cell_angle_alpha 90.000000
_cell_angle_beta 90.000000
_cell_angle_gamma 90.000000
_cell_volume 2681.935946
_symmetry_space_group_name_H-M "P B C M"
_symmetry_group_IT_number 57
_symmetry_cell_setting 'orthorhombic'
loop_
_space_group_symop_operation_xyz
x,y,z
-x,-y,1/2+z
x,1/2-y,-z
-x,1/2+y,1/2-z
-x,-y,-z
x,y,1/2-z
-x,1/2+y,z
x,1/2-y,1/2+z
loop_
_atom_site_type_symbol
_atom_site_label
_atom_site_fract_x
_atom_site_fract_y
_atom_site_fract_z
Si Si1 0.968715 0.837967 0.420744
Si Si2 0.507200 0.657966 0.079221
Si Si3 0.159669 0.465979 0.083456
Si Si4 0.695514 0.225407 0.750000
Si Si5 0.342451 0.625853 0.467004
Si Si6 0.254085 0.163702 0.079916
Si Si7 0.375378 0.425218 0.418419
Si Si8 0.116683 0.837319 0.921299
O O1 0.939109 0.750000 0.500000
O O2 0.979859 0.820565 0.250000
O O3 0.916683 0.921041 0.430444
O O4 0.041607 0.852908 0.502815
O O5 0.522495 0.659778 0.250000
O O6 0.526000 0.750000 0.000000
O O7 0.424303 0.647882 0.061024
O O8 0.550499 0.582043 0.997481
O O9 0.182789 0.447547 0.250000
O O10 0.157477 0.571129 0.061357
O O11 0.205878 0.418047 0.965388
O O12 0.679381 0.150927 0.874018
O O13 0.699597 0.305973 0.630313
O O14 0.339903 0.521856 0.430986
O O15 0.258933 0.176076 0.250000
O O16 0.224887 0.250000 0.000000
O O17 0.327467 0.142816 0.005717
O O18 0.381897 0.402830 0.250000
O O19 0.109470 0.820493 0.750000
O O20 0.146082 0.750000 0.000000
#
# Coordination Sequence:
#
# PCOD9435582 Si02
#       8
#     8   8   8   4   8   8   8   8
#     4  10  19  32  54  90 127 163 203 248 303 362
#     4  12  22  38  59  89 124 159 198 242 301 367
#     4  10  22  40  64  88 120 162 210 255 302 357
#     4  10  20  38  64  90 124 160 196 238 302 356
#     4  11  21  39  63  90 124 159 195 245 298 364
#     4  12  27  48  69  91 118 156 200 253 303 355
#     4  12  26  41  63  89 121 156 202 248 306 358
#     4  10  20  35  58  89 131 166 201 250 303 355
#
# _framework density 22.371898000000002
#
# number of rings (size 3 to 8) (size 9 to 14) (size 15 to 20)
#    0.000    1.067    2.667    5.200    2.800    3.200 
#    0.000    0.000    2.933    0.000    0.000    0.000 
#    0.000    0.000    0.000    0.000    0.000    0.000 
#
# Total GULP energy -334595.085713 kJ/mol
# GULP energy per Si atom -5576.584762 kJ/mol
# Density = 2.232098 g / cm^3
# Si number density = 22.371898 Si / 1000 Ang^3
#
#
#
# Elastic Constant Matrix: (Units=GPa)
#
#
# Indices 1 2 3 4 5 6 
#
# 1 51.7102 22.8102 31.8194 0.0000 0.0000 0.0000
# 2 22.8102 103.0104 50.0617 0.0000 0.0000 0.0000
# 3 31.8194 50.0617 238.0781 0.0000 0.0000 0.0000
# 4 0.0000 0.0000 0.0000 35.5635 0.0000 0.0000
# 5 0.0000 0.0000 0.0000 0.0000 34.6478 0.0000
# 6 0.0000 0.0000 0.0000 0.0000 0.0000 24.0797
#
#
#
# Elastic Compliance Matrix: (Units=1/GPa)
#
#
# Indices 1 2 3 4 5 6 
#
# 1 0.022397 -0.003904 -0.002173 0.000000 0.000000 0.000000
# 2 -0.003904 0.011493 -0.001895 0.000000 0.000000 0.000000
# 3 -0.002173 -0.001895 0.004889 0.000000 0.000000 0.000000
# 4 0.000000 0.000000 0.000000 0.028119 0.000000 0.000000
# 5 0.000000 0.000000 0.000000 0.000000 0.028862 0.000000
# 6 0.000000 0.000000 0.000000 0.000000 0.000000 0.041529
#
#
# Mechanical properties :
#
#
# Convention : Reuss Voigt Hill
#
# Bulk Modulus (GPa) = 43.78842 66.90902 55.34872
# Shear Modulus (GPa) = 31.08603 38.06536 34.57570
#
# Velocity S-wave (km/s) = 3.73166 4.12938 3.93555
# Velocity P-wave (km/s) = 6.17920 7.26004 6.74132
#
# Compressibility (1/GPa) = 0.02283709
#
# Stress axis : x y z
#
# Youngs Moduli (GPa) = 44.64800 87.00865 204.53524
#
# Poissons Ratio (x) = 0.33966 0.44437
# Poissons Ratio (y) = 0.17429 0.38759
# Poissons Ratio (z) = 0.09700 0.16488
#
# Static dielectric constant tensor:
#      x y z
#    x 1.939910 0.000000 0.000000 
#    y 0.000000 1.862000 0.000000 
#    z 0.000000 0.000000 1.719020 
# 
# From -- ./inp_files/9229.got.cif
#   From: 2010.05.17/outbox.cif.g08.bks.cpg/sg57_5_cif.got.tgz:9229.got - 2010.06.03 13:58:18.
