data_PCOD9435289
_publ_section_title
;
Structure prediction by ZEFSAII (Michael W. Deem and Ramdas Pophale) SiO2 
 PCOD9435289
Probable space group: P B C M
;
_chemical_formula_sum "Si O2"
_cell_formula_units_Z 44
_cell_length_a 27.751426
_cell_length_b 9.091931
_cell_length_c 9.399046
_cell_angle_alpha 90.000000
_cell_angle_beta 90.000000
_cell_angle_gamma 90.000000
_cell_volume 2371.511366
_symmetry_space_group_name_H-M "P B C M"
_symmetry_group_IT_number 57
_symmetry_cell_setting 'orthorhombic'
loop_
_space_group_symop_operation_xyz
x,y,z
-x,-y,1/2+z
x,1/2-y,-z
-x,1/2+y,1/2-z
-x,-y,-z
x,y,1/2-z
-x,1/2+y,z
x,1/2-y,1/2+z
loop_
_atom_site_type_symbol
_atom_site_label
_atom_site_fract_x
_atom_site_fract_y
_atom_site_fract_z
Si Si1 0.041436 0.093569 0.422280
Si Si2 0.502590 0.250000 0.000000
Si Si3 0.652755 0.092880 0.581011
Si Si4 0.569240 0.507436 0.597946
Si Si5 0.136595 0.904856 0.419016
Si Si6 0.241875 0.594570 0.580275
O O1 0.042097 0.250000 0.500000
O O2 0.033901 0.104590 0.250000
O O3 0.092265 0.011840 0.447972
O O4 0.000000 0.000000 0.500000
O O5 0.467535 0.357745 0.086043
O O6 0.537211 0.140060 0.085307
O O7 0.649320 0.250000 0.500000
O O8 0.648806 0.115956 0.750000
O O9 0.705819 0.026245 0.547671
O O10 0.608682 0.995925 0.525339
O O11 0.594520 0.509270 0.750000
O O12 0.131105 0.750000 0.500000
O O13 0.136033 0.874199 0.250000
O O14 0.189508 0.972279 0.454726
O O15 0.241943 0.750000 0.500000
O O16 0.242196 0.619159 0.750000
#
# Coordination Sequence:
#
# PCOD9435289 Si02
#       6
#     8   4   8   8   8   8
#     4  11  23  38  57  82 114 152 191 234 279 331
#     4  10  24  38  56  80 106 140 176 218 268 322
#     4  10  19  31  52  80 109 141 178 223 272 319
#     4  11  22  38  58  80 107 139 178 221 268 326
#     4   9  18  33  55  81 109 143 182 226 275 325
#     4   8  15  29  49  76 106 138 176 222 269 319
#
# _framework density 18.553567999999999
#
# number of rings (size 3 to 8) (size 9 to 14) (size 15 to 20)
#    0.000    2.182    0.909    2.182    0.000    7.273 
#    0.000    0.000    2.000    0.000    0.000    0.000 
#    0.000    0.000    0.000    0.000    0.000    0.000 
#
# Total GULP energy -245124.973751 kJ/mol
# GULP energy per Si atom -5571.022131 kJ/mol
# Density = 1.851134 g / cm^3
# Si number density = 18.553568 Si / 1000 Ang^3
#
#
#
# Elastic Constant Matrix: (Units=GPa)
#
#
# Indices 1 2 3 4 5 6 
#
# 1 168.2709 49.0640 56.6563 0.0000 0.0000 0.0000
# 2 49.0640 75.8236 30.0447 0.0000 0.0000 0.0000
# 3 56.6563 30.0447 78.5259 0.0000 0.0000 0.0000
# 4 0.0000 0.0000 0.0000 10.9954 0.0000 0.0000
# 5 0.0000 0.0000 0.0000 0.0000 18.0847 0.0000
# 6 0.0000 0.0000 0.0000 0.0000 0.0000 16.5598
#
#
#
# Elastic Compliance Matrix: (Units=1/GPa)
#
#
# Indices 1 2 3 4 5 6 
#
# 1 0.008641 -0.003679 -0.004827 0.000000 0.000000 0.000000
# 2 -0.003679 0.017111 -0.003893 0.000000 0.000000 0.000000
# 3 -0.004827 -0.003893 0.017707 0.000000 0.000000 0.000000
# 4 0.000000 0.000000 0.000000 0.090947 0.000000 0.000000
# 5 0.000000 0.000000 0.000000 0.000000 0.055296 0.000000
# 6 0.000000 0.000000 0.000000 0.000000 0.000000 0.060387
#
#
# Mechanical properties :
#
#
# Convention : Reuss Voigt Hill
#
# Bulk Modulus (GPa) = 53.58428 66.01671 59.80049
# Shear Modulus (GPa) = 17.78695 21.58501 19.68598
#
# Velocity S-wave (km/s) = 3.09962 3.41455 3.26089
# Velocity P-wave (km/s) = 6.46171 7.15573 6.81756
#
# Compressibility (1/GPa) = 0.01866219
#
# Stress axis : x y z
#
# Youngs Moduli (GPa) = 115.73403 58.44070 56.47636
#
# Poissons Ratio (x) = 0.21498 0.27259
# Poissons Ratio (y) = 0.42573 0.21986
# Poissons Ratio (z) = 0.55861 0.22750
#
# Static dielectric constant tensor:
#      x y z
#    x 1.692270 0.000000 0.000000 
#    y 0.000000 1.616270 0.000000 
#    z 0.000000 0.000000 1.661970 
# 
# From -- ./inp_files/9853.got.cif
#   From: 2010.05.17/outbox.cif.g08.bks.cpg/sg57_5_cif.got.tgz:9853.got - 2010.06.03 13:58:18.
